AV-unprocessed.smi:2993|AV-procd|sdf|11403|dock10
  -GOLD-   2272016323D 1   1.00000     0.00000
 Structure written by MMmdl.
 34 35  0  0  0  0  0  0  0  0  1 V2000
  151.4027  136.6767  156.3359 C   0  0  0  0  0  0  0  0  0  0  0  0
  151.1871  138.0847  155.8599 C   0  0  0  0  0  0  0  0  0  0  0  0
  151.2074  138.3355  154.5618 N   0  0  0  0  0  0  0  0  0  0  0  0
  150.9934  139.7111  154.4328 O   0  0  0  0  0  0  0  0  0  0  0  0
  150.8537  140.2415  155.6742 C   0  0  0  0  0  0  0  0  0  0  0  0
  150.6237  141.7126  155.7540 C   0  0  0  0  0  0  0  0  0  0  0  0
  150.9622  139.2656  156.6262 C   0  0  0  0  0  0  0  0  0  0  0  0
  150.8748  139.4087  158.1242 C   0  0  0  0  0  0  0  0  0  0  0  0
  151.9256  140.4096  158.6026 C   0  0  0  0  0  0  0  0  0  0  0  0
  153.1195  140.1927  158.3973 O   0  0  0  0  0  0  0  0  0  0  0  0
  151.4660  141.4925  159.2486 N   0  0  0  0  0  0  0  0  0  0  0  0
  152.2901  142.5409  159.8390 C   0  0  1  0  0  0  0  0  0  0  0  0
  153.4741  141.8848  160.5621 C   0  0  0  0  0  0  0  0  0  0  0  0
  152.7755  143.5637  158.8255 C   0  0  0  0  0  0  0  0  0  0  0  0
  152.2838  144.9910  158.8653 C   0  0  0  0  0  0  0  0  0  0  0  0
  151.8712  144.0804  157.7315 C   0  0  0  0  0  0  0  0  0  0  0  0
  152.4474  136.3850  156.2265 H   0  0  0  0  0  0  0  0  0  0  0  0
  150.7970  135.9704  155.7677 H   0  0  0  0  0  0  0  0  0  0  0  0
  151.1373  136.5645  157.3866 H   0  0  0  0  0  0  0  0  0  0  0  0
  151.2318  142.1554  156.5432 H   0  0  0  0  0  0  0  0  0  0  0  0
  149.5776  141.9273  155.9721 H   0  0  0  0  0  0  0  0  0  0  0  0
  150.8826  142.2024  154.8150 H   0  0  0  0  0  0  0  0  0  0  0  0
  149.8883  139.7580  158.4317 H   0  0  0  0  0  0  0  0  0  0  0  0
  151.0246  138.4545  158.6301 H   0  0  0  0  0  0  0  0  0  0  0  0
  150.4672  141.5822  159.3647 H   0  0  0  0  0  0  0  0  0  0  0  0
  151.6992  143.0648  160.5931 H   0  0  0  0  0  0  0  0  0  0  0  0
  154.0886  142.6313  161.0662 H   0  0  0  0  0  0  0  0  0  0  0  0
  154.1149  141.3443  159.8647 H   0  0  0  0  0  0  0  0  0  0  0  0
  153.1316  141.1776  161.3186 H   0  0  0  0  0  0  0  0  0  0  0  0
  153.8221  143.4389  158.5528 H   0  0  0  0  0  0  0  0  0  0  0  0
  151.5263  145.2467  159.6037 H   0  0  0  0  0  0  0  0  0  0  0  0
  153.0043  145.7761  158.6448 H   0  0  0  0  0  0  0  0  0  0  0  0
  152.3178  144.2556  156.7549 H   0  0  0  0  0  0  0  0  0  0  0  0
  150.8391  143.7359  157.7171 H   0  0  0  0  0  0  0  0  0  0  0  0
  1  2  1  0  0  0  0
  1 17  1  0  0  0  0
  1 18  1  0  0  0  0
  1 19  1  0  0  0  0
  2  7  1  0  0  0  0
  2  3  2  0  0  0  0
  3  4  1  0  0  0  0
  4  5  1  0  0  0  0
  5  6  1  0  0  0  0
  5  7  2  0  0  0  0
  6 20  1  0  0  0  0
  6 21  1  0  0  0  0
  6 22  1  0  0  0  0
  7  8  1  0  0  0  0
  8  9  1  0  0  0  0
  8 23  1  0  0  0  0
  8 24  1  0  0  0  0
  9 10  2  0  0  0  0
  9 11  1  0  0  0  0
 11 12  1  0  0  0  0
 11 25  1  0  0  0  0
 12 13  1  0  0  0  0
 12 14  1  0  0  0  0
 12 26  1  0  0  0  0
 13 27  1  0  0  0  0
 13 28  1  0  0  0  0
 13 29  1  0  0  0  0
 14 16  1  0  0  0  0
 14 15  1  0  0  0  0
 14 30  1  0  0  0  0
 15 16  1  0  0  0  0
 15 31  1  0  0  0  0
 15 32  1  0  0  0  0
 16 33  1  0  0  0  0
 16 34  1  0  0  0  0
M  END
> <s_m_source_file>
AV-unprocessed.smi

> <i_m_source_file_index>
2993

> <i_lp_mmshare_version>
43012

> <i_f3d_flags>
0

> <s_epik_input>
W0NIM11jMW5vYyhbQ0gzXSljMVtDSDJdQyg9TylbTkhdW0NASF0oW0NIM10pW0NIXTJbQ0gyXVtDSDJdMg==

> <s_epik_cmdline>
J2VwaWtfcHl0aG9uJywgJy1waCcsICc3LjAnLCAnLXRuJywgJzgnLCAnLW1hJywgJzIwMCcsICctbWV0YWxfYmluZGluZycsICctaW1hZScsICc8aW5maWxlLm1hZT4nLCAnLW9tYWUnLCAnPG91dGZpbGUubWFlPic=

> <r_lp_tautomer_probability>
1

> <r_epik_Ionization_Penalty>
1.92533e-08

> <r_epik_Ionization_Penalty_Charging>
0

> <r_epik_Ionization_Penalty_Neutral>
1.92533e-08

> <r_epik_State_Penalty>
-0

> <r_epik_Charging_Adjusted_Penalty>
0

> <i_epik_Tot_Q>
0

> <i_epik_Tot_abs_Q>
0

> <r_epik_Metal_State_Penalty>
-0

> <b_epik_Metal_Only>
0

> <s_lp_Force_Field>
OPLS_2005

> <r_lp_Energy>
6.29181

> <b_lp_Chiralities_Consistent>
1

> <s_lp_Variant>
AV-unprocessed.smi:2993-2

> <Gold.Version>
5.8.1

> <Gold.Id.Protein>
6NUR|6NUR_protein|mol2

> <Gold.PLP.Fitness>
40.0013

> <Gold.PLP.PLP>
-35.4652

> <Gold.PLP.part.hbond>
-2.0000

> <Gold.PLP.part.metal>
0.0000

> <Gold.PLP.part.buried>
-4.7050

> <Gold.PLP.part.nonpolar>
-29.2795

> <Gold.PLP.part.repulsive>
0.3914

> <Gold.PLP.ligand.clash>
0.0000

> <Gold.PLP.ligand.torsion>
1.1547

> <Gold.PLP.Chemscore.Hbond>
1.9280

> <Gold.PLP.Chemscore.CHOScore>
0.0000

> <Gold.PLP.Chemscore.Metal>
0.0000

> <Gold.Chemscore.Hbonds>
donor molecule, donor type, donor heavy atom, donor atom, acceptor molecule, acceptor atom, score
      P1  H  7989  7998       L1     4  1.00
      P1  H  7997  8010       L1    10  0.93

> <Gold.PLP.Chemscore.Internal.Correction>
1.0614

> <Gold.Rescore>
     Score         DG    S(hbond)    S(metal)    S(lipo)     H(rot)  DE(clash)    DE(int)     intcor
     16.33     -18.79       1.83        0.00      93.52       1.46       0.05       2.40       ----

> <Gold.Chemscore.Fitness>
16.3335

> <Gold.Chemscore.DG>
-18.7894

> <Gold.Chemscore.ZeroCoef>
-5.4800

> <Gold.Chemscore.Hbond>
1.8268

> <Gold.Chemscore.Metal>
0.0000

> <Gold.Chemscore.Lipo>
93.5170

> <Gold.Chemscore.Internal_Hbond>
0.0000

> <Gold.Chemscore.DEClash>
0.0512

> <Gold.Chemscore.DEInternal>
2.4047

> <Gold.Chemscore.Rot>
1.4584

> <Gold.Chemscore.Internal.Correction>
   9.000000E+99

> <Gold.Chemscore.Hbonds>
donor molecule, donor type, donor heavy atom, donor atom, acceptor molecule, acceptor atom, score
      P1  H  7989  7998       L1     4  0.60
      P1  H  7997  8010       L1    10  0.85

> <Gold.Chemscore.Hbond.Weighted>
-6.1014

> <Gold.Chemscore.Metal.Weighted>
-0.0000

> <Gold.Chemscore.Lipo.Weighted>
-10.9415

> <Gold.Chemscore.Internal_Hbond.Weighted>
0.0000

> <Gold.Chemscore.DEClash.Weighted>
0.0512

> <Gold.Chemscore.DEInternal.Weighted>
2.4047

> <Gold.Chemscore.Rot.Weighted>
3.7334

> <Gold.Chemscore.Internal.Correction.Weighted>
   9.000000E+99

> <Gold.Protein.RotatedTorsions>
[ 6907 6896 6895 6894 ] final  159.14 input  -60.11 | X-H torsion
[ 7974 7965 7964 7962 ] final  -92.58 input  175.53 | X-H torsion
[ 8008 7997 7996 7995 ] final   26.84 input   59.86 | X-H torsion
[ 10167 10162 10161 10158 ] final  108.87 input  -65.29 | X-H torsion
[ 10718 10713 10712 10709 ] final  176.90 input   66.30 | X-H torsion
[ 10763 10752 10751 10750 ] final   62.28 input  -60.55 | X-H torsion
[ 11005 11000 10999 10996 ] final  -86.52 input  -57.11 | X-H torsion

> <Gold.Protein.ActiveResidues>
 VAL166  LYS551  ARG553  GLY616  TRP617  ASP618  TYR619  PRO620  LYS621  CYS622 
 ASP623  PHE694  ASN695  SER759  ASP760  ASP761  ALA762  ILE779  LEU786  VAL792 
 PHE793  MET794  SER795  GLU796  ALA797  LYS798  CYS799  TRP800  GLU811  SER814 

> <Gold.Protein.RotatedAtoms>
  151.9900  133.3787  159.4140 H   0  0  0  0  0  0  0  0  0  0  0  0  # atno 6907 bound_to 6896
  150.6923  134.3947  159.5101 H   0  0  0  0  0  0  0  0  0  0  0  0  # atno 6908 bound_to 6896
  152.1678  134.8858  160.0587 H   0  0  0  0  0  0  0  0  0  0  0  0  # atno 6909 bound_to 6896
  145.3980  140.9534  143.2303 H   0  0  0  0  0  0  0  0  0  0  0  0  # atno 7974 bound_to 7965
  155.0336  140.3161  155.4749 H   0  0  0  0  0  0  0  0  0  0  0  0  # atno 8008 bound_to 7997
  156.2869  140.2176  156.5400 H   0  0  0  0  0  0  0  0  0  0  0  0  # atno 8009 bound_to 7997
  154.7350  140.0478  157.0748 H   0  0  0  0  0  0  0  0  0  0  0  0  # atno 8010 bound_to 7997
  139.6812  144.7118  151.1513 H   0  0  0  0  0  0  0  0  0  0  0  0  # atno 10167 bound_to 10162
  156.9133  130.9917  151.3017 H   0  0  0  0  0  0  0  0  0  0  0  0  # atno 10718 bound_to 10713
  152.9977  135.5470  154.6168 H   0  0  0  0  0  0  0  0  0  0  0  0  # atno 10763 bound_to 10752
  154.5476  135.2824  155.1040 H   0  0  0  0  0  0  0  0  0  0  0  0  # atno 10764 bound_to 10752
  154.2293  135.6436  153.5222 H   0  0  0  0  0  0  0  0  0  0  0  0  # atno 10765 bound_to 10752
  141.1629  133.7459  156.9173 H   0  0  0  0  0  0  0  0  0  0  0  0  # atno 11005 bound_to 11000
  144.8394  139.5497  143.6907 LP  0  0  0  0  0  0  0  0  0  0  0  0  # atno 17320 bound_to 7965
  146.2766  139.6768  142.9259 LP  0  0  0  0  0  0  0  0  0  0  0  0  # atno 17321 bound_to 7965
  140.7652  143.5697  150.9009 LP  0  0  0  0  0  0  0  0  0  0  0  0  # atno 17342 bound_to 10162
  139.9369  143.6427  152.3063 LP  0  0  0  0  0  0  0  0  0  0  0  0  # atno 17343 bound_to 10162
  157.5954  130.8474  149.8721 LP  0  0  0  0  0  0  0  0  0  0  0  0  # atno 17370 bound_to 10713
  156.0526  130.3714  150.1166 LP  0  0  0  0  0  0  0  0  0  0  0  0  # atno 17371 bound_to 10713
  140.1475  134.9252  157.2549 LP  0  0  0  0  0  0  0  0  0  0  0  0  # atno 17394 bound_to 11000
  140.2762  134.3403  155.7357 LP  0  0  0  0  0  0  0  0  0  0  0  0  # atno 17395 bound_to 11000

$$$$
