#       Name:                AV-unprocessed.smi:1056
#       Creating user name   scv26
#       Creation time:       Fri Mar 27 03:15:16 2020


#       File generated by GOLD software.
#

@<TRIPOS>MOLECULE
AV-unprocessed.smi:1056
    50    52     1
SMALL
NO_CHARGES


@<TRIPOS>ATOM
      1 ****        -3.3873   3.4887  -2.2522 C.3            1 S1                 0.0000
      2 ****        -2.9047   2.4383  -1.2662 C.ar           1 S1                 0.0000
      3 ****        -2.8654   2.7701   0.1067 C.ar           1 S1                 0.0000
      4 ****        -2.4223   1.7877   0.9843 C.ar           1 S1                 0.0000
      5 ****        -2.2745   1.8043   2.3723 N.pl3          1 S1                 1.0000
      6 ****        -1.8043   0.5983   2.7931 C.2            1 S1                 0.0000
      7 ****        -1.6436  -0.1883   1.6937 N.pl3          1 S1                 0.0000
      8 ****        -1.1700  -1.5798   1.6014 C.3            1 S1                 0.0000
      9 ****         0.3678  -1.7222   1.6262 C.3            1 S1                 0.0000
     10 ****         0.8518  -1.2215   2.8581 O.3            1 S1                 0.0000
     11 ****         1.0709  -0.9770   0.4699 C.3            1 S1                 0.0000
     12 ****         2.5294  -1.2518   0.3982 N.4            1 S1                 1.0000
     13 ****         3.2722  -0.1963  -0.3384 C.3            1 S1                 0.0000
     14 ****         4.7889  -0.3529  -0.1173 C.3            1 S1                 0.0000
     15 ****         5.1915  -1.7500  -0.3155 N.pl3          1 S1                -1.0000
     16 ****         4.3836  -2.8513  -0.2168 C.2            1 S1                 0.0000
     17 ****         4.7642  -4.0196  -0.2404 O.2            1 S1                 0.0000
     18 ****         2.8528  -2.6137  -0.1178 C.3            1 S1                 0.0000
     19 ****        -2.0234   0.5111   0.5408 C.ar           1 S1                 0.0000
     20 ****        -2.0561   0.1691  -0.8097 C.ar           1 S1                 0.0000
     21 ****        -2.5048   1.1542  -1.7183 C.ar           1 S1                 0.0000
     22 ****        -2.5535   0.8075  -3.1967 C.3            1 S1                 0.0000
     23 ****        -3.7011   4.4001  -1.7425 H              1 S1                 0.0000
     24 ****        -4.2390   3.1177  -2.8226 H              1 S1                 0.0000
     25 ****        -2.5916   3.7529  -2.9491 H              1 S1                 0.0000
     26 ****        -3.1697   3.7453   0.4584 H              1 S1                 0.0000
     27 ****        -1.5929   0.3163   3.8148 H              1 S1                 0.0000
     28 ****        -1.6033  -2.1207   2.4439 H              1 S1                 0.0000
     29 ****        -1.5851  -2.0440   0.7073 H              1 S1                 0.0000
     30 ****         0.5937  -2.7868   1.5885 H              1 S1                 0.0000
     31 ****         1.7596  -1.4672   2.9533 H              1 S1                 0.0000
     32 ****         0.6163  -1.2424  -0.4854 H              1 S1                 0.0000
     33 ****         0.9097   0.0945   0.5969 H              1 S1                 0.0000
     34 ****         3.0310  -0.2550  -1.4013 H              1 S1                 0.0000
     35 ****         2.9686   0.7947   0.0010 H              1 S1                 0.0000
     36 ****         5.3226   0.3245  -0.7832 H              1 S1                 0.0000
     37 ****         5.0266  -0.0240   0.8946 H              1 S1                 0.0000
     38 ****         2.4287  -3.3791   0.5310 H              1 S1                 0.0000
     39 ****         2.4167  -2.7504  -1.1084 H              1 S1                 0.0000
     40 ****        -1.7542  -0.8067  -1.1594 H              1 S1                 0.0000
     41 ****        -2.1826  -0.2009  -3.3828 H              1 S1                 0.0000
     42 ****        -1.9400   1.4992  -3.7746 H              1 S1                 0.0000
     43 ****        -3.5776   0.8593  -3.5673 H              1 S1                 0.0000
     44 ****         2.8825  -1.2106   1.3433 H              1 S1                 0.0000
     45 ****        -2.4823   2.5786   2.9903 H              1 S1                 0.0000
     46 ****         0.3187  -1.6086   3.6104 LP             1 S1                 0.0000
     47 ****         0.7708  -0.2249   2.8703 LP             1 S1                 0.0000
     48 ****         6.1508  -1.9141  -0.5454 LP             1 S1                 0.0000
     49 ****         5.7376  -4.2265  -0.3386 LP             1 S1                 0.0000
     50 ****         4.1005  -4.7634  -0.1615 LP             1 S1                 0.0000
@<TRIPOS>BOND
    1    1    2 1     
    2    1   23 1     
    3    1   24 1     
    4    1   25 1     
    5    2   21 ar    
    6    2    3 ar    
    7    3    4 ar    
    8    3   26 1     
    9    4   19 ar    
   10    4    5 1     
   11    5    6 2     
   12    5   45 1     
   13    6    7 1     
   14    6   27 1     
   15    7    8 1     
   16    7   19 1     
   17    8    9 1     
   18    8   28 1     
   19    8   29 1     
   20    9   10 1     
   21    9   11 1     
   22    9   30 1     
   23   10   31 1     
   24   11   12 1     
   25   11   32 1     
   26   11   33 1     
   27   12   18 1     
   28   12   13 1     
   29   12   44 1     
   30   13   14 1     
   31   13   34 1     
   32   13   35 1     
   33   14   15 1     
   34   14   36 1     
   35   14   37 1     
   36   15   16 1     
   37   16   17 2     
   38   16   18 1     
   39   18   38 1     
   40   18   39 1     
   41   19   20 ar    
   42   20   21 ar    
   43   20   40 1     
   44   21   22 1     
   45   22   41 1     
   46   22   42 1     
   47   22   43 1     
   48   10   46 1     
   49   10   47 1     
   50   15   48 1     
   51   17   49 1     
   52   17   50 1     
@<TRIPOS>SUBSTRUCTURE
      1 S1             1
@<TRIPOS>SET
LONE_PAIRS      STATIC     ATOMS    <user>   **** ""
5 46 47 48 49 50
DONOR_HYDROGENS      STATIC     ATOMS    <user>   **** ""
3 45 31 44
ATOM$BLUE        STATIC     ATOMS    COLORGROUP SYSTEM
5 46 47 48 49 50
ATOM$RED        STATIC     ATOMS    COLORGROUP SYSTEM
3 45 31 44
