AV-unprocessed.smi:3271|AV-procd|sdf|12516|dock2
  -GOLD-   2272018423D 1   1.00000     0.00000
 Structure written by MMmdl.
 41 41  0  0  0  0  0  0  0  0  1 V2000
  146.2621  142.7328  154.4210 C   0  0  0  0  0  0  0  0  0  0  0  0
  147.3608  142.0471  155.2486 C   0  0  0  0  0  0  0  0  0  0  0  0
  148.5522  141.5202  154.4165 C   0  0  0  0  0  0  0  0  0  0  0  0
  148.2051  140.1579  153.7734 C   0  0  0  0  0  0  0  0  0  0  0  0
  147.0616  140.2082  152.7481 C   0  0  0  0  0  0  0  0  0  0  0  0
  149.8317  141.4346  155.2665 C   0  0  0  0  0  0  0  0  0  0  0  0
  150.5613  140.4457  155.1959 O   0  0  0  0  0  0  0  0  0  0  0  0
  150.0895  142.4841  156.0609 N   0  0  0  0  0  0  0  0  0  0  0  0
  151.2505  142.6183  156.9376 C   0  0  0  0  0  0  0  0  0  0  0  0
  151.0883  143.6956  158.0443 C   0  0  1  0  0  0  0  0  0  0  0  0
  151.5534  145.0655  157.5210 C   0  0  0  0  0  0  0  0  0  0  0  0
  149.6992  143.8493  158.2642 O   0  0  0  0  0  0  0  0  0  0  0  0
  151.8293  143.3589  159.3233 C   0  0  0  0  0  0  0  0  0  0  0  0
  151.8458  144.0831  160.5518 C   0  0  0  0  0  0  0  0  0  0  0  0
  152.5886  143.5085  161.4833 N   0  0  0  0  0  0  0  0  0  0  0  0
  153.0854  142.4087  160.8834 N   0  0  0  0  0  0  0  0  0  0  0  0
  153.9568  141.5226  161.6246 C   0  0  0  0  0  0  0  0  0  0  0  0
  152.6528  142.2971  159.5805 C   0  0  0  0  0  0  0  0  0  0  0  0
  145.4228  143.0166  155.0563 H   0  0  0  0  0  0  0  0  0  0  0  0
  145.8805  142.0675  153.6462 H   0  0  0  0  0  0  0  0  0  0  0  0
  146.6258  143.6396  153.9372 H   0  0  0  0  0  0  0  0  0  0  0  0
  147.7166  142.7350  156.0170 H   0  0  0  0  0  0  0  0  0  0  0  0
  146.9073  141.2133  155.7857 H   0  0  0  0  0  0  0  0  0  0  0  0
  148.7266  142.2283  153.6042 H   0  0  0  0  0  0  0  0  0  0  0  0
  149.0908  139.7279  153.3036 H   0  0  0  0  0  0  0  0  0  0  0  0
  147.9198  139.4600  154.5614 H   0  0  0  0  0  0  0  0  0  0  0  0
  146.7967  139.2043  152.4159 H   0  0  0  0  0  0  0  0  0  0  0  0
  147.3453  140.7768  151.8632 H   0  0  0  0  0  0  0  0  0  0  0  0
  146.1668  140.6655  153.1711 H   0  0  0  0  0  0  0  0  0  0  0  0
  149.4360  143.2535  156.0521 H   0  0  0  0  0  0  0  0  0  0  0  0
  151.3495  141.6424  157.4140 H   0  0  0  0  0  0  0  0  0  0  0  0
  152.1700  142.7578  156.3655 H   0  0  0  0  0  0  0  0  0  0  0  0
  152.6215  145.0631  157.3003 H   0  0  0  0  0  0  0  0  0  0  0  0
  151.3732  145.8533  158.2538 H   0  0  0  0  0  0  0  0  0  0  0  0
  151.0309  145.3418  156.6042 H   0  0  0  0  0  0  0  0  0  0  0  0
  149.4420  144.7071  157.9605 H   0  0  0  0  0  0  0  0  0  0  0  0
  151.3320  145.0010  160.7965 H   0  0  0  0  0  0  0  0  0  0  0  0
  154.4764  140.8517  160.9399 H   0  0  0  0  0  0  0  0  0  0  0  0
  153.3671  140.9304  162.3247 H   0  0  0  0  0  0  0  0  0  0  0  0
  154.6957  142.1027  162.1786 H   0  0  0  0  0  0  0  0  0  0  0  0
  152.9544  141.4738  158.9499 H   0  0  0  0  0  0  0  0  0  0  0  0
  1  2  1  0  0  0  0
  1 19  1  0  0  0  0
  1 20  1  0  0  0  0
  1 21  1  0  0  0  0
  2  3  1  0  0  0  0
  2 22  1  0  0  0  0
  2 23  1  0  0  0  0
  3  4  1  0  0  0  0
  3  6  1  0  0  0  0
  3 24  1  0  0  0  0
  4  5  1  0  0  0  0
  4 25  1  0  0  0  0
  4 26  1  0  0  0  0
  5 27  1  0  0  0  0
  5 28  1  0  0  0  0
  5 29  1  0  0  0  0
  6  7  2  0  0  0  0
  6  8  1  0  0  0  0
  8  9  1  0  0  0  0
  8 30  1  0  0  0  0
  9 10  1  0  0  0  0
  9 31  1  0  0  0  0
  9 32  1  0  0  0  0
 10 11  1  0  0  0  0
 10 12  1  0  0  0  0
 10 13  1  0  0  0  0
 11 33  1  0  0  0  0
 11 34  1  0  0  0  0
 11 35  1  0  0  0  0
 12 36  1  0  0  0  0
 13 18  2  0  0  0  0
 13 14  1  0  0  0  0
 14 15  2  0  0  0  0
 14 37  1  0  0  0  0
 15 16  1  0  0  0  0
 16 17  1  0  0  0  0
 16 18  1  0  0  0  0
 17 38  1  0  0  0  0
 17 39  1  0  0  0  0
 17 40  1  0  0  0  0
 18 41  1  0  0  0  0
M  END
> <s_m_source_file>
AV-unprocessed.smi

> <i_m_source_file_index>
3271

> <i_lp_mmshare_version>
43012

> <i_f3d_flags>
0

> <s_epik_input>
W0NIM11bQ0gyXVtDSF0oW0NIMl1bQ0gzXSlDKD1PKVtOSF1bQ0gyXVtDQEBdKFtDSDNdKShbT0hdKWMxW2NIXW5uKFtDSDNdKVtjSF0x

> <s_epik_cmdline>
J2VwaWtfcHl0aG9uJywgJy1waCcsICc3LjAnLCAnLXRuJywgJzgnLCAnLW1hJywgJzIwMCcsICctbWV0YWxfYmluZGluZycsICctaW1hZScsICc8aW5maWxlLm1hZT4nLCAnLW9tYWUnLCAnPG91dGZpbGUubWFlPic=

> <r_lp_tautomer_probability>
1

> <r_epik_Ionization_Penalty>
6.03488e-05

> <r_epik_Ionization_Penalty_Charging>
0

> <r_epik_Ionization_Penalty_Neutral>
6.03488e-05

> <r_epik_State_Penalty>
-0

> <r_epik_Charging_Adjusted_Penalty>
0

> <i_epik_Tot_Q>
0

> <i_epik_Tot_abs_Q>
0

> <r_epik_Metal_State_Penalty>
-0

> <b_epik_Metal_Only>
0

> <s_lp_Force_Field>
OPLS_2005

> <r_lp_Energy>
0.472609

> <b_lp_Chiralities_Consistent>
1

> <s_lp_Variant>
AV-unprocessed.smi:3271-1

> <Gold.Version>
5.8.1

> <Gold.Id.Protein>
6NUR|6NUR_protein|mol2

> <Gold.PLP.Fitness>
47.3050

> <Gold.PLP.PLP>
-41.9338

> <Gold.PLP.part.hbond>
-4.0000

> <Gold.PLP.part.metal>
0.0000

> <Gold.PLP.part.buried>
-0.2581

> <Gold.PLP.part.nonpolar>
-37.4980

> <Gold.PLP.part.repulsive>
0.3014

> <Gold.PLP.ligand.clash>
0.0000

> <Gold.PLP.ligand.torsion>
1.3724

> <Gold.PLP.Chemscore.Hbond>
2.6459

> <Gold.PLP.Chemscore.CHOScore>
0.0000

> <Gold.PLP.Chemscore.Metal>
0.0000

> <Gold.Chemscore.Hbonds>
donor molecule, donor type, donor heavy atom, donor atom, acceptor molecule, acceptor atom, score
      L1  H     8    30       P1  8028  1.00
      L1  H    12    36       P1  8029  0.58
      P1  H  7989  7998       L1     7  0.96

> <Gold.PLP.Chemscore.Internal.Correction>
0.1782

> <Gold.Rescore>
     Score         DG    S(hbond)    S(metal)    S(lipo)     H(rot)  DE(clash)    DE(int)     intcor
     14.99     -18.23       1.78        0.00     109.36       2.33       1.86       1.39       ----

> <Gold.Chemscore.Fitness>
14.9895

> <Gold.Chemscore.DG>
-18.2325

> <Gold.Chemscore.ZeroCoef>
-5.4800

> <Gold.Chemscore.Hbond>
1.7764

> <Gold.Chemscore.Metal>
0.0000

> <Gold.Chemscore.Lipo>
109.3553

> <Gold.Chemscore.Internal_Hbond>
0.0000

> <Gold.Chemscore.DEClash>
1.8554

> <Gold.Chemscore.DEInternal>
1.3875

> <Gold.Chemscore.Rot>
2.3341

> <Gold.Chemscore.Internal.Correction>
   9.000000E+99

> <Gold.Chemscore.Hbonds>
donor molecule, donor type, donor heavy atom, donor atom, acceptor molecule, acceptor atom, score
      L1  H     8    30       P1  8028  0.98
      L1  H    12    36       P1  8029  0.06
      P1  H  7989  7998       L1     7  0.22

> <Gold.Chemscore.Hbond.Weighted>
-5.9332

> <Gold.Chemscore.Metal.Weighted>
-0.0000

> <Gold.Chemscore.Lipo.Weighted>
-12.7946

> <Gold.Chemscore.Internal_Hbond.Weighted>
0.0000

> <Gold.Chemscore.DEClash.Weighted>
1.8554

> <Gold.Chemscore.DEInternal.Weighted>
1.3875

> <Gold.Chemscore.Rot.Weighted>
5.9753

> <Gold.Chemscore.Internal.Correction.Weighted>
   9.000000E+99

> <Gold.Protein.RotatedTorsions>
[ 6907 6896 6895 6894 ] final  -51.43 input  -60.11 | X-H torsion
[ 7974 7965 7964 7962 ] final  -37.40 input  175.53 | X-H torsion
[ 8008 7997 7996 7995 ] final  -86.05 input   59.86 | X-H torsion
[ 10167 10162 10161 10158 ] final  -77.31 input  -65.29 | X-H torsion
[ 10718 10713 10712 10709 ] final  161.90 input   66.30 | X-H torsion
[ 10763 10752 10751 10750 ] final  135.21 input  -60.55 | X-H torsion
[ 11005 11000 10999 10996 ] final   71.55 input  -57.11 | X-H torsion

> <Gold.Protein.ActiveResidues>
 VAL166  LYS551  ARG553  GLY616  TRP617  ASP618  TYR619  PRO620  LYS621  CYS622 
 ASP623  PHE694  ASN695  SER759  ASP760  ASP761  ALA762  ILE779  LEU786  VAL792 
 PHE793  MET794  SER795  GLU796  ALA797  LYS798  CYS799  TRP800  GLU811  SER814 

> <Gold.Protein.RotatedAtoms>
  150.8612  134.7964  159.7083 H   0  0  0  0  0  0  0  0  0  0  0  0  # atno 6907 bound_to 6896
  152.4648  134.5097  159.9760 H   0  0  0  0  0  0  0  0  0  0  0  0  # atno 6908 bound_to 6896
  151.5200  133.3430  159.2935 H   0  0  0  0  0  0  0  0  0  0  0  0  # atno 6909 bound_to 6896
  146.0578  140.6391  142.9011 H   0  0  0  0  0  0  0  0  0  0  0  0  # atno 7974 bound_to 7965
  154.6476  140.0583  156.9918 H   0  0  0  0  0  0  0  0  0  0  0  0  # atno 8008 bound_to 7997
  155.1421  140.3266  155.4431 H   0  0  0  0  0  0  0  0  0  0  0  0  # atno 8009 bound_to 7997
  156.2561  140.1962  156.6536 H   0  0  0  0  0  0  0  0  0  0  0  0  # atno 8010 bound_to 7997
  140.4781  143.2409  151.8100 H   0  0  0  0  0  0  0  0  0  0  0  0  # atno 10167 bound_to 10162
  157.1300  131.0514  151.2376 H   0  0  0  0  0  0  0  0  0  0  0  0  # atno 10718 bound_to 10713
  153.8363  135.3097  155.3422 H   0  0  0  0  0  0  0  0  0  0  0  0  # atno 10763 bound_to 10752
  154.7952  135.4759  154.0147 H   0  0  0  0  0  0  0  0  0  0  0  0  # atno 10764 bound_to 10752
  153.1603  135.6859  153.8843 H   0  0  0  0  0  0  0  0  0  0  0  0  # atno 10765 bound_to 10752
  139.9537  134.7181  156.0801 H   0  0  0  0  0  0  0  0  0  0  0  0  # atno 11005 bound_to 11000
  144.7158  140.4203  143.7046 LP  0  0  0  0  0  0  0  0  0  0  0  0  # atno 17320 bound_to 7965
  145.6613  139.1582  143.2807 LP  0  0  0  0  0  0  0  0  0  0  0  0  # atno 17321 bound_to 7965
  139.4829  144.4807  151.9310 LP  0  0  0  0  0  0  0  0  0  0  0  0  # atno 17342 bound_to 10162
  140.3892  144.2637  150.5901 LP  0  0  0  0  0  0  0  0  0  0  0  0  # atno 17343 bound_to 10162
  157.4401  130.7539  149.7062 LP  0  0  0  0  0  0  0  0  0  0  0  0  # atno 17370 bound_to 10713
  155.9810  130.4024  150.3497 LP  0  0  0  0  0  0  0  0  0  0  0  0  # atno 17371 bound_to 10713
  141.1205  133.6614  156.3203 LP  0  0  0  0  0  0  0  0  0  0  0  0  # atno 17394 bound_to 11000
  140.5658  134.5889  157.5445 LP  0  0  0  0  0  0  0  0  0  0  0  0  # atno 17395 bound_to 11000

$$$$
