AV-unprocessed.smi:260|AV-procd|sdf|1979|dock3
  -GOLD-   2262021153D 1   1.00000     0.00000
 Structure written by MMmdl.
 53 56  0  0  0  0  0  0  0  0  1 V2000
  152.6842  131.4675  156.9818 C   0  0  0  0  0  0  0  0  0  0  0  0
  151.6728  132.2369  156.2739 N   0  0  0  0  0  0  0  0  0  0  0  0
  150.6729  132.9055  156.8703 C   0  0  0  0  0  0  0  0  0  0  0  0
  150.5374  132.9206  158.0948 O   0  0  0  0  0  0  0  0  0  0  0  0
  149.6877  133.6738  155.9494 C   0  0  1  0  0  0  0  0  0  0  0  0
  149.0058  132.7130  154.9501 C   0  0  0  0  0  0  0  0  0  0  0  0
  148.6385  134.4634  156.7647 C   0  0  0  0  0  0  0  0  0  0  0  0
  149.3116  135.7981  157.1142 C   0  0  0  0  0  0  0  0  0  0  0  0
  150.4058  135.9460  156.1662 N   0  0  0  0  0  0  0  0  0  0  0  0
  150.8784  137.1705  155.8159 C   0  0  0  0  0  0  0  0  0  0  0  0
  151.7153  137.2658  154.7483 N   0  0  0  0  0  0  0  0  0  0  0  0
  152.2006  138.4510  154.3682 C   0  0  0  0  0  0  0  0  0  0  0  0
  151.9862  139.6517  154.9077 N   0  0  0  0  0  0  0  0  0  0  0  0
  151.1582  139.5656  155.9871 C   0  0  0  0  0  0  0  0  0  0  0  0
  150.5664  138.3785  156.5079 C   0  0  0  0  0  0  0  0  0  0  0  0
  149.7954  138.6942  157.6223 N   0  0  0  0  0  0  0  0  0  0  0  0
  149.9161  139.9873  157.7453 C   0  0  0  0  0  0  0  0  0  0  0  0
  150.7163  140.5910  156.8034 N   0  0  0  0  0  0  0  0  0  0  0  0
  151.0240  142.0065  156.6984 C   0  0  0  0  0  0  0  0  0  0  0  0
  150.5986  142.7989  157.9500 C   0  0  2  0  0  0  0  0  0  0  0  0
  150.6479  144.1841  157.6643 O   0  0  0  0  0  0  0  0  0  0  0  0
  151.5086  142.5083  159.1579 C   0  0  1  0  0  0  0  0  0  0  0  0
  152.9994  142.7130  158.8946 C   0  0  0  0  0  0  0  0  0  0  0  0
  153.5545  142.8606  160.2968 C   0  0  0  0  0  0  0  0  0  0  0  0
  152.3879  143.4710  161.0781 C   0  0  0  0  0  0  0  0  0  0  0  0
  151.2623  143.4362  160.2053 O   0  0  0  0  0  0  0  0  0  0  0  0
  150.4180  134.8254  155.2347 C   0  0  0  0  0  0  0  0  0  0  0  0
  153.3714  131.0121  156.2688 H   0  0  0  0  0  0  0  0  0  0  0  0
  152.2258  130.6716  157.5700 H   0  0  0  0  0  0  0  0  0  0  0  0
  153.2608  132.1075  157.6507 H   0  0  0  0  0  0  0  0  0  0  0  0
  151.7340  132.2646  155.2665 H   0  0  0  0  0  0  0  0  0  0  0  0
  148.2540  133.2300  154.3527 H   0  0  0  0  0  0  0  0  0  0  0  0
  148.5030  131.8942  155.4666 H   0  0  0  0  0  0  0  0  0  0  0  0
  149.7201  132.2800  154.2489 H   0  0  0  0  0  0  0  0  0  0  0  0
  147.7624  134.6660  156.1471 H   0  0  0  0  0  0  0  0  0  0  0  0
  148.2791  133.9369  157.6499 H   0  0  0  0  0  0  0  0  0  0  0  0
  148.5992  136.6214  157.0515 H   0  0  0  0  0  0  0  0  0  0  0  0
  149.7196  135.7725  158.1252 H   0  0  0  0  0  0  0  0  0  0  0  0
  152.8534  138.4346  153.5081 H   0  0  0  0  0  0  0  0  0  0  0  0
  149.4243  140.5388  158.5332 H   0  0  0  0  0  0  0  0  0  0  0  0
  152.0974  142.1066  156.5336 H   0  0  0  0  0  0  0  0  0  0  0  0
  150.5350  142.4049  155.8085 H   0  0  0  0  0  0  0  0  0  0  0  0
  149.5686  142.5450  158.2047 H   0  0  0  0  0  0  0  0  0  0  0  0
  149.9687  144.3859  157.0394 H   0  0  0  0  0  0  0  0  0  0  0  0
  151.3339  141.4992  159.5369 H   0  0  0  0  0  0  0  0  0  0  0  0
  153.4532  141.8886  158.3437 H   0  0  0  0  0  0  0  0  0  0  0  0
  153.1633  143.6323  158.3303 H   0  0  0  0  0  0  0  0  0  0  0  0
  153.8033  141.8803  160.7052 H   0  0  0  0  0  0  0  0  0  0  0  0
  154.4533  143.4772  160.3278 H   0  0  0  0  0  0  0  0  0  0  0  0
  152.1809  142.8977  161.9825 H   0  0  0  0  0  0  0  0  0  0  0  0
  152.5902  144.5020  161.3695 H   0  0  0  0  0  0  0  0  0  0  0  0
  151.4404  134.5572  154.9636 H   0  0  0  0  0  0  0  0  0  0  0  0
  149.8943  135.1076  154.3202 H   0  0  0  0  0  0  0  0  0  0  0  0
  1  2  1  0  0  0  0
  1 28  1  0  0  0  0
  1 29  1  0  0  0  0
  1 30  1  0  0  0  0
  2  3  1  0  0  0  0
  2 31  1  0  0  0  0
  3  4  2  0  0  0  0
  3  5  1  0  0  0  0
  5 27  1  0  0  0  0
  5  6  1  0  0  0  0
  5  7  1  0  0  0  0
  6 32  1  0  0  0  0
  6 33  1  0  0  0  0
  6 34  1  0  0  0  0
  7  8  1  0  0  0  0
  7 35  1  0  0  0  0
  7 36  1  0  0  0  0
  8  9  1  0  0  0  0
  8 37  1  0  0  0  0
  8 38  1  0  0  0  0
  9 10  1  0  0  0  0
  9 27  1  0  0  0  0
 10 15  1  0  0  0  0
 10 11  2  0  0  0  0
 11 12  1  0  0  0  0
 12 13  2  0  0  0  0
 12 39  1  0  0  0  0
 13 14  1  0  0  0  0
 14 18  1  0  0  0  0
 14 15  2  0  0  0  0
 15 16  1  0  0  0  0
 16 17  2  0  0  0  0
 17 18  1  0  0  0  0
 17 40  1  0  0  0  0
 18 19  1  0  0  0  0
 19 20  1  0  0  0  0
 19 41  1  0  0  0  0
 19 42  1  0  0  0  0
 20 21  1  0  0  0  0
 20 22  1  0  0  0  0
 20 43  1  0  0  0  0
 21 44  1  0  0  0  0
 22 26  1  0  0  0  0
 22 23  1  0  0  0  0
 22 45  1  0  0  0  0
 23 24  1  0  0  0  0
 23 46  1  0  0  0  0
 23 47  1  0  0  0  0
 24 25  1  0  0  0  0
 24 48  1  0  0  0  0
 24 49  1  0  0  0  0
 25 26  1  0  0  0  0
 25 50  1  0  0  0  0
 25 51  1  0  0  0  0
 27 52  1  0  0  0  0
 27 53  1  0  0  0  0
M  END
> <s_m_source_file>
AV-unprocessed.smi

> <i_m_source_file_index>
260

> <i_lp_mmshare_version>
43012

> <i_f3d_flags>
0

> <s_epik_input>
W0NIM11bTkhdQyg9TylbQ0BAXTEoW0NIM10pW0NIMl1bQ0gyXU4oW0NIMl0xKWMobltjSF1uMiljKGMyMyluW2NIXW4zW0NIMl1bQ0BIXShbT0hdKVtDQEBIXTRbQ0gyXVtDSDJdW0NIMl1PNA==

> <s_epik_cmdline>
J2VwaWtfcHl0aG9uJywgJy1waCcsICc3LjAnLCAnLXRuJywgJzgnLCAnLW1hJywgJzIwMCcsICctbWV0YWxfYmluZGluZycsICctaW1hZScsICc8aW5maWxlLm1hZT4nLCAnLW9tYWUnLCAnPG91dGZpbGUubWFlPic=

> <r_lp_tautomer_probability>
1

> <r_epik_Ionization_Penalty>
0.00115068

> <r_epik_Ionization_Penalty_Charging>
0

> <r_epik_Ionization_Penalty_Neutral>
0.00115068

> <r_epik_State_Penalty>
0.000668876

> <r_epik_Charging_Adjusted_Penalty>
0.000668876

> <i_epik_Tot_Q>
0

> <i_epik_Tot_abs_Q>
0

> <r_epik_Metal_State_Penalty>
-0

> <b_epik_Metal_Only>
0

> <s_lp_Force_Field>
OPLS_2005

> <r_lp_Energy>
50.4513

> <b_lp_Chiralities_Consistent>
1

> <s_lp_Variant>
AV-unprocessed.smi:260-5

> <Gold.Version>
5.8.1

> <Gold.Id.Protein>
6NUR|6NUR_protein|mol2

> <Gold.PLP.Fitness>
55.2589

> <Gold.PLP.PLP>
-44.1100

> <Gold.PLP.part.hbond>
-5.0000

> <Gold.PLP.part.metal>
0.0000

> <Gold.PLP.part.buried>
-8.2379

> <Gold.PLP.part.nonpolar>
-31.1675

> <Gold.PLP.part.repulsive>
0.3194

> <Gold.PLP.ligand.clash>
0.0000

> <Gold.PLP.ligand.torsion>
0.4666

> <Gold.PLP.Chemscore.Hbond>
3.8960

> <Gold.PLP.Chemscore.CHOScore>
0.0000

> <Gold.PLP.Chemscore.Metal>
0.0000

> <Gold.Chemscore.Hbonds>
donor molecule, donor type, donor heavy atom, donor atom, acceptor molecule, acceptor atom, score
      L1  H    21    44       P1  8028  1.00
      P1  H  6896  6909       L1     4  0.68
      P1  H  7989  7998       L1    13  0.91
      P1  H 10752 10763       L1    11  0.93

> <Gold.PLP.Chemscore.Internal.Correction>
0.3941

> <Gold.Rescore>
     Score         DG    S(hbond)    S(metal)    S(lipo)     H(rot)  DE(clash)    DE(int)     intcor
     18.10     -20.38       3.41        0.00      85.16       2.53       0.04       2.24       ----

> <Gold.Chemscore.Fitness>
18.1017

> <Gold.Chemscore.DG>
-20.3815

> <Gold.Chemscore.ZeroCoef>
-5.4800

> <Gold.Chemscore.Hbond>
3.4145

> <Gold.Chemscore.Metal>
0.0000

> <Gold.Chemscore.Lipo>
85.1561

> <Gold.Chemscore.Internal_Hbond>
0.0000

> <Gold.Chemscore.DEClash>
0.0402

> <Gold.Chemscore.DEInternal>
2.2395

> <Gold.Chemscore.Rot>
2.5259

> <Gold.Chemscore.Internal.Correction>
   9.000000E+99

> <Gold.Chemscore.Hbonds>
donor molecule, donor type, donor heavy atom, donor atom, acceptor molecule, acceptor atom, score
      L1  H    21    44       P1  8028  0.65
      P1  H  6896  6909       L1     4  0.67
      P1  H  7989  7998       L1    13  0.58
      P1  H 10752 10763       L1    11  0.72

> <Gold.Chemscore.Hbond.Weighted>
-11.4046

> <Gold.Chemscore.Metal.Weighted>
-0.0000

> <Gold.Chemscore.Lipo.Weighted>
-9.9633

> <Gold.Chemscore.Internal_Hbond.Weighted>
0.0000

> <Gold.Chemscore.DEClash.Weighted>
0.0402

> <Gold.Chemscore.DEInternal.Weighted>
2.2395

> <Gold.Chemscore.Rot.Weighted>
6.4663

> <Gold.Chemscore.Internal.Correction.Weighted>
   9.000000E+99

> <Gold.Protein.RotatedTorsions>
[ 6907 6896 6895 6894 ] final  -36.17 input  -60.11 | X-H torsion
[ 7974 7965 7964 7962 ] final -170.08 input  175.53 | X-H torsion
[ 8008 7997 7996 7995 ] final  -38.81 input   59.86 | X-H torsion
[ 10167 10162 10161 10158 ] final   53.36 input  -65.29 | X-H torsion
[ 10718 10713 10712 10709 ] final  110.53 input   66.30 | X-H torsion
[ 10763 10752 10751 10750 ] final   47.06 input  -60.55 | X-H torsion
[ 11005 11000 10999 10996 ] final  -78.78 input  -57.11 | X-H torsion

> <Gold.Protein.ActiveResidues>
 VAL166  LYS551  ARG553  GLY616  TRP617  ASP618  TYR619  PRO620  LYS621  CYS622 
 ASP623  PHE694  ASN695  SER759  ASP760  ASP761  ALA762  ILE779  LEU786  VAL792 
 PHE793  MET794  SER795  GLU796  ALA797  LYS798  CYS799  TRP800  GLU811  SER814 

> <Gold.Protein.RotatedAtoms>
  151.0305  134.9536  159.8108 H   0  0  0  0  0  0  0  0  0  0  0  0  # atno 6907 bound_to 6896
  152.5344  134.2786  159.9009 H   0  0  0  0  0  0  0  0  0  0  0  0  # atno 6908 bound_to 6896
  151.2795  133.4174  159.2660 H   0  0  0  0  0  0  0  0  0  0  0  0  # atno 6909 bound_to 6896
  144.7175  140.2126  143.6325 H   0  0  0  0  0  0  0  0  0  0  0  0  # atno 7974 bound_to 7965
  154.4031  140.1568  156.2761 H   0  0  0  0  0  0  0  0  0  0  0  0  # atno 8008 bound_to 7997
  155.8910  140.3438  155.5934 H   0  0  0  0  0  0  0  0  0  0  0  0  # atno 8009 bound_to 7997
  155.7558  140.0811  157.2170 H   0  0  0  0  0  0  0  0  0  0  0  0  # atno 8010 bound_to 7997
  140.2416  144.3578  150.6378 H   0  0  0  0  0  0  0  0  0  0  0  0  # atno 10167 bound_to 10162
  157.6490  131.0934  150.6615 H   0  0  0  0  0  0  0  0  0  0  0  0  # atno 10718 bound_to 10713
  152.9804  135.5988  154.3701 H   0  0  0  0  0  0  0  0  0  0  0  0  # atno 10763 bound_to 10752
  154.3375  135.2768  155.2442 H   0  0  0  0  0  0  0  0  0  0  0  0  # atno 10764 bound_to 10752
  154.4538  135.5983  153.6265 H   0  0  0  0  0  0  0  0  0  0  0  0  # atno 10765 bound_to 10752
  141.1666  133.7077  156.8023 H   0  0  0  0  0  0  0  0  0  0  0  0  # atno 11005 bound_to 11000
  145.8577  139.2207  143.1735 LP  0  0  0  0  0  0  0  0  0  0  0  0  # atno 17320 bound_to 7965
  146.0202  140.8355  142.9927 LP  0  0  0  0  0  0  0  0  0  0  0  0  # atno 17321 bound_to 7965
  140.6109  143.2169  151.6887 LP  0  0  0  0  0  0  0  0  0  0  0  0  # atno 17342 bound_to 10162
  139.5075  144.3642  152.0533 LP  0  0  0  0  0  0  0  0  0  0  0  0  # atno 17343 bound_to 10162
  156.6929  130.4600  149.5595 LP  0  0  0  0  0  0  0  0  0  0  0  0  # atno 17370 bound_to 10713
  156.1849  130.6523  151.0995 LP  0  0  0  0  0  0  0  0  0  0  0  0  # atno 17371 bound_to 10713
  140.2247  134.8730  157.3414 LP  0  0  0  0  0  0  0  0  0  0  0  0  # atno 17394 bound_to 11000
  140.1951  134.4323  155.7693 LP  0  0  0  0  0  0  0  0  0  0  0  0  # atno 17395 bound_to 11000

$$$$
