AV-unprocessed.smi:2785|AV-procd|sdf|10746|dock9
  -GOLD-   2272015183D 1   1.00000     0.00000
 Structure written by MMmdl.
 37 38  0  0  0  0  0  0  0  0  1 V2000
  151.7693  137.6304  156.7422 C   0  0  0  0  0  0  0  0  0  0  0  0
  150.4640  137.4016  155.9641 C   0  0  0  0  0  0  0  0  0  0  0  0
  150.6911  136.5429  154.7067 C   0  0  0  0  0  0  0  0  0  0  0  0
  149.8184  138.6876  155.6652 N   0  0  0  0  0  0  0  0  0  0  0  0
  148.4805  139.0161  156.1303 C   0  0  0  0  0  0  0  0  0  0  0  0
  148.1131  140.3095  155.3962 C   0  0  0  0  0  0  0  0  0  0  0  0
  149.4189  140.8764  154.8153 C   0  0  1  0  0  0  0  0  0  0  0  0
  149.8798  141.9997  155.6285 N   0  0  0  0  0  0  0  0  0  0  0  0
  150.3657  141.9039  156.8749 C   0  0  0  0  0  0  0  0  0  0  0  0
  150.4995  140.8348  157.4710 O   0  0  0  0  0  0  0  0  0  0  0  0
  150.6776  143.1149  157.3692 N   0  0  0  0  0  0  0  0  0  0  0  0
  151.1973  143.4323  158.6524 C   0  0  0  0  0  0  0  0  0  0  0  0
  151.8617  142.3709  159.3081 C   0  0  0  0  0  0  0  0  0  0  0  0
  152.4150  142.5833  160.5860 C   0  0  0  0  0  0  0  0  0  0  0  0
  152.2884  143.8541  161.1743 C   0  0  0  0  0  0  0  0  0  0  0  0
  152.8041  144.1059  162.4008 F   0  0  0  0  0  0  0  0  0  0  0  0
  151.6121  144.8569  160.4554 C   0  0  0  0  0  0  0  0  0  0  0  0
  151.0812  144.6543  159.2307 N   0  0  0  0  0  0  0  0  0  0  0  0
  150.3711  139.6919  154.9708 C   0  0  0  0  0  0  0  0  0  0  0  0
  151.5008  139.6876  154.4821 O   0  0  0  0  0  0  0  0  0  0  0  0
  152.2350  136.6825  157.0126 H   0  0  0  0  0  0  0  0  0  0  0  0
  151.5892  138.1818  157.6658 H   0  0  0  0  0  0  0  0  0  0  0  0
  152.4887  138.1979  156.1506 H   0  0  0  0  0  0  0  0  0  0  0  0
  149.7918  136.8325  156.6087 H   0  0  0  0  0  0  0  0  0  0  0  0
  151.0861  135.5628  154.9749 H   0  0  0  0  0  0  0  0  0  0  0  0
  151.4039  137.0037  154.0223 H   0  0  0  0  0  0  0  0  0  0  0  0
  149.7586  136.3803  154.1657 H   0  0  0  0  0  0  0  0  0  0  0  0
  147.7711  138.2164  155.9137 H   0  0  0  0  0  0  0  0  0  0  0  0
  148.4978  139.1808  157.2085 H   0  0  0  0  0  0  0  0  0  0  0  0
  147.4323  140.0743  154.5769 H   0  0  0  0  0  0  0  0  0  0  0  0
  147.5902  141.0123  156.0466 H   0  0  0  0  0  0  0  0  0  0  0  0
  149.2997  141.1545  153.7666 H   0  0  0  0  0  0  0  0  0  0  0  0
  149.8037  142.9179  155.2166 H   0  0  0  0  0  0  0  0  0  0  0  0
  150.5169  143.9028  156.7595 H   0  0  0  0  0  0  0  0  0  0  0  0
  151.9499  141.4011  158.8400 H   0  0  0  0  0  0  0  0  0  0  0  0
  152.9266  141.7854  161.1039 H   0  0  0  0  0  0  0  0  0  0  0  0
  151.4936  145.8459  160.8725 H   0  0  0  0  0  0  0  0  0  0  0  0
  1  2  1  0  0  0  0
  1 21  1  0  0  0  0
  1 22  1  0  0  0  0
  1 23  1  0  0  0  0
  2  3  1  0  0  0  0
  2  4  1  0  0  0  0
  2 24  1  0  0  0  0
  3 25  1  0  0  0  0
  3 26  1  0  0  0  0
  3 27  1  0  0  0  0
  4 19  1  0  0  0  0
  4  5  1  0  0  0  0
  5  6  1  0  0  0  0
  5 28  1  0  0  0  0
  5 29  1  0  0  0  0
  6  7  1  0  0  0  0
  6 30  1  0  0  0  0
  6 31  1  0  0  0  0
  7  8  1  0  0  0  0
  7 19  1  0  0  0  0
  7 32  1  0  0  0  0
  8  9  1  0  0  0  0
  8 33  1  0  0  0  0
  9 10  2  0  0  0  0
  9 11  1  0  0  0  0
 11 12  1  0  0  0  0
 11 34  1  0  0  0  0
 12 18  1  0  0  0  0
 12 13  2  0  0  0  0
 13 14  1  0  0  0  0
 13 35  1  0  0  0  0
 14 15  2  0  0  0  0
 14 36  1  0  0  0  0
 15 16  1  0  0  0  0
 15 17  1  0  0  0  0
 17 18  2  0  0  0  0
 17 37  1  0  0  0  0
 19 20  2  0  0  0  0
M  END
> <s_m_source_file>
AV-unprocessed.smi

> <i_m_source_file_index>
2785

> <i_lp_mmshare_version>
43012

> <i_f3d_flags>
0

> <s_epik_input>
W0NIM11bQ0hdKFtDSDNdKU4xW0NIMl1bQ0gyXVtDQEhdKEMxPU8pW05IXUMoPU8pW05IXWMyW2NIXVtjSF1jKEYpW2NIXW4y

> <s_epik_cmdline>
J2VwaWtfcHl0aG9uJywgJy1waCcsICc3LjAnLCAnLXRuJywgJzgnLCAnLW1hJywgJzIwMCcsICctbWV0YWxfYmluZGluZycsICctaW1hZScsICc8aW5maWxlLm1hZT4nLCAnLW9tYWUnLCAnPG91dGZpbGUubWFlPic=

> <r_lp_tautomer_probability>
1

> <r_epik_Ionization_Penalty>
3.20266e-05

> <r_epik_Ionization_Penalty_Charging>
0

> <r_epik_Ionization_Penalty_Neutral>
3.20266e-05

> <r_epik_State_Penalty>
-0

> <r_epik_Charging_Adjusted_Penalty>
0

> <i_epik_Tot_Q>
0

> <i_epik_Tot_abs_Q>
0

> <r_epik_Metal_State_Penalty>
-0

> <b_epik_Metal_Only>
0

> <s_lp_Force_Field>
OPLS_2005

> <r_lp_Energy>
23.6271

> <b_lp_Chiralities_Consistent>
1

> <s_lp_Variant>
AV-unprocessed.smi:2785-1

> <Gold.Version>
5.8.1

> <Gold.Id.Protein>
6NUR|6NUR_protein|mol2

> <Gold.PLP.Fitness>
40.1513

> <Gold.PLP.PLP>
-33.5836

> <Gold.PLP.part.hbond>
-2.9091

> <Gold.PLP.part.metal>
0.0000

> <Gold.PLP.part.buried>
-5.4974

> <Gold.PLP.part.nonpolar>
-25.5889

> <Gold.PLP.part.repulsive>
0.3990

> <Gold.PLP.ligand.clash>
0.0000

> <Gold.PLP.ligand.torsion>
0.3223

> <Gold.PLP.Chemscore.Hbond>
2.3799

> <Gold.PLP.Chemscore.CHOScore>
0.0000

> <Gold.PLP.Chemscore.Metal>
0.0000

> <Gold.Chemscore.Hbonds>
donor molecule, donor type, donor heavy atom, donor atom, acceptor molecule, acceptor atom, score
      L1  H     8    33       P1  8028  0.70
      L1  H    11    34       P1  8028  0.61
      P1  H  7989  7998       L1    20  1.00

> <Gold.PLP.Chemscore.Internal.Correction>
0.0726

> <Gold.Rescore>
     Score         DG    S(hbond)    S(metal)    S(lipo)     H(rot)  DE(clash)    DE(int)     intcor
     14.48     -19.79       2.91        0.00      67.48       1.29       0.66       4.64       ----

> <Gold.Chemscore.Fitness>
14.4791

> <Gold.Chemscore.DG>
-19.7863

> <Gold.Chemscore.ZeroCoef>
-5.4800

> <Gold.Chemscore.Hbond>
2.9064

> <Gold.Chemscore.Metal>
0.0000

> <Gold.Chemscore.Lipo>
67.4770

> <Gold.Chemscore.Internal_Hbond>
0.0000

> <Gold.Chemscore.DEClash>
0.6628

> <Gold.Chemscore.DEInternal>
4.6444

> <Gold.Chemscore.Rot>
1.2875

> <Gold.Chemscore.Internal.Correction>
   9.000000E+99

> <Gold.Chemscore.Hbonds>
donor molecule, donor type, donor heavy atom, donor atom, acceptor molecule, acceptor atom, score
      L1  H     8    33       P1  8028  0.67
      L1  H    11    34       P1  8028  0.60
      P1  H  7989  7998       L1    20  0.69

> <Gold.Chemscore.Hbond.Weighted>
-9.7074

> <Gold.Chemscore.Metal.Weighted>
-0.0000

> <Gold.Chemscore.Lipo.Weighted>
-7.8948

> <Gold.Chemscore.Internal_Hbond.Weighted>
0.0000

> <Gold.Chemscore.DEClash.Weighted>
0.6628

> <Gold.Chemscore.DEInternal.Weighted>
4.6444

> <Gold.Chemscore.Rot.Weighted>
3.2959

> <Gold.Chemscore.Internal.Correction.Weighted>
   9.000000E+99

> <Gold.Protein.RotatedTorsions>
[ 6907 6896 6895 6894 ] final   44.76 input  -60.11 | X-H torsion
[ 7974 7965 7964 7962 ] final    2.57 input  175.53 | X-H torsion
[ 8008 7997 7996 7995 ] final   41.68 input   59.86 | X-H torsion
[ 10167 10162 10161 10158 ] final  108.21 input  -65.29 | X-H torsion
[ 10718 10713 10712 10709 ] final  170.26 input   66.30 | X-H torsion
[ 10763 10752 10751 10750 ] final  -24.00 input  -60.55 | X-H torsion
[ 11005 11000 10999 10996 ] final   43.36 input  -57.11 | X-H torsion

> <Gold.Protein.ActiveResidues>
 VAL166  LYS551  ARG553  GLY616  TRP617  ASP618  TYR619  PRO620  LYS621  CYS622 
 ASP623  PHE694  ASN695  SER759  ASP760  ASP761  ALA762  ILE779  LEU786  VAL792 
 PHE793  MET794  SER795  GLU796  ALA797  LYS798  CYS799  TRP800  GLU811  SER814 

> <Gold.Protein.RotatedAtoms>
  152.2364  134.8272  160.0466 H   0  0  0  0  0  0  0  0  0  0  0  0  # atno 6907 bound_to 6896
  151.9002  133.3531  159.3836 H   0  0  0  0  0  0  0  0  0  0  0  0  # atno 6908 bound_to 6896
  150.7040  134.4761  159.5492 H   0  0  0  0  0  0  0  0  0  0  0  0  # atno 6909 bound_to 6896
  146.2444  140.0816  142.8356 H   0  0  0  0  0  0  0  0  0  0  0  0  # atno 7974 bound_to 7965
  155.2736  140.3367  155.4263 H   0  0  0  0  0  0  0  0  0  0  0  0  # atno 8008 bound_to 7997
  156.2121  140.1774  156.7712 H   0  0  0  0  0  0  0  0  0  0  0  0  # atno 8009 bound_to 7997
  154.5702  140.0671  156.8936 H   0  0  0  0  0  0  0  0  0  0  0  0  # atno 8010 bound_to 7997
  139.6864  144.7113  151.1424 H   0  0  0  0  0  0  0  0  0  0  0  0  # atno 10167 bound_to 10162
  157.0107  131.0203  151.2804 H   0  0  0  0  0  0  0  0  0  0  0  0  # atno 10718 bound_to 10713
  153.6768  135.6969  153.5130 H   0  0  0  0  0  0  0  0  0  0  0  0  # atno 10763 bound_to 10752
  153.2515  135.4273  155.0802 H   0  0  0  0  0  0  0  0  0  0  0  0  # atno 10764 bound_to 10752
  154.8411  135.3532  154.6312 H   0  0  0  0  0  0  0  0  0  0  0  0  # atno 10765 bound_to 10752
  140.1652  134.4291  155.8292 H   0  0  0  0  0  0  0  0  0  0  0  0  # atno 11005 bound_to 11000
  145.0728  140.9167  143.4872 LP  0  0  0  0  0  0  0  0  0  0  0  0  # atno 17320 bound_to 7965
  145.0953  139.2860  143.5714 LP  0  0  0  0  0  0  0  0  0  0  0  0  # atno 17321 bound_to 7965
  140.7669  143.5623  150.9086 LP  0  0  0  0  0  0  0  0  0  0  0  0  # atno 17342 bound_to 10162
  139.9298  143.6507  152.3079 LP  0  0  0  0  0  0  0  0  0  0  0  0  # atno 17343 bound_to 10162
  157.5322  130.8066  149.7930 LP  0  0  0  0  0  0  0  0  0  0  0  0  # atno 17370 bound_to 10713
  156.0137  130.3822  150.2180 LP  0  0  0  0  0  0  0  0  0  0  0  0  # atno 17371 bound_to 10713
  141.2213  133.6931  156.7665 LP  0  0  0  0  0  0  0  0  0  0  0  0  # atno 17394 bound_to 11000
  140.2442  134.8590  157.3604 LP  0  0  0  0  0  0  0  0  0  0  0  0  # atno 17395 bound_to 11000

$$$$
