AV-unprocessed.smi:1682|AV-procd|sdf|6746|dock3
  -GOLD-   22720 7503D 1   1.00000     0.00000
 Structure written by MMmdl.
 39 40  0  0  0  0  0  0  0  0  2 V2000
  157.2621  139.6033  158.3026 O   0  0  0  0  0  0  0  0  0  0  0  0
  156.9568  139.2001  159.4253 C   0  0  0  0  0  0  0  0  0  0  0  0
  156.0286  139.7930  160.1919 N   0  0  0  0  0  0  0  0  0  0  0  0
  155.2502  140.9689  159.8122 C   0  0  0  0  0  0  0  0  0  0  0  0
  153.9588  141.1362  160.6397 C   0  0  0  0  0  0  0  0  0  0  0  0
  153.1748  142.3924  160.3015 C   0  0  0  0  0  0  0  0  0  0  0  0
  152.6089  143.2164  161.2994 C   0  0  0  0  0  0  0  0  0  0  0  0
  151.8995  144.3737  160.9175 C   0  0  0  0  0  0  0  0  0  0  0  0
  151.7682  144.6814  159.5474 C   0  0  0  0  0  0  0  0  0  0  0  0
  152.3512  143.8231  158.5929 C   0  0  0  0  0  0  0  0  0  0  0  0
  153.0255  142.7246  158.9988 N   0  3  0  0  0  0  0  0  0  0  0  0
  157.6311  137.9497  160.0105 C   0  0  1  0  0  0  0  0  0  0  0  0
  158.5341  138.3124  161.2056 C   0  0  0  0  0  0  0  0  0  0  0  0
  157.8427  137.6743  162.3981 C   0  0  0  0  0  0  0  0  0  0  0  0
  158.2169  137.8521  163.5559 O   0  0  0  0  0  0  0  0  0  0  0  0
  156.7991  136.9342  162.0097 N   0  0  0  0  0  0  0  0  0  0  0  0
  155.8849  136.1986  162.8823 C   0  0  0  0  0  0  0  0  0  0  0  0
  154.9494  137.1293  163.6754 C   0  0  0  0  0  0  0  0  0  0  0  0
  154.2192  137.8908  162.8611 F   0  0  0  0  0  0  0  0  0  0  0  0
  154.1234  136.3876  164.4120 F   0  0  0  0  0  0  0  0  0  0  0  0
  155.6568  137.9122  164.4900 F   0  0  0  0  0  0  0  0  0  0  0  0
  156.6148  136.9283  160.5673 C   0  0  0  0  0  0  0  0  0  0  0  0
  155.8452  139.3981  161.1032 H   0  0  0  0  0  0  0  0  0  0  0  0
  155.8887  141.8405  159.9581 H   0  0  0  0  0  0  0  0  0  0  0  0
  155.0163  140.9340  158.7471 H   0  0  0  0  0  0  0  0  0  0  0  0
  153.3160  140.2674  160.4934 H   0  0  0  0  0  0  0  0  0  0  0  0
  154.2002  141.1504  161.7032 H   0  0  0  0  0  0  0  0  0  0  0  0
  152.7204  142.9679  162.3452 H   0  0  0  0  0  0  0  0  0  0  0  0
  151.4611  145.0170  161.6666 H   0  0  0  0  0  0  0  0  0  0  0  0
  151.2273  145.5625  159.2337 H   0  0  0  0  0  0  0  0  0  0  0  0
  152.2991  143.9807  157.5253 H   0  0  0  0  0  0  0  0  0  0  0  0
  158.2293  137.4725  159.2322 H   0  0  0  0  0  0  0  0  0  0  0  0
  159.5301  137.8837  161.0910 H   0  0  0  0  0  0  0  0  0  0  0  0
  158.6463  139.3865  161.3625 H   0  0  0  0  0  0  0  0  0  0  0  0
  155.2969  135.4988  162.2862 H   0  0  0  0  0  0  0  0  0  0  0  0
  156.4667  135.5895  163.5755 H   0  0  0  0  0  0  0  0  0  0  0  0
  155.5817  137.1704  160.3116 H   0  0  0  0  0  0  0  0  0  0  0  0
  156.8214  135.9294  160.1811 H   0  0  0  0  0  0  0  0  0  0  0  0
  153.4392  142.1177  158.2905 H   0  0  0  0  0  0  0  0  0  0  0  0
  1  2  2  0  0  0  0
  2  3  1  0  0  0  0
  2 12  1  0  0  0  0
  3  4  1  0  0  0  0
  3 23  1  0  0  0  0
  4  5  1  0  0  0  0
  4 24  1  0  0  0  0
  4 25  1  0  0  0  0
  5  6  1  0  0  0  0
  5 26  1  0  0  0  0
  5 27  1  0  0  0  0
  6 11  1  0  0  0  0
  6  7  2  0  0  0  0
  7  8  1  0  0  0  0
  7 28  1  0  0  0  0
  8  9  2  0  0  0  0
  8 29  1  0  0  0  0
  9 10  1  0  0  0  0
  9 30  1  0  0  0  0
 10 11  2  0  0  0  0
 10 31  1  0  0  0  0
 11 39  1  0  0  0  0
 12 22  1  0  0  0  0
 12 13  1  0  0  0  0
 12 32  1  0  0  0  0
 13 14  1  0  0  0  0
 13 33  1  0  0  0  0
 13 34  1  0  0  0  0
 14 15  2  0  0  0  0
 14 16  1  0  0  0  0
 16 17  1  0  0  0  0
 16 22  1  0  0  0  0
 17 18  1  0  0  0  0
 17 35  1  0  0  0  0
 17 36  1  0  0  0  0
 18 19  1  0  0  0  0
 18 20  1  0  0  0  0
 18 21  1  0  0  0  0
 22 37  1  0  0  0  0
 22 38  1  0  0  0  0
M  CHG  1  11   1
M  END
> <s_m_source_file>
AV-unprocessed.smi

> <i_m_source_file_index>
1682

> <i_lp_mmshare_version>
43012

> <i_f3d_flags>
0

> <s_epik_input>
RkMoRikoRilbQ0gyXU4oW0NIMl0xKUMoPU8pW0NIMl1bQ0BIXTFDKD1PKVtOSF1bQ0gyXVtDSDJdYzJbY0hdW2NIXVtjSF1bY0hdbjI=

> <s_epik_cmdline>
J2VwaWtfcHl0aG9uJywgJy1waCcsICc3LjAnLCAnLXRuJywgJzgnLCAnLW1hJywgJzIwMCcsICctbWV0YWxfYmluZGluZycsICctaW1hZScsICc8aW5maWxlLm1hZT4nLCAnLW9tYWUnLCAnPG91dGZpbGUubWFlPic=

> <r_epik_Ionization_Penalty>
1.88249

> <r_epik_Ionization_Penalty_Charging>
1.88249

> <r_epik_Ionization_Penalty_Neutral>
2.8664e-08

> <r_epik_State_Penalty>
2.00238

> <r_epik_Charging_Adjusted_Penalty>
3.88487

> <i_epik_Tot_Q>
1

> <i_epik_Tot_abs_Q>
1

> <r_epik_Metal_State_Penalty>
2.02677

> <b_epik_Metal_Only>
0

> <s_lp_Force_Field>
OPLS_2005

> <r_lp_Energy>
19.2524

> <b_lp_Chiralities_Consistent>
1

> <s_lp_Variant>
AV-unprocessed.smi:1682-4

> <Gold.Version>
5.8.1

> <Gold.Id.Protein>
6NUR|6NUR_protein|mol2

> <Gold.PLP.Fitness>
43.5951

> <Gold.PLP.PLP>
-41.7971

> <Gold.PLP.part.hbond>
-1.0000

> <Gold.PLP.part.metal>
0.0000

> <Gold.PLP.part.buried>
-5.1916

> <Gold.PLP.part.nonpolar>
-36.1187

> <Gold.PLP.part.repulsive>
0.5155

> <Gold.PLP.ligand.clash>
0.0000

> <Gold.PLP.ligand.torsion>
0.6684

> <Gold.PLP.Chemscore.Hbond>
1.0000

> <Gold.PLP.Chemscore.CHOScore>
0.0000

> <Gold.PLP.Chemscore.Metal>
0.0000

> <Gold.Chemscore.Hbonds>
donor molecule, donor type, donor heavy atom, donor atom, acceptor molecule, acceptor atom, score
      P1  H  7997  8008       L1     1  1.00

> <Gold.PLP.Chemscore.Internal.Correction>
0.1348

> <Gold.Rescore>
     Score         DG    S(hbond)    S(metal)    S(lipo)     H(rot)  DE(clash)    DE(int)     intcor
     13.35     -14.21       0.98        0.00      94.63       2.19       0.09       0.76       ----

> <Gold.Chemscore.Fitness>
13.3546

> <Gold.Chemscore.DG>
-14.2056

> <Gold.Chemscore.ZeroCoef>
-5.4800

> <Gold.Chemscore.Hbond>
0.9786

> <Gold.Chemscore.Metal>
0.0000

> <Gold.Chemscore.Lipo>
94.6287

> <Gold.Chemscore.Internal_Hbond>
0.0000

> <Gold.Chemscore.DEClash>
0.0933

> <Gold.Chemscore.DEInternal>
0.7576

> <Gold.Chemscore.Rot>
2.1932

> <Gold.Chemscore.Internal.Correction>
   9.000000E+99

> <Gold.Chemscore.Hbonds>
donor molecule, donor type, donor heavy atom, donor atom, acceptor molecule, acceptor atom, score
      P1  H  7997  8008       L1     1  0.97

> <Gold.Chemscore.Hbond.Weighted>
-3.2685

> <Gold.Chemscore.Metal.Weighted>
-0.0000

> <Gold.Chemscore.Lipo.Weighted>
-11.0716

> <Gold.Chemscore.Internal_Hbond.Weighted>
0.0000

> <Gold.Chemscore.DEClash.Weighted>
0.0933

> <Gold.Chemscore.DEInternal.Weighted>
0.7576

> <Gold.Chemscore.Rot.Weighted>
5.6145

> <Gold.Chemscore.Internal.Correction.Weighted>
   9.000000E+99

> <Gold.Protein.RotatedTorsions>
[ 6907 6896 6895 6894 ] final   94.28 input  -60.11 | X-H torsion
[ 7974 7965 7964 7962 ] final -129.74 input  175.53 | X-H torsion
[ 8008 7997 7996 7995 ] final -170.14 input   59.86 | X-H torsion
[ 10167 10162 10161 10158 ] final -109.39 input  -65.29 | X-H torsion
[ 10718 10713 10712 10709 ] final -161.75 input   66.30 | X-H torsion
[ 10763 10752 10751 10750 ] final  -69.41 input  -60.55 | X-H torsion
[ 11005 11000 10999 10996 ] final -108.14 input  -57.11 | X-H torsion

> <Gold.Protein.ActiveResidues>
 VAL166  LYS551  ARG553  GLY616  TRP617  ASP618  TYR619  PRO620  LYS621  CYS622 
 ASP623  PHE694  ASN695  SER759  ASP760  ASP761  ALA762  ILE779  LEU786  VAL792 
 PHE793  MET794  SER795  GLU796  ALA797  LYS798  CYS799  TRP800  GLU811  SER814 

> <Gold.Protein.RotatedAtoms>
  152.5450  134.1217  159.8401 H   0  0  0  0  0  0  0  0  0  0  0  0  # atno 6907 bound_to 6896
  151.1272  133.5055  159.2607 H   0  0  0  0  0  0  0  0  0  0  0  0  # atno 6908 bound_to 6896
  151.1714  135.0329  159.8808 H   0  0  0  0  0  0  0  0  0  0  0  0  # atno 6909 bound_to 6896
  144.9543  140.7378  143.4768 H   0  0  0  0  0  0  0  0  0  0  0  0  # atno 7974 bound_to 7965
  155.9143  140.1063  157.1255 H   0  0  0  0  0  0  0  0  0  0  0  0  # atno 8008 bound_to 7997
  154.4044  140.1268  156.4662 H   0  0  0  0  0  0  0  0  0  0  0  0  # atno 8009 bound_to 7997
  155.7272  140.3469  155.5045 H   0  0  0  0  0  0  0  0  0  0  0  0  # atno 8010 bound_to 7997
  140.1558  143.4161  152.1461 H   0  0  0  0  0  0  0  0  0  0  0  0  # atno 10167 bound_to 10162
  156.6007  130.8809  151.2913 H   0  0  0  0  0  0  0  0  0  0  0  0  # atno 10718 bound_to 10713
  154.4030  135.6026  153.5908 H   0  0  0  0  0  0  0  0  0  0  0  0  # atno 10763 bound_to 10752
  152.9788  135.5911  154.4161 H   0  0  0  0  0  0  0  0  0  0  0  0  # atno 10764 bound_to 10752
  154.3963  135.2842  155.2102 H   0  0  0  0  0  0  0  0  0  0  0  0  # atno 10765 bound_to 10752
  141.0917  133.9043  157.2060 H   0  0  0  0  0  0  0  0  0  0  0  0  # atno 11005 bound_to 11000
  145.2797  139.1923  143.4798 LP  0  0  0  0  0  0  0  0  0  0  0  0  # atno 17320 bound_to 7965
  146.3332  140.2757  142.8608 LP  0  0  0  0  0  0  0  0  0  0  0  0  # atno 17321 bound_to 7965
  139.5404  144.7251  151.4753 LP  0  0  0  0  0  0  0  0  0  0  0  0  # atno 17342 bound_to 10162
  140.6674  143.8369  150.6958 LP  0  0  0  0  0  0  0  0  0  0  0  0  # atno 17343 bound_to 10162
  157.7280  130.9651  150.1724 LP  0  0  0  0  0  0  0  0  0  0  0  0  # atno 17370 bound_to 10713
  156.2472  130.3697  149.8272 LP  0  0  0  0  0  0  0  0  0  0  0  0  # atno 17371 bound_to 10713
  139.9744  135.0118  156.9595 LP  0  0  0  0  0  0  0  0  0  0  0  0  # atno 17394 bound_to 11000
  140.5236  134.0883  155.7298 LP  0  0  0  0  0  0  0  0  0  0  0  0  # atno 17395 bound_to 11000

$$$$
