AV-unprocessed.smi:2410|AV-procd|sdf|9527|dock9
  -GOLD-   2272013163D 1   1.00000     0.00000
 Structure written by MMmdl.
 46 48  0  0  0  0  0  0  0  0  1 V2000
  153.6131  142.3174  162.2112 C   0  0  0  0  0  0  0  0  0  0  0  0
  153.0007  142.1441  160.8325 C   0  0  0  0  0  0  0  0  0  0  0  0
  153.2579  140.9565  160.1108 C   0  0  0  0  0  0  0  0  0  0  0  0
  152.7099  140.7576  158.8246 C   0  0  0  0  0  0  0  0  0  0  0  0
  152.8284  139.6898  157.9511 N   0  0  0  0  0  0  0  0  0  0  0  0
  152.0916  140.1016  156.9230 C   0  0  0  0  0  0  0  0  0  0  0  0
  151.5099  141.3118  157.0277 N   0  0  0  0  0  0  0  0  0  0  0  0
  150.6653  141.9729  156.0498 C   0  0  0  0  0  0  0  0  0  0  0  0
  149.3780  141.1783  155.7575 C   0  0  1  0  0  0  0  0  0  0  0  0
  148.3964  142.0802  155.2836 O   0  0  0  0  0  0  0  0  0  0  0  0
  149.6077  140.0852  154.6914 C   0  0  0  0  0  0  0  0  0  0  0  0
  148.3793  139.3259  154.4054 N   0  0  0  0  0  0  0  0  0  0  0  0
  147.6721  139.6977  153.2507 C   0  0  0  0  0  0  0  0  0  0  0  0
  146.5861  139.0928  152.8954 N   0  0  0  0  0  0  0  0  0  0  0  0
  146.0844  138.0454  153.6735 C   0  0  0  0  0  0  0  0  0  0  0  0
  144.8077  137.4017  153.1621 C   0  0  0  0  0  0  0  0  0  0  0  0
  146.7137  137.6469  154.8128 C   0  0  0  0  0  0  0  0  0  0  0  0
  146.2109  136.5179  155.7037 C   0  0  0  0  0  0  0  0  0  0  0  0
  147.9501  138.3274  155.2308 C   0  0  0  0  0  0  0  0  0  0  0  0
  148.5664  138.0260  156.2553 O   0  0  0  0  0  0  0  0  0  0  0  0
  151.8902  141.7871  158.2772 C   0  0  0  0  0  0  0  0  0  0  0  0
  151.6255  142.9725  158.9856 C   0  0  0  0  0  0  0  0  0  0  0  0
  152.1827  143.1561  160.2683 C   0  0  0  0  0  0  0  0  0  0  0  0
  151.8951  144.4417  161.0235 C   0  0  0  0  0  0  0  0  0  0  0  0
  154.1685  141.4296  162.5148 H   0  0  0  0  0  0  0  0  0  0  0  0
  152.8370  142.4951  162.9559 H   0  0  0  0  0  0  0  0  0  0  0  0
  154.3015  143.1628  162.2188 H   0  0  0  0  0  0  0  0  0  0  0  0
  153.8814  140.1860  160.5397 H   0  0  0  0  0  0  0  0  0  0  0  0
  151.9690  139.4888  156.0419 H   0  0  0  0  0  0  0  0  0  0  0  0
  150.4290  142.9774  156.4044 H   0  0  0  0  0  0  0  0  0  0  0  0
  151.2482  142.0931  155.1359 H   0  0  0  0  0  0  0  0  0  0  0  0
  149.0206  140.7327  156.6867 H   0  0  0  0  0  0  0  0  0  0  0  0
  148.5382  142.9211  155.6907 H   0  0  0  0  0  0  0  0  0  0  0  0
  150.0525  140.5129  153.7904 H   0  0  0  0  0  0  0  0  0  0  0  0
  150.3612  139.3810  155.0493 H   0  0  0  0  0  0  0  0  0  0  0  0
  148.1000  140.5263  152.6836 H   0  0  0  0  0  0  0  0  0  0  0  0
  144.9664  136.3410  152.9659 H   0  0  0  0  0  0  0  0  0  0  0  0
  144.4730  137.8657  152.2335 H   0  0  0  0  0  0  0  0  0  0  0  0
  144.0068  137.5061  153.8947 H   0  0  0  0  0  0  0  0  0  0  0  0
  146.0025  136.8945  156.7057 H   0  0  0  0  0  0  0  0  0  0  0  0
  146.9685  135.7380  155.7863 H   0  0  0  0  0  0  0  0  0  0  0  0
  145.2998  136.0514  155.3330 H   0  0  0  0  0  0  0  0  0  0  0  0
  151.0017  143.7350  158.5427 H   0  0  0  0  0  0  0  0  0  0  0  0
  151.2691  145.1157  160.4382 H   0  0  0  0  0  0  0  0  0  0  0  0
  152.8232  144.9648  161.2553 H   0  0  0  0  0  0  0  0  0  0  0  0
  151.3742  144.2282  161.9570 H   0  0  0  0  0  0  0  0  0  0  0  0
  1  2  1  0  0  0  0
  1 25  1  0  0  0  0
  1 26  1  0  0  0  0
  1 27  1  0  0  0  0
  2 23  1  0  0  0  0
  2  3  2  0  0  0  0
  3  4  1  0  0  0  0
  3 28  1  0  0  0  0
  4 21  2  0  0  0  0
  4  5  1  0  0  0  0
  5  6  2  0  0  0  0
  6  7  1  0  0  0  0
  6 29  1  0  0  0  0
  7  8  1  0  0  0  0
  7 21  1  0  0  0  0
  8  9  1  0  0  0  0
  8 30  1  0  0  0  0
  8 31  1  0  0  0  0
  9 10  1  0  0  0  0
  9 11  1  0  0  0  0
  9 32  1  0  0  0  0
 10 33  1  0  0  0  0
 11 12  1  0  0  0  0
 11 34  1  0  0  0  0
 11 35  1  0  0  0  0
 12 19  1  0  0  0  0
 12 13  1  0  0  0  0
 13 14  2  0  0  0  0
 13 36  1  0  0  0  0
 14 15  1  0  0  0  0
 15 16  1  0  0  0  0
 15 17  2  0  0  0  0
 16 37  1  0  0  0  0
 16 38  1  0  0  0  0
 16 39  1  0  0  0  0
 17 18  1  0  0  0  0
 17 19  1  0  0  0  0
 18 40  1  0  0  0  0
 18 41  1  0  0  0  0
 18 42  1  0  0  0  0
 19 20  2  0  0  0  0
 21 22  1  0  0  0  0
 22 23  2  0  0  0  0
 22 43  1  0  0  0  0
 23 24  1  0  0  0  0
 24 44  1  0  0  0  0
 24 45  1  0  0  0  0
 24 46  1  0  0  0  0
M  END
> <s_m_source_file>
AV-unprocessed.smi

> <i_m_source_file_index>
2410

> <i_lp_mmshare_version>
43012

> <i_f3d_flags>
0

> <s_epik_input>
W0NIM11jKFtjSF0xKWMoW0NIM10pW2NIXWMoYzEyKW4oW2NIXW4yKVtDSDJdW0NASF0oW09IXSlbQ0gyXW4zW2NIXW5jKFtDSDNdKWMoW0NIM10pYzM9Tw==

> <s_epik_cmdline>
J2VwaWtfcHl0aG9uJywgJy1waCcsICc3LjAnLCAnLXRuJywgJzgnLCAnLW1hJywgJzIwMCcsICctbWV0YWxfYmluZGluZycsICctaW1hZScsICc8aW5maWxlLm1hZT4nLCAnLW9tYWUnLCAnPG91dGZpbGUubWFlPic=

> <r_lp_tautomer_probability>
1

> <r_epik_Ionization_Penalty>
0.113377

> <r_epik_Ionization_Penalty_Charging>
7.56033e-08

> <r_epik_Ionization_Penalty_Neutral>
0.113377

> <r_epik_State_Penalty>
0.103025

> <r_epik_Charging_Adjusted_Penalty>
0.103025

> <i_epik_Tot_Q>
0

> <i_epik_Tot_abs_Q>
0

> <r_epik_Metal_State_Penalty>
0.0863476

> <b_epik_Metal_Only>
0

> <s_lp_Force_Field>
OPLS_2005

> <r_lp_Energy>
18.3765

> <b_lp_Chiralities_Consistent>
1

> <s_lp_Variant>
AV-unprocessed.smi:2410-2

> <Gold.Version>
5.8.1

> <Gold.Id.Protein>
6NUR|6NUR_protein|mol2

> <Gold.PLP.Fitness>
47.7480

> <Gold.PLP.PLP>
-40.7656

> <Gold.PLP.part.hbond>
-2.0000

> <Gold.PLP.part.metal>
0.0000

> <Gold.PLP.part.buried>
-3.0402

> <Gold.PLP.part.nonpolar>
-34.7967

> <Gold.PLP.part.repulsive>
0.2974

> <Gold.PLP.ligand.clash>
0.0000

> <Gold.PLP.ligand.torsion>
0.5497

> <Gold.PLP.Chemscore.Hbond>
1.9280

> <Gold.PLP.Chemscore.CHOScore>
0.7613

> <Gold.PLP.Chemscore.Metal>
0.0000

> <Gold.Chemscore.Hbonds>
donor molecule, donor type, donor heavy atom, donor atom, acceptor molecule, acceptor atom, score
      L1  H    10    33       P1  8028  1.00
      P1  H  7997  8008       L1     5  0.74
      L1  C    13    36       P1  7957  0.76

> <Gold.PLP.Chemscore.Internal.Correction>
0.0140

> <Gold.Rescore>
     Score         DG    S(hbond)    S(metal)    S(lipo)     H(rot)  DE(clash)    DE(int)     intcor
     14.74     -15.40       1.00        0.00     107.72       2.35       0.02       0.64       ----

> <Gold.Chemscore.Fitness>
14.7401

> <Gold.Chemscore.DG>
-15.3987

> <Gold.Chemscore.ZeroCoef>
-5.4800

> <Gold.Chemscore.Hbond>
0.9959

> <Gold.Chemscore.Metal>
0.0000

> <Gold.Chemscore.Lipo>
107.7178

> <Gold.Chemscore.Internal_Hbond>
0.0000

> <Gold.Chemscore.DEClash>
0.0174

> <Gold.Chemscore.DEInternal>
0.6411

> <Gold.Chemscore.Rot>
2.3479

> <Gold.Chemscore.Internal.Correction>
   9.000000E+99

> <Gold.Chemscore.Hbonds>
donor molecule, donor type, donor heavy atom, donor atom, acceptor molecule, acceptor atom, score
      L1  H    10    33       P1  8028  0.97
      P1  H  7997  8008       L1     5  0.05

> <Gold.Chemscore.Hbond.Weighted>
-3.3263

> <Gold.Chemscore.Metal.Weighted>
-0.0000

> <Gold.Chemscore.Lipo.Weighted>
-12.6030

> <Gold.Chemscore.Internal_Hbond.Weighted>
0.0000

> <Gold.Chemscore.DEClash.Weighted>
0.0174

> <Gold.Chemscore.DEInternal.Weighted>
0.6411

> <Gold.Chemscore.Rot.Weighted>
6.0106

> <Gold.Chemscore.Internal.Correction.Weighted>
   9.000000E+99

> <Gold.Protein.RotatedTorsions>
[ 6907 6896 6895 6894 ] final   76.17 input  -60.11 | X-H torsion
[ 7974 7965 7964 7962 ] final   33.27 input  175.53 | X-H torsion
[ 8008 7997 7996 7995 ] final  -97.81 input   59.86 | X-H torsion
[ 10167 10162 10161 10158 ] final -152.31 input  -65.29 | X-H torsion
[ 10718 10713 10712 10709 ] final  111.15 input   66.30 | X-H torsion
[ 10763 10752 10751 10750 ] final   -2.55 input  -60.55 | X-H torsion
[ 11005 11000 10999 10996 ] final  123.97 input  -57.11 | X-H torsion

> <Gold.Protein.ActiveResidues>
 VAL166  LYS551  ARG553  GLY616  TRP617  ASP618  TYR619  PRO620  LYS621  CYS622 
 ASP623  PHE694  ASN695  SER759  ASP760  ASP761  ALA762  ILE779  LEU786  VAL792 
 PHE793  MET794  SER795  GLU796  ALA797  LYS798  CYS799  TRP800  GLU811  SER814 

> <Gold.Protein.RotatedAtoms>
  152.5061  134.4009  159.9415 H   0  0  0  0  0  0  0  0  0  0  0  0  # atno 6907 bound_to 6896
  151.3973  133.3763  159.2736 H   0  0  0  0  0  0  0  0  0  0  0  0  # atno 6908 bound_to 6896
  150.9388  134.8819  159.7658 H   0  0  0  0  0  0  0  0  0  0  0  0  # atno 6909 bound_to 6896
  146.1432  139.6419  142.9149 H   0  0  0  0  0  0  0  0  0  0  0  0  # atno 7974 bound_to 7965
  154.7927  140.0460  157.1213 H   0  0  0  0  0  0  0  0  0  0  0  0  # atno 8008 bound_to 7997
  154.9571  140.3072  155.5028 H   0  0  0  0  0  0  0  0  0  0  0  0  # atno 8009 bound_to 7997
  156.2952  140.2277  156.4654 H   0  0  0  0  0  0  0  0  0  0  0  0  # atno 8010 bound_to 7997
  139.7192  143.8984  152.2497 H   0  0  0  0  0  0  0  0  0  0  0  0  # atno 10167 bound_to 10162
  157.6459  131.0945  150.6707 H   0  0  0  0  0  0  0  0  0  0  0  0  # atno 10718 bound_to 10713
  153.3595  135.6989  153.6724 H   0  0  0  0  0  0  0  0  0  0  0  0  # atno 10763 bound_to 10752
  153.5418  135.3571  155.2722 H   0  0  0  0  0  0  0  0  0  0  0  0  # atno 10764 bound_to 10752
  154.8666  135.4205  154.2849 H   0  0  0  0  0  0  0  0  0  0  0  0  # atno 10765 bound_to 10752
  139.9337  134.9640  156.8339 H   0  0  0  0  0  0  0  0  0  0  0  0  # atno 11005 bound_to 11000
  145.4999  141.0437  143.2546 LP  0  0  0  0  0  0  0  0  0  0  0  0  # atno 17320 bound_to 7965
  144.7816  139.6514  143.7152 LP  0  0  0  0  0  0  0  0  0  0  0  0  # atno 17321 bound_to 7965
  139.8875  144.6984  150.8807 LP  0  0  0  0  0  0  0  0  0  0  0  0  # atno 17342 bound_to 10162
  140.7750  143.3612  151.1825 LP  0  0  0  0  0  0  0  0  0  0  0  0  # atno 17343 bound_to 10162
  156.7024  130.4627  149.5569 LP  0  0  0  0  0  0  0  0  0  0  0  0  # atno 17370 bound_to 10713
  156.1786  130.6484  151.0924 LP  0  0  0  0  0  0  0  0  0  0  0  0  # atno 17371 bound_to 10713
  140.6133  134.0062  155.7586 LP  0  0  0  0  0  0  0  0  0  0  0  0  # atno 17394 bound_to 11000
  141.0939  133.9873  157.3192 LP  0  0  0  0  0  0  0  0  0  0  0  0  # atno 17395 bound_to 11000

$$$$
