#       Name:                AV-unprocessed.smi:1103
#       Creating user name   scv26
#       Creation time:       Fri Mar 27 03:31:17 2020


#       File generated by GOLD software.
#

@<TRIPOS>MOLECULE
AV-unprocessed.smi:1103
    47    48     1
SMALL
NO_CHARGES


@<TRIPOS>ATOM
      1 ****        -0.0047   2.0678  -2.6425 C.3            1 S1                 0.0000
      2 ****        -1.4633   2.4270  -2.3264 C.3            1 S1                 0.0000
      3 ****        -2.0078   1.6580  -1.1782 N.4            1 S1                 1.0000
      4 ****        -3.4921   1.5877  -1.2123 C.3            1 S1                 0.0000
      5 ****        -4.0404   0.6939  -0.0884 C.3            1 S1                 0.0000
      6 ****        -3.5314   1.1564   1.2846 C.3            1 S1                 0.0000
      7 ****        -1.9944   1.2547   1.3053 C.3            1 S1                 0.0000
      8 ****        -1.3275  -0.1407   1.3500 C.3            1 S1                 0.0000
      9 ****         0.1190  -0.0706   1.5331 N.am           1 S1                 0.0000
     10 ****         1.0344  -0.2383   0.5661 C.2            1 S1                 0.0000
     11 ****         0.7450  -0.4369  -0.6137 O.2            1 S1                 0.0000
     12 ****         2.5014  -0.1736   0.9927 C.3            1 S1                 0.0000
     13 ****         3.0895  -1.4999   1.0270 N.pl3          1 S1                 0.0000
     14 ****         3.6872  -2.1988  -0.0008 C.2            1 S1                 0.0000
     15 ****         4.0799  -3.4085   0.4980 C.2            1 S1                 0.0000
     16 ****         4.7747  -4.5346  -0.2118 C.3            1 S1                 0.0000
     17 ****         3.6722  -3.3518   1.8614 C.2            1 S1                 0.0000
     18 ****         3.0793  -2.2110   2.1749 N.2            1 S1                 0.0000
     19 ****        -1.5165   2.1501   0.1378 C.3            1 S1                 0.0000
     20 ****         0.3423   2.6150  -3.5191 H              1 S1                 0.0000
     21 ****         0.0991   1.0045  -2.8593 H              1 S1                 0.0000
     22 ****         0.6688   2.3131  -1.8218 H              1 S1                 0.0000
     23 ****        -1.5651   3.4974  -2.1416 H              1 S1                 0.0000
     24 ****        -2.0543   2.2121  -3.2178 H              1 S1                 0.0000
     25 ****        -3.9051   2.5941  -1.1256 H              1 S1                 0.0000
     26 ****        -3.8217   1.1921  -2.1738 H              1 S1                 0.0000
     27 ****        -5.1307   0.7104  -0.1021 H              1 S1                 0.0000
     28 ****        -3.7519  -0.3423  -0.2670 H              1 S1                 0.0000
     29 ****        -3.9577   2.1347   1.5111 H              1 S1                 0.0000
     30 ****        -3.8846   0.4832   2.0665 H              1 S1                 0.0000
     31 ****        -1.7194   1.7590   2.2330 H              1 S1                 0.0000
     32 ****        -1.7274  -0.7054   2.1928 H              1 S1                 0.0000
     33 ****        -1.5742  -0.7219   0.4606 H              1 S1                 0.0000
     34 ****         0.4517   0.0832   2.4746 H              1 S1                 0.0000
     35 ****         3.0603   0.4406   0.2855 H              1 S1                 0.0000
     36 ****         2.6021   0.2946   1.9736 H              1 S1                 0.0000
     37 ****         3.7793  -1.7823  -0.9933 H              1 S1                 0.0000
     38 ****         4.6364  -5.4851   0.3040 H              1 S1                 0.0000
     39 ****         5.8483  -4.3611  -0.2847 H              1 S1                 0.0000
     40 ****         4.3998  -4.6640  -1.2274 H              1 S1                 0.0000
     41 ****         3.7875  -4.1038   2.6282 H              1 S1                 0.0000
     42 ****        -0.4305   2.2236   0.1423 H              1 S1                 0.0000
     43 ****        -1.8828   3.1669   0.2888 H              1 S1                 0.0000
     44 ****        -1.6742   0.7101  -1.2835 H              1 S1                 0.0000
     45 ****        -0.2143  -0.4801  -0.8928 LP             1 S1                 0.0000
     46 ****         1.4692  -0.5551  -1.2931 LP             1 S1                 0.0000
     47 ****         2.7075  -1.9372   3.0619 LP             1 S1                 0.0000
@<TRIPOS>BOND
    1    1    2 1     
    2    1   20 1     
    3    1   21 1     
    4    1   22 1     
    5    2    3 1     
    6    2   23 1     
    7    2   24 1     
    8    3   19 1     
    9    3    4 1     
   10    3   44 1     
   11    4    5 1     
   12    4   25 1     
   13    4   26 1     
   14    5    6 1     
   15    5   27 1     
   16    5   28 1     
   17    6    7 1     
   18    6   29 1     
   19    6   30 1     
   20    7    8 1     
   21    7   19 1     
   22    7   31 1     
   23    8    9 1     
   24    8   32 1     
   25    8   33 1     
   26    9   10 am    
   27    9   34 1     
   28   10   11 2     
   29   10   12 1     
   30   12   13 1     
   31   12   35 1     
   32   12   36 1     
   33   13   18 1     
   34   13   14 1     
   35   14   15 2     
   36   14   37 1     
   37   15   16 1     
   38   15   17 1     
   39   16   38 1     
   40   16   39 1     
   41   16   40 1     
   42   17   18 2     
   43   17   41 1     
   44   19   42 1     
   45   19   43 1     
   46   11   45 1     
   47   11   46 1     
   48   18   47 1     
@<TRIPOS>SUBSTRUCTURE
      1 S1             1
@<TRIPOS>SET
LONE_PAIRS      STATIC     ATOMS    <user>   **** ""
3 45 46 47
DONOR_HYDROGENS      STATIC     ATOMS    <user>   **** ""
2 44 34
ATOM$BLUE        STATIC     ATOMS    COLORGROUP SYSTEM
3 45 46 47
ATOM$RED        STATIC     ATOMS    COLORGROUP SYSTEM
2 44 34
