AV-unprocessed.smi:1859|AV-procd|sdf|7545|dock7
  -GOLD-   22720 9263D 1   1.00000     0.00000
 Structure written by MMmdl.
 46 48  0  0  0  0  0  0  0  0  2 V2000
  152.4239  137.9158  157.9728 O   0  0  0  0  0  0  0  0  0  0  0  0
  151.2234  138.1495  158.1166 C   0  0  0  0  0  0  0  0  0  0  0  0
  150.6805  139.3572  157.8960 N   0  0  0  0  0  0  0  0  0  0  0  0
  151.4182  140.5338  157.4505 C   0  0  0  0  0  0  0  0  0  0  0  0
  150.5166  141.7779  157.3732 C   0  0  0  0  0  0  0  0  0  0  0  0
  151.0889  142.9489  158.1474 C   0  0  0  0  0  0  0  0  0  0  0  0
  152.2189  142.8124  158.9828 C   0  0  0  0  0  0  0  0  0  0  0  0
  152.7085  143.9425  159.6700 C   0  0  0  0  0  0  0  0  0  0  0  0
  152.0592  145.1839  159.5071 C   0  0  0  0  0  0  0  0  0  0  0  0
  150.9364  145.2641  158.6579 C   0  0  0  0  0  0  0  0  0  0  0  0
  150.4982  144.1588  158.0158 N   0  3  0  0  0  0  0  0  0  0  0  0
  150.2666  137.0372  158.5648 C   0  0  2  0  0  0  0  0  0  0  0  0
  150.1128  135.9593  157.4659 C   0  0  0  0  0  0  0  0  0  0  0  0
  149.0486  134.9091  157.8395 C   0  0  0  0  0  0  0  0  0  0  0  0
  147.7329  135.5893  158.2569 C   0  0  0  0  0  0  0  0  0  0  0  0
  148.0114  136.5106  159.3680 N   0  0  0  0  0  0  0  0  0  0  0  0
  147.6201  136.3495  160.6571 C   0  0  0  0  0  0  0  0  0  0  0  0
  147.8791  137.1804  161.5291 O   0  0  0  0  0  0  0  0  0  0  0  0
  146.8711  135.0960  160.9938 C   0  0  0  0  0  0  0  0  0  0  0  0
  146.4298  134.9281  162.4324 C   0  0  0  0  0  0  0  0  0  0  0  0
  147.5442  134.0723  161.8906 C   0  0  0  0  0  0  0  0  0  0  0  0
  148.8815  137.6135  158.9391 C   0  0  0  0  0  0  0  0  0  0  0  0
  149.6858  139.4633  158.0350 H   0  0  0  0  0  0  0  0  0  0  0  0
  152.2605  140.7141  158.1208 H   0  0  0  0  0  0  0  0  0  0  0  0
  151.8429  140.3179  156.4699 H   0  0  0  0  0  0  0  0  0  0  0  0
  150.3747  142.0736  156.3326 H   0  0  0  0  0  0  0  0  0  0  0  0
  149.5240  141.5538  157.7658 H   0  0  0  0  0  0  0  0  0  0  0  0
  152.7072  141.8550  159.0945 H   0  0  0  0  0  0  0  0  0  0  0  0
  153.5718  143.8579  160.3138 H   0  0  0  0  0  0  0  0  0  0  0  0
  152.4181  146.0615  160.0248 H   0  0  0  0  0  0  0  0  0  0  0  0
  150.3799  146.1716  158.4746 H   0  0  0  0  0  0  0  0  0  0  0  0
  150.6847  136.5604  159.4536 H   0  0  0  0  0  0  0  0  0  0  0  0
  149.8241  136.4294  156.5244 H   0  0  0  0  0  0  0  0  0  0  0  0
  151.0683  135.4665  157.2821 H   0  0  0  0  0  0  0  0  0  0  0  0
  148.8749  134.2386  156.9974 H   0  0  0  0  0  0  0  0  0  0  0  0
  149.4153  134.2901  158.6592 H   0  0  0  0  0  0  0  0  0  0  0  0
  147.3292  136.1565  157.4170 H   0  0  0  0  0  0  0  0  0  0  0  0
  146.9738  134.8416  158.4820 H   0  0  0  0  0  0  0  0  0  0  0  0
  146.2299  134.6869  160.2150 H   0  0  0  0  0  0  0  0  0  0  0  0
  146.6976  135.7057  163.1459 H   0  0  0  0  0  0  0  0  0  0  0  0
  145.4605  134.4635  162.5994 H   0  0  0  0  0  0  0  0  0  0  0  0
  147.3303  133.0246  161.6901 H   0  0  0  0  0  0  0  0  0  0  0  0
  148.5464  134.2701  162.2662 H   0  0  0  0  0  0  0  0  0  0  0  0
  148.9901  138.3854  159.7028 H   0  0  0  0  0  0  0  0  0  0  0  0
  148.4258  138.1126  158.0818 H   0  0  0  0  0  0  0  0  0  0  0  0
  149.6840  144.2403  157.4063 H   0  0  0  0  0  0  0  0  0  0  0  0
  1  2  2  0  0  0  0
  2  3  1  0  0  0  0
  2 12  1  0  0  0  0
  3  4  1  0  0  0  0
  3 23  1  0  0  0  0
  4  5  1  0  0  0  0
  4 24  1  0  0  0  0
  4 25  1  0  0  0  0
  5  6  1  0  0  0  0
  5 26  1  0  0  0  0
  5 27  1  0  0  0  0
  6 11  1  0  0  0  0
  6  7  2  0  0  0  0
  7  8  1  0  0  0  0
  7 28  1  0  0  0  0
  8  9  2  0  0  0  0
  8 29  1  0  0  0  0
  9 10  1  0  0  0  0
  9 30  1  0  0  0  0
 10 11  2  0  0  0  0
 10 31  1  0  0  0  0
 11 46  1  0  0  0  0
 12 22  1  0  0  0  0
 12 13  1  0  0  0  0
 12 32  1  0  0  0  0
 13 14  1  0  0  0  0
 13 33  1  0  0  0  0
 13 34  1  0  0  0  0
 14 15  1  0  0  0  0
 14 35  1  0  0  0  0
 14 36  1  0  0  0  0
 15 16  1  0  0  0  0
 15 37  1  0  0  0  0
 15 38  1  0  0  0  0
 16 17  1  0  0  0  0
 16 22  1  0  0  0  0
 17 18  2  0  0  0  0
 17 19  1  0  0  0  0
 19 21  1  0  0  0  0
 19 20  1  0  0  0  0
 19 39  1  0  0  0  0
 20 21  1  0  0  0  0
 20 40  1  0  0  0  0
 20 41  1  0  0  0  0
 21 42  1  0  0  0  0
 21 43  1  0  0  0  0
 22 44  1  0  0  0  0
 22 45  1  0  0  0  0
M  CHG  1  11   1
M  END
> <s_m_source_file>
AV-unprocessed.smi

> <i_m_source_file_index>
1859

> <i_lp_mmshare_version>
43012

> <i_f3d_flags>
0

> <s_epik_input>
W0NIMl0xW0NIMl1bQ0hdMUMoPU8pTihbQ0gyXTIpW0NIMl1bQ0gyXVtDSDJdW0NASF0yQyg9TylbTkhdW0NIMl1bQ0gyXWMzW2NIXVtjSF1bY0hdW2NIXW4z

> <s_epik_cmdline>
J2VwaWtfcHl0aG9uJywgJy1waCcsICc3LjAnLCAnLXRuJywgJzgnLCAnLW1hJywgJzIwMCcsICctbWV0YWxfYmluZGluZycsICctaW1hZScsICc8aW5maWxlLm1hZT4nLCAnLW9tYWUnLCAnPG91dGZpbGUubWFlPic=

> <r_epik_Ionization_Penalty>
1.84754

> <r_epik_Ionization_Penalty_Charging>
1.84754

> <r_epik_Ionization_Penalty_Neutral>
7.35743e-08

> <r_epik_State_Penalty>
1.96477

> <r_epik_Charging_Adjusted_Penalty>
3.81231

> <i_epik_Tot_Q>
1

> <i_epik_Tot_abs_Q>
1

> <r_epik_Metal_State_Penalty>
1.99062

> <b_epik_Metal_Only>
0

> <s_lp_Force_Field>
OPLS_2005

> <r_lp_Energy>
35.3834

> <b_lp_Chiralities_Consistent>
1

> <s_lp_Variant>
AV-unprocessed.smi:1859-3

> <Gold.Version>
5.8.1

> <Gold.Id.Protein>
6NUR|6NUR_protein|mol2

> <Gold.PLP.Fitness>
49.9731

> <Gold.PLP.PLP>
-41.6302

> <Gold.PLP.part.hbond>
-3.2027

> <Gold.PLP.part.metal>
0.0000

> <Gold.PLP.part.buried>
-4.4225

> <Gold.PLP.part.nonpolar>
-32.9343

> <Gold.PLP.part.repulsive>
0.1219

> <Gold.PLP.ligand.clash>
1.3026

> <Gold.PLP.ligand.torsion>
0.6807

> <Gold.PLP.Chemscore.Hbond>
3.6289

> <Gold.PLP.Chemscore.CHOScore>
0.0000

> <Gold.PLP.Chemscore.Metal>
0.0000

> <Gold.Chemscore.Hbonds>
donor molecule, donor type, donor heavy atom, donor atom, acceptor molecule, acceptor atom, score
      L1  H    11    46       P1  8028  2.00
      P1  H  6931  6943       L1    18  1.00
      P1  H  6934  6947       L1    18  0.66

> <Gold.PLP.Chemscore.Internal.Correction>
0.1200

> <Gold.Rescore>
     Score         DG    S(hbond)    S(metal)    S(lipo)     H(rot)  DE(clash)    DE(int)     intcor
     21.53     -22.33       2.70        0.00     104.23       1.70       0.02       0.78       ----

> <Gold.Chemscore.Fitness>
21.5338

> <Gold.Chemscore.DG>
-22.3339

> <Gold.Chemscore.ZeroCoef>
-5.4800

> <Gold.Chemscore.Hbond>
2.6963

> <Gold.Chemscore.Metal>
0.0000

> <Gold.Chemscore.Lipo>
104.2310

> <Gold.Chemscore.Internal_Hbond>
0.0000

> <Gold.Chemscore.DEClash>
0.0234

> <Gold.Chemscore.DEInternal>
0.7766

> <Gold.Chemscore.Rot>
1.6980

> <Gold.Chemscore.Internal.Correction>
   9.000000E+99

> <Gold.Chemscore.Hbonds>
donor molecule, donor type, donor heavy atom, donor atom, acceptor molecule, acceptor atom, score
      L1  H    11    46       P1  8028  0.24
      P1  H  6931  6943       L1    18  0.97
      P1  H  6934  6947       L1    18  0.45

> <Gold.Chemscore.Hbond.Weighted>
-9.0057

> <Gold.Chemscore.Metal.Weighted>
-0.0000

> <Gold.Chemscore.Lipo.Weighted>
-12.1950

> <Gold.Chemscore.Internal_Hbond.Weighted>
0.0000

> <Gold.Chemscore.DEClash.Weighted>
0.0234

> <Gold.Chemscore.DEInternal.Weighted>
0.7766

> <Gold.Chemscore.Rot.Weighted>
4.3469

> <Gold.Chemscore.Internal.Correction.Weighted>
   9.000000E+99

> <Gold.Protein.RotatedTorsions>
[ 6907 6896 6895 6894 ] final -151.22 input  -60.11 | X-H torsion
[ 7974 7965 7964 7962 ] final   14.39 input  175.53 | X-H torsion
[ 8008 7997 7996 7995 ] final -123.38 input   59.86 | X-H torsion
[ 10167 10162 10161 10158 ] final  -86.93 input  -65.29 | X-H torsion
[ 10718 10713 10712 10709 ] final  -46.75 input   66.30 | X-H torsion
[ 10763 10752 10751 10750 ] final   -9.24 input  -60.55 | X-H torsion
[ 11005 11000 10999 10996 ] final  112.23 input  -57.11 | X-H torsion

> <Gold.Protein.ActiveResidues>
 VAL166  LYS551  ARG553  GLY616  TRP617  ASP618  TYR619  PRO620  LYS621  CYS622 
 ASP623  PHE694  ASN695  SER759  ASP760  ASP761  ALA762  ILE779  LEU786  VAL792 
 PHE793  MET794  SER795  GLU796  ALA797  LYS798  CYS799  TRP800  GLU811  SER814 

> <Gold.Protein.RotatedAtoms>
  151.2100  133.4561  159.2597 H   0  0  0  0  0  0  0  0  0  0  0  0  # atno 6907 bound_to 6896
  151.0986  134.9959  159.8448 H   0  0  0  0  0  0  0  0  0  0  0  0  # atno 6908 bound_to 6896
  152.5441  134.2028  159.8772 H   0  0  0  0  0  0  0  0  0  0  0  0  # atno 6909 bound_to 6896
  146.2306  139.9048  142.8533 H   0  0  0  0  0  0  0  0  0  0  0  0  # atno 7974 bound_to 7965
  155.1796  140.0410  157.2879 H   0  0  0  0  0  0  0  0  0  0  0  0  # atno 8008 bound_to 7997
  154.6213  140.2501  155.7519 H   0  0  0  0  0  0  0  0  0  0  0  0  # atno 8009 bound_to 7997
  156.2435  140.2894  156.0522 H   0  0  0  0  0  0  0  0  0  0  0  0  # atno 8010 bound_to 7997
  140.3894  143.2712  151.9284 H   0  0  0  0  0  0  0  0  0  0  0  0  # atno 10167 bound_to 10162
  156.2152  130.4163  149.9063 H   0  0  0  0  0  0  0  0  0  0  0  0  # atno 10718 bound_to 10713
  153.4519  135.7015  153.6104 H   0  0  0  0  0  0  0  0  0  0  0  0  # atno 10763 bound_to 10752
  153.4435  135.3774  155.2242 H   0  0  0  0  0  0  0  0  0  0  0  0  # atno 10764 bound_to 10752
  154.8728  135.3979  154.3932 H   0  0  0  0  0  0  0  0  0  0  0  0  # atno 10765 bound_to 10752
  139.8922  134.9525  156.6554 H   0  0  0  0  0  0  0  0  0  0  0  0  # atno 11005 bound_to 11000
  145.2287  140.9964  143.4003 LP  0  0  0  0  0  0  0  0  0  0  0  0  # atno 17320 bound_to 7965
  144.9548  139.4043  143.6384 LP  0  0  0  0  0  0  0  0  0  0  0  0  # atno 17321 bound_to 7965
  139.4790  144.5742  151.8039 LP  0  0  0  0  0  0  0  0  0  0  0  0  # atno 17342 bound_to 10162
  140.4855  144.1387  150.5940 LP  0  0  0  0  0  0  0  0  0  0  0  0  # atno 17343 bound_to 10162
  156.6728  130.8827  151.3564 LP  0  0  0  0  0  0  0  0  0  0  0  0  # atno 17370 bound_to 10713
  157.7059  130.9385  150.0931 LP  0  0  0  0  0  0  0  0  0  0  0  0  # atno 17371 bound_to 10713
  140.7488  133.8915  155.8331 LP  0  0  0  0  0  0  0  0  0  0  0  0  # atno 17394 bound_to 11000
  141.0018  134.1140  157.4310 LP  0  0  0  0  0  0  0  0  0  0  0  0  # atno 17395 bound_to 11000

$$$$
