#       Name:                AV-unprocessed.smi:2078
#       Creating user name   scv26
#       Creation time:       Fri Mar 27 11:16:54 2020


#       File generated by GOLD software.
#

@<TRIPOS>MOLECULE
AV-unprocessed.smi:2078
    47    48     1
SMALL
NO_CHARGES


@<TRIPOS>ATOM
      1 ****        -7.1698   3.8475  -1.1976 C.3            1 S1                 0.0000
      2 ****        -6.1243   3.1225  -0.4214 C.2            1 S1                 0.0000
      3 ****        -5.3241   2.0554  -0.7160 C.2            1 S1                 0.0000
      4 ****        -4.5563   1.8880   0.4686 C.2            1 S1                 0.0000
      5 ****        -3.6249   0.9443   0.6770 N.pl3          1 S1                -1.0000
      6 ****        -2.3458   1.1518   0.2895 C.2            1 S1                 0.0000
      7 ****        -1.8995   2.1621  -0.2587 O.2            1 S1                 0.0000
      8 ****        -1.5311   0.1213   0.5511 N.am           1 S1                 0.0000
      9 ****        -0.1110   0.0734   0.2326 C.3            1 S1                 0.0000
     10 ****         0.4450  -1.3356   0.4904 C.3            1 S1                 0.0000
     11 ****         1.8789  -1.4536   0.1254 N.4            1 S1                 1.0000
     12 ****         2.2716  -2.8583  -0.1578 C.3            1 S1                 0.0000
     13 ****         3.7143  -2.9382  -0.6814 C.3            1 S1                 0.0000
     14 ****         4.6935  -2.2813   0.3011 C.3            1 S1                 0.0000
     15 ****         4.2597  -0.8441   0.6439 C.3            1 S1                 0.0000
     16 ****         4.5188   0.1471  -0.5043 C.3            1 S1                 0.0000
     17 ****         2.7908  -0.8190   1.1162 C.3            1 S1                 0.0000
     18 ****        -4.8741   2.7657   1.4054 N.2            1 S1                 0.0000
     19 ****        -5.8745   3.5656   0.8400 O.3            1 S1                 0.0000
     20 ****        -7.8673   3.1450  -1.6536 H              1 S1                 0.0000
     21 ****        -6.7169   4.4398  -1.9926 H              1 S1                 0.0000
     22 ****        -7.7399   4.5205  -0.5568 H              1 S1                 0.0000
     23 ****        -5.2905   1.4867  -1.6330 H              1 S1                 0.0000
     24 ****        -1.9336  -0.6865   1.0038 H              1 S1                 0.0000
     25 ****         0.0397   0.3463  -0.8134 H              1 S1                 0.0000
     26 ****         0.4012   0.8198   0.8397 H              1 S1                 0.0000
     27 ****         0.3022  -1.6268   1.5321 H              1 S1                 0.0000
     28 ****        -0.1364  -2.0382  -0.1086 H              1 S1                 0.0000
     29 ****         2.1645  -3.4572   0.7481 H              1 S1                 0.0000
     30 ****         1.6002  -3.2875  -0.9026 H              1 S1                 0.0000
     31 ****         3.9940  -3.9801  -0.8404 H              1 S1                 0.0000
     32 ****         3.7807  -2.4531  -1.6558 H              1 S1                 0.0000
     33 ****         4.7290  -2.8738   1.2164 H              1 S1                 0.0000
     34 ****         5.7048  -2.2907  -0.1071 H              1 S1                 0.0000
     35 ****         4.8765  -0.5112   1.4796 H              1 S1                 0.0000
     36 ****         3.9219  -0.0839  -1.3867 H              1 S1                 0.0000
     37 ****         5.5680   0.1364  -0.8013 H              1 S1                 0.0000
     38 ****         4.2759   1.1663  -0.2021 H              1 S1                 0.0000
     39 ****         2.4941   0.2116   1.3081 H              1 S1                 0.0000
     40 ****         2.7021  -1.3465   2.0673 H              1 S1                 0.0000
     41 ****         1.9914  -0.9501  -0.7431 H              1 S1                 0.0000
     42 ****        -3.8776   0.0844   1.1205 LP             1 S1                 0.0000
     43 ****        -2.5056   2.9322  -0.4575 LP             1 S1                 0.0000
     44 ****        -0.9314   2.2113  -0.5045 LP             1 S1                 0.0000
     45 ****        -4.4830   2.8418   2.3226 LP             1 S1                 0.0000
     46 ****        -6.7071   3.5025   1.3901 LP             1 S1                 0.0000
     47 ****        -5.5673   4.5167   0.8081 LP             1 S1                 0.0000
@<TRIPOS>BOND
    1    1    2 1     
    2    1   20 1     
    3    1   21 1     
    4    1   22 1     
    5    2   19 1     
    6    2    3 2     
    7    3    4 1     
    8    3   23 1     
    9    4    5 1     
   10    4   18 2     
   11    5    6 1     
   12    6    7 2     
   13    6    8 am    
   14    8    9 1     
   15    8   24 1     
   16    9   10 1     
   17    9   25 1     
   18    9   26 1     
   19   10   11 1     
   20   10   27 1     
   21   10   28 1     
   22   11   17 1     
   23   11   12 1     
   24   11   41 1     
   25   12   13 1     
   26   12   29 1     
   27   12   30 1     
   28   13   14 1     
   29   13   31 1     
   30   13   32 1     
   31   14   15 1     
   32   14   33 1     
   33   14   34 1     
   34   15   16 1     
   35   15   17 1     
   36   15   35 1     
   37   16   36 1     
   38   16   37 1     
   39   16   38 1     
   40   17   39 1     
   41   17   40 1     
   42   18   19 1     
   43    5   42 1     
   44    7   43 1     
   45    7   44 1     
   46   18   45 1     
   47   19   46 1     
   48   19   47 1     
@<TRIPOS>SUBSTRUCTURE
      1 S1             1
@<TRIPOS>SET
LONE_PAIRS      STATIC     ATOMS    <user>   **** ""
6 42 43 44 45 46 47
DONOR_HYDROGENS      STATIC     ATOMS    <user>   **** ""
2 24 41
ATOM$BLUE        STATIC     ATOMS    COLORGROUP SYSTEM
6 42 43 44 45 46 47
ATOM$RED        STATIC     ATOMS    COLORGROUP SYSTEM
2 24 41
