AV-unprocessed.smi:15|AV-procd|sdf|80|dock1
  -GOLD-   2262015213D 1   1.00000     0.00000
 Structure written by MMmdl.
 53 56  0  0  0  0  0  0  0  0  1 V2000
  151.1907  139.3145  154.7156 C   0  0  0  0  0  0  0  0  0  0  0  0
  150.1937  140.1176  155.5609 C   0  0  0  0  0  0  0  0  0  0  0  0
  150.6028  140.2353  156.9606 N   0  0  0  0  0  0  0  0  0  0  0  0
  151.7783  141.0317  157.3184 C   0  0  0  0  0  0  0  0  0  0  0  0
  151.4644  142.5294  157.4953 C   0  0  1  0  0  0  0  0  0  0  0  0
  150.2566  142.7988  158.3897 C   0  0  0  0  0  0  0  0  0  0  0  0
  150.5110  144.2018  158.9201 C   0  0  0  0  0  0  0  0  0  0  0  0
  151.9936  144.4485  158.6261 C   0  0  0  0  0  0  0  0  0  0  0  0
  152.4994  143.1898  158.2078 O   0  0  0  0  0  0  0  0  0  0  0  0
  150.3963  139.1595  157.7590 C   0  0  0  0  0  0  0  0  0  0  0  0
  151.4887  138.5706  158.3095 N   0  0  0  0  0  0  0  0  0  0  0  0
  151.3528  137.4912  159.0849 C   0  0  0  0  0  0  0  0  0  0  0  0
  150.2374  136.8433  159.4250 N   0  0  0  0  0  0  0  0  0  0  0  0
  149.1376  137.4232  158.8647 C   0  0  0  0  0  0  0  0  0  0  0  0
  149.1238  138.5763  158.0297 C   0  0  0  0  0  0  0  0  0  0  0  0
  147.8185  138.8574  157.6402 N   0  0  0  0  0  0  0  0  0  0  0  0
  147.1037  137.9316  158.2182 C   0  0  0  0  0  0  0  0  0  0  0  0
  147.8173  137.0210  158.9634 N   0  0  0  0  0  0  0  0  0  0  0  0
  147.2826  135.8883  159.7020 C   0  0  0  0  0  0  0  0  0  0  0  0
  146.9413  136.2075  161.1832 C   0  0  1  0  0  0  0  0  0  0  0  0
  148.0427  136.8551  161.7923 O   0  0  0  0  0  0  0  0  0  0  0  0
  145.6998  137.0735  161.3616 C   0  0  0  0  0  0  0  0  0  0  0  0
  144.5701  136.0511  161.2857 C   0  0  0  0  0  0  0  0  0  0  0  0
  145.1147  134.8378  161.7971 O   0  0  0  0  0  0  0  0  0  0  0  0
  146.5178  134.9769  162.0084 C   0  0  1  0  0  0  0  0  0  0  0  0
  147.2460  133.6587  161.7071 C   0  0  0  0  0  0  0  0  0  0  0  0
  150.8902  139.3143  153.6677 H   0  0  0  0  0  0  0  0  0  0  0  0
  151.2486  138.2746  155.0355 H   0  0  0  0  0  0  0  0  0  0  0  0
  152.1913  139.7439  154.7730 H   0  0  0  0  0  0  0  0  0  0  0  0
  150.1035  141.1136  155.1252 H   0  0  0  0  0  0  0  0  0  0  0  0
  149.2067  139.6595  155.5008 H   0  0  0  0  0  0  0  0  0  0  0  0
  152.1891  140.6405  158.2485 H   0  0  0  0  0  0  0  0  0  0  0  0
  152.5673  140.9013  156.5766 H   0  0  0  0  0  0  0  0  0  0  0  0
  151.3173  143.0188  156.5311 H   0  0  0  0  0  0  0  0  0  0  0  0
  149.3104  142.7116  157.8548 H   0  0  0  0  0  0  0  0  0  0  0  0
  150.2392  142.0928  159.2211 H   0  0  0  0  0  0  0  0  0  0  0  0
  149.8911  144.9396  158.4095 H   0  0  0  0  0  0  0  0  0  0  0  0
  150.2940  144.2606  159.9872 H   0  0  0  0  0  0  0  0  0  0  0  0
  152.1105  145.1685  157.8147 H   0  0  0  0  0  0  0  0  0  0  0  0
  152.5388  144.8207  159.4937 H   0  0  0  0  0  0  0  0  0  0  0  0
  152.2699  137.0864  159.4871 H   0  0  0  0  0  0  0  0  0  0  0  0
  146.0299  137.8827  158.1098 H   0  0  0  0  0  0  0  0  0  0  0  0
  146.3964  135.5298  159.1773 H   0  0  0  0  0  0  0  0  0  0  0  0
  148.0137  135.0808  159.6463 H   0  0  0  0  0  0  0  0  0  0  0  0
  148.3863  136.2890  162.4664 H   0  0  0  0  0  0  0  0  0  0  0  0
  145.6956  137.5265  162.3547 H   0  0  0  0  0  0  0  0  0  0  0  0
  145.5965  137.8831  160.6399 H   0  0  0  0  0  0  0  0  0  0  0  0
  143.6910  136.3625  161.8501 H   0  0  0  0  0  0  0  0  0  0  0  0
  144.2666  135.8894  160.2508 H   0  0  0  0  0  0  0  0  0  0  0  0
  146.6417  135.2056  163.0689 H   0  0  0  0  0  0  0  0  0  0  0  0
  148.3227  133.7679  161.8370 H   0  0  0  0  0  0  0  0  0  0  0  0
  147.0601  133.3168  160.6889 H   0  0  0  0  0  0  0  0  0  0  0  0
  146.9096  132.8705  162.3808 H   0  0  0  0  0  0  0  0  0  0  0  0
  1  2  1  0  0  0  0
  1 27  1  0  0  0  0
  1 28  1  0  0  0  0
  1 29  1  0  0  0  0
  2  3  1  0  0  0  0
  2 30  1  0  0  0  0
  2 31  1  0  0  0  0
  3  4  1  0  0  0  0
  3 10  1  0  0  0  0
  4  5  1  0  0  0  0
  4 32  1  0  0  0  0
  4 33  1  0  0  0  0
  5  9  1  0  0  0  0
  5  6  1  0  0  0  0
  5 34  1  0  0  0  0
  6  7  1  0  0  0  0
  6 35  1  0  0  0  0
  6 36  1  0  0  0  0
  7  8  1  0  0  0  0
  7 37  1  0  0  0  0
  7 38  1  0  0  0  0
  8  9  1  0  0  0  0
  8 39  1  0  0  0  0
  8 40  1  0  0  0  0
 10 15  1  0  0  0  0
 10 11  2  0  0  0  0
 11 12  1  0  0  0  0
 12 13  2  0  0  0  0
 12 41  1  0  0  0  0
 13 14  1  0  0  0  0
 14 18  1  0  0  0  0
 14 15  2  0  0  0  0
 15 16  1  0  0  0  0
 16 17  2  0  0  0  0
 17 18  1  0  0  0  0
 17 42  1  0  0  0  0
 18 19  1  0  0  0  0
 19 20  1  0  0  0  0
 19 43  1  0  0  0  0
 19 44  1  0  0  0  0
 20 25  1  0  0  0  0
 20 21  1  0  0  0  0
 20 22  1  0  0  0  0
 21 45  1  0  0  0  0
 22 23  1  0  0  0  0
 22 46  1  0  0  0  0
 22 47  1  0  0  0  0
 23 24  1  0  0  0  0
 23 48  1  0  0  0  0
 23 49  1  0  0  0  0
 24 25  1  0  0  0  0
 25 26  1  0  0  0  0
 25 50  1  0  0  0  0
 26 51  1  0  0  0  0
 26 52  1  0  0  0  0
 26 53  1  0  0  0  0
M  END
> <s_m_source_file>
AV-unprocessed.smi

> <i_m_source_file_index>
15

> <i_lp_mmshare_version>
43012

> <i_f3d_flags>
0

> <s_epik_input>
TzFbQ0gyXVtDSDJdW0NIMl1bQ0BIXTFbQ0gyXU4oW0NIMl1bQ0gzXSljKG5bY0hdbjIpYyhjMjMpbltjSF1uM1tDSDJdW0NAQF00KFtPSF0pW0NIMl1bQ0gyXU9bQ0BIXTRbQ0gzXQ==

> <s_epik_cmdline>
J2VwaWtfcHl0aG9uJywgJy1waCcsICc3LjAnLCAnLXRuJywgJzgnLCAnLW1hJywgJzIwMCcsICctbWV0YWxfYmluZGluZycsICctaW1hZScsICc8aW5maWxlLm1hZT4nLCAnLW9tYWUnLCAnPG91dGZpbGUubWFlPic=

> <r_lp_tautomer_probability>
1

> <r_epik_Ionization_Penalty>
0.00360814

> <r_epik_Ionization_Penalty_Charging>
0

> <r_epik_Ionization_Penalty_Neutral>
0.00360814

> <r_epik_State_Penalty>
0.00237482

> <r_epik_Charging_Adjusted_Penalty>
0.00237482

> <i_epik_Tot_Q>
0

> <i_epik_Tot_abs_Q>
0

> <r_epik_Metal_State_Penalty>
-0

> <b_epik_Metal_Only>
0

> <s_lp_Force_Field>
OPLS_2005

> <r_lp_Energy>
45.9982

> <b_lp_Chiralities_Consistent>
1

> <s_lp_Variant>
AV-unprocessed.smi:15-2

> <Gold.Version>
5.8.1

> <Gold.Id.Protein>
6NUR|6NUR_protein|mol2

> <Gold.PLP.Fitness>
47.6661

> <Gold.PLP.PLP>
-43.9487

> <Gold.PLP.part.hbond>
-2.1500

> <Gold.PLP.part.metal>
0.0000

> <Gold.PLP.part.buried>
-7.3784

> <Gold.PLP.part.nonpolar>
-34.8854

> <Gold.PLP.part.repulsive>
0.0320

> <Gold.PLP.ligand.clash>
0.0000

> <Gold.PLP.ligand.torsion>
1.6638

> <Gold.PLP.Chemscore.Hbond>
2.0000

> <Gold.PLP.Chemscore.CHOScore>
0.0000

> <Gold.PLP.Chemscore.Metal>
0.0000

> <Gold.Chemscore.Hbonds>
donor molecule, donor type, donor heavy atom, donor atom, acceptor molecule, acceptor atom, score
      P1  H  6896  6907       L1    13  1.00
      P1  H  6931  6943       L1    21  1.00

> <Gold.PLP.Chemscore.Internal.Correction>
1.0450

> <Gold.Rescore>
     Score         DG    S(hbond)    S(metal)    S(lipo)     H(rot)  DE(clash)    DE(int)     intcor
     15.17     -16.90       1.81        0.00      99.25       2.44       0.13       1.59       ----

> <Gold.Chemscore.Fitness>
15.1727

> <Gold.Chemscore.DG>
-16.8968

> <Gold.Chemscore.ZeroCoef>
-5.4800

> <Gold.Chemscore.Hbond>
1.8140

> <Gold.Chemscore.Metal>
0.0000

> <Gold.Chemscore.Lipo>
99.2508

> <Gold.Chemscore.Internal_Hbond>
0.0000

> <Gold.Chemscore.DEClash>
0.1320

> <Gold.Chemscore.DEInternal>
1.5921

> <Gold.Chemscore.Rot>
2.4431

> <Gold.Chemscore.Internal.Correction>
   9.000000E+99

> <Gold.Chemscore.Hbonds>
donor molecule, donor type, donor heavy atom, donor atom, acceptor molecule, acceptor atom, score
      P1  H  6896  6907       L1    13  0.24
      P1  H  6931  6943       L1    21  0.40

> <Gold.Chemscore.Hbond.Weighted>
-6.0588

> <Gold.Chemscore.Metal.Weighted>
-0.0000

> <Gold.Chemscore.Lipo.Weighted>
-11.6123

> <Gold.Chemscore.Internal_Hbond.Weighted>
0.0000

> <Gold.Chemscore.DEClash.Weighted>
0.1320

> <Gold.Chemscore.DEInternal.Weighted>
1.5921

> <Gold.Chemscore.Rot.Weighted>
6.2544

> <Gold.Chemscore.Internal.Correction.Weighted>
   9.000000E+99

> <Gold.Protein.RotatedTorsions>
[ 6907 6896 6895 6894 ] final  -37.46 input  -60.11 | X-H torsion
[ 7974 7965 7964 7962 ] final -133.30 input  175.53 | X-H torsion
[ 8008 7997 7996 7995 ] final  128.11 input   59.86 | X-H torsion
[ 10167 10162 10161 10158 ] final  -45.02 input  -65.29 | X-H torsion
[ 10718 10713 10712 10709 ] final  -75.84 input   66.30 | X-H torsion
[ 10763 10752 10751 10750 ] final  178.76 input  -60.55 | X-H torsion
[ 11005 11000 10999 10996 ] final  172.93 input  -57.11 | X-H torsion

> <Gold.Protein.ActiveResidues>
 VAL166  LYS551  ARG553  GLY616  TRP617  ASP618  TYR619  PRO620  LYS621  CYS622 
 ASP623  PHE694  ASN695  SER759  ASP760  ASP761  ALA762  ILE779  LEU786  VAL792 
 PHE793  MET794  SER795  GLU796  ALA797  LYS798  CYS799  TRP800  GLU811  SER814 

> <Gold.Protein.RotatedAtoms>
  151.0145  134.9422  159.8025 H   0  0  0  0  0  0  0  0  0  0  0  0  # atno 6907 bound_to 6896
  152.5310  134.2985  159.9079 H   0  0  0  0  0  0  0  0  0  0  0  0  # atno 6908 bound_to 6896
  151.2991  133.4088  159.2672 H   0  0  0  0  0  0  0  0  0  0  0  0  # atno 6909 bound_to 6896
  144.9206  140.7009  143.4968 H   0  0  0  0  0  0  0  0  0  0  0  0  # atno 7974 bound_to 7965
  156.2907  140.2653  156.2382 H   0  0  0  0  0  0  0  0  0  0  0  0  # atno 8008 bound_to 7997
  155.0004  140.0388  157.2376 H   0  0  0  0  0  0  0  0  0  0  0  0  # atno 8009 bound_to 7997
  154.7606  140.2760  155.6222 H   0  0  0  0  0  0  0  0  0  0  0  0  # atno 8010 bound_to 7997
  140.6874  143.2900  151.3579 H   0  0  0  0  0  0  0  0  0  0  0  0  # atno 10167 bound_to 10162
  156.0194  130.4451  150.3104 H   0  0  0  0  0  0  0  0  0  0  0  0  # atno 10718 bound_to 10713
  154.5119  135.2789  155.1335 H   0  0  0  0  0  0  0  0  0  0  0  0  # atno 10763 bound_to 10752
  154.2927  135.6263  153.5395 H   0  0  0  0  0  0  0  0  0  0  0  0  # atno 10764 bound_to 10752
  152.9920  135.5678  154.5587 H   0  0  0  0  0  0  0  0  0  0  0  0  # atno 10765 bound_to 10752
  140.3350  134.7325  157.4162 H   0  0  0  0  0  0  0  0  0  0  0  0  # atno 11005 bound_to 11000
  145.3303  139.1762  143.4540 LP  0  0  0  0  0  0  0  0  0  0  0  0  # atno 17320 bound_to 7965
  146.3203  140.3331  142.8642 LP  0  0  0  0  0  0  0  0  0  0  0  0  # atno 17321 bound_to 7965
  139.6245  144.0842  152.2421 LP  0  0  0  0  0  0  0  0  0  0  0  0  # atno 17342 bound_to 10162
  140.0297  144.6090  150.7498 LP  0  0  0  0  0  0  0  0  0  0  0  0  # atno 17343 bound_to 10162
  157.1206  131.0245  151.3011 LP  0  0  0  0  0  0  0  0  0  0  0  0  # atno 17370 bound_to 10713
  157.4631  130.7665  149.7254 LP  0  0  0  0  0  0  0  0  0  0  0  0  # atno 17371 bound_to 10713
  140.0828  134.5707  155.8523 LP  0  0  0  0  0  0  0  0  0  0  0  0  # atno 17394 bound_to 11000
  141.2053  133.6646  156.6175 LP  0  0  0  0  0  0  0  0  0  0  0  0  # atno 17395 bound_to 11000

$$$$
