AV-unprocessed.smi:2795|AV-procd|sdf|10781|dock8
  -GOLD-   2272015213D 1   1.00000     0.00000
 Structure written by MMmdl.
 36 37  0  0  0  0  0  0  0  0  1 V2000
  150.5920  138.2089  154.4221 C   0  0  0  0  0  0  0  0  0  0  0  0
  149.7597  139.3920  154.3316 N   0  0  0  0  0  0  0  0  0  0  0  0
  148.6306  139.5271  153.6231 C   0  0  0  0  0  0  0  0  0  0  0  0
  148.0666  140.7235  153.7111 N   0  0  0  0  0  0  0  0  0  0  0  0
  148.9168  141.4272  154.5593 C   0  0  0  0  0  0  0  0  0  0  0  0
  149.9617  140.6192  154.9578 C   0  0  0  0  0  0  0  0  0  0  0  0
  151.1360  140.8912  155.8536 C   0  0  0  0  0  0  0  0  0  0  0  0
  151.1339  140.1402  157.1961 C   0  0  0  0  0  0  0  0  0  0  0  0
  151.6514  140.9709  158.2760 N   0  0  0  0  0  0  0  0  0  0  0  0
  152.8292  140.7793  158.8873 C   0  0  0  0  0  0  0  0  0  0  0  0
  153.5792  139.8408  158.6152 O   0  0  0  0  0  0  0  0  0  0  0  0
  153.1999  141.8010  159.9713 C   0  0  1  0  0  0  0  0  0  0  0  0
  152.1225  142.8919  160.1697 C   0  0  0  0  0  0  0  0  0  0  0  0
  152.5101  143.8304  161.3178 C   0  0  0  0  0  0  0  0  0  0  0  0
  152.8154  143.0104  162.5752 C   0  0  0  0  0  0  0  0  0  0  0  0
  153.8567  141.9246  162.2627 C   0  0  0  0  0  0  0  0  0  0  0  0
  153.3941  141.0984  161.1992 O   0  0  0  0  0  0  0  0  0  0  0  0
  150.2024  137.4216  153.7757 H   0  0  0  0  0  0  0  0  0  0  0  0
  150.6062  137.8475  155.4506 H   0  0  0  0  0  0  0  0  0  0  0  0
  151.6091  138.4494  154.1119 H   0  0  0  0  0  0  0  0  0  0  0  0
  148.2122  138.7301  153.0257 H   0  0  0  0  0  0  0  0  0  0  0  0
  148.7100  142.4555  154.8183 H   0  0  0  0  0  0  0  0  0  0  0  0
  152.0553  140.6473  155.3198 H   0  0  0  0  0  0  0  0  0  0  0  0
  151.1842  141.9619  156.0536 H   0  0  0  0  0  0  0  0  0  0  0  0
  150.1177  139.8252  157.4381 H   0  0  0  0  0  0  0  0  0  0  0  0
  151.7373  139.2344  157.1177 H   0  0  0  0  0  0  0  0  0  0  0  0
  151.0927  141.7646  158.5561 H   0  0  0  0  0  0  0  0  0  0  0  0
  154.1415  142.2661  159.6741 H   0  0  0  0  0  0  0  0  0  0  0  0
  151.9896  143.4701  159.2543 H   0  0  0  0  0  0  0  0  0  0  0  0
  151.1593  142.4294  160.3915 H   0  0  0  0  0  0  0  0  0  0  0  0
  153.3883  144.4125  161.0362 H   0  0  0  0  0  0  0  0  0  0  0  0
  151.7093  144.5440  161.5134 H   0  0  0  0  0  0  0  0  0  0  0  0
  153.1749  143.6610  163.3727 H   0  0  0  0  0  0  0  0  0  0  0  0
  151.9000  142.5432  162.9401 H   0  0  0  0  0  0  0  0  0  0  0  0
  154.8170  142.3701  161.9991 H   0  0  0  0  0  0  0  0  0  0  0  0
  154.0252  141.3032  163.1424 H   0  0  0  0  0  0  0  0  0  0  0  0
  1  2  1  0  0  0  0
  1 18  1  0  0  0  0
  1 19  1  0  0  0  0
  1 20  1  0  0  0  0
  2  6  1  0  0  0  0
  2  3  1  0  0  0  0
  3  4  2  0  0  0  0
  3 21  1  0  0  0  0
  4  5  1  0  0  0  0
  5  6  2  0  0  0  0
  5 22  1  0  0  0  0
  6  7  1  0  0  0  0
  7  8  1  0  0  0  0
  7 23  1  0  0  0  0
  7 24  1  0  0  0  0
  8  9  1  0  0  0  0
  8 25  1  0  0  0  0
  8 26  1  0  0  0  0
  9 10  1  0  0  0  0
  9 27  1  0  0  0  0
 10 11  2  0  0  0  0
 10 12  1  0  0  0  0
 12 17  1  0  0  0  0
 12 13  1  0  0  0  0
 12 28  1  0  0  0  0
 13 14  1  0  0  0  0
 13 29  1  0  0  0  0
 13 30  1  0  0  0  0
 14 15  1  0  0  0  0
 14 31  1  0  0  0  0
 14 32  1  0  0  0  0
 15 16  1  0  0  0  0
 15 33  1  0  0  0  0
 15 34  1  0  0  0  0
 16 17  1  0  0  0  0
 16 35  1  0  0  0  0
 16 36  1  0  0  0  0
M  END
> <s_m_source_file>
AV-unprocessed.smi

> <i_m_source_file_index>
2795

> <i_lp_mmshare_version>
43012

> <i_f3d_flags>
0

> <s_epik_input>
W0NIM11uMVtjSF1uW2NIXWMxW0NIMl1bQ0gyXVtOSF1DKD1PKVtDQEBIXTJbQ0gyXVtDSDJdW0NIMl1bQ0gyXU8y

> <s_epik_cmdline>
J2VwaWtfcHl0aG9uJywgJy1waCcsICc3LjAnLCAnLXRuJywgJzgnLCAnLW1hJywgJzIwMCcsICctbWV0YWxfYmluZGluZycsICctaW1hZScsICc8aW5maWxlLm1hZT4nLCAnLW9tYWUnLCAnPG91dGZpbGUubWFlPic=

> <r_lp_tautomer_probability>
1

> <r_epik_Ionization_Penalty>
0.870864

> <r_epik_Ionization_Penalty_Charging>
0.870864

> <r_epik_Ionization_Penalty_Neutral>
4.06047e-08

> <r_epik_State_Penalty>
0.90819

> <r_epik_Charging_Adjusted_Penalty>
1.77905

> <i_epik_Tot_Q>
0

> <i_epik_Tot_abs_Q>
0

> <r_epik_Metal_State_Penalty>
0.360563

> <b_epik_Metal_Only>
0

> <s_lp_Force_Field>
OPLS_2005

> <r_lp_Energy>
10.035

> <b_lp_Chiralities_Consistent>
1

> <s_lp_Variant>
AV-unprocessed.smi:2795-4

> <Gold.Version>
5.8.1

> <Gold.Id.Protein>
6NUR|6NUR_protein|mol2

> <Gold.PLP.Fitness>
44.4945

> <Gold.PLP.PLP>
-37.5790

> <Gold.PLP.part.hbond>
-1.0000

> <Gold.PLP.part.metal>
0.0000

> <Gold.PLP.part.buried>
1.6176

> <Gold.PLP.part.nonpolar>
-36.4632

> <Gold.PLP.part.repulsive>
0.9195

> <Gold.PLP.ligand.clash>
0.4250

> <Gold.PLP.ligand.torsion>
0.3841

> <Gold.PLP.Chemscore.Hbond>
1.0000

> <Gold.PLP.Chemscore.CHOScore>
1.7007

> <Gold.PLP.Chemscore.Metal>
0.0000

> <Gold.Chemscore.Hbonds>
donor molecule, donor type, donor heavy atom, donor atom, acceptor molecule, acceptor atom, score
      P1  H  7997  8009       L1    11  1.00
      L1  C     3    21       P1  7948  0.25
      L1  C     3    21       P1  7957  0.01
      L1  C     5    22       P1  8028  1.00

> <Gold.PLP.Chemscore.Internal.Correction>
0.0067

> <Gold.Rescore>
     Score         DG    S(hbond)    S(metal)    S(lipo)     H(rot)  DE(clash)    DE(int)     intcor
     13.60     -14.22       0.88        0.00      88.11       1.76       0.15       0.47       ----

> <Gold.Chemscore.Fitness>
13.6032

> <Gold.Chemscore.DG>
-14.2213

> <Gold.Chemscore.ZeroCoef>
-5.4800

> <Gold.Chemscore.Hbond>
0.8786

> <Gold.Chemscore.Metal>
0.0000

> <Gold.Chemscore.Lipo>
88.1068

> <Gold.Chemscore.Internal_Hbond>
0.0000

> <Gold.Chemscore.DEClash>
0.1498

> <Gold.Chemscore.DEInternal>
0.4684

> <Gold.Chemscore.Rot>
1.7585

> <Gold.Chemscore.Internal.Correction>
   9.000000E+99

> <Gold.Chemscore.Hbonds>
donor molecule, donor type, donor heavy atom, donor atom, acceptor molecule, acceptor atom, score
      P1  H  7997  8009       L1    11  0.92

> <Gold.Chemscore.Hbond.Weighted>
-2.9345

> <Gold.Chemscore.Metal.Weighted>
-0.0000

> <Gold.Chemscore.Lipo.Weighted>
-10.3085

> <Gold.Chemscore.Internal_Hbond.Weighted>
0.0000

> <Gold.Chemscore.DEClash.Weighted>
0.1498

> <Gold.Chemscore.DEInternal.Weighted>
0.4684

> <Gold.Chemscore.Rot.Weighted>
4.5018

> <Gold.Chemscore.Internal.Correction.Weighted>
   9.000000E+99

> <Gold.Protein.RotatedTorsions>
[ 6907 6896 6895 6894 ] final  168.12 input  -60.11 | X-H torsion
[ 7974 7965 7964 7962 ] final -100.17 input  175.53 | X-H torsion
[ 8008 7997 7996 7995 ] final  130.66 input   59.86 | X-H torsion
[ 10167 10162 10161 10158 ] final   72.73 input  -65.29 | X-H torsion
[ 10718 10713 10712 10709 ] final  -93.53 input   66.30 | X-H torsion
[ 10763 10752 10751 10750 ] final -168.15 input  -60.55 | X-H torsion
[ 11005 11000 10999 10996 ] final    4.24 input  -57.11 | X-H torsion

> <Gold.Protein.ActiveResidues>
 VAL166  LYS551  ARG553  GLY616  TRP617  ASP618  TYR619  PRO620  LYS621  CYS622 
 ASP623  PHE694  ASN695  SER759  ASP760  ASP761  ALA762  ILE779  LEU786  VAL792 
 PHE793  MET794  SER795  GLU796  ALA797  LYS798  CYS799  TRP800  GLU811  SER814 

> <Gold.Protein.RotatedAtoms>
  151.8527  133.3443  159.3678 H   0  0  0  0  0  0  0  0  0  0  0  0  # atno 6907 bound_to 6896
  150.7202  134.5283  159.5697 H   0  0  0  0  0  0  0  0  0  0  0  0  # atno 6908 bound_to 6896
  152.2780  134.7860  160.0453 H   0  0  0  0  0  0  0  0  0  0  0  0  # atno 6909 bound_to 6896
  145.2980  140.9370  143.2840 H   0  0  0  0  0  0  0  0  0  0  0  0  # atno 7974 bound_to 7965
  156.2958  140.2590  156.2798 H   0  0  0  0  0  0  0  0  0  0  0  0  # atno 8008 bound_to 7997
  154.9613  140.0392  157.2210 H   0  0  0  0  0  0  0  0  0  0  0  0  # atno 8009 bound_to 7997
  154.7944  140.2817  155.5972 H   0  0  0  0  0  0  0  0  0  0  0  0  # atno 8010 bound_to 7997
  140.0321  144.5457  150.7499 H   0  0  0  0  0  0  0  0  0  0  0  0  # atno 10167 bound_to 10162
  156.0014  130.5031  150.5791 H   0  0  0  0  0  0  0  0  0  0  0  0  # atno 10718 bound_to 10713
  154.6659  135.2932  154.9806 H   0  0  0  0  0  0  0  0  0  0  0  0  # atno 10763 bound_to 10752
  154.0850  135.6599  153.4847 H   0  0  0  0  0  0  0  0  0  0  0  0  # atno 10764 bound_to 10752
  153.0457  135.5206  154.7631 H   0  0  0  0  0  0  0  0  0  0  0  0  # atno 10765 bound_to 10752
  140.5841  133.9985  155.8060 H   0  0  0  0  0  0  0  0  0  0  0  0  # atno 11005 bound_to 11000
  144.9117  139.4520  143.6584 LP  0  0  0  0  0  0  0  0  0  0  0  0  # atno 17320 bound_to 7965
  146.3162  139.7929  142.8982 LP  0  0  0  0  0  0  0  0  0  0  0  0  # atno 17321 bound_to 7965
  140.7297  143.2676  151.3994 LP  0  0  0  0  0  0  0  0  0  0  0  0  # atno 17342 bound_to 10162
  139.6069  144.1178  152.2258 LP  0  0  0  0  0  0  0  0  0  0  0  0  # atno 17343 bound_to 10162
  157.3674  131.0760  151.1586 LP  0  0  0  0  0  0  0  0  0  0  0  0  # atno 17370 bound_to 10713
  157.2351  130.6543  149.5866 LP  0  0  0  0  0  0  0  0  0  0  0  0  # atno 17371 bound_to 10713
  141.0977  133.9817  157.3132 LP  0  0  0  0  0  0  0  0  0  0  0  0  # atno 17394 bound_to 11000
  139.9304  135.0200  156.8379 LP  0  0  0  0  0  0  0  0  0  0  0  0  # atno 17395 bound_to 11000

$$$$
