AV-unprocessed.smi:2973|AV-procd|sdf|11345|dock6
  -GOLD-   2272016263D 1   1.00000     0.00000
 Structure written by MMmdl.
 48 50  0  0  0  0  0  0  0  0  2 V2000
  153.4008  139.3841  159.6731 C   0  0  0  0  0  0  0  0  0  0  0  0
  153.0727  140.8052  159.1628 C   0  0  2  0  0  0  0  0  0  0  0  0
  152.6906  141.7154  160.3517 C   0  0  0  0  0  0  0  0  0  0  0  0
  152.4242  143.1611  159.9075 C   0  0  0  0  0  0  0  0  0  0  0  0
  151.3363  143.2192  158.8280 C   0  0  0  0  0  0  0  0  0  0  0  0
  151.7056  142.3319  157.6270 C   0  0  0  0  0  0  0  0  0  0  0  0
  152.0086  140.8595  158.0152 C   0  0  1  0  0  0  0  0  0  0  0  0
  152.5012  140.1669  156.8370 N   0  5  0  0  0  0  0  0  0  0  0  0
  151.6486  139.1645  156.5222 C   0  0  0  0  0  0  0  0  0  0  0  0
  151.7593  138.3717  155.5876 O   0  0  0  0  0  0  0  0  0  0  0  0
  150.6152  139.1206  157.3836 N   0  0  0  0  0  0  0  0  0  0  0  0
  149.5280  138.1336  157.3405 C   0  0  0  0  0  0  0  0  0  0  0  0
  149.5618  137.1441  158.5137 C   0  0  0  0  0  0  0  0  0  0  0  0
  150.6148  136.8900  159.1002 O   0  0  0  0  0  0  0  0  0  0  0  0
  148.3825  136.6054  158.8576 N   0  0  0  0  0  0  0  0  0  0  0  0
  148.1818  135.6423  159.9339 C   0  0  0  0  0  0  0  0  0  0  0  0
  147.6504  136.3171  161.2093 C   0  0  0  0  0  0  0  0  0  0  0  0
  146.5131  135.5350  161.8392 C   0  0  0  0  0  0  0  0  0  0  0  0
  146.6730  134.1722  162.1699 C   0  0  0  0  0  0  0  0  0  0  0  0
  145.5902  133.4940  162.7626 C   0  0  0  0  0  0  0  0  0  0  0  0
  144.3961  134.2009  163.0025 C   0  0  0  0  0  0  0  0  0  0  0  0
  144.3378  135.5608  162.6375 C   0  0  0  0  0  0  0  0  0  0  0  0
  145.3699  136.2202  162.0685 N   0  0  0  0  0  0  0  0  0  0  0  0
  150.7307  140.0766  158.3116 C   0  0  0  0  0  0  0  0  0  0  0  0
  149.9636  140.2986  159.2495 O   0  0  0  0  0  0  0  0  0  0  0  0
  152.5405  138.9144  160.1507 H   0  0  0  0  0  0  0  0  0  0  0  0
  154.2042  139.4127  160.4092 H   0  0  0  0  0  0  0  0  0  0  0  0
  153.7301  138.7312  158.8648 H   0  0  0  0  0  0  0  0  0  0  0  0
  154.0025  141.2041  158.7531 H   0  0  0  0  0  0  0  0  0  0  0  0
  151.8117  141.3220  160.8630 H   0  0  0  0  0  0  0  0  0  0  0  0
  153.4933  141.7126  161.0898 H   0  0  0  0  0  0  0  0  0  0  0  0
  152.1286  143.7652  160.7655 H   0  0  0  0  0  0  0  0  0  0  0  0
  153.3453  143.6001  159.5220 H   0  0  0  0  0  0  0  0  0  0  0  0
  150.3799  142.9099  159.2490 H   0  0  0  0  0  0  0  0  0  0  0  0
  151.2022  144.2488  158.4956 H   0  0  0  0  0  0  0  0  0  0  0  0
  150.9016  142.3749  156.8900 H   0  0  0  0  0  0  0  0  0  0  0  0
  152.5792  142.7633  157.1355 H   0  0  0  0  0  0  0  0  0  0  0  0
  148.5596  138.6358  157.3435 H   0  0  0  0  0  0  0  0  0  0  0  0
  149.5719  137.5836  156.3987 H   0  0  0  0  0  0  0  0  0  0  0  0
  147.5675  136.8728  158.3249 H   0  0  0  0  0  0  0  0  0  0  0  0
  147.4678  134.8950  159.5867 H   0  0  0  0  0  0  0  0  0  0  0  0
  149.1125  135.1103  160.1388 H   0  0  0  0  0  0  0  0  0  0  0  0
  148.4514  136.4251  161.9422 H   0  0  0  0  0  0  0  0  0  0  0  0
  147.3070  137.3272  160.9815 H   0  0  0  0  0  0  0  0  0  0  0  0
  147.6033  133.6579  161.9771 H   0  0  0  0  0  0  0  0  0  0  0  0
  145.6746  132.4508  163.0295 H   0  0  0  0  0  0  0  0  0  0  0  0
  143.5458  133.7136  163.4562 H   0  0  0  0  0  0  0  0  0  0  0  0
  143.4386  136.1341  162.8075 H   0  0  0  0  0  0  0  0  0  0  0  0
  1  2  1  0  0  0  0
  1 26  1  0  0  0  0
  1 27  1  0  0  0  0
  1 28  1  0  0  0  0
  2  7  1  0  0  0  0
  2  3  1  0  0  0  0
  2 29  1  0  0  0  0
  3  4  1  0  0  0  0
  3 30  1  0  0  0  0
  3 31  1  0  0  0  0
  4  5  1  0  0  0  0
  4 32  1  0  0  0  0
  4 33  1  0  0  0  0
  5  6  1  0  0  0  0
  5 34  1  0  0  0  0
  5 35  1  0  0  0  0
  6  7  1  0  0  0  0
  6 36  1  0  0  0  0
  6 37  1  0  0  0  0
  7 24  1  0  0  0  0
  7  8  1  0  0  0  0
  8  9  1  0  0  0  0
  9 10  2  0  0  0  0
  9 11  1  0  0  0  0
 11 12  1  0  0  0  0
 11 24  1  0  0  0  0
 12 13  1  0  0  0  0
 12 38  1  0  0  0  0
 12 39  1  0  0  0  0
 13 14  2  0  0  0  0
 13 15  1  0  0  0  0
 15 16  1  0  0  0  0
 15 40  1  0  0  0  0
 16 17  1  0  0  0  0
 16 41  1  0  0  0  0
 16 42  1  0  0  0  0
 17 18  1  0  0  0  0
 17 43  1  0  0  0  0
 17 44  1  0  0  0  0
 18 23  1  0  0  0  0
 18 19  2  0  0  0  0
 19 20  1  0  0  0  0
 19 45  1  0  0  0  0
 20 21  2  0  0  0  0
 20 46  1  0  0  0  0
 21 22  1  0  0  0  0
 21 47  1  0  0  0  0
 22 23  2  0  0  0  0
 22 48  1  0  0  0  0
 24 25  2  0  0  0  0
M  CHG  1   8  -1
M  END
> <s_m_source_file>
AV-unprocessed.smi

> <i_m_source_file_index>
2973

> <i_lp_mmshare_version>
43012

> <i_f3d_flags>
0

> <s_epik_input>
W0NIMl0xW0NIMl1bQ0gyXVtDSDJdW0NAQEhdKFtDSDNdKVtDQF0xMltOSF1DKD1PKU4oQzI9TylbQ0gyXUMoPU8pW05IXVtDSDJdW0NIMl1jM1tjSF1bY0hdW2NIXVtjSF1uMw==

> <s_epik_cmdline>
J2VwaWtfcHl0aG9uJywgJy1waCcsICc3LjAnLCAnLXRuJywgJzgnLCAnLW1hJywgJzIwMCcsICctbWV0YWxfYmluZGluZycsICctaW1hZScsICc8aW5maWxlLm1hZT4nLCAnLW9tYWUnLCAnPG91dGZpbGUubWFlPic=

> <r_lp_tautomer_probability>
1

> <r_epik_Ionization_Penalty>
6.04175

> <r_epik_Ionization_Penalty_Charging>
6.01728

> <r_epik_Ionization_Penalty_Neutral>
0.0244696

> <r_epik_State_Penalty>
6.03712

> <r_epik_Charging_Adjusted_Penalty>
12.0544

> <i_epik_Tot_Q>
-1

> <i_epik_Tot_abs_Q>
1

> <r_epik_Metal_State_Penalty>
2.01153

> <b_epik_Metal_Only>
1

> <s_lp_Force_Field>
OPLS_2005

> <r_lp_Energy>
12.5421

> <b_lp_Chiralities_Consistent>
1

> <s_lp_Variant>
AV-unprocessed.smi:2973-9

> <Gold.Version>
5.8.1

> <Gold.Id.Protein>
6NUR|6NUR_protein|mol2

> <Gold.PLP.Fitness>
47.0533

> <Gold.PLP.PLP>
-39.8544

> <Gold.PLP.part.hbond>
-5.0000

> <Gold.PLP.part.metal>
0.0000

> <Gold.PLP.part.buried>
-0.4748

> <Gold.PLP.part.nonpolar>
-34.7809

> <Gold.PLP.part.repulsive>
0.1406

> <Gold.PLP.ligand.clash>
0.0000

> <Gold.PLP.ligand.torsion>
0.9200

> <Gold.PLP.Chemscore.Hbond>
3.0000

> <Gold.PLP.Chemscore.CHOScore>
0.0000

> <Gold.PLP.Chemscore.Metal>
0.0000

> <Gold.Chemscore.Hbonds>
donor molecule, donor type, donor heavy atom, donor atom, acceptor molecule, acceptor atom, score
      P1  H  6896  6909       L1    14  1.00
      P1  H  7997  8009       L1     8  2.00

> <Gold.PLP.Chemscore.Internal.Correction>
0.0389

> <Gold.Rescore>
     Score         DG    S(hbond)    S(metal)    S(lipo)     H(rot)  DE(clash)    DE(int)     intcor
     18.11     -20.67       1.96        0.00     113.39       1.81       1.61       0.96       ----

> <Gold.Chemscore.Fitness>
18.1073

> <Gold.Chemscore.DG>
-20.6727

> <Gold.Chemscore.ZeroCoef>
-5.4800

> <Gold.Chemscore.Hbond>
1.9631

> <Gold.Chemscore.Metal>
0.0000

> <Gold.Chemscore.Lipo>
113.3929

> <Gold.Chemscore.Internal_Hbond>
0.0000

> <Gold.Chemscore.DEClash>
1.6099

> <Gold.Chemscore.DEInternal>
0.9555

> <Gold.Chemscore.Rot>
1.8090

> <Gold.Chemscore.Internal.Correction>
   9.000000E+99

> <Gold.Chemscore.Hbonds>
donor molecule, donor type, donor heavy atom, donor atom, acceptor molecule, acceptor atom, score
      P1  H  6896  6909       L1    14  0.92
      P1  H  7997  8009       L1     8  0.93

> <Gold.Chemscore.Hbond.Weighted>
-6.5567

> <Gold.Chemscore.Metal.Weighted>
-0.0000

> <Gold.Chemscore.Lipo.Weighted>
-13.2670

> <Gold.Chemscore.Internal_Hbond.Weighted>
0.0000

> <Gold.Chemscore.DEClash.Weighted>
1.6099

> <Gold.Chemscore.DEInternal.Weighted>
0.9555

> <Gold.Chemscore.Rot.Weighted>
4.6310

> <Gold.Chemscore.Internal.Correction.Weighted>
   9.000000E+99

> <Gold.Protein.RotatedTorsions>
[ 6907 6896 6895 6894 ] final   87.15 input  -60.11 | X-H torsion
[ 7974 7965 7964 7962 ] final   14.10 input  175.53 | X-H torsion
[ 8008 7997 7996 7995 ] final -161.78 input   59.86 | X-H torsion
[ 10167 10162 10161 10158 ] final  -50.39 input  -65.29 | X-H torsion
[ 10718 10713 10712 10709 ] final -105.04 input   66.30 | X-H torsion
[ 10763 10752 10751 10750 ] final   33.93 input  -60.55 | X-H torsion
[ 11005 11000 10999 10996 ] final    6.17 input  -57.11 | X-H torsion

> <Gold.Protein.ActiveResidues>
 VAL166  LYS551  ARG553  GLY616  TRP617  ASP618  TYR619  PRO620  LYS621  CYS622 
 ASP623  PHE694  ASN695  SER759  ASP760  ASP761  ALA762  ILE779  LEU786  VAL792 
 PHE793  MET794  SER795  GLU796  ALA797  LYS798  CYS799  TRP800  GLU811  SER814 

> <Gold.Protein.RotatedAtoms>
  152.5406  134.2320  159.8828 H   0  0  0  0  0  0  0  0  0  0  0  0  # atno 6907 bound_to 6896
  151.2292  133.4453  159.2611 H   0  0  0  0  0  0  0  0  0  0  0  0  # atno 6908 bound_to 6896
  151.0732  134.9825  159.8375 H   0  0  0  0  0  0  0  0  0  0  0  0  # atno 6909 bound_to 6896
  146.2313  139.9091  142.8527 H   0  0  0  0  0  0  0  0  0  0  0  0  # atno 7974 bound_to 7965
  155.7972  140.0886  157.1977 H   0  0  0  0  0  0  0  0  0  0  0  0  # atno 8008 bound_to 7997
  154.3983  140.1479  156.3291 H   0  0  0  0  0  0  0  0  0  0  0  0  # atno 8009 bound_to 7997
  155.8499  140.3435  155.5689 H   0  0  0  0  0  0  0  0  0  0  0  0  # atno 8010 bound_to 7997
  140.6639  143.2659  151.4353 H   0  0  0  0  0  0  0  0  0  0  0  0  # atno 10167 bound_to 10162
  156.0329  130.5544  150.7483 H   0  0  0  0  0  0  0  0  0  0  0  0  # atno 10718 bound_to 10713
  153.0188  135.6374  154.1589 H   0  0  0  0  0  0  0  0  0  0  0  0  # atno 10763 bound_to 10752
  154.1325  135.2839  155.3183 H   0  0  0  0  0  0  0  0  0  0  0  0  # atno 10764 bound_to 10752
  154.6184  135.5533  153.7610 H   0  0  0  0  0  0  0  0  0  0  0  0  # atno 10765 bound_to 10752
  140.5625  134.0179  155.7977 H   0  0  0  0  0  0  0  0  0  0  0  0  # atno 11005 bound_to 11000
  145.2247  140.9949  143.4025 LP  0  0  0  0  0  0  0  0  0  0  0  0  # atno 17320 bound_to 7965
  144.9580  139.4010  143.6369 LP  0  0  0  0  0  0  0  0  0  0  0  0  # atno 17321 bound_to 7965
  139.5882  144.1557  152.2055 LP  0  0  0  0  0  0  0  0  0  0  0  0  # atno 17342 bound_to 10162
  140.0904  144.5626  150.7059 LP  0  0  0  0  0  0  0  0  0  0  0  0  # atno 17343 bound_to 10162
  157.5034  131.0920  151.0287 LP  0  0  0  0  0  0  0  0  0  0  0  0  # atno 17370 bound_to 10713
  157.0662  130.5845  149.5394 LP  0  0  0  0  0  0  0  0  0  0  0  0  # atno 17371 bound_to 10713
  141.1106  133.9623  157.2918 LP  0  0  0  0  0  0  0  0  0  0  0  0  # atno 17394 bound_to 11000
  139.9401  135.0192  156.8680 LP  0  0  0  0  0  0  0  0  0  0  0  0  # atno 17395 bound_to 11000

$$$$
