#       Name:                AV-unprocessed.smi:2119
#       Creating user name   scv26
#       Creation time:       Fri Mar 27 11:38:32 2020


#       File generated by GOLD software.
#

@<TRIPOS>MOLECULE
AV-unprocessed.smi:2119
    55    57     1
SMALL
NO_CHARGES


@<TRIPOS>ATOM
      1 ****        -0.8044   0.6861   2.2492 O.2            1 S1                 0.0000
      2 ****        -1.4452   0.9468   1.2317 C.2            1 S1                 0.0000
      3 ****        -1.6215   0.0737   0.2298 N.am           1 S1                 0.0000
      4 ****        -1.1287  -1.3001   0.2274 C.3            1 S1                 0.0000
      5 ****         0.4007  -1.4283  -0.0258 C.3            1 S1                 0.0000
      6 ****         0.8611  -2.9037   0.0544 C.3            1 S1                 0.0000
      7 ****         2.3604  -3.1024  -0.0880 C.3            1 S1                 0.0000
      8 ****         2.5528  -4.5007   0.4867 C.3            1 S1                 0.0000
      9 ****         1.5792  -4.6243   1.5166 O.3            1 S1                 0.0000
     10 ****         0.6189  -3.5777   1.4098 C.3            1 S1                 0.0000
     11 ****         0.8706  -0.8259  -1.3116 N.4            1 S1                 1.0000
     12 ****         0.0381  -1.0990  -2.5095 C.3            1 S1                 0.0000
     13 ****         0.7698  -0.6186  -3.7740 C.3            1 S1                 0.0000
     14 ****         1.0762   0.7656  -3.6502 O.3            1 S1                 0.0000
     15 ****         1.9374   1.0297  -2.5482 C.3            1 S1                 0.0000
     16 ****         1.2487   0.6066  -1.2401 C.3            1 S1                 0.0000
     17 ****        -2.0283   2.1264   0.9588 N.am           1 S1                 0.0000
     18 ****        -2.1007   3.2859   1.7773 C.ar           1 S1                 0.0000
     19 ****        -2.3837   4.5191   1.1544 C.ar           1 S1                 0.0000
     20 ****        -2.4822   5.6807   1.9435 C.ar           1 S1                 0.0000
     21 ****        -2.3024   5.5618   3.3351 C.ar           1 S1                 0.0000
     22 ****        -2.0458   4.3882   3.9499 N.ar           1 S1                 0.0000
     23 ****        -1.9509   3.2780   3.1868 C.ar           1 S1                 0.0000
     24 ****        -2.1573   0.3702  -0.5731 H              1 S1                 0.0000
     25 ****        -1.3910  -1.7528   1.1846 H              1 S1                 0.0000
     26 ****        -1.6892  -1.8618  -0.5201 H              1 S1                 0.0000
     27 ****         0.9158  -0.9059   0.7817 H              1 S1                 0.0000
     28 ****         0.3601  -3.4929  -0.7151 H              1 S1                 0.0000
     29 ****         2.7102  -3.0230  -1.1178 H              1 S1                 0.0000
     30 ****         2.9038  -2.3731   0.5150 H              1 S1                 0.0000
     31 ****         2.3515  -5.2560  -0.2739 H              1 S1                 0.0000
     32 ****         3.5613  -4.6619   0.8680 H              1 S1                 0.0000
     33 ****         0.7882  -2.8770   2.2287 H              1 S1                 0.0000
     34 ****        -0.3946  -3.9680   1.5057 H              1 S1                 0.0000
     35 ****        -0.1715  -2.1656  -2.5895 H              1 S1                 0.0000
     36 ****        -0.9202  -0.5847  -2.4296 H              1 S1                 0.0000
     37 ****         1.6829  -1.1931  -3.9385 H              1 S1                 0.0000
     38 ****         0.1395  -0.7644  -4.6514 H              1 S1                 0.0000
     39 ****         2.8846   0.5035  -2.6778 H              1 S1                 0.0000
     40 ****         2.1659   2.0954  -2.5249 H              1 S1                 0.0000
     41 ****         0.3691   1.2281  -1.0785 H              1 S1                 0.0000
     42 ****         1.9237   0.7764  -0.4005 H              1 S1                 0.0000
     43 ****        -2.4417   2.2188   0.0426 H              1 S1                 0.0000
     44 ****        -2.5209   4.5783   0.0844 H              1 S1                 0.0000
     45 ****        -2.6921   6.6398   1.4933 H              1 S1                 0.0000
     46 ****        -2.3721   6.4315   3.9715 H              1 S1                 0.0000
     47 ****        -1.7721   2.3684   3.7384 H              1 S1                 0.0000
     48 ****         1.7466  -1.2962  -1.4886 H              1 S1                 0.0000
     49 ****        -0.3843  -0.2148   2.3585 LP             1 S1                 0.0000
     50 ****        -0.7037   1.3751   2.9670 LP             1 S1                 0.0000
     51 ****         2.0308  -4.5694   2.4072 LP             1 S1                 0.0000
     52 ****         1.1173  -5.5071   1.4311 LP             1 S1                 0.0000
     53 ****         0.2244   1.2736  -3.5221 LP             1 S1                 0.0000
     54 ****         1.5244   1.0724  -4.4898 LP             1 S1                 0.0000
     55 ****        -1.9293   4.3419   4.9420 LP             1 S1                 0.0000
@<TRIPOS>BOND
    1    1    2 2     
    2    2    3 am    
    3    2   17 am    
    4    3    4 1     
    5    3   24 1     
    6    4    5 1     
    7    4   25 1     
    8    4   26 1     
    9    5    6 1     
   10    5   11 1     
   11    5   27 1     
   12    6   10 1     
   13    6    7 1     
   14    6   28 1     
   15    7    8 1     
   16    7   29 1     
   17    7   30 1     
   18    8    9 1     
   19    8   31 1     
   20    8   32 1     
   21    9   10 1     
   22   10   33 1     
   23   10   34 1     
   24   11   16 1     
   25   11   12 1     
   26   11   48 1     
   27   12   13 1     
   28   12   35 1     
   29   12   36 1     
   30   13   14 1     
   31   13   37 1     
   32   13   38 1     
   33   14   15 1     
   34   15   16 1     
   35   15   39 1     
   36   15   40 1     
   37   16   41 1     
   38   16   42 1     
   39   17   18 1     
   40   17   43 1     
   41   18   23 ar    
   42   18   19 ar    
   43   19   20 ar    
   44   19   44 1     
   45   20   21 ar    
   46   20   45 1     
   47   21   22 ar    
   48   21   46 1     
   49   22   23 ar    
   50   23   47 1     
   51    1   49 1     
   52    1   50 1     
   53    9   51 1     
   54    9   52 1     
   55   14   53 1     
   56   14   54 1     
   57   22   55 1     
@<TRIPOS>SUBSTRUCTURE
      1 S1             1
@<TRIPOS>SET
LONE_PAIRS      STATIC     ATOMS    <user>   **** ""
7 49 50 51 52 53 54 55
DONOR_HYDROGENS      STATIC     ATOMS    <user>   **** ""
3 24 48 43
ATOM$BLUE        STATIC     ATOMS    COLORGROUP SYSTEM
7 49 50 51 52 53 54 55
ATOM$RED        STATIC     ATOMS    COLORGROUP SYSTEM
3 24 48 43
