AV-unprocessed.smi:1396|AV-procd|sdf|5675|dock8
  -GOLD-   22720 5303D 1   1.00000     0.00000
 Structure written by MMmdl.
 47 48  0  0  0  0  0  0  0  0  2 V2000
  149.1943  126.3281  150.5291 C   0  0  0  0  0  0  0  0  0  0  0  0
  148.1787  127.3081  150.8833 N   0  0  0  0  0  0  0  0  0  0  0  0
  148.1295  127.9510  152.0585 C   0  0  0  0  0  0  0  0  0  0  0  0
  148.9558  127.7814  152.9559 O   0  0  0  0  0  0  0  0  0  0  0  0
  146.9787  128.9465  152.2401 C   0  0  0  0  0  0  0  0  0  0  0  0
  147.4435  130.3462  152.4210 N   0  3  2  0  0  0  0  0  0  0  0  0
  148.1750  130.5578  153.6993 C   0  0  0  0  0  0  0  0  0  0  0  0
  148.7536  131.9801  153.7779 C   0  0  0  0  0  0  0  0  0  0  0  0
  147.6495  133.0363  153.6135 C   0  0  1  0  0  0  0  0  0  0  0  0
  148.2354  134.3738  153.6171 N   0  0  0  0  0  0  0  0  0  0  0  0
  148.8791  134.9309  154.6533 C   0  0  0  0  0  0  0  0  0  0  0  0
  149.0397  134.3620  155.7324 O   0  0  0  0  0  0  0  0  0  0  0  0
  149.3238  136.1614  154.3438 N   0  0  0  0  0  0  0  0  0  0  0  0
  150.0467  137.0795  155.1544 C   0  0  0  0  0  0  0  0  0  0  0  0
  150.6504  138.1831  154.5182 C   0  0  0  0  0  0  0  0  0  0  0  0
  151.3622  139.1195  155.2913 C   0  0  0  0  0  0  0  0  0  0  0  0
  151.4446  138.9265  156.6843 C   0  0  0  0  0  0  0  0  0  0  0  0
  152.1487  139.8435  157.4375 O   0  0  0  0  0  0  0  0  0  0  0  0
  152.2559  139.6262  158.8402 C   0  0  0  0  0  0  0  0  0  0  0  0
  150.8566  137.8767  157.3092 N   0  0  0  0  0  0  0  0  0  0  0  0
  150.1753  136.9819  156.5621 C   0  0  0  0  0  0  0  0  0  0  0  0
  146.8800  132.7755  152.3057 C   0  0  0  0  0  0  0  0  0  0  0  0
  146.3467  131.3336  152.2508 C   0  0  0  0  0  0  0  0  0  0  0  0
  149.0030  125.9388  149.5291 H   0  0  0  0  0  0  0  0  0  0  0  0
  149.1865  125.4899  151.2272 H   0  0  0  0  0  0  0  0  0  0  0  0
  150.1881  126.7779  150.5357 H   0  0  0  0  0  0  0  0  0  0  0  0
  147.4701  127.5071  150.1917 H   0  0  0  0  0  0  0  0  0  0  0  0
  146.3628  128.8773  151.3425 H   0  0  0  0  0  0  0  0  0  0  0  0
  146.3449  128.6523  153.0786 H   0  0  0  0  0  0  0  0  0  0  0  0
  147.5008  130.3811  154.5389 H   0  0  0  0  0  0  0  0  0  0  0  0
  148.9883  129.8377  153.7931 H   0  0  0  0  0  0  0  0  0  0  0  0
  149.2631  132.1172  154.7325 H   0  0  0  0  0  0  0  0  0  0  0  0
  149.5100  132.1062  153.0016 H   0  0  0  0  0  0  0  0  0  0  0  0
  146.9612  132.9437  154.4562 H   0  0  0  0  0  0  0  0  0  0  0  0
  148.1524  134.9108  152.7660 H   0  0  0  0  0  0  0  0  0  0  0  0
  149.1672  136.4610  153.3926 H   0  0  0  0  0  0  0  0  0  0  0  0
  150.5744  138.3117  153.4483 H   0  0  0  0  0  0  0  0  0  0  0  0
  151.8368  139.9702  154.8248 H   0  0  0  0  0  0  0  0  0  0  0  0
  152.8456  140.4275  159.2851 H   0  0  0  0  0  0  0  0  0  0  0  0
  152.7593  138.6838  159.0614 H   0  0  0  0  0  0  0  0  0  0  0  0
  151.2764  139.6305  159.3203 H   0  0  0  0  0  0  0  0  0  0  0  0
  149.7160  136.1877  157.1286 H   0  0  0  0  0  0  0  0  0  0  0  0
  146.0493  133.4759  152.2109 H   0  0  0  0  0  0  0  0  0  0  0  0
  147.5327  132.9533  151.4493 H   0  0  0  0  0  0  0  0  0  0  0  0
  145.8519  131.1726  151.2923 H   0  0  0  0  0  0  0  0  0  0  0  0
  145.5944  131.1808  153.0264 H   0  0  0  0  0  0  0  0  0  0  0  0
  148.1008  130.5193  151.6734 H   0  0  0  0  0  0  0  0  0  0  0  0
  1  2  1  0  0  0  0
  1 24  1  0  0  0  0
  1 25  1  0  0  0  0
  1 26  1  0  0  0  0
  2  3  1  0  0  0  0
  2 27  1  0  0  0  0
  3  4  2  0  0  0  0
  3  5  1  0  0  0  0
  5  6  1  0  0  0  0
  5 28  1  0  0  0  0
  5 29  1  0  0  0  0
  6 23  1  0  0  0  0
  6  7  1  0  0  0  0
  6 47  1  0  0  0  0
  7  8  1  0  0  0  0
  7 30  1  0  0  0  0
  7 31  1  0  0  0  0
  8  9  1  0  0  0  0
  8 32  1  0  0  0  0
  8 33  1  0  0  0  0
  9 10  1  0  0  0  0
  9 22  1  0  0  0  0
  9 34  1  0  0  0  0
 10 11  1  0  0  0  0
 10 35  1  0  0  0  0
 11 12  2  0  0  0  0
 11 13  1  0  0  0  0
 13 14  1  0  0  0  0
 13 36  1  0  0  0  0
 14 21  1  0  0  0  0
 14 15  2  0  0  0  0
 15 16  1  0  0  0  0
 15 37  1  0  0  0  0
 16 17  2  0  0  0  0
 16 38  1  0  0  0  0
 17 18  1  0  0  0  0
 17 20  1  0  0  0  0
 18 19  1  0  0  0  0
 19 39  1  0  0  0  0
 19 40  1  0  0  0  0
 19 41  1  0  0  0  0
 20 21  2  0  0  0  0
 21 42  1  0  0  0  0
 22 23  1  0  0  0  0
 22 43  1  0  0  0  0
 22 44  1  0  0  0  0
 23 45  1  0  0  0  0
 23 46  1  0  0  0  0
M  CHG  1   6   1
M  END
> <s_m_source_file>
AV-unprocessed.smi

> <i_m_source_file_index>
1396

> <i_lp_mmshare_version>
43012

> <i_f3d_flags>
0

> <s_epik_input>
W0NIM11bTkhdQyg9TylbQ0gyXU4xW0NIMl1bQ0gyXVtDSF0oW0NIMl1bQ0gyXTEpW05IXUMoPU8pW05IXWMyW2NIXVtjSF1jKE9bQ0gzXSluW2NIXTI=

> <s_epik_cmdline>
J2VwaWtfcHl0aG9uJywgJy1waCcsICc3LjAnLCAnLXRuJywgJzgnLCAnLW1hJywgJzIwMCcsICctbWV0YWxfYmluZGluZycsICctaW1hZScsICc8aW5maWxlLm1hZT4nLCAnLW9tYWUnLCAnPG91dGZpbGUubWFlPic=

> <r_lp_tautomer_probability>
1

> <r_epik_Ionization_Penalty>
0.838943

> <r_epik_Ionization_Penalty_Charging>
0.838844

> <r_epik_Ionization_Penalty_Neutral>
9.87511e-05

> <r_epik_State_Penalty>
0.8734

> <r_epik_Charging_Adjusted_Penalty>
1.71224

> <i_epik_Tot_Q>
1

> <i_epik_Tot_abs_Q>
1

> <r_epik_Metal_State_Penalty>
0.877926

> <b_epik_Metal_Only>
0

> <s_lp_Force_Field>
OPLS_2005

> <r_lp_Energy>
18.1916

> <b_lp_Chiralities_Consistent>
1

> <s_lp_Variant>
AV-unprocessed.smi:1396-2

> <Gold.Version>
5.8.1

> <Gold.Id.Protein>
6NUR|6NUR_protein|mol2

> <Gold.PLP.Fitness>
50.8358

> <Gold.PLP.PLP>
-39.0992

> <Gold.PLP.part.hbond>
-4.6207

> <Gold.PLP.part.metal>
0.0000

> <Gold.PLP.part.buried>
-4.8741

> <Gold.PLP.part.nonpolar>
-30.5629

> <Gold.PLP.part.repulsive>
0.4053

> <Gold.PLP.ligand.clash>
0.0000

> <Gold.PLP.ligand.torsion>
0.1423

> <Gold.PLP.Chemscore.Hbond>
4.0000

> <Gold.PLP.Chemscore.CHOScore>
0.0000

> <Gold.PLP.Chemscore.Metal>
0.0000

> <Gold.Chemscore.Hbonds>
donor molecule, donor type, donor heavy atom, donor atom, acceptor molecule, acceptor atom, score
      L1  H     6    47       P1 10747  1.00
      L1  H    10    35       P1  7948  0.83
      L1  H    13    36       P1  7948  1.00
      P1  H  7997  8008       L1    18  0.11

> <Gold.PLP.Chemscore.Internal.Correction>
0.0212

> <Gold.Rescore>
     Score         DG    S(hbond)    S(metal)    S(lipo)     H(rot)  DE(clash)    DE(int)     intcor
     18.90     -21.03       3.60        0.00      73.86       2.00       0.03       2.11       ----

> <Gold.Chemscore.Fitness>
18.8966

> <Gold.Chemscore.DG>
-21.0311

> <Gold.Chemscore.ZeroCoef>
-5.4800

> <Gold.Chemscore.Hbond>
3.5990

> <Gold.Chemscore.Metal>
0.0000

> <Gold.Chemscore.Lipo>
73.8552

> <Gold.Chemscore.Internal_Hbond>
0.0000

> <Gold.Chemscore.DEClash>
0.0278

> <Gold.Chemscore.DEInternal>
2.1066

> <Gold.Chemscore.Rot>
1.9963

> <Gold.Chemscore.Internal.Correction>
   9.000000E+99

> <Gold.Chemscore.Hbonds>
donor molecule, donor type, donor heavy atom, donor atom, acceptor molecule, acceptor atom, score
      L1  H     6    47       P1 10747  1.00
      L1  H    10    35       P1  7948  0.68
      L1  H    13    36       P1  7948  0.89
      P1  H  7997  8008       L1    18  0.07

> <Gold.Chemscore.Hbond.Weighted>
-12.0205

> <Gold.Chemscore.Metal.Weighted>
-0.0000

> <Gold.Chemscore.Lipo.Weighted>
-8.6411

> <Gold.Chemscore.Internal_Hbond.Weighted>
0.0000

> <Gold.Chemscore.DEClash.Weighted>
0.0278

> <Gold.Chemscore.DEInternal.Weighted>
2.1066

> <Gold.Chemscore.Rot.Weighted>
5.1105

> <Gold.Chemscore.Internal.Correction.Weighted>
   9.000000E+99

> <Gold.Protein.RotatedTorsions>
[ 6907 6896 6895 6894 ] final   61.87 input  -60.11 | X-H torsion
[ 7974 7965 7964 7962 ] final   17.08 input  175.53 | X-H torsion
[ 8008 7997 7996 7995 ] final  -55.21 input   59.86 | X-H torsion
[ 10167 10162 10161 10158 ] final   17.82 input  -65.29 | X-H torsion
[ 10718 10713 10712 10709 ] final   -3.65 input   66.30 | X-H torsion
[ 10763 10752 10751 10750 ] final   -0.58 input  -60.55 | X-H torsion
[ 11005 11000 10999 10996 ] final  -70.52 input  -57.11 | X-H torsion

> <Gold.Protein.ActiveResidues>
 VAL166  LYS551  ARG553  GLY616  TRP617  ASP618  TYR619  PRO620  LYS621  CYS622 
 ASP623  PHE694  ASN695  SER759  ASP760  ASP761  ALA762  ILE779  LEU786  VAL792 
 PHE793  MET794  SER795  GLU796  ALA797  LYS798  CYS799  TRP800  GLU811  SER814 

> <Gold.Protein.RotatedAtoms>
  152.4125  134.6100  160.0022 H   0  0  0  0  0  0  0  0  0  0  0  0  # atno 6907 bound_to 6896
  151.6273  133.3329  159.3109 H   0  0  0  0  0  0  0  0  0  0  0  0  # atno 6908 bound_to 6896
  150.8015  134.7151  159.6671 H   0  0  0  0  0  0  0  0  0  0  0  0  # atno 6909 bound_to 6896
  146.2230  139.8654  142.8597 H   0  0  0  0  0  0  0  0  0  0  0  0  # atno 7974 bound_to 7965
  154.4187  140.1158  156.5440 H   0  0  0  0  0  0  0  0  0  0  0  0  # atno 8008 bound_to 7997
  155.6479  140.3496  155.4718 H   0  0  0  0  0  0  0  0  0  0  0  0  # atno 8009 bound_to 7997
  155.9817  140.1161  157.0710 H   0  0  0  0  0  0  0  0  0  0  0  0  # atno 8010 bound_to 7997
  140.5698  143.9183  150.6704 H   0  0  0  0  0  0  0  0  0  0  0  0  # atno 10167 bound_to 10162
  156.7730  130.5306  149.5764 H   0  0  0  0  0  0  0  0  0  0  0  0  # atno 10718 bound_to 10713
  153.3338  135.6976  153.6925 H   0  0  0  0  0  0  0  0  0  0  0  0  # atno 10763 bound_to 10752
  153.5717  135.3515  155.2841 H   0  0  0  0  0  0  0  0  0  0  0  0  # atno 10764 bound_to 10752
  154.8623  135.4274  154.2533 H   0  0  0  0  0  0  0  0  0  0  0  0  # atno 10765 bound_to 10752
  141.1575  133.6792  156.6765 H   0  0  0  0  0  0  0  0  0  0  0  0  # atno 11005 bound_to 11000
  145.2662  141.0093  143.3798 LP  0  0  0  0  0  0  0  0  0  0  0  0  # atno 17320 bound_to 7965
  144.9260  139.4355  143.6518 LP  0  0  0  0  0  0  0  0  0  0  0  0  # atno 17321 bound_to 7965
  140.2655  143.3493  152.1285 LP  0  0  0  0  0  0  0  0  0  0  0  0  # atno 17342 bound_to 10162
  139.5111  144.6896  151.5796 LP  0  0  0  0  0  0  0  0  0  0  0  0  # atno 17343 bound_to 10162
  156.1266  130.6148  151.0272 LP  0  0  0  0  0  0  0  0  0  0  0  0  # atno 17370 bound_to 10713
  157.6682  131.0867  150.7677 LP  0  0  0  0  0  0  0  0  0  0  0  0  # atno 17371 bound_to 10713
  140.3135  134.8066  157.4195 LP  0  0  0  0  0  0  0  0  0  0  0  0  # atno 17394 bound_to 11000
  140.1158  134.5285  155.8226 LP  0  0  0  0  0  0  0  0  0  0  0  0  # atno 17395 bound_to 11000

$$$$
