AV-unprocessed.smi:1301|AV-procd|sdf|5423|dock1
  -GOLD-   22720 4583D 1   1.00000     0.00000
 Structure written by MMmdl.
 44 45  0  0  0  0  0  0  0  0  3 V2000
  152.5546  141.9007  159.3862 C   0  0  0  0  0  0  0  0  0  0  0  0
  151.9386  141.5063  158.0873 C   0  0  0  0  0  0  0  0  0  0  0  0
  150.9998  142.0970  157.2900 C   0  0  0  0  0  0  0  0  0  0  0  0
  150.8810  141.1903  156.2016 C   0  0  0  0  0  0  0  0  0  0  0  0
  150.0594  141.3273  155.1494 N   0  5  0  0  0  0  0  0  0  0  0  0
  148.9024  140.6293  155.0937 C   0  0  0  0  0  0  0  0  0  0  0  0
  148.1807  140.3298  156.0478 O   0  0  0  0  0  0  0  0  0  0  0  0
  148.5601  140.2553  153.8526 N   0  0  0  0  0  0  0  0  0  0  0  0
  147.3703  139.4945  153.4836 C   0  0  2  0  0  0  0  0  0  0  0  0
  147.2955  138.2101  154.3232 C   0  0  0  0  0  0  0  0  0  0  0  0
  146.1066  137.3350  153.8953 C   0  0  0  0  0  0  0  0  0  0  0  0
  146.1751  137.0051  152.4483 N   0  3  1  0  0  0  0  0  0  0  0  0
  145.1194  136.0416  152.0420 C   0  0  0  0  0  0  0  0  0  0  0  0
  145.4997  135.2097  150.7974 C   0  0  0  0  0  0  0  0  0  0  0  0
  144.2438  134.6161  150.1425 C   0  0  0  0  0  0  0  0  0  0  0  0
  146.5049  134.0957  151.1355 C   0  0  0  0  0  0  0  0  0  0  0  0
  146.2056  138.2349  151.6128 C   0  0  0  0  0  0  0  0  0  0  0  0
  147.3968  139.1307  151.9882 C   0  0  0  0  0  0  0  0  0  0  0  0
  151.6664  140.1344  156.3345 N   0  0  0  0  0  0  0  0  0  0  0  0
  152.3537  140.3329  157.5381 O   0  0  0  0  0  0  0  0  0  0  0  0
  151.7860  142.0868  160.1363 H   0  0  0  0  0  0  0  0  0  0  0  0
  153.1431  142.8110  159.2721 H   0  0  0  0  0  0  0  0  0  0  0  0
  153.2128  141.1181  159.7644 H   0  0  0  0  0  0  0  0  0  0  0  0
  150.4819  143.0298  157.4558 H   0  0  0  0  0  0  0  0  0  0  0  0
  149.1825  140.5231  153.1043 H   0  0  0  0  0  0  0  0  0  0  0  0
  146.4808  140.0922  153.6921 H   0  0  0  0  0  0  0  0  0  0  0  0
  148.2204  137.6409  154.2157 H   0  0  0  0  0  0  0  0  0  0  0  0
  147.2076  138.4598  155.3813 H   0  0  0  0  0  0  0  0  0  0  0  0
  146.1129  136.4172  154.4843 H   0  0  0  0  0  0  0  0  0  0  0  0
  145.1659  137.8446  154.1101 H   0  0  0  0  0  0  0  0  0  0  0  0
  144.9220  135.3503  152.8626 H   0  0  0  0  0  0  0  0  0  0  0  0
  144.1875  136.5836  151.8733 H   0  0  0  0  0  0  0  0  0  0  0  0
  145.9593  135.8615  150.0554 H   0  0  0  0  0  0  0  0  0  0  0  0
  143.7274  133.9335  150.8184 H   0  0  0  0  0  0  0  0  0  0  0  0
  144.4964  134.0606  149.2386 H   0  0  0  0  0  0  0  0  0  0  0  0
  143.5400  135.3992  149.8586 H   0  0  0  0  0  0  0  0  0  0  0  0
  146.1014  133.4085  151.8800 H   0  0  0  0  0  0  0  0  0  0  0  0
  147.4368  134.5031  151.5280 H   0  0  0  0  0  0  0  0  0  0  0  0
  146.7552  133.5124  150.2487 H   0  0  0  0  0  0  0  0  0  0  0  0
  146.2810  137.9782  150.5571 H   0  0  0  0  0  0  0  0  0  0  0  0
  145.2716  138.7852  151.7367 H   0  0  0  0  0  0  0  0  0  0  0  0
  147.3797  140.0355  151.3793 H   0  0  0  0  0  0  0  0  0  0  0  0
  148.3284  138.6155  151.7483 H   0  0  0  0  0  0  0  0  0  0  0  0
  147.0581  136.5341  152.3114 H   0  0  0  0  0  0  0  0  0  0  0  0
  1  2  1  0  0  0  0
  1 21  1  0  0  0  0
  1 22  1  0  0  0  0
  1 23  1  0  0  0  0
  2 20  1  0  0  0  0
  2  3  2  0  0  0  0
  3  4  1  0  0  0  0
  3 24  1  0  0  0  0
  4  5  1  0  0  0  0
  4 19  2  0  0  0  0
  5  6  1  0  0  0  0
  6  7  2  0  0  0  0
  6  8  1  0  0  0  0
  8  9  1  0  0  0  0
  8 25  1  0  0  0  0
  9 18  1  0  0  0  0
  9 10  1  0  0  0  0
  9 26  1  0  0  0  0
 10 11  1  0  0  0  0
 10 27  1  0  0  0  0
 10 28  1  0  0  0  0
 11 12  1  0  0  0  0
 11 29  1  0  0  0  0
 11 30  1  0  0  0  0
 12 13  1  0  0  0  0
 12 17  1  0  0  0  0
 12 44  1  0  0  0  0
 13 14  1  0  0  0  0
 13 31  1  0  0  0  0
 13 32  1  0  0  0  0
 14 15  1  0  0  0  0
 14 16  1  0  0  0  0
 14 33  1  0  0  0  0
 15 34  1  0  0  0  0
 15 35  1  0  0  0  0
 15 36  1  0  0  0  0
 16 37  1  0  0  0  0
 16 38  1  0  0  0  0
 16 39  1  0  0  0  0
 17 18  1  0  0  0  0
 17 40  1  0  0  0  0
 17 41  1  0  0  0  0
 18 42  1  0  0  0  0
 18 43  1  0  0  0  0
 19 20  1  0  0  0  0
M  CHG  1   5  -1
M  CHG  1  12   1
M  END
> <s_m_source_file>
AV-unprocessed.smi

> <i_m_source_file_index>
1301

> <i_lp_mmshare_version>
43012

> <i_f3d_flags>
0

> <s_epik_input>
W0NIM11jMVtjSF1jKG5vMSlbTkhdQyg9TylbTkhdW0NIXTJbQ0gyXVtDSDJdTihbQ0gyXVtDSDJdMilbQ0gyXVtDSF0oW0NIM10pW0NIM10=

> <s_epik_cmdline>
J2VwaWtfcHl0aG9uJywgJy1waCcsICc3LjAnLCAnLXRuJywgJzgnLCAnLW1hJywgJzIwMCcsICctbWV0YWxfYmluZGluZycsICctaW1hZScsICc8aW5maWxlLm1hZT4nLCAnLW9tYWUnLCAnPG91dGZpbGUubWFlPic=

> <r_epik_Ionization_Penalty>
6.28597

> <r_epik_Ionization_Penalty_Charging>
6.28587

> <r_epik_Ionization_Penalty_Neutral>
9.69304e-05

> <r_epik_State_Penalty>
6.28524

> <r_epik_Charging_Adjusted_Penalty>
12.5711

> <i_epik_Tot_Q>
0

> <i_epik_Tot_abs_Q>
2

> <r_epik_Metal_State_Penalty>
2.21973

> <b_epik_Metal_Only>
1

> <s_lp_Force_Field>
OPLS_2005

> <r_lp_Energy>
7.73982

> <b_lp_Chiralities_Consistent>
1

> <s_lp_Variant>
AV-unprocessed.smi:1301-3

> <Gold.Version>
5.8.1

> <Gold.Id.Protein>
6NUR|6NUR_protein|mol2

> <Gold.PLP.Fitness>
39.9259

> <Gold.PLP.PLP>
-30.2060

> <Gold.PLP.part.hbond>
-4.0000

> <Gold.PLP.part.metal>
0.0000

> <Gold.PLP.part.buried>
4.5193

> <Gold.PLP.part.nonpolar>
-28.6166

> <Gold.PLP.part.repulsive>
0.2974

> <Gold.PLP.ligand.clash>
0.0000

> <Gold.PLP.ligand.torsion>
1.3807

> <Gold.PLP.Chemscore.Hbond>
4.1395

> <Gold.PLP.Chemscore.CHOScore>
0.0000

> <Gold.PLP.Chemscore.Metal>
0.0000

> <Gold.Chemscore.Hbonds>
donor molecule, donor type, donor heavy atom, donor atom, acceptor molecule, acceptor atom, score
      L1  H     8    25       P1  7957  0.78
      L1  H    12    44       P1  7948  2.00
      P1  H  7989  7998       L1     5  0.15
      P1  H  7997  8008       L1    20  0.44

> <Gold.PLP.Chemscore.Internal.Correction>
0.0628

> <Gold.Rescore>
     Score         DG    S(hbond)    S(metal)    S(lipo)     H(rot)  DE(clash)    DE(int)     intcor
     13.82     -18.53       2.03        0.00      84.27       1.41       2.34       2.37       ----

> <Gold.Chemscore.Fitness>
13.8247

> <Gold.Chemscore.DG>
-18.5339

> <Gold.Chemscore.ZeroCoef>
-5.4800

> <Gold.Chemscore.Hbond>
2.0344

> <Gold.Chemscore.Metal>
0.0000

> <Gold.Chemscore.Lipo>
84.2671

> <Gold.Chemscore.Internal_Hbond>
0.0000

> <Gold.Chemscore.DEClash>
2.3394

> <Gold.Chemscore.DEInternal>
2.3698

> <Gold.Chemscore.Rot>
1.4063

> <Gold.Chemscore.Internal.Correction>
   9.000000E+99

> <Gold.Chemscore.Hbonds>
donor molecule, donor type, donor heavy atom, donor atom, acceptor molecule, acceptor atom, score
      L1  H     8    25       P1  7957  0.74
      L1  H    12    44       P1  7948  0.98
      P1  H  7989  7998       L1     5  0.02
      P1  H  7997  8008       L1    20  0.07

> <Gold.Chemscore.Hbond.Weighted>
-6.7949

> <Gold.Chemscore.Metal.Weighted>
-0.0000

> <Gold.Chemscore.Lipo.Weighted>
-9.8593

> <Gold.Chemscore.Internal_Hbond.Weighted>
0.0000

> <Gold.Chemscore.DEClash.Weighted>
2.3394

> <Gold.Chemscore.DEInternal.Weighted>
2.3698

> <Gold.Chemscore.Rot.Weighted>
3.6002

> <Gold.Chemscore.Internal.Correction.Weighted>
   9.000000E+99

> <Gold.Protein.RotatedTorsions>
[ 6907 6896 6895 6894 ] final  -29.28 input  -60.11 | X-H torsion
[ 7974 7965 7964 7962 ] final  171.44 input  175.53 | X-H torsion
[ 8008 7997 7996 7995 ] final  -64.23 input   59.86 | X-H torsion
[ 10167 10162 10161 10158 ] final  -82.95 input  -65.29 | X-H torsion
[ 10718 10713 10712 10709 ] final -145.04 input   66.30 | X-H torsion
[ 10763 10752 10751 10750 ] final -136.78 input  -60.55 | X-H torsion
[ 11005 11000 10999 10996 ] final  -43.20 input  -57.11 | X-H torsion

> <Gold.Protein.ActiveResidues>
 VAL166  LYS551  ARG553  GLY616  TRP617  ASP618  TYR619  PRO620  LYS621  CYS622 
 ASP623  PHE694  ASN695  SER759  ASP760  ASP761  ALA762  ILE779  LEU786  VAL792 
 PHE793  MET794  SER795  GLU796  ALA797  LYS798  CYS799  TRP800  GLU811  SER814 

> <Gold.Protein.RotatedAtoms>
  151.1214  135.0081  159.8539 H   0  0  0  0  0  0  0  0  0  0  0  0  # atno 6907 bound_to 6896
  152.5448  134.1718  159.8610 H   0  0  0  0  0  0  0  0  0  0  0  0  # atno 6908 bound_to 6896
  151.1777  133.4700  159.2627 H   0  0  0  0  0  0  0  0  0  0  0  0  # atno 6909 bound_to 6896
  144.7295  139.9351  143.6426 H   0  0  0  0  0  0  0  0  0  0  0  0  # atno 7974 bound_to 7965
  154.4599  140.0958  156.6865 H   0  0  0  0  0  0  0  0  0  0  0  0  # atno 8008 bound_to 7997
  155.5024  140.3474  155.4355 H   0  0  0  0  0  0  0  0  0  0  0  0  # atno 8009 bound_to 7997
  156.0851  140.1383  156.9652 H   0  0  0  0  0  0  0  0  0  0  0  0  # atno 8010 bound_to 7997
  140.4272  143.2562  151.8809 H   0  0  0  0  0  0  0  0  0  0  0  0  # atno 10167 bound_to 10162
  156.3775  130.7820  151.2008 H   0  0  0  0  0  0  0  0  0  0  0  0  # atno 10718 bound_to 10713
  154.8676  135.3662  154.5116 H   0  0  0  0  0  0  0  0  0  0  0  0  # atno 10763 bound_to 10752
  153.5750  135.7020  153.5493 H   0  0  0  0  0  0  0  0  0  0  0  0  # atno 10764 bound_to 10752
  153.3507  135.4072  155.1607 H   0  0  0  0  0  0  0  0  0  0  0  0  # atno 10765 bound_to 10752
  141.0367  133.6797  156.2700 H   0  0  0  0  0  0  0  0  0  0  0  0  # atno 11005 bound_to 11000
  146.0828  139.3816  143.0454 LP  0  0  0  0  0  0  0  0  0  0  0  0  # atno 17320 bound_to 7965
  145.7818  140.9853  143.1095 LP  0  0  0  0  0  0  0  0  0  0  0  0  # atno 17321 bound_to 7965
  139.4784  144.5374  151.8578 LP  0  0  0  0  0  0  0  0  0  0  0  0  # atno 17342 bound_to 10162
  140.4468  144.1910  150.5894 LP  0  0  0  0  0  0  0  0  0  0  0  0  # atno 17343 bound_to 10162
  157.7489  131.0354  150.4361 LP  0  0  0  0  0  0  0  0  0  0  0  0  # atno 17370 bound_to 10713
  156.4599  130.4029  149.6583 LP  0  0  0  0  0  0  0  0  0  0  0  0  # atno 17371 bound_to 10713
  140.6308  134.5266  157.5559 LP  0  0  0  0  0  0  0  0  0  0  0  0  # atno 17394 bound_to 11000
  139.9246  134.8081  156.1107 LP  0  0  0  0  0  0  0  0  0  0  0  0  # atno 17395 bound_to 11000

$$$$
