AV-unprocessed.smi:2501|AV-procd|sdf|9843|dock3
  -GOLD-   2272013463D 1   1.00000     0.00000
 Structure written by MMmdl.
 43 44  0  0  0  0  0  0  0  0  1 V2000
  153.6742  141.4284  160.4283 C   0  0  0  0  0  0  0  0  0  0  0  0
  152.6038  142.3155  159.8176 C   0  0  0  0  0  0  0  0  0  0  0  0
  152.6172  143.7046  160.0708 C   0  0  0  0  0  0  0  0  0  0  0  0
  151.7073  144.5654  159.5680 N   0  0  0  0  0  0  0  0  0  0  0  0
  150.7332  144.0634  158.7814 C   0  0  0  0  0  0  0  0  0  0  0  0
  150.6243  142.6958  158.4635 C   0  0  0  0  0  0  0  0  0  0  0  0
  151.5774  141.7979  158.9885 C   0  0  0  0  0  0  0  0  0  0  0  0
  151.4716  140.3182  158.6544 C   0  0  0  0  0  0  0  0  0  0  0  0
  150.2228  139.9964  157.8219 C   0  0  0  0  0  0  0  0  0  0  0  0
  149.9377  138.5683  157.8614 N   0  0  0  0  0  0  0  0  0  0  0  0
  148.7104  138.0266  157.8021 C   0  0  0  0  0  0  0  0  0  0  0  0
  147.6961  138.7175  157.6971 O   0  0  0  0  0  0  0  0  0  0  0  0
  148.6831  136.6709  157.8645 N   0  0  0  0  0  0  0  0  0  0  0  0
  149.8476  135.7730  157.9314 C   0  0  0  0  0  0  0  0  0  0  0  0
  149.9533  135.2015  159.3584 C   0  0  0  0  0  0  0  0  0  0  0  0
  148.6495  134.4912  159.8080 C   0  0  0  0  0  0  0  0  0  0  0  0
  148.5335  133.2913  159.0628 O   0  0  0  0  0  0  0  0  0  0  0  0
  148.7032  134.0939  161.3029 C   0  0  0  0  0  0  0  0  0  0  0  0
  149.6935  133.2257  161.5126 F   0  0  0  0  0  0  0  0  0  0  0  0
  148.9200  135.1643  162.0686 F   0  0  0  0  0  0  0  0  0  0  0  0
  147.5596  133.5165  161.6749 F   0  0  0  0  0  0  0  0  0  0  0  0
  147.4069  135.3633  159.4915 C   0  0  0  0  0  0  0  0  0  0  0  0
  147.4344  135.9251  158.0566 C   0  0  0  0  0  0  0  0  0  0  0  0
  154.3102  141.9918  161.1117 H   0  0  0  0  0  0  0  0  0  0  0  0
  154.3099  141.0076  159.6490 H   0  0  0  0  0  0  0  0  0  0  0  0
  153.2267  140.6099  160.9917 H   0  0  0  0  0  0  0  0  0  0  0  0
  153.3821  144.1421  160.6957 H   0  0  0  0  0  0  0  0  0  0  0  0
  150.0176  144.7731  158.3933 H   0  0  0  0  0  0  0  0  0  0  0  0
  149.8228  142.3464  157.8293 H   0  0  0  0  0  0  0  0  0  0  0  0
  152.3653  140.0195  158.1045 H   0  0  0  0  0  0  0  0  0  0  0  0
  151.4787  139.7286  159.5714 H   0  0  0  0  0  0  0  0  0  0  0  0
  149.3681  140.5593  158.1997 H   0  0  0  0  0  0  0  0  0  0  0  0
  150.3717  140.2983  156.7844 H   0  0  0  0  0  0  0  0  0  0  0  0
  150.7277  137.9450  157.9435 H   0  0  0  0  0  0  0  0  0  0  0  0
  149.7159  134.9633  157.2121 H   0  0  0  0  0  0  0  0  0  0  0  0
  150.7888  136.2471  157.6532 H   0  0  0  0  0  0  0  0  0  0  0  0
  150.8007  134.5178  159.4219 H   0  0  0  0  0  0  0  0  0  0  0  0
  150.1757  136.0215  160.0421 H   0  0  0  0  0  0  0  0  0  0  0  0
  147.6229  133.1617  158.8453 H   0  0  0  0  0  0  0  0  0  0  0  0
  146.4912  134.7917  159.6479 H   0  0  0  0  0  0  0  0  0  0  0  0
  147.3630  136.2003  160.1894 H   0  0  0  0  0  0  0  0  0  0  0  0
  146.5472  136.5348  157.8806 H   0  0  0  0  0  0  0  0  0  0  0  0
  147.3790  135.1136  157.3297 H   0  0  0  0  0  0  0  0  0  0  0  0
  1  2  1  0  0  0  0
  1 24  1  0  0  0  0
  1 25  1  0  0  0  0
  1 26  1  0  0  0  0
  2  7  1  0  0  0  0
  2  3  2  0  0  0  0
  3  4  1  0  0  0  0
  3 27  1  0  0  0  0
  4  5  2  0  0  0  0
  5  6  1  0  0  0  0
  5 28  1  0  0  0  0
  6  7  2  0  0  0  0
  6 29  1  0  0  0  0
  7  8  1  0  0  0  0
  8  9  1  0  0  0  0
  8 30  1  0  0  0  0
  8 31  1  0  0  0  0
  9 10  1  0  0  0  0
  9 32  1  0  0  0  0
  9 33  1  0  0  0  0
 10 11  1  0  0  0  0
 10 34  1  0  0  0  0
 11 12  2  0  0  0  0
 11 13  1  0  0  0  0
 13 23  1  0  0  0  0
 13 14  1  0  0  0  0
 14 15  1  0  0  0  0
 14 35  1  0  0  0  0
 14 36  1  0  0  0  0
 15 16  1  0  0  0  0
 15 37  1  0  0  0  0
 15 38  1  0  0  0  0
 16 17  1  0  0  0  0
 16 18  1  0  0  0  0
 16 22  1  0  0  0  0
 17 39  1  0  0  0  0
 18 19  1  0  0  0  0
 18 20  1  0  0  0  0
 18 21  1  0  0  0  0
 22 23  1  0  0  0  0
 22 40  1  0  0  0  0
 22 41  1  0  0  0  0
 23 42  1  0  0  0  0
 23 43  1  0  0  0  0
M  END
> <s_m_source_file>
AV-unprocessed.smi

> <i_m_source_file_index>
2501

> <i_lp_mmshare_version>
43012

> <i_f3d_flags>
0

> <s_epik_input>
W0NIM11jMVtjSF1uW2NIXVtjSF1jMVtDSDJdW0NIMl1bTkhdQyg9TylOKFtDSDJdW0NIMl0yKVtDSDJdW0NIMl1DMihbT0hdKUMoRikoRilG

> <s_epik_cmdline>
J2VwaWtfcHl0aG9uJywgJy1waCcsICc3LjAnLCAnLXRuJywgJzgnLCAnLW1hJywgJzIwMCcsICctbWV0YWxfYmluZGluZycsICctaW1hZScsICc8aW5maWxlLm1hZT4nLCAnLW9tYWUnLCAnPG91dGZpbGUubWFlPic=

> <r_epik_Ionization_Penalty>
0.105852

> <r_epik_Ionization_Penalty_Charging>
0

> <r_epik_Ionization_Penalty_Neutral>
0.105852

> <r_epik_State_Penalty>
0.0956543

> <r_epik_Charging_Adjusted_Penalty>
0.0956543

> <i_epik_Tot_Q>
0

> <i_epik_Tot_abs_Q>
0

> <r_epik_Metal_State_Penalty>
0.0810448

> <b_epik_Metal_Only>
0

> <s_lp_Force_Field>
OPLS_2005

> <r_lp_Energy>
37.1862

> <b_lp_Chiralities_Consistent>
1

> <s_lp_Variant>
AV-unprocessed.smi:2501-1

> <Gold.Version>
5.8.1

> <Gold.Id.Protein>
6NUR|6NUR_protein|mol2

> <Gold.PLP.Fitness>
46.1216

> <Gold.PLP.PLP>
-43.7733

> <Gold.PLP.part.hbond>
0.0000

> <Gold.PLP.part.metal>
0.0000

> <Gold.PLP.part.buried>
-5.9189

> <Gold.PLP.part.nonpolar>
-37.8540

> <Gold.PLP.part.repulsive>
0.1595

> <Gold.PLP.ligand.clash>
0.0000

> <Gold.PLP.ligand.torsion>
0.3585

> <Gold.PLP.Chemscore.Hbond>
0.0000

> <Gold.PLP.Chemscore.CHOScore>
1.0000

> <Gold.PLP.Chemscore.Metal>
0.0000

> <Gold.Chemscore.Hbonds>
donor molecule, donor type, donor heavy atom, donor atom, acceptor molecule, acceptor atom, score
      L1  C     5    28       P1  8028  0.02
      L1  C     5    28       P1  8029  0.68

> <Gold.PLP.Chemscore.Internal.Correction>
0.0654

> <Gold.Rescore>
     Score         DG    S(hbond)    S(metal)    S(lipo)     H(rot)  DE(clash)    DE(int)     intcor
     12.18     -12.72       0.00        0.00     104.50       1.95       0.17       0.37       ----

> <Gold.Chemscore.Fitness>
12.1794

> <Gold.Chemscore.DG>
-12.7163

> <Gold.Chemscore.ZeroCoef>
-5.4800

> <Gold.Chemscore.Hbond>
0.0000

> <Gold.Chemscore.Metal>
0.0000

> <Gold.Chemscore.Lipo>
104.5037

> <Gold.Chemscore.Internal_Hbond>
0.0000

> <Gold.Chemscore.DEClash>
0.1690

> <Gold.Chemscore.DEInternal>
0.3679

> <Gold.Chemscore.Rot>
1.9495

> <Gold.Chemscore.Internal.Correction>
   9.000000E+99

> <Gold.Chemscore.Hbond.Weighted>
-0.0000

> <Gold.Chemscore.Metal.Weighted>
-0.0000

> <Gold.Chemscore.Lipo.Weighted>
-12.2269

> <Gold.Chemscore.Internal_Hbond.Weighted>
0.0000

> <Gold.Chemscore.DEClash.Weighted>
0.1690

> <Gold.Chemscore.DEInternal.Weighted>
0.3679

> <Gold.Chemscore.Rot.Weighted>
4.9907

> <Gold.Chemscore.Internal.Correction.Weighted>
   9.000000E+99

> <Gold.Protein.RotatedTorsions>
[ 6907 6896 6895 6894 ] final  148.55 input  -60.11 | X-H torsion
[ 7974 7965 7964 7962 ] final   -5.03 input  175.53 | X-H torsion
[ 8008 7997 7996 7995 ] final  -78.19 input   59.86 | X-H torsion
[ 10167 10162 10161 10158 ] final  107.39 input  -65.29 | X-H torsion
[ 10718 10713 10712 10709 ] final  137.27 input   66.30 | X-H torsion
[ 10763 10752 10751 10750 ] final  -44.06 input  -60.55 | X-H torsion
[ 11005 11000 10999 10996 ] final -151.54 input  -57.11 | X-H torsion

> <Gold.Protein.ActiveResidues>
 VAL166  LYS551  ARG553  GLY616  TRP617  ASP618  TYR619  PRO620  LYS621  CYS622 
 ASP623  PHE694  ASN695  SER759  ASP760  ASP761  ALA762  ILE779  LEU786  VAL792 
 PHE793  MET794  SER795  GLU796  ALA797  LYS798  CYS799  TRP800  GLU811  SER814 

> <Gold.Protein.RotatedAtoms>
  152.1400  133.4458  159.4761 H   0  0  0  0  0  0  0  0  0  0  0  0  # atno 6907 bound_to 6896
  150.6885  134.2317  159.4446 H   0  0  0  0  0  0  0  0  0  0  0  0  # atno 6908 bound_to 6896
  152.0207  134.9824  160.0621 H   0  0  0  0  0  0  0  0  0  0  0  0  # atno 6909 bound_to 6896
  146.2361  140.1961  142.8333 H   0  0  0  0  0  0  0  0  0  0  0  0  # atno 7974 bound_to 7965
  154.5666  140.0698  156.8901 H   0  0  0  0  0  0  0  0  0  0  0  0  # atno 8008 bound_to 7997
  155.2712  140.3365  155.4247 H   0  0  0  0  0  0  0  0  0  0  0  0  # atno 8009 bound_to 7997
  156.2085  140.1750  156.7732 H   0  0  0  0  0  0  0  0  0  0  0  0  # atno 8010 bound_to 7997
  139.6931  144.7105  151.1314 H   0  0  0  0  0  0  0  0  0  0  0  0  # atno 10167 bound_to 10162
  157.4378  131.1055  151.0177 H   0  0  0  0  0  0  0  0  0  0  0  0  # atno 10718 bound_to 10713
  154.0059  135.6687  153.4762 H   0  0  0  0  0  0  0  0  0  0  0  0  # atno 10763 bound_to 10752
  153.0642  135.5010  154.8158 H   0  0  0  0  0  0  0  0  0  0  0  0  # atno 10764 bound_to 10752
  154.7025  135.3081  154.9284 H   0  0  0  0  0  0  0  0  0  0  0  0  # atno 10765 bound_to 10752
  140.7285  134.3647  157.5171 H   0  0  0  0  0  0  0  0  0  0  0  0  # atno 11005 bound_to 11000
  144.9819  140.8467  143.5392 LP  0  0  0  0  0  0  0  0  0  0  0  0  # atno 17320 bound_to 7965
  145.1955  139.2279  143.5220 LP  0  0  0  0  0  0  0  0  0  0  0  0  # atno 17321 bound_to 7965
  140.7688  143.5530  150.9183 LP  0  0  0  0  0  0  0  0  0  0  0  0  # atno 17342 bound_to 10162
  139.9209  143.6607  152.3097 LP  0  0  0  0  0  0  0  0  0  0  0  0  # atno 17343 bound_to 10162
  157.1051  130.5998  149.5469 LP  0  0  0  0  0  0  0  0  0  0  0  0  # atno 17370 bound_to 10713
  155.9937  130.4999  150.7392 LP  0  0  0  0  0  0  0  0  0  0  0  0  # atno 17371 bound_to 10713
  139.8831  134.9003  156.2785 LP  0  0  0  0  0  0  0  0  0  0  0  0  # atno 17394 bound_to 11000
  140.9941  133.7190  156.0859 LP  0  0  0  0  0  0  0  0  0  0  0  0  # atno 17395 bound_to 11000

$$$$
