AV-unprocessed.smi:1755|AV-procd|sdf|7070|dock4
  -GOLD-   22720 8293D 1   1.00000     0.00000
 Structure written by MMmdl.
 46 47  0  0  0  0  0  0  0  0  2 V2000
  150.6961  142.3138  156.1606 C   0  0  0  0  0  0  0  0  0  0  0  0
  150.4623  140.9965  155.4817 C   0  0  0  0  0  0  0  0  0  0  0  0
  149.2246  140.4445  155.0404 C   0  0  0  0  0  0  0  0  0  0  0  0
  149.6049  139.2457  154.5015 C   0  0  0  0  0  0  0  0  0  0  0  0
  148.8365  138.2891  153.9157 N   0  0  0  0  0  0  0  0  0  0  0  0
  147.5454  137.9933  154.1456 C   0  0  0  0  0  0  0  0  0  0  0  0
  146.8306  138.5271  154.9935 O   0  0  0  0  0  0  0  0  0  0  0  0
  147.1164  137.0255  153.3225 N   0  0  0  0  0  0  0  0  0  0  0  0
  145.7663  136.4622  153.3061 C   0  0  0  0  0  0  0  0  0  0  0  0
  145.7004  135.0213  152.7067 C   0  0  0  0  0  0  0  0  0  0  0  0
  146.9241  134.2492  153.1294 N   0  3  0  0  0  0  0  0  0  0  0  0
  147.1130  132.9108  152.5154 C   0  0  0  0  0  0  0  0  0  0  0  0
  147.1266  134.1837  154.5993 C   0  0  0  0  0  0  0  0  0  0  0  0
  144.3809  134.3390  153.1276 C   0  0  0  0  0  0  0  0  0  0  0  0
  143.2928  134.8984  152.1984 C   0  0  0  0  0  0  0  0  0  0  0  0
  144.0215  135.4508  150.9655 C   0  0  0  0  0  0  0  0  0  0  0  0
  145.4979  135.0968  151.1704 C   0  0  0  0  0  0  0  0  0  0  0  0
  150.9706  139.1168  154.6223 N   0  0  0  0  0  0  0  0  0  0  0  0
  151.8341  138.0303  154.2030 C   0  0  0  0  0  0  0  0  0  0  0  0
  151.4964  140.2016  155.2306 N   0  0  0  0  0  0  0  0  0  0  0  0
  149.7623  142.8610  156.2911 H   0  0  0  0  0  0  0  0  0  0  0  0
  151.3692  142.9420  155.5769 H   0  0  0  0  0  0  0  0  0  0  0  0
  151.1391  142.1744  157.1470 H   0  0  0  0  0  0  0  0  0  0  0  0
  148.2373  140.8747  155.1153 H   0  0  0  0  0  0  0  0  0  0  0  0
  149.3009  137.7436  153.2049 H   0  0  0  0  0  0  0  0  0  0  0  0
  147.7805  136.6327  152.6714 H   0  0  0  0  0  0  0  0  0  0  0  0
  145.4183  136.4569  154.3385 H   0  0  0  0  0  0  0  0  0  0  0  0
  145.0805  137.1408  152.7977 H   0  0  0  0  0  0  0  0  0  0  0  0
  146.2511  132.2648  152.6845 H   0  0  0  0  0  0  0  0  0  0  0  0
  147.9878  132.4130  152.9348 H   0  0  0  0  0  0  0  0  0  0  0  0
  147.2956  132.9881  151.4438 H   0  0  0  0  0  0  0  0  0  0  0  0
  146.3774  133.5513  155.0764 H   0  0  0  0  0  0  0  0  0  0  0  0
  147.0909  135.1673  155.0649 H   0  0  0  0  0  0  0  0  0  0  0  0
  148.1068  133.7644  154.8284 H   0  0  0  0  0  0  0  0  0  0  0  0
  144.4464  133.2617  152.9716 H   0  0  0  0  0  0  0  0  0  0  0  0
  144.1361  134.4932  154.1792 H   0  0  0  0  0  0  0  0  0  0  0  0
  142.5719  134.1256  151.9292 H   0  0  0  0  0  0  0  0  0  0  0  0
  142.7412  135.6985  152.6933 H   0  0  0  0  0  0  0  0  0  0  0  0
  143.6320  135.0314  150.0372 H   0  0  0  0  0  0  0  0  0  0  0  0
  143.8951  136.5327  150.9082 H   0  0  0  0  0  0  0  0  0  0  0  0
  146.1713  135.7907  150.6692 H   0  0  0  0  0  0  0  0  0  0  0  0
  145.6338  134.1286  150.6916 H   0  0  0  0  0  0  0  0  0  0  0  0
  151.6888  137.8354  153.1399 H   0  0  0  0  0  0  0  0  0  0  0  0
  151.5889  137.1303  154.7678 H   0  0  0  0  0  0  0  0  0  0  0  0
  152.8815  138.2829  154.3756 H   0  0  0  0  0  0  0  0  0  0  0  0
  147.6989  134.7939  152.7789 H   0  0  0  0  0  0  0  0  0  0  0  0
  1  2  1  0  0  0  0
  1 21  1  0  0  0  0
  1 22  1  0  0  0  0
  1 23  1  0  0  0  0
  2 20  2  0  0  0  0
  2  3  1  0  0  0  0
  3  4  2  0  0  0  0
  3 24  1  0  0  0  0
  4  5  1  0  0  0  0
  4 18  1  0  0  0  0
  5  6  1  0  0  0  0
  5 25  1  0  0  0  0
  6  7  2  0  0  0  0
  6  8  1  0  0  0  0
  8  9  1  0  0  0  0
  8 26  1  0  0  0  0
  9 10  1  0  0  0  0
  9 27  1  0  0  0  0
  9 28  1  0  0  0  0
 10 17  1  0  0  0  0
 10 11  1  0  0  0  0
 10 14  1  0  0  0  0
 11 12  1  0  0  0  0
 11 13  1  0  0  0  0
 11 46  1  0  0  0  0
 12 29  1  0  0  0  0
 12 30  1  0  0  0  0
 12 31  1  0  0  0  0
 13 32  1  0  0  0  0
 13 33  1  0  0  0  0
 13 34  1  0  0  0  0
 14 15  1  0  0  0  0
 14 35  1  0  0  0  0
 14 36  1  0  0  0  0
 15 16  1  0  0  0  0
 15 37  1  0  0  0  0
 15 38  1  0  0  0  0
 16 17  1  0  0  0  0
 16 39  1  0  0  0  0
 16 40  1  0  0  0  0
 17 41  1  0  0  0  0
 17 42  1  0  0  0  0
 18 19  1  0  0  0  0
 18 20  1  0  0  0  0
 19 43  1  0  0  0  0
 19 44  1  0  0  0  0
 19 45  1  0  0  0  0
M  CHG  1  11   1
M  END
> <s_m_source_file>
AV-unprocessed.smi

> <i_m_source_file_index>
1755

> <i_lp_mmshare_version>
43012

> <i_f3d_flags>
0

> <s_epik_input>
W0NIM11jMVtjSF1jKG4objEpW0NIM10pW05IXUMoPU8pW05IXVtDSDJdQzIoTihbQ0gzXSlbQ0gzXSlbQ0gyXVtDSDJdW0NIMl1bQ0gyXTI=

> <s_epik_cmdline>
J2VwaWtfcHl0aG9uJywgJy1waCcsICc3LjAnLCAnLXRuJywgJzgnLCAnLW1hJywgJzIwMCcsICctbWV0YWxfYmluZGluZycsICctaW1hZScsICc8aW5maWxlLm1hZT4nLCAnLW9tYWUnLCAnPG91dGZpbGUubWFlPic=

> <r_lp_tautomer_probability>
1

> <r_epik_Ionization_Penalty>
0.00248705

> <r_epik_Ionization_Penalty_Charging>
0.00240703

> <r_epik_Ionization_Penalty_Neutral>
8.00151e-05

> <r_epik_State_Penalty>
0.00166499

> <r_epik_Charging_Adjusted_Penalty>
0.00407202

> <i_epik_Tot_Q>
1

> <i_epik_Tot_abs_Q>
1

> <r_epik_Metal_State_Penalty>
-0

> <b_epik_Metal_Only>
0

> <s_lp_Force_Field>
OPLS_2005

> <r_lp_Energy>
45.253

> <b_lp_Chiralities_Consistent>
1

> <s_lp_Variant>
AV-unprocessed.smi:1755-1

> <Gold.Version>
5.8.1

> <Gold.Id.Protein>
6NUR|6NUR_protein|mol2

> <Gold.PLP.Fitness>
41.8069

> <Gold.PLP.PLP>
-32.1222

> <Gold.PLP.part.hbond>
-3.6295

> <Gold.PLP.part.metal>
0.0000

> <Gold.PLP.part.buried>
-3.6602

> <Gold.PLP.part.nonpolar>
-26.2817

> <Gold.PLP.part.repulsive>
0.1104

> <Gold.PLP.ligand.clash>
0.0000

> <Gold.PLP.ligand.torsion>
0.7646

> <Gold.PLP.Chemscore.Hbond>
3.6823

> <Gold.PLP.Chemscore.CHOScore>
0.0000

> <Gold.PLP.Chemscore.Metal>
0.0000

> <Gold.Chemscore.Hbonds>
donor molecule, donor type, donor heavy atom, donor atom, acceptor molecule, acceptor atom, score
      L1  H     5    25       P1  7948  0.86
      L1  H     8    26       P1  7948  0.86
      L1  H    11    46       P1  7948  1.72
      P1  H  7989  7998       L1    20  0.14

> <Gold.PLP.Chemscore.Internal.Correction>
0.1671

> <Gold.Rescore>
     Score         DG    S(hbond)    S(metal)    S(lipo)     H(rot)  DE(clash)    DE(int)     intcor
     17.49     -18.43       2.76        0.00      64.37       1.49       0.01       0.93       ----

> <Gold.Chemscore.Fitness>
17.4926

> <Gold.Chemscore.DG>
-18.4333

> <Gold.Chemscore.ZeroCoef>
-5.4800

> <Gold.Chemscore.Hbond>
2.7615

> <Gold.Chemscore.Metal>
0.0000

> <Gold.Chemscore.Lipo>
64.3736

> <Gold.Chemscore.Internal_Hbond>
0.0000

> <Gold.Chemscore.DEClash>
0.0098

> <Gold.Chemscore.DEInternal>
0.9309

> <Gold.Chemscore.Rot>
1.4851

> <Gold.Chemscore.Internal.Correction>
   9.000000E+99

> <Gold.Chemscore.Hbonds>
donor molecule, donor type, donor heavy atom, donor atom, acceptor molecule, acceptor atom, score
      L1  H     5    25       P1  7948  0.78
      L1  H     8    26       P1  7948  0.84
      L1  H    11    46       P1  7948  0.79

> <Gold.Chemscore.Hbond.Weighted>
-9.2233

> <Gold.Chemscore.Metal.Weighted>
-0.0000

> <Gold.Chemscore.Lipo.Weighted>
-7.5317

> <Gold.Chemscore.Internal_Hbond.Weighted>
0.0000

> <Gold.Chemscore.DEClash.Weighted>
0.0098

> <Gold.Chemscore.DEInternal.Weighted>
0.9309

> <Gold.Chemscore.Rot.Weighted>
3.8018

> <Gold.Chemscore.Internal.Correction.Weighted>
   9.000000E+99

> <Gold.Protein.RotatedTorsions>
[ 6907 6896 6895 6894 ] final  -94.04 input  -60.11 | X-H torsion
[ 7974 7965 7964 7962 ] final   34.31 input  175.53 | X-H torsion
[ 8008 7997 7996 7995 ] final   39.00 input   59.86 | X-H torsion
[ 10167 10162 10161 10158 ] final   12.78 input  -65.29 | X-H torsion
[ 10718 10713 10712 10709 ] final   -3.31 input   66.30 | X-H torsion
[ 10763 10752 10751 10750 ] final  160.04 input  -60.55 | X-H torsion
[ 11005 11000 10999 10996 ] final -117.31 input  -57.11 | X-H torsion

> <Gold.Protein.ActiveResidues>
 VAL166  LYS551  ARG553  GLY616  TRP617  ASP618  TYR619  PRO620  LYS621  CYS622 
 ASP623  PHE694  ASN695  SER759  ASP760  ASP761  ALA762  ILE779  LEU786  VAL792 
 PHE793  MET794  SER795  GLU796  ALA797  LYS798  CYS799  TRP800  GLU811  SER814 

> <Gold.Protein.RotatedAtoms>
  150.6934  134.1874  159.4271 H   0  0  0  0  0  0  0  0  0  0  0  0  # atno 6907 bound_to 6896
  151.9846  135.0008  160.0568 H   0  0  0  0  0  0  0  0  0  0  0  0  # atno 6908 bound_to 6896
  152.1723  133.4617  159.4952 H   0  0  0  0  0  0  0  0  0  0  0  0  # atno 6909 bound_to 6896
  146.1361  139.6285  142.9194 H   0  0  0  0  0  0  0  0  0  0  0  0  # atno 7974 bound_to 7965
  155.2295  140.3337  155.4305 H   0  0  0  0  0  0  0  0  0  0  0  0  # atno 8008 bound_to 7997
  156.2301  140.1846  156.7311 H   0  0  0  0  0  0  0  0  0  0  0  0  # atno 8009 bound_to 7997
  154.5963  140.0630  156.9293 H   0  0  0  0  0  0  0  0  0  0  0  0  # atno 8010 bound_to 7997
  140.6046  143.8535  150.7000 H   0  0  0  0  0  0  0  0  0  0  0  0  # atno 10167 bound_to 10162
  156.7779  130.5321  149.5756 H   0  0  0  0  0  0  0  0  0  0  0  0  # atno 10718 bound_to 10713
  154.2411  135.2775  155.2853 H   0  0  0  0  0  0  0  0  0  0  0  0  # atno 10763 bound_to 10752
  154.5544  135.5665  153.6954 H   0  0  0  0  0  0  0  0  0  0  0  0  # atno 10764 bound_to 10752
  152.9999  135.6282  154.2556 H   0  0  0  0  0  0  0  0  0  0  0  0  # atno 10765 bound_to 10752
  141.0363  133.9904  157.3065 H   0  0  0  0  0  0  0  0  0  0  0  0  # atno 11005 bound_to 11000
  145.5152  141.0434  143.2466 LP  0  0  0  0  0  0  0  0  0  0  0  0  # atno 17320 bound_to 7965
  144.7742  139.6667  143.7182 LP  0  0  0  0  0  0  0  0  0  0  0  0  # atno 17321 bound_to 7965
  140.2089  143.3899  152.1734 LP  0  0  0  0  0  0  0  0  0  0  0  0  # atno 17342 bound_to 10162
  139.5315  144.7164  151.5038 LP  0  0  0  0  0  0  0  0  0  0  0  0  # atno 17343 bound_to 10162
  156.1237  130.6128  151.0231 LP  0  0  0  0  0  0  0  0  0  0  0  0  # atno 17370 bound_to 10713
  157.6660  131.0871  150.7726 LP  0  0  0  0  0  0  0  0  0  0  0  0  # atno 17371 bound_to 10713
  139.9243  135.0201  156.8179 LP  0  0  0  0  0  0  0  0  0  0  0  0  # atno 17394 bound_to 11000
  140.6315  133.9901  155.7664 LP  0  0  0  0  0  0  0  0  0  0  0  0  # atno 17395 bound_to 11000

$$$$
