#       Name:                AV-unprocessed.smi:39
#       Creating user name   scv26
#       Creation time:       Thu Mar 26 16:20:33 2020


#       File generated by GOLD software.
#

@<TRIPOS>MOLECULE
AV-unprocessed.smi:39
    42    43     1
SMALL
NO_CHARGES


@<TRIPOS>ATOM
      1 ****        -3.7247   1.3690  -0.8519 C.3            1 S1                 0.0000
      2 ****        -2.8981   0.1389  -0.5195 C.2            1 S1                 0.0000
      3 ****        -1.5564   0.1070  -0.6800 C.2            1 S1                 0.0000
      4 ****        -0.8048  -1.0156  -0.3727 N.am           1 S1                 0.0000
      5 ****         0.6988  -1.0454  -0.5648 C.3            1 S1                 0.0000
      6 ****         1.4312  -1.1490   0.7812 C.3            1 S1                 0.0000
      7 ****         2.6180  -0.2202   0.5847 C.3            1 S1                 0.0000
      8 ****         3.7328  -0.8994  -0.0865 N.2            1 S1                 0.0000
      9 ****         4.4580  -1.6090   0.6231 N.1            1 S1                 1.0000
     10 ****         5.0884  -2.3575   1.2038 N.1            1 S1                -1.0000
     11 ****         2.0201   0.8656  -0.3181 C.3            1 S1                 0.0000
     12 ****         1.2487   1.9442   0.4690 C.3            1 S1                 0.0000
     13 ****         1.0204   3.0727  -0.3475 O.3            1 S1                 0.0000
     14 ****         1.1274   0.1439  -1.1681 O.3            1 S1                 0.0000
     15 ****        -1.4598  -2.1891   0.0861 C.2            1 S1                 0.0000
     16 ****        -0.7719  -3.1855   0.3094 O.2            1 S1                 0.0000
     17 ****        -2.8122  -2.1640   0.2575 N.pl3          1 S1                -1.0000
     18 ****        -3.5701  -1.0625  -0.0108 C.2            1 S1                 0.0000
     19 ****        -4.7889  -1.0498   0.1589 O.2            1 S1                 0.0000
     20 ****         0.8934  -1.8817  -1.2384 H              1 S1                 0.0000
     21 ****         2.9502   0.2011   1.5355 H              1 S1                 0.0000
     22 ****         2.8019   1.3428  -0.9114 H              1 S1                 0.0000
     23 ****        -3.0973   2.1812  -1.2197 H              1 S1                 0.0000
     24 ****        -4.2521   1.7244   0.0338 H              1 S1                 0.0000
     25 ****        -4.4609   1.1356  -1.6216 H              1 S1                 0.0000
     26 ****        -1.0709   0.9917  -1.0620 H              1 S1                 0.0000
     27 ****         0.7892  -0.7729   1.5793 H              1 S1                 0.0000
     28 ****         1.6988  -2.1815   1.0088 H              1 S1                 0.0000
     29 ****         0.3070   1.5686   0.8683 H              1 S1                 0.0000
     30 ****         1.8409   2.2811   1.3198 H              1 S1                 0.0000
     31 ****         0.5415   3.7142   0.1544 H              1 S1                 0.0000
     32 ****         3.8982  -0.7943  -1.0671 LP             1 S1                 0.0000
     33 ****         5.6424  -3.0152   1.7141 LP             1 S1                 0.0000
     34 ****         0.4871   2.8059  -1.1503 LP             1 S1                 0.0000
     35 ****         1.8948   3.4588  -0.6415 LP             1 S1                 0.0000
     36 ****         0.3305   0.7155  -1.3636 LP             1 S1                 0.0000
     37 ****         1.5978  -0.0757  -2.0228 LP             1 S1                 0.0000
     38 ****         0.2174  -3.1523   0.1667 LP             1 S1                 0.0000
     39 ****        -1.2024  -4.0279   0.6334 LP             1 S1                 0.0000
     40 ****        -3.2675  -2.9881   0.5942 LP             1 S1                 0.0000
     41 ****        -5.3141  -0.2247  -0.0495 LP             1 S1                 0.0000
     42 ****        -5.2540  -1.8645   0.5052 LP             1 S1                 0.0000
@<TRIPOS>BOND
    1    1    2 1     
    2    1   23 1     
    3    1   24 1     
    4    1   25 1     
    5    2   18 1     
    6    2    3 2     
    7    3    4 1     
    8    3   26 1     
    9    4    5 1     
   10    4   15 am    
   11    5   20 1     
   12    5   14 1     
   13    5    6 1     
   14    6    7 1     
   15    6   27 1     
   16    6   28 1     
   17    7   21 1     
   18    7    8 1     
   19    7   11 1     
   20    8    9 2     
   21    9   10 2     
   22   11   22 1     
   23   11   12 1     
   24   11   14 1     
   25   12   13 1     
   26   12   29 1     
   27   12   30 1     
   28   13   31 1     
   29   15   16 2     
   30   15   17 1     
   31   17   18 1     
   32   18   19 2     
   33    8   32 1     
   34   10   33 1     
   35   13   34 1     
   36   13   35 1     
   37   14   36 1     
   38   14   37 1     
   39   16   38 1     
   40   16   39 1     
   41   17   40 1     
   42   19   41 1     
   43   19   42 1     
@<TRIPOS>SUBSTRUCTURE
      1 S1             1
@<TRIPOS>SET
LONE_PAIRS      STATIC     ATOMS    <user>   **** ""
11 32 33 34 35 36 37 38 39 40 41 42
DONOR_HYDROGENS      STATIC     ATOMS    <user>   **** ""
1 31
ATOM$BLUE        STATIC     ATOMS    COLORGROUP SYSTEM
11 32 33 34 35 36 37 38 39 40 41 42
ATOM$RED        STATIC     ATOMS    COLORGROUP SYSTEM
1 31
