AV-unprocessed.smi:3129|AV-procd|sdf|11925|dock8
  -GOLD-   2272017313D 1   1.00000     0.00000
 Structure written by MMmdl.
 39 39  0  0  0  0  0  0  0  0  1 V2000
  149.9402  139.2881  154.3226 C   0  0  0  0  0  0  0  0  0  0  0  0
  151.0123  138.4749  155.0695 C   0  0  0  0  0  0  0  0  0  0  0  0
  152.1608  139.3896  155.5200 C   0  0  0  0  0  0  0  0  0  0  0  0
  151.5563  137.2916  154.2410 C   0  0  0  0  0  0  0  0  0  0  0  0
  150.5819  136.2132  154.1003 N   0  0  0  0  0  0  0  0  0  0  0  0
  150.6715  135.0002  154.6681 C   0  0  0  0  0  0  0  0  0  0  0  0
  151.6085  134.6570  155.3903 O   0  0  0  0  0  0  0  0  0  0  0  0
  149.5229  134.0200  154.3786 C   0  0  1  0  0  0  0  0  0  0  0  0
  149.1197  133.2868  155.6671 C   0  0  0  0  0  0  0  0  0  0  0  0
  148.3390  134.6599  153.7768 N   0  0  0  0  0  0  0  0  0  0  0  0
  147.3788  133.7223  153.2058 C   0  0  0  0  0  0  0  0  0  0  0  0
  146.4268  134.4802  152.2696 C   0  0  0  0  0  0  0  0  0  0  0  0
  145.4539  133.5917  151.6642 N   0  0  0  0  0  0  0  0  0  0  0  0
  145.6790  132.4354  150.9474 C   0  0  0  0  0  0  0  0  0  0  0  0
  144.4598  131.9400  150.5827 C   0  0  0  0  0  0  0  0  0  0  0  0
  143.5376  132.8751  151.1306 C   0  0  0  0  0  0  0  0  0  0  0  0
  144.1356  133.8619  151.7788 N   0  0  0  0  0  0  0  0  0  0  0  0
  150.3273  139.6839  153.3832 H   0  0  0  0  0  0  0  0  0  0  0  0
  149.5984  140.1317  154.9227 H   0  0  0  0  0  0  0  0  0  0  0  0
  149.0629  138.6832  154.0940 H   0  0  0  0  0  0  0  0  0  0  0  0
  150.5494  138.0693  155.9701 H   0  0  0  0  0  0  0  0  0  0  0  0
  152.6780  139.8256  154.6646 H   0  0  0  0  0  0  0  0  0  0  0  0
  152.8950  138.8389  156.1084 H   0  0  0  0  0  0  0  0  0  0  0  0
  151.7931  140.2083  156.1393 H   0  0  0  0  0  0  0  0  0  0  0  0
  151.9026  137.6368  153.2652 H   0  0  0  0  0  0  0  0  0  0  0  0
  152.4314  136.8711  154.7374 H   0  0  0  0  0  0  0  0  0  0  0  0
  149.7747  136.4038  153.5243 H   0  0  0  0  0  0  0  0  0  0  0  0
  149.8858  133.2688  153.6747 H   0  0  0  0  0  0  0  0  0  0  0  0
  149.9748  132.7855  156.1229 H   0  0  0  0  0  0  0  0  0  0  0  0
  148.3668  132.5249  155.4631 H   0  0  0  0  0  0  0  0  0  0  0  0
  148.7041  133.9728  156.4063 H   0  0  0  0  0  0  0  0  0  0  0  0
  148.6019  135.3454  153.0830 H   0  0  0  0  0  0  0  0  0  0  0  0
  147.8901  132.9389  152.6451 H   0  0  0  0  0  0  0  0  0  0  0  0
  146.8146  133.2404  154.0053 H   0  0  0  0  0  0  0  0  0  0  0  0
  145.8945  135.2633  152.8124 H   0  0  0  0  0  0  0  0  0  0  0  0
  146.9870  134.9715  151.4728 H   0  0  0  0  0  0  0  0  0  0  0  0
  146.6762  132.0652  150.7595 H   0  0  0  0  0  0  0  0  0  0  0  0
  144.2576  131.0459  150.0118 H   0  0  0  0  0  0  0  0  0  0  0  0
  142.4588  132.8659  151.0779 H   0  0  0  0  0  0  0  0  0  0  0  0
  1  2  1  0  0  0  0
  1 18  1  0  0  0  0
  1 19  1  0  0  0  0
  1 20  1  0  0  0  0
  2  3  1  0  0  0  0
  2  4  1  0  0  0  0
  2 21  1  0  0  0  0
  3 22  1  0  0  0  0
  3 23  1  0  0  0  0
  3 24  1  0  0  0  0
  4  5  1  0  0  0  0
  4 25  1  0  0  0  0
  4 26  1  0  0  0  0
  5  6  1  0  0  0  0
  5 27  1  0  0  0  0
  6  7  2  0  0  0  0
  6  8  1  0  0  0  0
  8  9  1  0  0  0  0
  8 10  1  0  0  0  0
  8 28  1  0  0  0  0
  9 29  1  0  0  0  0
  9 30  1  0  0  0  0
  9 31  1  0  0  0  0
 10 11  1  0  0  0  0
 10 32  1  0  0  0  0
 11 12  1  0  0  0  0
 11 33  1  0  0  0  0
 11 34  1  0  0  0  0
 12 13  1  0  0  0  0
 12 35  1  0  0  0  0
 12 36  1  0  0  0  0
 13 17  1  0  0  0  0
 13 14  1  0  0  0  0
 14 15  2  0  0  0  0
 14 37  1  0  0  0  0
 15 16  1  0  0  0  0
 15 38  1  0  0  0  0
 16 17  2  0  0  0  0
 16 39  1  0  0  0  0
M  END
> <s_m_source_file>
AV-unprocessed.smi

> <i_m_source_file_index>
3129

> <i_lp_mmshare_version>
43012

> <i_f3d_flags>
0

> <s_epik_input>
W0NIM11bQ0hdKFtDSDNdKVtDSDJdW05IXUMoPU8pW0NASF0oW0NIM10pW05IXVtDSDJdW0NIMl1uMVtjSF1bY0hdW2NIXW4x

> <s_epik_cmdline>
J2VwaWtfcHl0aG9uJywgJy1waCcsICc3LjAnLCAnLXRuJywgJzgnLCAnLW1hJywgJzIwMCcsICctbWV0YWxfYmluZGluZycsICctaW1hZScsICc8aW5maWxlLm1hZT4nLCAnLW9tYWUnLCAnPG91dGZpbGUubWFlPic=

> <r_lp_tautomer_probability>
1

> <r_epik_Ionization_Penalty>
0.724007

> <r_epik_Ionization_Penalty_Charging>
0

> <r_epik_Ionization_Penalty_Neutral>
0.724007

> <r_epik_State_Penalty>
0.74758

> <r_epik_Charging_Adjusted_Penalty>
0.74758

> <i_epik_Tot_Q>
0

> <i_epik_Tot_abs_Q>
0

> <r_epik_Metal_State_Penalty>
0.746851

> <b_epik_Metal_Only>
0

> <s_lp_Force_Field>
OPLS_2005

> <r_lp_Energy>
5.77618

> <b_lp_Chiralities_Consistent>
1

> <s_lp_Variant>
AV-unprocessed.smi:3129-4

> <Gold.Version>
5.8.1

> <Gold.Id.Protein>
6NUR|6NUR_protein|mol2

> <Gold.PLP.Fitness>
44.5233

> <Gold.PLP.PLP>
-31.3192

> <Gold.PLP.part.hbond>
-3.9999

> <Gold.PLP.part.metal>
0.0000

> <Gold.PLP.part.buried>
0.0029

> <Gold.PLP.part.nonpolar>
-27.1882

> <Gold.PLP.part.repulsive>
0.2501

> <Gold.PLP.ligand.clash>
0.0000

> <Gold.PLP.ligand.torsion>
0.6908

> <Gold.PLP.Chemscore.Hbond>
2.8319

> <Gold.PLP.Chemscore.CHOScore>
2.0000

> <Gold.PLP.Chemscore.Metal>
0.0000

> <Gold.Chemscore.Hbonds>
donor molecule, donor type, donor heavy atom, donor atom, acceptor molecule, acceptor atom, score
      L1  H     5    27       P1  7948  0.91
      L1  H    10    32       P1  7948  0.98
      P1  H 10752 10763       L1     7  0.64
      L1  C    14    37       P1 10747  0.73
      L1  C    16    39       P1 10186  0.74

> <Gold.PLP.Chemscore.Internal.Correction>
0.0901

> <Gold.Rescore>
     Score         DG    S(hbond)    S(metal)    S(lipo)     H(rot)  DE(clash)    DE(int)     intcor
     16.49     -17.03       2.55        0.00      72.66       2.13       0.07       0.46       ----

> <Gold.Chemscore.Fitness>
16.4909

> <Gold.Chemscore.DG>
-17.0289

> <Gold.Chemscore.ZeroCoef>
-5.4800

> <Gold.Chemscore.Hbond>
2.5483

> <Gold.Chemscore.Metal>
0.0000

> <Gold.Chemscore.Lipo>
72.6641

> <Gold.Chemscore.Internal_Hbond>
0.0000

> <Gold.Chemscore.DEClash>
0.0736

> <Gold.Chemscore.DEInternal>
0.4644

> <Gold.Chemscore.Rot>
2.1345

> <Gold.Chemscore.Internal.Correction>
   9.000000E+99

> <Gold.Chemscore.Hbonds>
donor molecule, donor type, donor heavy atom, donor atom, acceptor molecule, acceptor atom, score
      L1  H     5    27       P1  7948  0.27
      L1  H    10    32       P1  7948  0.81
      P1  H 10752 10763       L1     7  0.45

> <Gold.Chemscore.Hbond.Weighted>
-8.5114

> <Gold.Chemscore.Metal.Weighted>
-0.0000

> <Gold.Chemscore.Lipo.Weighted>
-8.5017

> <Gold.Chemscore.Internal_Hbond.Weighted>
0.0000

> <Gold.Chemscore.DEClash.Weighted>
0.0736

> <Gold.Chemscore.DEInternal.Weighted>
0.4644

> <Gold.Chemscore.Rot.Weighted>
5.4642

> <Gold.Chemscore.Internal.Correction.Weighted>
   9.000000E+99

> <Gold.Protein.RotatedTorsions>
[ 6907 6896 6895 6894 ] final  167.79 input  -60.11 | X-H torsion
[ 7974 7965 7964 7962 ] final  -21.96 input  175.53 | X-H torsion
[ 8008 7997 7996 7995 ] final  -95.49 input   59.86 | X-H torsion
[ 10167 10162 10161 10158 ] final   -9.83 input  -65.29 | X-H torsion
[ 10718 10713 10712 10709 ] final -130.60 input   66.30 | X-H torsion
[ 10763 10752 10751 10750 ] final   78.41 input  -60.55 | X-H torsion
[ 11005 11000 10999 10996 ] final -154.00 input  -57.11 | X-H torsion

> <Gold.Protein.ActiveResidues>
 VAL166  LYS551  ARG553  GLY616  TRP617  ASP618  TYR619  PRO620  LYS621  CYS622 
 ASP623  PHE694  ASN695  SER759  ASP760  ASP761  ALA762  ILE779  LEU786  VAL792 
 PHE793  MET794  SER795  GLU796  ALA797  LYS798  CYS799  TRP800  GLU811  SER814 

> <Gold.Protein.RotatedAtoms>
  151.8578  133.3451  159.3693 H   0  0  0  0  0  0  0  0  0  0  0  0  # atno 6907 bound_to 6896
  150.7188  134.5236  159.5675 H   0  0  0  0  0  0  0  0  0  0  0  0  # atno 6908 bound_to 6896
  152.2743  134.7899  160.0459 H   0  0  0  0  0  0  0  0  0  0  0  0  # atno 6909 bound_to 6896
  146.1703  140.4414  142.8535 H   0  0  0  0  0  0  0  0  0  0  0  0  # atno 7974 bound_to 7965
  154.7621  140.0479  157.0982 H   0  0  0  0  0  0  0  0  0  0  0  0  # atno 8008 bound_to 7997
  154.9925  140.3115  155.4881 H   0  0  0  0  0  0  0  0  0  0  0  0  # atno 8009 bound_to 7997
  156.2906  140.2216  156.5030 H   0  0  0  0  0  0  0  0  0  0  0  0  # atno 8010 bound_to 7997
  140.7098  143.5815  150.8987 H   0  0  0  0  0  0  0  0  0  0  0  0  # atno 10167 bound_to 10162
  156.2161  130.6949  151.0704 H   0  0  0  0  0  0  0  0  0  0  0  0  # atno 10718 bound_to 10713
  153.0872  135.4878  154.8620 H   0  0  0  0  0  0  0  0  0  0  0  0  # atno 10763 bound_to 10752
  154.7225  135.3042  154.9026 H   0  0  0  0  0  0  0  0  0  0  0  0  # atno 10764 bound_to 10752
  153.9686  135.6804  153.4799 H   0  0  0  0  0  0  0  0  0  0  0  0  # atno 10765 bound_to 10752
  140.7020  134.3926  157.5208 H   0  0  0  0  0  0  0  0  0  0  0  0  # atno 11005 bound_to 11000
  144.8153  140.6457  143.6388 LP  0  0  0  0  0  0  0  0  0  0  0  0  # atno 17320 bound_to 7965
  145.4358  139.1542  143.3997 LP  0  0  0  0  0  0  0  0  0  0  0  0  # atno 17321 bound_to 7965
  139.9541  143.6239  152.3021 LP  0  0  0  0  0  0  0  0  0  0  0  0  # atno 17342 bound_to 10162
  139.6768  144.7658  151.1682 LP  0  0  0  0  0  0  0  0  0  0  0  0  # atno 17343 bound_to 10162
  157.7064  131.0754  150.6653 LP  0  0  0  0  0  0  0  0  0  0  0  0  # atno 17370 bound_to 10713
  156.6714  130.4540  149.5656 LP  0  0  0  0  0  0  0  0  0  0  0  0  # atno 17371 bound_to 10713
  139.8894  134.8831  156.2423 LP  0  0  0  0  0  0  0  0  0  0  0  0  # atno 17394 bound_to 11000
  141.0155  133.7071  156.1182 LP  0  0  0  0  0  0  0  0  0  0  0  0  # atno 17395 bound_to 11000

$$$$
