AV-unprocessed.smi:2067|AV-procd|sdf|8425|dock3
  -GOLD-   2272011123D 1   1.00000     0.00000
 Structure written by MMmdl.
 47 48  0  0  0  0  0  0  0  0  1 V2000
  153.1051  141.7788  161.2401 C   0  0  0  0  0  0  0  0  0  0  0  0
  152.9053  143.1346  160.5475 C   0  0  2  0  0  0  0  0  0  0  0  0
  151.7668  143.9519  161.1897 C   0  0  0  0  0  0  0  0  0  0  0  0
  151.6189  145.3272  160.5184 C   0  0  0  0  0  0  0  0  0  0  0  0
  151.4176  145.1927  159.0007 C   0  0  0  0  0  0  0  0  0  0  0  0
  152.5437  144.3652  158.3564 C   0  0  0  0  0  0  0  0  0  0  0  0
  152.6874  142.9827  159.0261 C   0  0  2  0  0  0  0  0  0  0  0  0
  151.5021  142.2274  158.8025 O   0  0  0  0  0  0  0  0  0  0  0  0
  151.1476  142.0809  157.4361 C   0  0  0  0  0  0  0  0  0  0  0  0
  151.7714  140.7878  156.9044 C   0  0  0  0  0  0  0  0  0  0  0  0
  151.4543  139.6510  157.7550 N   0  0  0  0  0  0  0  0  0  0  0  0
  150.5941  138.6048  157.4351 C   0  0  0  0  0  0  0  0  0  0  0  0
  149.9521  138.5515  156.2335 C   0  0  0  0  0  0  0  0  0  0  0  0
  150.1409  139.5193  155.1982 C   0  0  0  0  0  0  0  0  0  0  0  0
  150.3048  140.3146  154.3725 N   0  0  0  0  0  0  0  0  0  0  0  0
  149.0357  137.4658  155.8870 C   0  0  0  0  0  0  0  0  0  0  0  0
  148.4517  137.3906  154.8039 O   0  0  0  0  0  0  0  0  0  0  0  0
  148.8704  136.4931  156.8969 N   0  0  0  0  0  0  0  0  0  0  0  0
  147.9791  135.3744  156.6616 C   0  0  0  0  0  0  0  0  0  0  0  0
  149.5360  136.5154  158.1375 C   0  0  0  0  0  0  0  0  0  0  0  0
  149.3601  135.6208  158.9712 O   0  0  0  0  0  0  0  0  0  0  0  0
  150.4145  137.5969  158.3865 N   0  0  0  0  0  0  0  0  0  0  0  0
  151.0714  137.5508  159.6758 C   0  0  0  0  0  0  0  0  0  0  0  0
  152.2185  141.1534  161.1506 H   0  0  0  0  0  0  0  0  0  0  0  0
  153.3149  141.9076  162.3022 H   0  0  0  0  0  0  0  0  0  0  0  0
  153.9415  141.2334  160.8022 H   0  0  0  0  0  0  0  0  0  0  0  0
  153.8293  143.6973  160.6894 H   0  0  0  0  0  0  0  0  0  0  0  0
  150.8265  143.4038  161.1140 H   0  0  0  0  0  0  0  0  0  0  0  0
  151.9585  144.0858  162.2548 H   0  0  0  0  0  0  0  0  0  0  0  0
  150.7798  145.8670  160.9581 H   0  0  0  0  0  0  0  0  0  0  0  0
  152.5086  145.9265  160.7155 H   0  0  0  0  0  0  0  0  0  0  0  0
  150.4549  144.7201  158.8010 H   0  0  0  0  0  0  0  0  0  0  0  0
  151.3750  146.1814  158.5432 H   0  0  0  0  0  0  0  0  0  0  0  0
  152.3592  144.2586  157.2877 H   0  0  0  0  0  0  0  0  0  0  0  0
  153.4853  144.9082  158.4473 H   0  0  0  0  0  0  0  0  0  0  0  0
  153.5494  142.4604  158.6061 H   0  0  0  0  0  0  0  0  0  0  0  0
  150.0645  142.0213  157.3265 H   0  0  0  0  0  0  0  0  0  0  0  0
  151.4866  142.9455  156.8635 H   0  0  0  0  0  0  0  0  0  0  0  0
  151.4175  140.6172  155.8878 H   0  0  0  0  0  0  0  0  0  0  0  0
  152.8556  140.8895  156.8556 H   0  0  0  0  0  0  0  0  0  0  0  0
  151.4667  139.8929  158.7356 H   0  0  0  0  0  0  0  0  0  0  0  0
  147.2892  135.3177  157.5053 H   0  0  0  0  0  0  0  0  0  0  0  0
  148.6004  134.4798  156.5940 H   0  0  0  0  0  0  0  0  0  0  0  0
  147.4045  135.5084  155.7457 H   0  0  0  0  0  0  0  0  0  0  0  0
  150.2933  137.5996  160.4395 H   0  0  0  0  0  0  0  0  0  0  0  0
  151.7571  138.3874  159.7882 H   0  0  0  0  0  0  0  0  0  0  0  0
  151.6296  136.6139  159.7280 H   0  0  0  0  0  0  0  0  0  0  0  0
  1  2  1  0  0  0  0
  1 24  1  0  0  0  0
  1 25  1  0  0  0  0
  1 26  1  0  0  0  0
  2  7  1  0  0  0  0
  2  3  1  0  0  0  0
  2 27  1  0  0  0  0
  3  4  1  0  0  0  0
  3 28  1  0  0  0  0
  3 29  1  0  0  0  0
  4  5  1  0  0  0  0
  4 30  1  0  0  0  0
  4 31  1  0  0  0  0
  5  6  1  0  0  0  0
  5 32  1  0  0  0  0
  5 33  1  0  0  0  0
  6  7  1  0  0  0  0
  6 34  1  0  0  0  0
  6 35  1  0  0  0  0
  7  8  1  0  0  0  0
  7 36  1  0  0  0  0
  8  9  1  0  0  0  0
  9 10  1  0  0  0  0
  9 37  1  0  0  0  0
  9 38  1  0  0  0  0
 10 11  1  0  0  0  0
 10 39  1  0  0  0  0
 10 40  1  0  0  0  0
 11 12  1  0  0  0  0
 11 41  1  0  0  0  0
 12 22  1  0  0  0  0
 12 13  2  0  0  0  0
 13 14  1  0  0  0  0
 13 16  1  0  0  0  0
 14 15  3  0  0  0  0
 16 17  2  0  0  0  0
 16 18  1  0  0  0  0
 18 19  1  0  0  0  0
 18 20  1  0  0  0  0
 19 42  1  0  0  0  0
 19 43  1  0  0  0  0
 19 44  1  0  0  0  0
 20 21  2  0  0  0  0
 20 22  1  0  0  0  0
 22 23  1  0  0  0  0
 23 45  1  0  0  0  0
 23 46  1  0  0  0  0
 23 47  1  0  0  0  0
M  END
> <s_m_source_file>
AV-unprocessed.smi

> <i_m_source_file_index>
2067

> <i_lp_mmshare_version>
43012

> <i_f3d_flags>
0

> <s_epik_input>
W0NIM11bQ0BASF0xW0NIMl1bQ0gyXVtDSDJdW0NIMl1bQ0BIXTFPW0NIMl1bQ0gyXVtOSF1jMmMoQyNOKWMoPU8pbihbQ0gzXSljKD1PKW4yW0NIM10=

> <s_epik_cmdline>
J2VwaWtfcHl0aG9uJywgJy1waCcsICc3LjAnLCAnLXRuJywgJzgnLCAnLW1hJywgJzIwMCcsICctbWV0YWxfYmluZGluZycsICctaW1hZScsICc8aW5maWxlLm1hZT4nLCAnLW9tYWUnLCAnPG91dGZpbGUubWFlPic=

> <r_epik_Ionization_Penalty>
0.00056529

> <r_epik_Ionization_Penalty_Charging>
3.94678e-10

> <r_epik_Ionization_Penalty_Neutral>
0.000565289

> <r_epik_State_Penalty>
0.000354611

> <r_epik_Charging_Adjusted_Penalty>
0.000354611

> <i_epik_Tot_Q>
0

> <i_epik_Tot_abs_Q>
0

> <r_epik_Metal_State_Penalty>
-0

> <b_epik_Metal_Only>
0

> <s_lp_Force_Field>
OPLS_2005

> <r_lp_Energy>
32.9241

> <b_lp_Chiralities_Consistent>
1

> <s_lp_Variant>
AV-unprocessed.smi:2067-3

> <Gold.Version>
5.8.1

> <Gold.Id.Protein>
6NUR|6NUR_protein|mol2

> <Gold.PLP.Fitness>
47.4953

> <Gold.PLP.PLP>
-42.2665

> <Gold.PLP.part.hbond>
-2.0000

> <Gold.PLP.part.metal>
0.0000

> <Gold.PLP.part.buried>
-6.9586

> <Gold.PLP.part.nonpolar>
-34.2796

> <Gold.PLP.part.repulsive>
0.3192

> <Gold.PLP.ligand.clash>
10.1185

> <Gold.PLP.ligand.torsion>
0.2883

> <Gold.PLP.Chemscore.Hbond>
1.9280

> <Gold.PLP.Chemscore.CHOScore>
0.0000

> <Gold.PLP.Chemscore.Metal>
0.0000

> <Gold.Chemscore.Hbonds>
donor molecule, donor type, donor heavy atom, donor atom, acceptor molecule, acceptor atom, score
      P1  H  6896  6907       L1    21  1.00
      P1  H  7989  7998       L1    15  1.00

> <Gold.PLP.Chemscore.Internal.Correction>
10.1398

> <Gold.Rescore>
     Score         DG    S(hbond)    S(metal)    S(lipo)     H(rot)  DE(clash)    DE(int)     intcor
     17.47     -20.53       1.96        0.00     111.29       1.76       0.11       2.95       ----

> <Gold.Chemscore.Fitness>
17.4744

> <Gold.Chemscore.DG>
-20.5338

> <Gold.Chemscore.ZeroCoef>
-5.4800

> <Gold.Chemscore.Hbond>
1.9563

> <Gold.Chemscore.Metal>
0.0000

> <Gold.Chemscore.Lipo>
111.2907

> <Gold.Chemscore.Internal_Hbond>
0.0000

> <Gold.Chemscore.DEClash>
0.1086

> <Gold.Chemscore.DEInternal>
2.9508

> <Gold.Chemscore.Rot>
1.7583

> <Gold.Chemscore.Internal.Correction>
   9.000000E+99

> <Gold.Chemscore.Hbonds>
donor molecule, donor type, donor heavy atom, donor atom, acceptor molecule, acceptor atom, score
      P1  H  6896  6907       L1    21  0.97
      P1  H  7989  7998       L1    15  0.95

> <Gold.Chemscore.Hbond.Weighted>
-6.5340

> <Gold.Chemscore.Metal.Weighted>
-0.0000

> <Gold.Chemscore.Lipo.Weighted>
-13.0210

> <Gold.Chemscore.Internal_Hbond.Weighted>
0.0000

> <Gold.Chemscore.DEClash.Weighted>
0.1086

> <Gold.Chemscore.DEInternal.Weighted>
2.9508

> <Gold.Chemscore.Rot.Weighted>
4.5012

> <Gold.Chemscore.Internal.Correction.Weighted>
   9.000000E+99

> <Gold.Protein.RotatedTorsions>
[ 6907 6896 6895 6894 ] final  -54.11 input  -60.11 | X-H torsion
[ 7974 7965 7964 7962 ] final   49.13 input  175.53 | X-H torsion
[ 8008 7997 7996 7995 ] final   75.75 input   59.86 | X-H torsion
[ 10167 10162 10161 10158 ] final  -13.06 input  -65.29 | X-H torsion
[ 10718 10713 10712 10709 ] final -120.48 input   66.30 | X-H torsion
[ 10763 10752 10751 10750 ] final   39.92 input  -60.55 | X-H torsion
[ 11005 11000 10999 10996 ] final -136.55 input  -57.11 | X-H torsion

> <Gold.Protein.ActiveResidues>
 VAL166  LYS551  ARG553  GLY616  TRP617  ASP618  TYR619  PRO620  LYS621  CYS622 
 ASP623  PHE694  ASN695  SER759  ASP760  ASP761  ALA762  ILE779  LEU786  VAL792 
 PHE793  MET794  SER795  GLU796  ALA797  LYS798  CYS799  TRP800  GLU811  SER814 

> <Gold.Protein.RotatedAtoms>
  150.8367  134.7643  159.6898 H   0  0  0  0  0  0  0  0  0  0  0  0  # atno 6907 bound_to 6896
  152.4462  134.5486  159.9870 H   0  0  0  0  0  0  0  0  0  0  0  0  # atno 6908 bound_to 6896
  151.5635  133.3362  159.3011 H   0  0  0  0  0  0  0  0  0  0  0  0  # atno 6909 bound_to 6896
  146.0139  139.4574  142.9939 H   0  0  0  0  0  0  0  0  0  0  0  0  # atno 7974 bound_to 7965
  155.8174  140.3471  155.5494 H   0  0  0  0  0  0  0  0  0  0  0  0  # atno 8008 bound_to 7997
  155.8377  140.0937  157.1773 H   0  0  0  0  0  0  0  0  0  0  0  0  # atno 8009 bound_to 7997
  154.4004  140.1400  156.3678 H   0  0  0  0  0  0  0  0  0  0  0  0  # atno 8010 bound_to 7997
  140.7174  143.5466  150.9348 H   0  0  0  0  0  0  0  0  0  0  0  0  # atno 10167 bound_to 10162
  156.1261  130.6360  150.9545 H   0  0  0  0  0  0  0  0  0  0  0  0  # atno 10718 bound_to 10713
  152.9952  135.6206  154.2543 H   0  0  0  0  0  0  0  0  0  0  0  0  # atno 10763 bound_to 10752
  154.2281  135.2793  155.2902 H   0  0  0  0  0  0  0  0  0  0  0  0  # atno 10764 bound_to 10752
  154.5473  135.5743  153.6949 H   0  0  0  0  0  0  0  0  0  0  0  0  # atno 10765 bound_to 10752
  140.8794  134.1950  157.4601 H   0  0  0  0  0  0  0  0  0  0  0  0  # atno 11005 bound_to 11000
  145.7300  141.0046  143.1357 LP  0  0  0  0  0  0  0  0  0  0  0  0  # atno 17320 bound_to 7965
  144.6963  139.8972  143.7456 LP  0  0  0  0  0  0  0  0  0  0  0  0  # atno 17321 bound_to 7965
  139.9190  143.6629  152.3100 LP  0  0  0  0  0  0  0  0  0  0  0  0  # atno 17342 bound_to 10162
  139.7039  144.7631  151.1226 LP  0  0  0  0  0  0  0  0  0  0  0  0  # atno 17343 bound_to 10162
  157.6443  131.0906  150.8186 LP  0  0  0  0  0  0  0  0  0  0  0  0  # atno 17370 bound_to 10713
  156.8277  130.5005  149.5335 LP  0  0  0  0  0  0  0  0  0  0  0  0  # atno 17371 bound_to 10713
  139.8718  134.9810  156.5100 LP  0  0  0  0  0  0  0  0  0  0  0  0  # atno 17394 bound_to 11000
  140.8479  133.8155  155.9139 LP  0  0  0  0  0  0  0  0  0  0  0  0  # atno 17395 bound_to 11000

$$$$
