AV-unprocessed.smi:1645|AV-procd|sdf|6621|dock5
  -GOLD-   22720 7323D 1   1.00000     0.00000
 Structure written by MMmdl.
 55 58  0  0  0  0  0  0  0  0  4 V2000
  146.3810  140.8835  153.8415 O   0  0  0  0  0  0  0  0  0  0  0  0
  147.0788  140.1375  153.1452 C   0  0  0  0  0  0  0  0  0  0  0  0
  148.4046  140.0553  153.3556 N   0  0  0  0  0  0  0  0  0  0  0  0
  149.1908  140.6750  154.3638 C   0  0  0  0  0  0  0  0  0  0  0  0
  150.2506  139.9332  154.9232 C   0  0  0  0  0  0  0  0  0  0  0  0
  151.0422  140.5004  155.9428 C   0  0  0  0  0  0  0  0  0  0  0  0
  150.7602  141.8089  156.4109 C   0  0  0  0  0  0  0  0  0  0  0  0
  151.4997  142.4610  157.4236 N   0  0  0  0  0  0  0  0  0  0  0  0
  151.5552  141.8299  158.7437 C   0  0  0  0  0  0  0  0  0  0  0  0
  152.6956  142.4091  159.5988 C   0  0  0  0  0  0  0  0  0  0  0  0
  152.6129  143.9395  159.6727 C   0  0  0  0  0  0  0  0  0  0  0  0
  152.5970  144.5282  158.2553 C   0  0  0  0  0  0  0  0  0  0  0  0
  151.4559  143.9269  157.4173 C   0  0  0  0  0  0  0  0  0  0  0  0
  149.7209  142.4745  155.8511 N   0  3  0  0  0  0  0  0  0  0  0  0
  148.9394  141.9705  154.8720 C   0  0  0  0  0  0  0  0  0  0  0  0
  146.6752  139.3521  152.1107 N   0  5  0  0  0  0  0  0  0  0  0  0
  145.8402  138.1563  152.2469 C   0  0  1  0  0  0  0  0  0  0  0  0
  145.7391  137.3843  150.9293 C   0  0  0  0  0  0  0  0  0  0  0  0
  145.4320  135.9584  151.3854 C   0  0  0  0  0  0  0  0  0  0  0  0
  146.1972  135.7852  152.6383 N   0  3  2  0  0  0  0  0  0  0  0  0
  145.6428  134.7736  153.5728 C   0  0  0  0  0  0  0  0  0  0  0  0
  146.4606  134.7416  154.8755 C   0  0  0  0  0  0  0  0  0  0  0  0
  146.5309  136.1185  155.5686 C   0  0  0  0  0  0  0  0  0  0  0  0
  145.9778  137.2557  154.6905 C   0  0  0  0  0  0  0  0  0  0  0  0
  146.4635  137.1316  153.2228 C   0  0  2  0  0  0  0  0  0  0  0  0
  148.9163  139.5106  152.6770 H   0  0  0  0  0  0  0  0  0  0  0  0
  150.4616  138.9336  154.5714 H   0  0  0  0  0  0  0  0  0  0  0  0
  151.8465  139.9100  156.3547 H   0  0  0  0  0  0  0  0  0  0  0  0
  150.5981  141.9725  159.2474 H   0  0  0  0  0  0  0  0  0  0  0  0
  151.7150  140.7561  158.6428 H   0  0  0  0  0  0  0  0  0  0  0  0
  152.6622  141.9839  160.6021 H   0  0  0  0  0  0  0  0  0  0  0  0
  153.6558  142.1173  159.1712 H   0  0  0  0  0  0  0  0  0  0  0  0
  151.7099  144.2360  160.2078 H   0  0  0  0  0  0  0  0  0  0  0  0
  153.4572  144.3361  160.2374 H   0  0  0  0  0  0  0  0  0  0  0  0
  152.4926  145.6125  158.3017 H   0  0  0  0  0  0  0  0  0  0  0  0
  153.5523  144.3301  157.7669 H   0  0  0  0  0  0  0  0  0  0  0  0
  151.5232  144.3289  156.4065 H   0  0  0  0  0  0  0  0  0  0  0  0
  150.4932  144.2464  157.8185 H   0  0  0  0  0  0  0  0  0  0  0  0
  148.1399  142.6194  154.5472 H   0  0  0  0  0  0  0  0  0  0  0  0
  144.8268  138.3822  152.5835 H   0  0  0  0  0  0  0  0  0  0  0  0
  144.9764  137.7863  150.2616 H   0  0  0  0  0  0  0  0  0  0  0  0
  146.6924  137.3992  150.3979 H   0  0  0  0  0  0  0  0  0  0  0  0
  144.3615  135.8356  151.5701 H   0  0  0  0  0  0  0  0  0  0  0  0
  145.7223  135.2152  150.6420 H   0  0  0  0  0  0  0  0  0  0  0  0
  144.5981  134.9996  153.7923 H   0  0  0  0  0  0  0  0  0  0  0  0
  145.6594  133.7949  153.0926 H   0  0  0  0  0  0  0  0  0  0  0  0
  146.0452  134.0009  155.5596 H   0  0  0  0  0  0  0  0  0  0  0  0
  147.4727  134.4053  154.6470 H   0  0  0  0  0  0  0  0  0  0  0  0
  145.9811  136.0927  156.5099 H   0  0  0  0  0  0  0  0  0  0  0  0
  147.5674  136.3316  155.8324 H   0  0  0  0  0  0  0  0  0  0  0  0
  144.8869  137.2261  154.7395 H   0  0  0  0  0  0  0  0  0  0  0  0
  146.2714  138.2165  155.1174 H   0  0  0  0  0  0  0  0  0  0  0  0
  147.5503  137.2348  153.2143 H   0  0  0  0  0  0  0  0  0  0  0  0
  147.1068  135.4462  152.3597 H   0  0  0  0  0  0  0  0  0  0  0  0
  149.5140  143.4143  156.1889 H   0  0  0  0  0  0  0  0  0  0  0  0
  1  2  2  0  0  0  0
  2  3  1  0  0  0  0
  2 16  1  0  0  0  0
  3  4  1  0  0  0  0
  3 26  1  0  0  0  0
  4 15  1  0  0  0  0
  4  5  2  0  0  0  0
  5  6  1  0  0  0  0
  5 27  1  0  0  0  0
  6  7  2  0  0  0  0
  6 28  1  0  0  0  0
  7  8  1  0  0  0  0
  7 14  1  0  0  0  0
  8 13  1  0  0  0  0
  8  9  1  0  0  0  0
  9 10  1  0  0  0  0
  9 29  1  0  0  0  0
  9 30  1  0  0  0  0
 10 11  1  0  0  0  0
 10 31  1  0  0  0  0
 10 32  1  0  0  0  0
 11 12  1  0  0  0  0
 11 33  1  0  0  0  0
 11 34  1  0  0  0  0
 12 13  1  0  0  0  0
 12 35  1  0  0  0  0
 12 36  1  0  0  0  0
 13 37  1  0  0  0  0
 13 38  1  0  0  0  0
 14 15  2  0  0  0  0
 14 55  1  0  0  0  0
 15 39  1  0  0  0  0
 16 17  1  0  0  0  0
 17 25  1  0  0  0  0
 17 18  1  0  0  0  0
 17 40  1  0  0  0  0
 18 19  1  0  0  0  0
 18 41  1  0  0  0  0
 18 42  1  0  0  0  0
 19 20  1  0  0  0  0
 19 43  1  0  0  0  0
 19 44  1  0  0  0  0
 20 25  1  0  0  0  0
 20 21  1  0  0  0  0
 20 54  1  0  0  0  0
 21 22  1  0  0  0  0
 21 45  1  0  0  0  0
 21 46  1  0  0  0  0
 22 23  1  0  0  0  0
 22 47  1  0  0  0  0
 22 48  1  0  0  0  0
 23 24  1  0  0  0  0
 23 49  1  0  0  0  0
 23 50  1  0  0  0  0
 24 25  1  0  0  0  0
 24 51  1  0  0  0  0
 24 52  1  0  0  0  0
 25 53  1  0  0  0  0
M  CHG  1  14   1
M  CHG  1  16  -1
M  CHG  1  20   1
M  END
> <s_m_source_file>
AV-unprocessed.smi

> <i_m_source_file_index>
1645

> <i_lp_mmshare_version>
43012

> <i_f3d_flags>
0

> <s_epik_input>
W0NIMl0xW0NIMl1bQ0gyXVtDSDJdW0NASF0oTjEyKVtDQEBIXShbQ0gyXVtDSDJdMilbTkhdQyg9TylbTkhdYzNbY0hdW2NIXWMobltjSF0zKU40W0NIMl1bQ0gyXVtDSDJdW0NIMl1bQ0gyXTQ=

> <s_epik_cmdline>
J2VwaWtfcHl0aG9uJywgJy1waCcsICc3LjAnLCAnLXRuJywgJzgnLCAnLW1hJywgJzIwMCcsICctbWV0YWxfYmluZGluZycsICctaW1hZScsICc8aW5maWxlLm1hZT4nLCAnLW9tYWUnLCAnPG91dGZpbGUubWFlPic=

> <r_lp_tautomer_probability>
0.999994

> <r_epik_Ionization_Penalty>
8.55589

> <r_epik_Ionization_Penalty_Charging>
8.55589

> <r_epik_Ionization_Penalty_Neutral>
3.8092e-06

> <r_epik_State_Penalty>
8.15703

> <r_epik_Charging_Adjusted_Penalty>
16.7129

> <i_epik_Tot_Q>
1

> <i_epik_Tot_abs_Q>
3

> <r_epik_Metal_State_Penalty>
4.13781

> <b_epik_Metal_Only>
1

> <s_lp_Force_Field>
OPLS_2005

> <r_lp_Energy>
56.4964

> <b_lp_Chiralities_Consistent>
1

> <s_lp_Variant>
AV-unprocessed.smi:1645-22

> <Gold.Version>
5.8.1

> <Gold.Id.Protein>
6NUR|6NUR_protein|mol2

> <Gold.PLP.Fitness>
51.1172

> <Gold.PLP.PLP>
-42.6282

> <Gold.PLP.part.hbond>
-2.6073

> <Gold.PLP.part.metal>
0.0000

> <Gold.PLP.part.buried>
4.0638

> <Gold.PLP.part.nonpolar>
-45.6657

> <Gold.PLP.part.repulsive>
1.3732

> <Gold.PLP.ligand.clash>
0.0000

> <Gold.PLP.ligand.torsion>
1.3038

> <Gold.PLP.Chemscore.Hbond>
3.5200

> <Gold.PLP.Chemscore.CHOScore>
0.0000

> <Gold.PLP.Chemscore.Metal>
0.0000

> <Gold.Chemscore.Hbonds>
donor molecule, donor type, donor heavy atom, donor atom, acceptor molecule, acceptor atom, score
      L1  H     3    26       P1  7957  0.58
      L1  H    14    55       P1  8028  1.57
      L1  H    20    54       P1  7948  1.53

> <Gold.PLP.Chemscore.Internal.Correction>
0.5366

> <Gold.Rescore>
     Score         DG    S(hbond)    S(metal)    S(lipo)     H(rot)  DE(clash)    DE(int)     intcor
     16.67     -23.09       1.96        0.00     120.28       1.17       4.02       2.40       ----

> <Gold.Chemscore.Fitness>
16.6695

> <Gold.Chemscore.DG>
-23.0881

> <Gold.Chemscore.ZeroCoef>
-5.4800

> <Gold.Chemscore.Hbond>
1.9577

> <Gold.Chemscore.Metal>
0.0000

> <Gold.Chemscore.Lipo>
120.2795

> <Gold.Chemscore.Internal_Hbond>
0.0000

> <Gold.Chemscore.DEClash>
4.0204

> <Gold.Chemscore.DEInternal>
2.3983

> <Gold.Chemscore.Rot>
1.1731

> <Gold.Chemscore.Internal.Correction>
   9.000000E+99

> <Gold.Chemscore.Hbonds>
donor molecule, donor type, donor heavy atom, donor atom, acceptor molecule, acceptor atom, score
      L1  H     3    26       P1  7957  0.58
      L1  H    14    55       P1  8028  0.73
      L1  H    20    54       P1  7948  0.71

> <Gold.Chemscore.Hbond.Weighted>
-6.5387

> <Gold.Chemscore.Metal.Weighted>
-0.0000

> <Gold.Chemscore.Lipo.Weighted>
-14.0727

> <Gold.Chemscore.Internal_Hbond.Weighted>
0.0000

> <Gold.Chemscore.DEClash.Weighted>
4.0204

> <Gold.Chemscore.DEInternal.Weighted>
2.3983

> <Gold.Chemscore.Rot.Weighted>
3.0032

> <Gold.Chemscore.Internal.Correction.Weighted>
   9.000000E+99

> <Gold.Protein.RotatedTorsions>
[ 6907 6896 6895 6894 ] final   11.74 input  -60.11 | X-H torsion
[ 7974 7965 7964 7962 ] final  -91.67 input  175.53 | X-H torsion
[ 8008 7997 7996 7995 ] final   -0.84 input   59.86 | X-H torsion
[ 10167 10162 10161 10158 ] final -111.91 input  -65.29 | X-H torsion
[ 10718 10713 10712 10709 ] final  160.26 input   66.30 | X-H torsion
[ 10763 10752 10751 10750 ] final -130.59 input  -60.55 | X-H torsion
[ 11005 11000 10999 10996 ] final   93.44 input  -57.11 | X-H torsion

> <Gold.Protein.ActiveResidues>
 VAL166  LYS551  ARG553  GLY616  TRP617  ASP618  TYR619  PRO620  LYS621  CYS622 
 ASP623  PHE694  ASN695  SER759  ASP760  ASP761  ALA762  ILE779  LEU786  VAL792 
 PHE793  MET794  SER795  GLU796  ALA797  LYS798  CYS799  TRP800  GLU811  SER814 

> <Gold.Protein.RotatedAtoms>
  151.7591  135.0814  160.0342 H   0  0  0  0  0  0  0  0  0  0  0  0  # atno 6907 bound_to 6896
  152.3365  133.6013  159.5855 H   0  0  0  0  0  0  0  0  0  0  0  0  # atno 6908 bound_to 6896
  150.7453  133.9704  159.3585 H   0  0  0  0  0  0  0  0  0  0  0  0  # atno 6909 bound_to 6896
  145.4101  140.9544  143.2239 H   0  0  0  0  0  0  0  0  0  0  0  0  # atno 7974 bound_to 7965
  154.6535  140.2574  155.7187 H   0  0  0  0  0  0  0  0  0  0  0  0  # atno 8008 bound_to 7997
  156.2586  140.2863  156.0899 H   0  0  0  0  0  0  0  0  0  0  0  0  # atno 8009 bound_to 7997
  155.1415  140.0380  157.2790 H   0  0  0  0  0  0  0  0  0  0  0  0  # atno 8010 bound_to 7997
  140.1285  143.4381  152.1643 H   0  0  0  0  0  0  0  0  0  0  0  0  # atno 10167 bound_to 10162
  157.1529  131.0568  151.2271 H   0  0  0  0  0  0  0  0  0  0  0  0  # atno 10718 bound_to 10713
  154.8755  135.3857  154.4108 H   0  0  0  0  0  0  0  0  0  0  0  0  # atno 10763 bound_to 10752
  153.4822  135.7030  153.5937 H   0  0  0  0  0  0  0  0  0  0  0  0  # atno 10764 bound_to 10752
  153.4347  135.3870  155.2159 H   0  0  0  0  0  0  0  0  0  0  0  0  # atno 10765 bound_to 10752
  139.8810  134.8790  156.3718 H   0  0  0  0  0  0  0  0  0  0  0  0  # atno 11005 bound_to 11000
  144.8315  139.5621  143.6941 LP  0  0  0  0  0  0  0  0  0  0  0  0  # atno 17320 bound_to 7965
  146.2709  139.6633  142.9296 LP  0  0  0  0  0  0  0  0  0  0  0  0  # atno 17321 bound_to 7965
  139.5532  144.7353  151.4373 LP  0  0  0  0  0  0  0  0  0  0  0  0  # atno 17342 bound_to 10162
  140.6831  143.8037  150.7148 LP  0  0  0  0  0  0  0  0  0  0  0  0  # atno 17343 bound_to 10162
  157.4204  130.7434  149.6909 LP  0  0  0  0  0  0  0  0  0  0  0  0  # atno 17370 bound_to 10713
  155.9767  130.4072  150.3759 LP  0  0  0  0  0  0  0  0  0  0  0  0  # atno 17371 bound_to 10713
  140.9459  133.7483  156.0207 LP  0  0  0  0  0  0  0  0  0  0  0  0  # atno 17394 bound_to 11000
  140.8164  134.3340  157.5395 LP  0  0  0  0  0  0  0  0  0  0  0  0  # atno 17395 bound_to 11000

$$$$
