AV-unprocessed.smi:1374|AV-procd|sdf|5587|dock9
  -GOLD-   22720 5183D 1   1.00000     0.00000
 Structure written by MMmdl.
 43 44  0  0  0  0  0  0  0  0  1 V2000
  144.6241  145.6394  154.5107 C   0  0  0  0  0  0  0  0  0  0  0  0
  144.6842  144.2122  155.0655 C   0  0  0  0  0  0  0  0  0  0  0  0
  145.8814  143.4202  154.5237 C   0  0  0  0  0  0  0  0  0  0  0  0
  145.9954  142.0239  155.1582 C   0  0  0  0  0  0  0  0  0  0  0  0
  147.3368  141.4826  155.0687 N   0  0  0  0  0  0  0  0  0  0  0  0
  148.1881  141.3408  156.1686 C   0  0  0  0  0  0  0  0  0  0  0  0
  147.7246  141.7617  157.4066 N   0  0  0  0  0  0  0  0  0  0  0  0
  149.4595  140.8557  156.0355 C   0  0  0  0  0  0  0  0  0  0  0  0
  150.3130  140.7012  157.1491 N   0  0  0  0  0  0  0  0  0  0  0  0
  150.7130  141.9339  157.8378 C   0  0  0  0  0  0  0  0  0  0  0  0
  150.7327  139.5012  157.6476 C   0  0  0  0  0  0  0  0  0  0  0  0
  150.5798  138.4615  157.0023 O   0  0  0  0  0  0  0  0  0  0  0  0
  151.3275  139.5033  158.9885 C   0  0  0  0  0  0  0  0  0  0  0  0
  152.4422  138.7681  159.2062 C   0  0  0  0  0  0  0  0  0  0  0  0
  153.0532  138.6481  160.4294 O   0  0  0  0  0  0  0  0  0  0  0  0
  152.2971  139.1491  161.5255 C   0  0  0  0  0  0  0  0  0  0  0  0
  151.5921  140.4559  161.1369 C   0  0  0  0  0  0  0  0  0  0  0  0
  150.7583  140.2362  160.0064 O   0  0  0  0  0  0  0  0  0  0  0  0
  149.9584  140.4249  154.7204 C   0  0  0  0  0  0  0  0  0  0  0  0
  151.0628  139.9312  154.4962 O   0  0  0  0  0  0  0  0  0  0  0  0
  149.0715  140.6174  153.6648 N   0  0  0  0  0  0  0  0  0  0  0  0
  147.7898  141.1444  153.7710 C   0  0  0  0  0  0  0  0  0  0  0  0
  147.1125  141.2930  152.7533 O   0  0  0  0  0  0  0  0  0  0  0  0
  149.3877  140.3558  152.7425 H   0  0  0  0  0  0  0  0  0  0  0  0
  143.7645  146.1764  154.9121 H   0  0  0  0  0  0  0  0  0  0  0  0
  144.5363  145.6362  153.4239 H   0  0  0  0  0  0  0  0  0  0  0  0
  145.5201  146.2023  154.7735 H   0  0  0  0  0  0  0  0  0  0  0  0
  144.7344  144.2524  156.1543 H   0  0  0  0  0  0  0  0  0  0  0  0
  143.7590  143.6909  154.8177 H   0  0  0  0  0  0  0  0  0  0  0  0
  145.7915  143.3254  153.4408 H   0  0  0  0  0  0  0  0  0  0  0  0
  146.7995  143.9798  154.7085 H   0  0  0  0  0  0  0  0  0  0  0  0
  145.7293  142.0406  156.2147 H   0  0  0  0  0  0  0  0  0  0  0  0
  145.3070  141.3078  154.7057 H   0  0  0  0  0  0  0  0  0  0  0  0
  146.8031  142.1593  157.5211 H   0  0  0  0  0  0  0  0  0  0  0  0
  148.2565  141.6144  158.2522 H   0  0  0  0  0  0  0  0  0  0  0  0
  151.7994  142.0310  157.8573 H   0  0  0  0  0  0  0  0  0  0  0  0
  150.3486  141.9394  158.8662 H   0  0  0  0  0  0  0  0  0  0  0  0
  150.3114  142.8236  157.3506 H   0  0  0  0  0  0  0  0  0  0  0  0
  152.9443  138.1770  158.4535 H   0  0  0  0  0  0  0  0  0  0  0  0
  151.5659  138.3987  161.8289 H   0  0  0  0  0  0  0  0  0  0  0  0
  152.9624  139.3115  162.3735 H   0  0  0  0  0  0  0  0  0  0  0  0
  150.9832  140.8260  161.9619 H   0  0  0  0  0  0  0  0  0  0  0  0
  152.3216  141.2321  160.9013 H   0  0  0  0  0  0  0  0  0  0  0  0
  1  2  1  0  0  0  0
  1 25  1  0  0  0  0
  1 26  1  0  0  0  0
  1 27  1  0  0  0  0
  2  3  1  0  0  0  0
  2 28  1  0  0  0  0
  2 29  1  0  0  0  0
  3  4  1  0  0  0  0
  3 30  1  0  0  0  0
  3 31  1  0  0  0  0
  4  5  1  0  0  0  0
  4 32  1  0  0  0  0
  4 33  1  0  0  0  0
  5 22  1  0  0  0  0
  5  6  1  0  0  0  0
  6  7  1  0  0  0  0
  6  8  2  0  0  0  0
  7 34  1  0  0  0  0
  7 35  1  0  0  0  0
  8  9  1  0  0  0  0
  8 19  1  0  0  0  0
  9 10  1  0  0  0  0
  9 11  1  0  0  0  0
 10 36  1  0  0  0  0
 10 37  1  0  0  0  0
 10 38  1  0  0  0  0
 11 12  2  0  0  0  0
 11 13  1  0  0  0  0
 13 18  1  0  0  0  0
 13 14  2  0  0  0  0
 14 15  1  0  0  0  0
 14 39  1  0  0  0  0
 15 16  1  0  0  0  0
 16 17  1  0  0  0  0
 16 40  1  0  0  0  0
 16 41  1  0  0  0  0
 17 18  1  0  0  0  0
 17 42  1  0  0  0  0
 17 43  1  0  0  0  0
 19 20  2  0  0  0  0
 19 21  1  0  0  0  0
 21 24  1  0  0  0  0
 21 22  1  0  0  0  0
 22 23  2  0  0  0  0
M  END
> <s_m_source_file>
AV-unprocessed.smi

> <i_m_source_file_index>
1374

> <i_lp_mmshare_version>
43012

> <i_f3d_flags>
0

> <s_epik_input>
W0NIM11bQ0gyXVtDSDJdW0NIMl1uMWMoW05IMl0pYyhjKD1PKVtuSF1jMT1PKU4oW0NIM10pQyg9TylDMj1bQ0hdT1tDSDJdW0NIMl1PMg==

> <s_epik_cmdline>
J2VwaWtfcHl0aG9uJywgJy1waCcsICc3LjAnLCAnLXRuJywgJzgnLCAnLW1hJywgJzIwMCcsICctbWV0YWxfYmluZGluZycsICctaW1hZScsICc8aW5maWxlLm1hZT4nLCAnLW9tYWUnLCAnPG91dGZpbGUubWFlPic=

> <r_lp_tautomer_probability>
1

> <r_epik_Ionization_Penalty>
3.28524e-05

> <r_epik_Ionization_Penalty_Charging>
2.39265e-05

> <r_epik_Ionization_Penalty_Neutral>
8.92594e-06

> <r_epik_State_Penalty>
-0

> <r_epik_Charging_Adjusted_Penalty>
2.39265e-05

> <i_epik_Tot_Q>
0

> <i_epik_Tot_abs_Q>
0

> <r_epik_Metal_State_Penalty>
0.0232519

> <b_epik_Metal_Only>
0

> <s_epik_Chemistry_Notes>
This compound has an imine and may undergo hydrolysis.

> <s_lp_Force_Field>
OPLS_2005

> <r_lp_Energy>
27.3757

> <b_lp_Chiralities_Consistent>
1

> <s_lp_Variant>
AV-unprocessed.smi:1374-1

> <Gold.Version>
5.8.1

> <Gold.Id.Protein>
6NUR|6NUR_protein|mol2

> <Gold.PLP.Fitness>
46.9474

> <Gold.PLP.PLP>
-42.8731

> <Gold.PLP.part.hbond>
-3.5088

> <Gold.PLP.part.metal>
0.0000

> <Gold.PLP.part.buried>
-4.0216

> <Gold.PLP.part.nonpolar>
-36.7303

> <Gold.PLP.part.repulsive>
0.4679

> <Gold.PLP.ligand.clash>
0.0000

> <Gold.PLP.ligand.torsion>
2.2407

> <Gold.PLP.Chemscore.Hbond>
1.7200

> <Gold.PLP.Chemscore.CHOScore>
0.0000

> <Gold.PLP.Chemscore.Metal>
0.0000

> <Gold.Chemscore.Hbonds>
donor molecule, donor type, donor heavy atom, donor atom, acceptor molecule, acceptor atom, score
      L1  H    21    24       P1  7957  1.00
      P1  H  7989  7998       L1    20  0.88

> <Gold.PLP.Chemscore.Internal.Correction>
3.3957

> <Gold.Rescore>
     Score         DG    S(hbond)    S(metal)    S(lipo)     H(rot)  DE(clash)    DE(int)     intcor
     10.88     -15.04       1.57        0.00      69.37       1.49       0.11       4.05       ----

> <Gold.Chemscore.Fitness>
10.8783

> <Gold.Chemscore.DG>
-15.0415

> <Gold.Chemscore.ZeroCoef>
-5.4800

> <Gold.Chemscore.Hbond>
1.5727

> <Gold.Chemscore.Metal>
0.0000

> <Gold.Chemscore.Lipo>
69.3733

> <Gold.Chemscore.Internal_Hbond>
0.0000

> <Gold.Chemscore.DEClash>
0.1145

> <Gold.Chemscore.DEInternal>
4.0487

> <Gold.Chemscore.Rot>
1.4875

> <Gold.Chemscore.Internal.Correction>
   9.000000E+99

> <Gold.Chemscore.Hbonds>
donor molecule, donor type, donor heavy atom, donor atom, acceptor molecule, acceptor atom, score
      L1  H    21    24       P1  7957  0.99
      P1  H  7989  7998       L1    20  0.34

> <Gold.Chemscore.Hbond.Weighted>
-5.2529

> <Gold.Chemscore.Metal.Weighted>
-0.0000

> <Gold.Chemscore.Lipo.Weighted>
-8.1167

> <Gold.Chemscore.Internal_Hbond.Weighted>
0.0000

> <Gold.Chemscore.DEClash.Weighted>
0.1145

> <Gold.Chemscore.DEInternal.Weighted>
4.0487

> <Gold.Chemscore.Rot.Weighted>
3.8081

> <Gold.Chemscore.Internal.Correction.Weighted>
   9.000000E+99

> <Gold.Protein.RotatedTorsions>
[ 6907 6896 6895 6894 ] final -112.16 input  -60.11 | X-H torsion
[ 7974 7965 7964 7962 ] final -152.28 input  175.53 | X-H torsion
[ 8008 7997 7996 7995 ] final   -5.24 input   59.86 | X-H torsion
[ 10167 10162 10161 10158 ] final  165.07 input  -65.29 | X-H torsion
[ 10718 10713 10712 10709 ] final -136.73 input   66.30 | X-H torsion
[ 10763 10752 10751 10750 ] final   47.51 input  -60.55 | X-H torsion
[ 11005 11000 10999 10996 ] final -176.06 input  -57.11 | X-H torsion

> <Gold.Protein.ActiveResidues>
 VAL166  LYS551  ARG553  GLY616  TRP617  ASP618  TYR619  PRO620  LYS621  CYS622 
 ASP623  PHE694  ASN695  SER759  ASP760  ASP761  ALA762  ILE779  LEU786  VAL792 
 PHE793  MET794  SER795  GLU796  ALA797  LYS798  CYS799  TRP800  GLU811  SER814 

> <Gold.Protein.RotatedAtoms>
  150.7739  133.9130  159.3374 H   0  0  0  0  0  0  0  0  0  0  0  0  # atno 6907 bound_to 6896
  151.7009  135.0928  160.0260 H   0  0  0  0  0  0  0  0  0  0  0  0  # atno 6908 bound_to 6896
  152.3768  133.6454  159.6165 H   0  0  0  0  0  0  0  0  0  0  0  0  # atno 6909 bound_to 6896
  144.7803  140.4684  143.5844 H   0  0  0  0  0  0  0  0  0  0  0  0  # atno 7974 bound_to 7965
  154.6059  140.2463  155.7731 H   0  0  0  0  0  0  0  0  0  0  0  0  # atno 8008 bound_to 7997
  156.2341  140.2956  156.0216 H   0  0  0  0  0  0  0  0  0  0  0  0  # atno 8009 bound_to 7997
  155.2132  140.0398  157.2927 H   0  0  0  0  0  0  0  0  0  0  0  0  # atno 8010 bound_to 7997
  139.4899  144.4170  151.9232 H   0  0  0  0  0  0  0  0  0  0  0  0  # atno 10167 bound_to 10162
  156.2803  130.7316  151.1311 H   0  0  0  0  0  0  0  0  0  0  0  0  # atno 10718 bound_to 10713
  152.9799  135.5974  154.3774 H   0  0  0  0  0  0  0  0  0  0  0  0  # atno 10763 bound_to 10752
  154.3442  135.2767  155.2408 H   0  0  0  0  0  0  0  0  0  0  0  0  # atno 10764 bound_to 10752
  154.4476  135.5997  153.6226 H   0  0  0  0  0  0  0  0  0  0  0  0  # atno 10765 bound_to 10752
  140.4563  134.6296  157.4823 H   0  0  0  0  0  0  0  0  0  0  0  0  # atno 11005 bound_to 11000
  145.6069  139.1509  143.3097 LP  0  0  0  0  0  0  0  0  0  0  0  0  # atno 17320 bound_to 7965
  146.2007  140.6187  142.9103 LP  0  0  0  0  0  0  0  0  0  0  0  0  # atno 17321 bound_to 7965
  140.3613  144.2969  150.5933 LP  0  0  0  0  0  0  0  0  0  0  0  0  # atno 17342 bound_to 10162
  140.5400  143.2225  151.8100 LP  0  0  0  0  0  0  0  0  0  0  0  0  # atno 17343 bound_to 10162
  157.7312  131.0610  150.5689 LP  0  0  0  0  0  0  0  0  0  0  0  0  # atno 17370 bound_to 10713
  156.5794  130.4300  149.5984 LP  0  0  0  0  0  0  0  0  0  0  0  0  # atno 17371 bound_to 10713
  139.9974  134.6889  155.9586 LP  0  0  0  0  0  0  0  0  0  0  0  0  # atno 17394 bound_to 11000
  141.1641  133.6537  156.4420 LP  0  0  0  0  0  0  0  0  0  0  0  0  # atno 17395 bound_to 11000

$$$$
