AV-unprocessed.smi:1093|AV-procd|sdf|4744|dock5
  -GOLD-   22720 3283D 1   1.00000     0.00000
 Structure written by MMmdl.
 47 48  0  0  0  0  0  0  0  0  2 V2000
  148.3259  132.5351  153.1833 C   0  0  0  0  0  0  0  0  0  0  0  0
  147.2029  132.7465  152.1577 C   0  0  0  0  0  0  0  0  0  0  0  0
  146.7148  134.1477  152.1378 N   0  3  1  0  0  0  0  0  0  0  0  0
  145.9415  134.4634  150.9086 C   0  0  0  0  0  0  0  0  0  0  0  0
  145.5834  135.9586  150.8442 C   0  0  0  0  0  0  0  0  0  0  0  0
  144.8460  136.4156  152.1143 C   0  0  0  0  0  0  0  0  0  0  0  0
  145.6363  136.0340  153.3787 C   0  0  2  0  0  0  0  0  0  0  0  0
  146.8527  136.8427  153.4696 N   0  0  0  0  0  0  0  0  0  0  0  0
  147.2067  137.5962  154.5206 C   0  0  0  0  0  0  0  0  0  0  0  0
  146.5366  137.6799  155.5494 O   0  0  0  0  0  0  0  0  0  0  0  0
  148.3823  138.2100  154.3047 N   0  0  0  0  0  0  0  0  0  0  0  0
  149.0971  139.0773  155.1736 C   0  0  0  0  0  0  0  0  0  0  0  0
  149.1770  138.9135  156.5755 C   0  0  0  0  0  0  0  0  0  0  0  0
  149.9031  139.8526  157.3330 C   0  0  0  0  0  0  0  0  0  0  0  0
  150.5289  140.9414  156.6763 C   0  0  0  0  0  0  0  0  0  0  0  0
  151.2708  141.9084  157.3925 N   0  0  0  0  0  0  0  0  0  0  0  0
  151.2663  143.2996  156.9515 C   0  0  0  0  0  0  0  0  0  0  0  0
  151.9754  141.5360  158.6130 C   0  0  0  0  0  0  0  0  0  0  0  0
  150.4363  141.0987  155.3331 N   0  0  0  0  0  0  0  0  0  0  0  0
  149.7381  140.1982  154.6116 C   0  0  0  0  0  0  0  0  0  0  0  0
  145.9530  134.5223  153.3588 C   0  0  0  0  0  0  0  0  0  0  0  0
  148.7190  131.5207  153.1161 H   0  0  0  0  0  0  0  0  0  0  0  0
  147.9824  132.6802  154.2072 H   0  0  0  0  0  0  0  0  0  0  0  0
  149.1545  133.2214  153.0067 H   0  0  0  0  0  0  0  0  0  0  0  0
  147.6014  132.4901  151.1752 H   0  0  0  0  0  0  0  0  0  0  0  0
  146.3739  132.0621  152.3434 H   0  0  0  0  0  0  0  0  0  0  0  0
  146.5245  134.1992  150.0256 H   0  0  0  0  0  0  0  0  0  0  0  0
  145.0347  133.8570  150.8832 H   0  0  0  0  0  0  0  0  0  0  0  0
  146.4933  136.5454  150.7141 H   0  0  0  0  0  0  0  0  0  0  0  0
  144.9665  136.1550  149.9667 H   0  0  0  0  0  0  0  0  0  0  0  0
  144.6669  137.4911  152.0826 H   0  0  0  0  0  0  0  0  0  0  0  0
  143.8632  135.9435  152.1482 H   0  0  0  0  0  0  0  0  0  0  0  0
  145.0169  136.2560  154.2496 H   0  0  0  0  0  0  0  0  0  0  0  0
  147.4621  136.8388  152.6644 H   0  0  0  0  0  0  0  0  0  0  0  0
  148.8532  137.9819  153.4414 H   0  0  0  0  0  0  0  0  0  0  0  0
  148.6872  138.0990  157.0862 H   0  0  0  0  0  0  0  0  0  0  0  0
  149.9616  139.7198  158.4025 H   0  0  0  0  0  0  0  0  0  0  0  0
  150.2544  143.7052  156.9769 H   0  0  0  0  0  0  0  0  0  0  0  0
  151.6472  143.3800  155.9330 H   0  0  0  0  0  0  0  0  0  0  0  0
  151.8923  143.9225  157.5904 H   0  0  0  0  0  0  0  0  0  0  0  0
  152.7304  140.7777  158.4040 H   0  0  0  0  0  0  0  0  0  0  0  0
  151.2784  141.1416  159.3530 H   0  0  0  0  0  0  0  0  0  0  0  0
  152.4807  142.3938  159.0567 H   0  0  0  0  0  0  0  0  0  0  0  0
  149.6969  140.3772  153.5471 H   0  0  0  0  0  0  0  0  0  0  0  0
  145.0258  133.9481  153.3950 H   0  0  0  0  0  0  0  0  0  0  0  0
  146.5097  134.2518  154.2551 H   0  0  0  0  0  0  0  0  0  0  0  0
  147.5372  134.7336  152.1131 H   0  0  0  0  0  0  0  0  0  0  0  0
  1  2  1  0  0  0  0
  1 22  1  0  0  0  0
  1 23  1  0  0  0  0
  1 24  1  0  0  0  0
  2  3  1  0  0  0  0
  2 25  1  0  0  0  0
  2 26  1  0  0  0  0
  3 21  1  0  0  0  0
  3  4  1  0  0  0  0
  3 47  1  0  0  0  0
  4  5  1  0  0  0  0
  4 27  1  0  0  0  0
  4 28  1  0  0  0  0
  5  6  1  0  0  0  0
  5 29  1  0  0  0  0
  5 30  1  0  0  0  0
  6  7  1  0  0  0  0
  6 31  1  0  0  0  0
  6 32  1  0  0  0  0
  7  8  1  0  0  0  0
  7 21  1  0  0  0  0
  7 33  1  0  0  0  0
  8  9  1  0  0  0  0
  8 34  1  0  0  0  0
  9 10  2  0  0  0  0
  9 11  1  0  0  0  0
 11 12  1  0  0  0  0
 11 35  1  0  0  0  0
 12 20  1  0  0  0  0
 12 13  2  0  0  0  0
 13 14  1  0  0  0  0
 13 36  1  0  0  0  0
 14 15  2  0  0  0  0
 14 37  1  0  0  0  0
 15 16  1  0  0  0  0
 15 19  1  0  0  0  0
 16 17  1  0  0  0  0
 16 18  1  0  0  0  0
 17 38  1  0  0  0  0
 17 39  1  0  0  0  0
 17 40  1  0  0  0  0
 18 41  1  0  0  0  0
 18 42  1  0  0  0  0
 18 43  1  0  0  0  0
 19 20  2  0  0  0  0
 20 44  1  0  0  0  0
 21 45  1  0  0  0  0
 21 46  1  0  0  0  0
M  CHG  1   3   1
M  END
> <s_m_source_file>
AV-unprocessed.smi

> <i_m_source_file_index>
1093

> <i_lp_mmshare_version>
43012

> <i_f3d_flags>
0

> <s_epik_input>
W0NIM11bQ0gyXU4xW0NIMl1bQ0gyXVtDSDJdW0NASF0oW0NIMl0xKVtOSF1DKD1PKVtOSF1jMltjSF1bY0hdYyhOKFtDSDNdKVtDSDNdKW5bY0hdMg==

> <s_epik_cmdline>
J2VwaWtfcHl0aG9uJywgJy1waCcsICc3LjAnLCAnLXRuJywgJzgnLCAnLW1hJywgJzIwMCcsICctbWV0YWxfYmluZGluZycsICctaW1hZScsICc8aW5maWxlLm1hZT4nLCAnLW9tYWUnLCAnPG91dGZpbGUubWFlPic=

> <r_lp_tautomer_probability>
1

> <r_epik_Ionization_Penalty>
0.489418

> <r_epik_Ionization_Penalty_Charging>
0.00268196

> <r_epik_Ionization_Penalty_Neutral>
0.486736

> <r_epik_State_Penalty>
0.491157

> <r_epik_Charging_Adjusted_Penalty>
0.493839

> <i_epik_Tot_Q>
1

> <i_epik_Tot_abs_Q>
1

> <r_epik_Metal_State_Penalty>
0.266953

> <b_epik_Metal_Only>
0

> <s_lp_Force_Field>
OPLS_2005

> <r_lp_Energy>
27.6013

> <b_lp_Chiralities_Consistent>
1

> <s_lp_Variant>
AV-unprocessed.smi:1093-7

> <Gold.Version>
5.8.1

> <Gold.Id.Protein>
6NUR|6NUR_protein|mol2

> <Gold.PLP.Fitness>
40.0964

> <Gold.PLP.PLP>
-29.1494

> <Gold.PLP.part.hbond>
-3.5250

> <Gold.PLP.part.metal>
0.0000

> <Gold.PLP.part.buried>
-0.9058

> <Gold.PLP.part.nonpolar>
-23.9330

> <Gold.PLP.part.repulsive>
0.1278

> <Gold.PLP.ligand.clash>
0.0000

> <Gold.PLP.ligand.torsion>
0.8578

> <Gold.PLP.Chemscore.Hbond>
3.2122

> <Gold.PLP.Chemscore.CHOScore>
1.0000

> <Gold.PLP.Chemscore.Metal>
0.0000

> <Gold.Chemscore.Hbonds>
donor molecule, donor type, donor heavy atom, donor atom, acceptor molecule, acceptor atom, score
      L1  H     3    47       P1  7948  1.98
      L1  H     8    34       P1  7948  0.99
      L1  H    11    35       P1  7948  0.19
      L1  C    20    44       P1  7957  1.00

> <Gold.PLP.Chemscore.Internal.Correction>
0.0262

> <Gold.Rescore>
     Score         DG    S(hbond)    S(metal)    S(lipo)     H(rot)  DE(clash)    DE(int)     intcor
     15.49     -17.06       1.86        0.00      71.70       1.18       0.16       1.41       ----

> <Gold.Chemscore.Fitness>
15.4935

> <Gold.Chemscore.DG>
-17.0648

> <Gold.Chemscore.ZeroCoef>
-5.4800

> <Gold.Chemscore.Hbond>
1.8645

> <Gold.Chemscore.Metal>
0.0000

> <Gold.Chemscore.Lipo>
71.7017

> <Gold.Chemscore.Internal_Hbond>
0.0000

> <Gold.Chemscore.DEClash>
0.1632

> <Gold.Chemscore.DEInternal>
1.4081

> <Gold.Chemscore.Rot>
1.1842

> <Gold.Chemscore.Internal.Correction>
   9.000000E+99

> <Gold.Chemscore.Hbonds>
donor molecule, donor type, donor heavy atom, donor atom, acceptor molecule, acceptor atom, score
      L1  H     3    47       P1  7948  0.72
      L1  H     8    34       P1  7948  0.94
      L1  H    11    35       P1  7948  0.19

> <Gold.Chemscore.Hbond.Weighted>
-6.2274

> <Gold.Chemscore.Metal.Weighted>
-0.0000

> <Gold.Chemscore.Lipo.Weighted>
-8.3891

> <Gold.Chemscore.Internal_Hbond.Weighted>
0.0000

> <Gold.Chemscore.DEClash.Weighted>
0.1632

> <Gold.Chemscore.DEInternal.Weighted>
1.4081

> <Gold.Chemscore.Rot.Weighted>
3.0317

> <Gold.Chemscore.Internal.Correction.Weighted>
   9.000000E+99

> <Gold.Protein.RotatedTorsions>
[ 6907 6896 6895 6894 ] final  -43.40 input  -60.11 | X-H torsion
[ 7974 7965 7964 7962 ] final   89.90 input  175.53 | X-H torsion
[ 8008 7997 7996 7995 ] final -120.40 input   59.86 | X-H torsion
[ 10167 10162 10161 10158 ] final  -58.12 input  -65.29 | X-H torsion
[ 10718 10713 10712 10709 ] final  -94.36 input   66.30 | X-H torsion
[ 10763 10752 10751 10750 ] final  -54.52 input  -60.55 | X-H torsion
[ 11005 11000 10999 10996 ] final -160.17 input  -57.11 | X-H torsion

> <Gold.Protein.ActiveResidues>
 VAL166  LYS551  ARG553  GLY616  TRP617  ASP618  TYR619  PRO620  LYS621  CYS622 
 ASP623  PHE694  ASN695  SER759  ASP760  ASP761  ALA762  ILE779  LEU786  VAL792 
 PHE793  MET794  SER795  GLU796  ALA797  LYS798  CYS799  TRP800  GLU811  SER814 

> <Gold.Protein.RotatedAtoms>
  150.9444  134.8850  159.7632 H   0  0  0  0  0  0  0  0  0  0  0  0  # atno 6907 bound_to 6896
  152.5093  134.3896  159.9389 H   0  0  0  0  0  0  0  0  0  0  0  0  # atno 6908 bound_to 6896
  151.3915  133.3747  159.2756 H   0  0  0  0  0  0  0  0  0  0  0  0  # atno 6909 bound_to 6896
  145.5262  139.2281  143.2644 H   0  0  0  0  0  0  0  0  0  0  0  0  # atno 7974 bound_to 7965
  155.1312  140.0400  157.2775 H   0  0  0  0  0  0  0  0  0  0  0  0  # atno 8008 bound_to 7997
  154.6541  140.2576  155.7155 H   0  0  0  0  0  0  0  0  0  0  0  0  # atno 8009 bound_to 7997
  156.2590  140.2830  156.0987 H   0  0  0  0  0  0  0  0  0  0  0  0  # atno 8010 bound_to 7997
  140.6217  143.2422  151.5465 H   0  0  0  0  0  0  0  0  0  0  0  0  # atno 10167 bound_to 10162
  156.0026  130.5064  150.5915 H   0  0  0  0  0  0  0  0  0  0  0  0  # atno 10718 bound_to 10713
  154.1761  135.6451  153.5022 H   0  0  0  0  0  0  0  0  0  0  0  0  # atno 10763 bound_to 10752
  153.0071  135.5395  154.6562 H   0  0  0  0  0  0  0  0  0  0  0  0  # atno 10764 bound_to 10752
  154.5914  135.2934  155.0603 H   0  0  0  0  0  0  0  0  0  0  0  0  # atno 10765 bound_to 10752
  140.6344  134.4617  157.5231 H   0  0  0  0  0  0  0  0  0  0  0  0  # atno 11005 bound_to 11000
  146.2074  140.6076  142.9075 LP  0  0  0  0  0  0  0  0  0  0  0  0  # atno 17320 bound_to 7965
  144.7650  140.5509  143.6709 LP  0  0  0  0  0  0  0  0  0  0  0  0  # atno 17321 bound_to 7965
  139.5444  144.2561  152.1414 LP  0  0  0  0  0  0  0  0  0  0  0  0  # atno 17342 bound_to 10162
  140.1782  144.4870  150.6542 LP  0  0  0  0  0  0  0  0  0  0  0  0  # atno 17343 bound_to 10162
  157.3779  131.0776  151.1502 LP  0  0  0  0  0  0  0  0  0  0  0  0  # atno 17370 bound_to 10713
  157.2234  130.6492  149.5820 LP  0  0  0  0  0  0  0  0  0  0  0  0  # atno 17371 bound_to 10713
  139.9104  134.8358  156.1551 LP  0  0  0  0  0  0  0  0  0  0  0  0  # atno 17394 bound_to 11000
  141.0652  133.6822  156.2030 LP  0  0  0  0  0  0  0  0  0  0  0  0  # atno 17395 bound_to 11000

$$$$
