AV-unprocessed.smi:1041|AV-procd|sdf|4529|dock8
  -GOLD-   22720 2553D 1   1.00000     0.00000
 Structure written by MMmdl.
 53 54  0  0  0  0  0  0  0  0  2 V2000
  151.9451  142.7360  160.0366 C   0  0  0  0  0  0  0  0  0  0  0  0
  151.8100  142.8726  158.6327 O   0  0  0  0  0  0  0  0  0  0  0  0
  150.4752  142.6837  158.1934 C   0  0  0  0  0  0  0  0  0  0  0  0
  150.4872  141.7851  156.9470 C   0  0  0  0  0  0  0  0  0  0  0  0
  149.2313  141.8891  156.1618 N   0  3  2  0  0  0  0  0  0  0  0  0
  148.0506  141.4022  156.9212 C   0  0  0  0  0  0  0  0  0  0  0  0
  146.7439  141.6373  156.1398 C   0  0  0  0  0  0  0  0  0  0  0  0
  146.7819  141.0077  154.7347 C   0  0  2  0  0  0  0  0  0  0  0  0
  146.6428  139.4677  154.7847 C   0  0  0  0  0  0  0  0  0  0  0  0
  145.3823  139.0175  154.2047 N   0  0  0  0  0  0  0  0  0  0  0  0
  144.7314  137.8903  154.5323 C   0  0  0  0  0  0  0  0  0  0  0  0
  145.0969  137.1263  155.4249 O   0  0  0  0  0  0  0  0  0  0  0  0
  143.4976  137.5585  153.6947 C   0  0  0  0  0  0  0  0  0  0  0  0
  143.5754  136.2289  152.9471 C   0  0  0  0  0  0  0  0  0  0  0  0
  144.5146  135.9610  151.9926 C   0  0  0  0  0  0  0  0  0  0  0  0
  145.5869  136.9565  151.5847 C   0  0  0  0  0  0  0  0  0  0  0  0
  144.5493  134.7306  151.3218 N   0  0  0  0  0  0  0  0  0  0  0  0
  143.6665  133.8347  151.6183 C   0  0  0  0  0  0  0  0  0  0  0  0
  143.5988  132.4682  150.9698 C   0  0  0  0  0  0  0  0  0  0  0  0
  142.6772  134.0472  152.5767 N   0  0  0  0  0  0  0  0  0  0  0  0
  142.5657  135.2021  153.2701 C   0  0  0  0  0  0  0  0  0  0  0  0
  141.6643  135.3483  154.0944 O   0  0  0  0  0  0  0  0  0  0  0  0
  148.0437  141.5136  154.0039 C   0  0  0  0  0  0  0  0  0  0  0  0
  149.3217  141.2565  154.8193 C   0  0  0  0  0  0  0  0  0  0  0  0
  142.0104  133.3125  152.7634 H   0  0  0  0  0  0  0  0  0  0  0  0
  152.9849  142.8958  160.3219 H   0  0  0  0  0  0  0  0  0  0  0  0
  151.6564  141.7363  160.3645 H   0  0  0  0  0  0  0  0  0  0  0  0
  151.3343  143.4687  160.5655 H   0  0  0  0  0  0  0  0  0  0  0  0
  149.8620  142.2597  158.9888 H   0  0  0  0  0  0  0  0  0  0  0  0
  150.0387  143.6502  157.9370 H   0  0  0  0  0  0  0  0  0  0  0  0
  151.3392  142.0255  156.3095 H   0  0  0  0  0  0  0  0  0  0  0  0
  150.6327  140.7556  157.2774 H   0  0  0  0  0  0  0  0  0  0  0  0
  148.1760  140.3447  157.1562 H   0  0  0  0  0  0  0  0  0  0  0  0
  147.9894  141.9278  157.8749 H   0  0  0  0  0  0  0  0  0  0  0  0
  145.8952  141.2511  156.7053 H   0  0  0  0  0  0  0  0  0  0  0  0
  146.5781  142.7115  156.0453 H   0  0  0  0  0  0  0  0  0  0  0  0
  145.9164  141.3806  154.1849 H   0  0  0  0  0  0  0  0  0  0  0  0
  147.4896  138.9798  154.3014 H   0  0  0  0  0  0  0  0  0  0  0  0
  146.6620  139.1346  155.8228 H   0  0  0  0  0  0  0  0  0  0  0  0
  145.0004  139.5798  153.4573 H   0  0  0  0  0  0  0  0  0  0  0  0
  142.6298  137.5583  154.3541 H   0  0  0  0  0  0  0  0  0  0  0  0
  143.3064  138.3724  152.9934 H   0  0  0  0  0  0  0  0  0  0  0  0
  146.2360  137.1887  152.4293 H   0  0  0  0  0  0  0  0  0  0  0  0
  145.1380  137.8817  151.2250 H   0  0  0  0  0  0  0  0  0  0  0  0
  146.2127  136.5587  150.7849 H   0  0  0  0  0  0  0  0  0  0  0  0
  143.4529  132.5700  149.8942 H   0  0  0  0  0  0  0  0  0  0  0  0
  142.7785  131.8711  151.3710 H   0  0  0  0  0  0  0  0  0  0  0  0
  144.5295  131.9264  151.1400 H   0  0  0  0  0  0  0  0  0  0  0  0
  148.1328  141.0685  153.0130 H   0  0  0  0  0  0  0  0  0  0  0  0
  147.9480  142.5865  153.8324 H   0  0  0  0  0  0  0  0  0  0  0  0
  150.1712  141.6571  154.2680 H   0  0  0  0  0  0  0  0  0  0  0  0
  149.4981  140.1856  154.9272 H   0  0  0  0  0  0  0  0  0  0  0  0
  149.0755  142.8758  156.0112 H   0  0  0  0  0  0  0  0  0  0  0  0
  1  2  1  0  0  0  0
  1 26  1  0  0  0  0
  1 27  1  0  0  0  0
  1 28  1  0  0  0  0
  2  3  1  0  0  0  0
  3  4  1  0  0  0  0
  3 29  1  0  0  0  0
  3 30  1  0  0  0  0
  4  5  1  0  0  0  0
  4 31  1  0  0  0  0
  4 32  1  0  0  0  0
  5 24  1  0  0  0  0
  5  6  1  0  0  0  0
  5 53  1  0  0  0  0
  6  7  1  0  0  0  0
  6 33  1  0  0  0  0
  6 34  1  0  0  0  0
  7  8  1  0  0  0  0
  7 35  1  0  0  0  0
  7 36  1  0  0  0  0
  8  9  1  0  0  0  0
  8 23  1  0  0  0  0
  8 37  1  0  0  0  0
  9 10  1  0  0  0  0
  9 38  1  0  0  0  0
  9 39  1  0  0  0  0
 10 11  1  0  0  0  0
 10 40  1  0  0  0  0
 11 12  2  0  0  0  0
 11 13  1  0  0  0  0
 13 14  1  0  0  0  0
 13 41  1  0  0  0  0
 13 42  1  0  0  0  0
 14 21  1  0  0  0  0
 14 15  2  0  0  0  0
 15 16  1  0  0  0  0
 15 17  1  0  0  0  0
 16 43  1  0  0  0  0
 16 44  1  0  0  0  0
 16 45  1  0  0  0  0
 17 18  2  0  0  0  0
 18 19  1  0  0  0  0
 18 20  1  0  0  0  0
 19 46  1  0  0  0  0
 19 47  1  0  0  0  0
 19 48  1  0  0  0  0
 20 25  1  0  0  0  0
 20 21  1  0  0  0  0
 21 22  2  0  0  0  0
 23 24  1  0  0  0  0
 23 49  1  0  0  0  0
 23 50  1  0  0  0  0
 24 51  1  0  0  0  0
 24 52  1  0  0  0  0
M  CHG  1   5   1
M  END
> <s_m_source_file>
AV-unprocessed.smi

> <i_m_source_file_index>
1041

> <i_lp_mmshare_version>
43012

> <i_f3d_flags>
0

> <s_epik_input>
W0NIM11PW0NIMl1bQ0gyXU4xW0NIMl1bQ0gyXVtDSF0oW0NIMl1bQ0gyXTEpW0NIMl1bTkhdQyg9TylbQ0gyXWMyYyhbQ0gzXSluYyhbQ0gzXSlbbkhdYzI9Tw==

> <s_epik_cmdline>
J2VwaWtfcHl0aG9uJywgJy1waCcsICc3LjAnLCAnLXRuJywgJzgnLCAnLW1hJywgJzIwMCcsICctbWV0YWxfYmluZGluZycsICctaW1hZScsICc8aW5maWxlLm1hZT4nLCAnLW9tYWUnLCAnPG91dGZpbGUubWFlPic=

> <r_lp_tautomer_probability>
0.839158

> <r_epik_Ionization_Penalty>
0.00964357

> <r_epik_Ionization_Penalty_Charging>
0.00961423

> <r_epik_Ionization_Penalty_Neutral>
2.93415e-05

> <r_epik_State_Penalty>
0.0972512

> <r_epik_Charging_Adjusted_Penalty>
0.106865

> <i_epik_Tot_Q>
1

> <i_epik_Tot_abs_Q>
1

> <r_epik_Metal_State_Penalty>
0.270886

> <b_epik_Metal_Only>
0

> <s_lp_Force_Field>
OPLS_2005

> <r_lp_Energy>
21.6557

> <b_lp_Chiralities_Consistent>
1

> <s_lp_Variant>
AV-unprocessed.smi:1041-2

> <Gold.Version>
5.8.1

> <Gold.Id.Protein>
6NUR|6NUR_protein|mol2

> <Gold.PLP.Fitness>
45.0472

> <Gold.PLP.PLP>
-38.1666

> <Gold.PLP.part.hbond>
-4.0000

> <Gold.PLP.part.metal>
0.0000

> <Gold.PLP.part.buried>
-4.6734

> <Gold.PLP.part.nonpolar>
-29.7125

> <Gold.PLP.part.repulsive>
0.4010

> <Gold.PLP.ligand.clash>
0.0000

> <Gold.PLP.ligand.torsion>
1.3612

> <Gold.PLP.Chemscore.Hbond>
3.1583

> <Gold.PLP.Chemscore.CHOScore>
0.0000

> <Gold.PLP.Chemscore.Metal>
0.0000

> <Gold.Chemscore.Hbonds>
donor molecule, donor type, donor heavy atom, donor atom, acceptor molecule, acceptor atom, score
      L1  H     5    53       P1  8028  2.00
      L1  H    10    40       P1 10175  1.00

> <Gold.PLP.Chemscore.Internal.Correction>
0.1280

> <Gold.Rescore>
     Score         DG    S(hbond)    S(metal)    S(lipo)     H(rot)  DE(clash)    DE(int)     intcor
     15.77     -17.21       2.55        0.00      80.57       2.43       0.07       1.38       ----

> <Gold.Chemscore.Fitness>
15.7665

> <Gold.Chemscore.DG>
-17.2094

> <Gold.Chemscore.ZeroCoef>
-5.4800

> <Gold.Chemscore.Hbond>
2.5512

> <Gold.Chemscore.Metal>
0.0000

> <Gold.Chemscore.Lipo>
80.5723

> <Gold.Chemscore.Internal_Hbond>
0.0000

> <Gold.Chemscore.DEClash>
0.0675

> <Gold.Chemscore.DEInternal>
1.3755

> <Gold.Chemscore.Rot>
2.4291

> <Gold.Chemscore.Internal.Correction>
   9.000000E+99

> <Gold.Chemscore.Hbonds>
donor molecule, donor type, donor heavy atom, donor atom, acceptor molecule, acceptor atom, score
      L1  H     5    53       P1  8028  1.00
      L1  H    10    40       P1 10175  0.99

> <Gold.Chemscore.Hbond.Weighted>
-8.5211

> <Gold.Chemscore.Metal.Weighted>
-0.0000

> <Gold.Chemscore.Lipo.Weighted>
-9.4270

> <Gold.Chemscore.Internal_Hbond.Weighted>
0.0000

> <Gold.Chemscore.DEClash.Weighted>
0.0675

> <Gold.Chemscore.DEInternal.Weighted>
1.3755

> <Gold.Chemscore.Rot.Weighted>
6.2186

> <Gold.Chemscore.Internal.Correction.Weighted>
   9.000000E+99

> <Gold.Protein.RotatedTorsions>
[ 6907 6896 6895 6894 ] final -153.31 input  -60.11 | X-H torsion
[ 7974 7965 7964 7962 ] final -139.53 input  175.53 | X-H torsion
[ 8008 7997 7996 7995 ] final -164.37 input   59.86 | X-H torsion
[ 10167 10162 10161 10158 ] final -156.44 input  -65.29 | X-H torsion
[ 10718 10713 10712 10709 ] final   86.92 input   66.30 | X-H torsion
[ 10763 10752 10751 10750 ] final  -57.13 input  -60.55 | X-H torsion
[ 11005 11000 10999 10996 ] final  -86.68 input  -57.11 | X-H torsion

> <Gold.Protein.ActiveResidues>
 VAL166  LYS551  ARG553  GLY616  TRP617  ASP618  TYR619  PRO620  LYS621  CYS622 
 ASP623  PHE694  ASN695  SER759  ASP760  ASP761  ALA762  ILE779  LEU786  VAL792 
 PHE793  MET794  SER795  GLU796  ALA797  LYS798  CYS799  TRP800  GLU811  SER814 

> <Gold.Protein.RotatedAtoms>
  151.2407  133.4401  159.2607 H   0  0  0  0  0  0  0  0  0  0  0  0  # atno 6907 bound_to 6896
  151.0708  134.9797  159.8318 H   0  0  0  0  0  0  0  0  0  0  0  0  # atno 6908 bound_to 6896
  152.5412  134.2352  159.8893 H   0  0  0  0  0  0  0  0  0  0  0  0  # atno 6909 bound_to 6896
  144.8670  140.6308  143.5291 H   0  0  0  0  0  0  0  0  0  0  0  0  # atno 7974 bound_to 7965
  155.8347  140.0939  157.1771 H   0  0  0  0  0  0  0  0  0  0  0  0  # atno 8008 bound_to 7997
  154.3980  140.1412  156.3717 H   0  0  0  0  0  0  0  0  0  0  0  0  # atno 8009 bound_to 7997
  155.8128  140.3449  155.5470 H   0  0  0  0  0  0  0  0  0  0  0  0  # atno 8010 bound_to 7997
  139.6850  143.9516  152.2356 H   0  0  0  0  0  0  0  0  0  0  0  0  # atno 10167 bound_to 10162
  157.6934  131.0235  150.3045 H   0  0  0  0  0  0  0  0  0  0  0  0  # atno 10718 bound_to 10713
  154.2176  135.6383  153.5134 H   0  0  0  0  0  0  0  0  0  0  0  0  # atno 10763 bound_to 10752
  152.9976  135.5489  154.6149 H   0  0  0  0  0  0  0  0  0  0  0  0  # atno 10764 bound_to 10752
  154.5601  135.2908  155.0901 H   0  0  0  0  0  0  0  0  0  0  0  0  # atno 10765 bound_to 10752
  141.1627  133.7468  156.9197 H   0  0  0  0  0  0  0  0  0  0  0  0  # atno 11005 bound_to 11000
  145.4203  139.1565  143.4078 LP  0  0  0  0  0  0  0  0  0  0  0  0  # atno 17320 bound_to 7965
  146.2903  140.4313  142.8742 LP  0  0  0  0  0  0  0  0  0  0  0  0  # atno 17321 bound_to 7965
  139.9317  144.6737  150.8356 LP  0  0  0  0  0  0  0  0  0  0  0  0  # atno 17342 bound_to 10162
  140.7665  143.3304  151.2422 LP  0  0  0  0  0  0  0  0  0  0  0  0  # atno 17343 bound_to 10162
  156.3556  130.3838  149.7293 LP  0  0  0  0  0  0  0  0  0  0  0  0  # atno 17370 bound_to 10713
  156.4756  130.8017  151.3033 LP  0  0  0  0  0  0  0  0  0  0  0  0  # atno 17371 bound_to 10713
  140.1460  134.9262  157.2530 LP  0  0  0  0  0  0  0  0  0  0  0  0  # atno 17394 bound_to 11000
  140.2780  134.3383  155.7352 LP  0  0  0  0  0  0  0  0  0  0  0  0  # atno 17395 bound_to 11000

$$$$
