AV-unprocessed.smi:286|AV-procd|sdf|2175|dock6
  -GOLD-   2262021533D 1   1.00000     0.00000
 Structure written by MMmdl.
 46 48  0  0  0  0  0  0  0  0  1 V2000
  148.6656  140.2204  156.7975 O   0  0  0  0  0  0  0  0  0  0  0  0
  148.5395  139.3132  157.6219 C   0  0  0  0  0  0  0  0  0  0  0  0
  147.2545  138.9125  158.1830 C   0  0  0  0  0  0  0  0  0  0  0  0
  146.1292  139.5182  157.7674 F   0  0  0  0  0  0  0  0  0  0  0  0
  147.1747  137.9384  159.1149 C   0  0  0  0  0  0  0  0  0  0  0  0
  148.2794  137.2687  159.6096 N   0  0  0  0  0  0  0  0  0  0  0  0
  148.0711  136.1734  160.6332 C   0  0  2  0  0  0  0  0  0  0  0  0
  146.6010  135.7669  160.8154 C   0  0  0  0  0  0  0  0  0  0  0  0
  146.5636  135.4553  162.2960 C   0  0  0  0  0  0  0  0  0  0  0  0
  147.5428  136.4784  162.8618 C   0  0  0  0  0  0  0  0  0  0  0  0
  148.5600  136.6023  161.8712 O   0  0  0  0  0  0  0  0  0  0  0  0
  149.5631  137.5626  159.0914 C   0  0  0  0  0  0  0  0  0  0  0  0
  150.5640  136.9622  159.4859 O   0  0  0  0  0  0  0  0  0  0  0  0
  149.6482  138.5779  158.1087 N   0  0  0  0  0  0  0  0  0  0  0  0
  150.9644  138.9248  157.5969 C   0  0  0  0  0  0  0  0  0  0  0  0
  151.9445  139.3780  158.7095 C   0  0  1  0  0  0  0  0  0  0  0  0
  153.2459  139.2081  158.1793 O   0  0  0  0  0  0  0  0  0  0  0  0
  151.7757  140.8617  159.1388 C   0  0  0  0  0  0  0  0  0  0  0  0
  151.6756  141.8121  157.9177 C   0  0  0  0  0  0  0  0  0  0  0  0
  151.5217  143.2844  158.3327 C   0  0  0  0  0  0  0  0  0  0  0  0
  152.6762  143.7291  159.2387 C   0  0  0  0  0  0  0  0  0  0  0  0
  152.7852  142.8123  160.4634 C   0  0  0  0  0  0  0  0  0  0  0  0
  152.9366  141.3400  160.0475 C   0  0  0  0  0  0  0  0  0  0  0  0
  146.1957  137.6814  159.4922 H   0  0  0  0  0  0  0  0  0  0  0  0
  148.6837  135.3330  160.3044 H   0  0  0  0  0  0  0  0  0  0  0  0
  145.9239  136.5865  160.5782 H   0  0  0  0  0  0  0  0  0  0  0  0
  146.3508  134.9141  160.1840 H   0  0  0  0  0  0  0  0  0  0  0  0
  145.5651  135.5363  162.7263 H   0  0  0  0  0  0  0  0  0  0  0  0
  146.9333  134.4449  162.4751 H   0  0  0  0  0  0  0  0  0  0  0  0
  147.0524  137.4419  163.0017 H   0  0  0  0  0  0  0  0  0  0  0  0
  147.9593  136.1719  163.8215 H   0  0  0  0  0  0  0  0  0  0  0  0
  151.3474  138.0837  157.0157 H   0  0  0  0  0  0  0  0  0  0  0  0
  150.8008  139.6887  156.8386 H   0  0  0  0  0  0  0  0  0  0  0  0
  151.8473  138.7429  159.5913 H   0  0  0  0  0  0  0  0  0  0  0  0
  153.4821  138.2956  158.2508 H   0  0  0  0  0  0  0  0  0  0  0  0
  150.8458  140.9456  159.7039 H   0  0  0  0  0  0  0  0  0  0  0  0
  152.5637  141.7021  157.2940 H   0  0  0  0  0  0  0  0  0  0  0  0
  150.8258  141.5460  157.2889 H   0  0  0  0  0  0  0  0  0  0  0  0
  151.4804  143.9182  157.4464 H   0  0  0  0  0  0  0  0  0  0  0  0
  150.5733  143.4200  158.8540 H   0  0  0  0  0  0  0  0  0  0  0  0
  153.6121  143.7071  158.6789 H   0  0  0  0  0  0  0  0  0  0  0  0
  152.5270  144.7616  159.5559 H   0  0  0  0  0  0  0  0  0  0  0  0
  153.6344  143.1136  161.0773 H   0  0  0  0  0  0  0  0  0  0  0  0
  151.8975  142.9264  161.0867 H   0  0  0  0  0  0  0  0  0  0  0  0
  153.0019  140.7418  160.9540 H   0  0  0  0  0  0  0  0  0  0  0  0
  153.8865  141.2066  159.5279 H   0  0  0  0  0  0  0  0  0  0  0  0
  1  2  2  0  0  0  0
  2 14  1  0  0  0  0
  2  3  1  0  0  0  0
  3  4  1  0  0  0  0
  3  5  2  0  0  0  0
  5  6  1  0  0  0  0
  5 24  1  0  0  0  0
  6  7  1  0  0  0  0
  6 12  1  0  0  0  0
  7 11  1  0  0  0  0
  7  8  1  0  0  0  0
  7 25  1  0  0  0  0
  8  9  1  0  0  0  0
  8 26  1  0  0  0  0
  8 27  1  0  0  0  0
  9 10  1  0  0  0  0
  9 28  1  0  0  0  0
  9 29  1  0  0  0  0
 10 11  1  0  0  0  0
 10 30  1  0  0  0  0
 10 31  1  0  0  0  0
 12 13  2  0  0  0  0
 12 14  1  0  0  0  0
 14 15  1  0  0  0  0
 15 16  1  0  0  0  0
 15 32  1  0  0  0  0
 15 33  1  0  0  0  0
 16 17  1  0  0  0  0
 16 18  1  0  0  0  0
 16 34  1  0  0  0  0
 17 35  1  0  0  0  0
 18 23  1  0  0  0  0
 18 19  1  0  0  0  0
 18 36  1  0  0  0  0
 19 20  1  0  0  0  0
 19 37  1  0  0  0  0
 19 38  1  0  0  0  0
 20 21  1  0  0  0  0
 20 39  1  0  0  0  0
 20 40  1  0  0  0  0
 21 22  1  0  0  0  0
 21 41  1  0  0  0  0
 21 42  1  0  0  0  0
 22 23  1  0  0  0  0
 22 43  1  0  0  0  0
 22 44  1  0  0  0  0
 23 45  1  0  0  0  0
 23 46  1  0  0  0  0
M  END
> <s_m_source_file>
AV-unprocessed.smi

> <i_m_source_file_index>
286

> <i_lp_mmshare_version>
43012

> <i_f3d_flags>
0

> <s_epik_input>
TzFbQ0gyXVtDSDJdW0NIMl1bQ0BIXTFuKFtjSF1jKEYpYzI9TyljKD1PKW4yW0NIMl1bQ0BIXShbT0hdKVtDSF0zW0NIMl1bQ0gyXVtDSDJdW0NIMl1bQ0gyXTM=

> <s_epik_cmdline>
J2VwaWtfcHl0aG9uJywgJy1waCcsICc3LjAnLCAnLXRuJywgJzgnLCAnLW1hJywgJzIwMCcsICctbWV0YWxfYmluZGluZycsICctaW1hZScsICc8aW5maWxlLm1hZT4nLCAnLW9tYWUnLCAnPG91dGZpbGUubWFlPic=

> <r_lp_tautomer_probability>
1

> <r_epik_Ionization_Penalty>
3.15564e-07

> <r_epik_Ionization_Penalty_Charging>
2.06416e-08

> <r_epik_Ionization_Penalty_Neutral>
2.94923e-07

> <r_epik_State_Penalty>
-0

> <r_epik_Charging_Adjusted_Penalty>
2.06416e-08

> <i_epik_Tot_Q>
0

> <i_epik_Tot_abs_Q>
0

> <r_epik_Metal_State_Penalty>
-0

> <b_epik_Metal_Only>
0

> <s_epik_Chemistry_Notes>
This compound contains an acetal/aminal-like group ( X-CH(R)-Y where X, Y are N, S, or O) that may be acid/base labile, releasing an aldehyde.

> <s_lp_Force_Field>
OPLS_2005

> <r_lp_Energy>
37.1896

> <b_lp_Chiralities_Consistent>
1

> <s_lp_Variant>
AV-unprocessed.smi:286-3

> <Gold.Version>
5.8.1

> <Gold.Id.Protein>
6NUR|6NUR_protein|mol2

> <Gold.PLP.Fitness>
48.0197

> <Gold.PLP.PLP>
-40.1610

> <Gold.PLP.part.hbond>
-3.0000

> <Gold.PLP.part.metal>
0.0000

> <Gold.PLP.part.buried>
-4.7146

> <Gold.PLP.part.nonpolar>
-33.2674

> <Gold.PLP.part.repulsive>
0.0000

> <Gold.PLP.ligand.clash>
0.0000

> <Gold.PLP.ligand.torsion>
0.5882

> <Gold.PLP.Chemscore.Hbond>
3.0000

> <Gold.PLP.Chemscore.CHOScore>
0.0000

> <Gold.PLP.Chemscore.Metal>
0.0000

> <Gold.Chemscore.Hbonds>
donor molecule, donor type, donor heavy atom, donor atom, acceptor molecule, acceptor atom, score
      P1  H  6896  6909       L1    13  1.00
      P1  H  6931  6943       L1    11  1.00
      P1  H  7997  8010       L1    17  1.00

> <Gold.PLP.Chemscore.Internal.Correction>
0.0350

> <Gold.Rescore>
     Score         DG    S(hbond)    S(metal)    S(lipo)     H(rot)  DE(clash)    DE(int)     intcor
     17.60     -19.63       2.71        0.00      93.39       2.28       0.04       1.99       ----

> <Gold.Chemscore.Fitness>
17.6017

> <Gold.Chemscore.DG>
-19.6282

> <Gold.Chemscore.ZeroCoef>
-5.4800

> <Gold.Chemscore.Hbond>
2.7086

> <Gold.Chemscore.Metal>
0.0000

> <Gold.Chemscore.Lipo>
93.3939

> <Gold.Chemscore.Internal_Hbond>
0.0000

> <Gold.Chemscore.DEClash>
0.0373

> <Gold.Chemscore.DEInternal>
1.9892

> <Gold.Chemscore.Rot>
2.2756

> <Gold.Chemscore.Internal.Correction>
   9.000000E+99

> <Gold.Chemscore.Hbonds>
donor molecule, donor type, donor heavy atom, donor atom, acceptor molecule, acceptor atom, score
      P1  H  6896  6909       L1    13  0.94
      P1  H  6931  6943       L1    11  0.50
      P1  H  7997  8010       L1    17  0.49

> <Gold.Chemscore.Hbond.Weighted>
-9.0466

> <Gold.Chemscore.Metal.Weighted>
-0.0000

> <Gold.Chemscore.Lipo.Weighted>
-10.9271

> <Gold.Chemscore.Internal_Hbond.Weighted>
0.0000

> <Gold.Chemscore.DEClash.Weighted>
0.0373

> <Gold.Chemscore.DEInternal.Weighted>
1.9892

> <Gold.Chemscore.Rot.Weighted>
5.8254

> <Gold.Chemscore.Internal.Correction.Weighted>
   9.000000E+99

> <Gold.Protein.RotatedTorsions>
[ 6907 6896 6895 6894 ] final   83.13 input  -60.11 | X-H torsion
[ 7974 7965 7964 7962 ] final  -95.14 input  175.53 | X-H torsion
[ 8008 7997 7996 7995 ] final   30.42 input   59.86 | X-H torsion
[ 10167 10162 10161 10158 ] final -104.84 input  -65.29 | X-H torsion
[ 10718 10713 10712 10709 ] final  178.57 input   66.30 | X-H torsion
[ 10763 10752 10751 10750 ] final   18.76 input  -60.55 | X-H torsion
[ 11005 11000 10999 10996 ] final  138.52 input  -57.11 | X-H torsion

> <Gold.Protein.ActiveResidues>
 VAL166  LYS551  ARG553  GLY616  TRP617  ASP618  TYR619  PRO620  LYS621  CYS622 
 ASP623  PHE694  ASN695  SER759  ASP760  ASP761  ALA762  ILE779  LEU786  VAL792 
 PHE793  MET794  SER795  GLU796  ALA797  LYS798  CYS799  TRP800  GLU811  SER814 

> <Gold.Protein.RotatedAtoms>
  152.5319  134.2943  159.9054 H   0  0  0  0  0  0  0  0  0  0  0  0  # atno 6907 bound_to 6896
  151.2895  133.4165  159.2640 H   0  0  0  0  0  0  0  0  0  0  0  0  # atno 6908 bound_to 6896
  151.0213  134.9487  159.8118 H   0  0  0  0  0  0  0  0  0  0  0  0  # atno 6909 bound_to 6896
  145.3639  140.9496  143.2485 H   0  0  0  0  0  0  0  0  0  0  0  0  # atno 7974 bound_to 7965
  155.0901  140.3219  155.4576 H   0  0  0  0  0  0  0  0  0  0  0  0  # atno 8008 bound_to 7997
  156.2745  140.2079  156.5975 H   0  0  0  0  0  0  0  0  0  0  0  0  # atno 8009 bound_to 7997
  154.6910  140.0516  157.0350 H   0  0  0  0  0  0  0  0  0  0  0  0  # atno 8010 bound_to 7997
  140.2050  143.3789  152.1098 H   0  0  0  0  0  0  0  0  0  0  0  0  # atno 10167 bound_to 10162
  156.8886  130.9840  151.3052 H   0  0  0  0  0  0  0  0  0  0  0  0  # atno 10718 bound_to 10713
  153.1221  135.6721  153.9318 H   0  0  0  0  0  0  0  0  0  0  0  0  # atno 10763 bound_to 10752
  153.8830  135.3056  155.3447 H   0  0  0  0  0  0  0  0  0  0  0  0  # atno 10764 bound_to 10752
  154.7631  135.4978  153.9582 H   0  0  0  0  0  0  0  0  0  0  0  0  # atno 10765 bound_to 10752
  140.0190  134.9405  157.0435 H   0  0  0  0  0  0  0  0  0  0  0  0  # atno 11005 bound_to 11000
  144.8626  139.5155  143.6805 LP  0  0  0  0  0  0  0  0  0  0  0  0  # atno 17320 bound_to 7965
  146.2915  139.7153  142.9157 LP  0  0  0  0  0  0  0  0  0  0  0  0  # atno 17321 bound_to 7965
  139.5202  144.7030  151.5438 LP  0  0  0  0  0  0  0  0  0  0  0  0  # atno 17342 bound_to 10162
  140.6364  143.8976  150.6651 LP  0  0  0  0  0  0  0  0  0  0  0  0  # atno 17343 bound_to 10162
  157.6097  130.8574  149.8932 LP  0  0  0  0  0  0  0  0  0  0  0  0  # atno 17370 bound_to 10713
  156.0640  130.3695  150.0918 LP  0  0  0  0  0  0  0  0  0  0  0  0  # atno 17371 bound_to 10713
  140.4421  134.1670  155.7174 LP  0  0  0  0  0  0  0  0  0  0  0  0  # atno 17394 bound_to 11000
  141.1761  133.8510  157.1415 LP  0  0  0  0  0  0  0  0  0  0  0  0  # atno 17395 bound_to 11000

$$$$
