AV-unprocessed.smi:1900|AV-procd|sdf|7710|dock10
  -GOLD-   22720 9453D 1   1.00000     0.00000
 Structure written by MMmdl.
 44 45  0  0  0  0  0  0  0  0  2 V2000
  150.5520  137.4310  155.3402 C   0  0  0  0  0  0  0  0  0  0  0  0
  150.2868  138.8232  154.7564 C   0  0  1  0  0  0  0  0  0  0  0  0
  148.8216  138.9993  154.3140 C   0  0  0  0  0  0  0  0  0  0  0  0
  148.5846  140.3792  153.8269 N   0  3  1  0  0  0  0  0  0  0  0  0
  147.1959  140.5741  153.3392 C   0  0  0  0  0  0  0  0  0  0  0  0
  146.7499  139.4700  152.3650 C   0  0  0  0  0  0  0  0  0  0  0  0
  146.1797  138.2441  153.0974 C   0  0  0  0  0  0  0  0  0  0  0  0
  146.5709  136.9963  152.4511 N   0  0  0  0  0  0  0  0  0  0  0  0
  145.7221  136.1159  151.9017 C   0  0  0  0  0  0  0  0  0  0  0  0
  144.4994  136.2612  151.9000 O   0  0  0  0  0  0  0  0  0  0  0  0
  146.3778  135.0743  151.3640 N   0  0  0  0  0  0  0  0  0  0  0  0
  145.8170  133.9541  150.6997 C   0  0  0  0  0  0  0  0  0  0  0  0
  146.5020  132.7336  150.4523 C   0  0  0  0  0  0  0  0  0  0  0  0
  145.7293  131.8655  149.8153 N   0  0  0  0  0  0  0  0  0  0  0  0
  144.5571  132.5199  149.6549 N   0  0  0  0  0  0  0  0  0  0  0  0
  144.5642  133.7943  150.1774 C   0  0  0  0  0  0  0  0  0  0  0  0
  148.9963  141.3662  154.8557 C   0  0  0  0  0  0  0  0  0  0  0  0
  150.4562  141.1249  155.2844 C   0  0  1  0  0  0  0  0  0  0  0  0
  150.8932  142.0739  156.4058 C   0  0  0  0  0  0  0  0  0  0  0  0
  150.5881  139.7891  155.7573 O   0  0  0  0  0  0  0  0  0  0  0  0
  143.7701  132.0884  149.1913 H   0  0  0  0  0  0  0  0  0  0  0  0
  150.3501  136.6517  154.6050 H   0  0  0  0  0  0  0  0  0  0  0  0
  149.9237  137.2406  156.2108 H   0  0  0  0  0  0  0  0  0  0  0  0
  151.5918  137.3308  155.6525 H   0  0  0  0  0  0  0  0  0  0  0  0
  150.9497  138.9725  153.9021 H   0  0  0  0  0  0  0  0  0  0  0  0
  148.5902  138.2853  153.5223 H   0  0  0  0  0  0  0  0  0  0  0  0
  148.1473  138.7865  155.1454 H   0  0  0  0  0  0  0  0  0  0  0  0
  146.5184  140.5625  154.1942 H   0  0  0  0  0  0  0  0  0  0  0  0
  147.0972  141.5593  152.8807 H   0  0  0  0  0  0  0  0  0  0  0  0
  145.9938  139.8505  151.6786 H   0  0  0  0  0  0  0  0  0  0  0  0
  147.6009  139.1682  151.7529 H   0  0  0  0  0  0  0  0  0  0  0  0
  146.4982  138.2375  154.1413 H   0  0  0  0  0  0  0  0  0  0  0  0
  145.0905  138.2914  153.1061 H   0  0  0  0  0  0  0  0  0  0  0  0
  147.5595  136.7955  152.4067 H   0  0  0  0  0  0  0  0  0  0  0  0
  147.3852  135.0867  151.4285 H   0  0  0  0  0  0  0  0  0  0  0  0
  147.5136  132.4545  150.7076 H   0  0  0  0  0  0  0  0  0  0  0  0
  143.7026  134.4434  150.1297 H   0  0  0  0  0  0  0  0  0  0  0  0
  148.9007  142.3797  154.4681 H   0  0  0  0  0  0  0  0  0  0  0  0
  148.3330  141.2901  155.7190 H   0  0  0  0  0  0  0  0  0  0  0  0
  151.1193  141.2706  154.4297 H   0  0  0  0  0  0  0  0  0  0  0  0
  150.8186  143.1150  156.0906 H   0  0  0  0  0  0  0  0  0  0  0  0
  151.9285  141.8876  156.6928 H   0  0  0  0  0  0  0  0  0  0  0  0
  150.2740  141.9481  157.2944 H   0  0  0  0  0  0  0  0  0  0  0  0
  149.1931  140.5072  153.0308 H   0  0  0  0  0  0  0  0  0  0  0  0
  1  2  1  0  0  0  0
  1 22  1  0  0  0  0
  1 23  1  0  0  0  0
  1 24  1  0  0  0  0
  2 20  1  0  0  0  0
  2  3  1  0  0  0  0
  2 25  1  0  0  0  0
  3  4  1  0  0  0  0
  3 26  1  0  0  0  0
  3 27  1  0  0  0  0
  4  5  1  0  0  0  0
  4 17  1  0  0  0  0
  4 44  1  0  0  0  0
  5  6  1  0  0  0  0
  5 28  1  0  0  0  0
  5 29  1  0  0  0  0
  6  7  1  0  0  0  0
  6 30  1  0  0  0  0
  6 31  1  0  0  0  0
  7  8  1  0  0  0  0
  7 32  1  0  0  0  0
  7 33  1  0  0  0  0
  8  9  1  0  0  0  0
  8 34  1  0  0  0  0
  9 10  2  0  0  0  0
  9 11  1  0  0  0  0
 11 12  1  0  0  0  0
 11 35  1  0  0  0  0
 12 16  2  0  0  0  0
 12 13  1  0  0  0  0
 13 14  2  0  0  0  0
 13 36  1  0  0  0  0
 14 15  1  0  0  0  0
 15 21  1  0  0  0  0
 15 16  1  0  0  0  0
 16 37  1  0  0  0  0
 17 18  1  0  0  0  0
 17 38  1  0  0  0  0
 17 39  1  0  0  0  0
 18 19  1  0  0  0  0
 18 20  1  0  0  0  0
 18 40  1  0  0  0  0
 19 41  1  0  0  0  0
 19 42  1  0  0  0  0
 19 43  1  0  0  0  0
M  CHG  1   4   1
M  END
> <s_m_source_file>
AV-unprocessed.smi

> <i_m_source_file_index>
1900

> <i_lp_mmshare_version>
43012

> <i_f3d_flags>
0

> <s_epik_input>
W0NIM11bQ0BASF0xW0NIMl1OKFtDSDJdW0NASF0oTzEpW0NIM10pW0NIMl1bQ0gyXVtDSDJdW05IXUMoPU8pW05IXWMyW2NIXW5bbkhdW2NIXTI=

> <s_epik_cmdline>
J2VwaWtfcHl0aG9uJywgJy1waCcsICc3LjAnLCAnLXRuJywgJzgnLCAnLW1hJywgJzIwMCcsICctbWV0YWxfYmluZGluZycsICctaW1hZScsICc8aW5maWxlLm1hZT4nLCAnLW9tYWUnLCAnPG91dGZpbGUubWFlPic=

> <r_lp_tautomer_probability>
0.5

> <r_epik_Ionization_Penalty>
0.270543

> <r_epik_Ionization_Penalty_Charging>
0.270496

> <r_epik_Ionization_Penalty_Neutral>
4.67091e-05

> <r_epik_State_Penalty>
0.262618

> <r_epik_Charging_Adjusted_Penalty>
0.533114

> <i_epik_Tot_Q>
1

> <i_epik_Tot_abs_Q>
1

> <r_epik_Metal_State_Penalty>
0.262618

> <b_epik_Metal_Only>
0

> <s_lp_Force_Field>
OPLS_2005

> <r_lp_Energy>
18.2287

> <b_lp_Chiralities_Consistent>
1

> <s_lp_Variant>
AV-unprocessed.smi:1900-2

> <Gold.Version>
5.8.1

> <Gold.Id.Protein>
6NUR|6NUR_protein|mol2

> <Gold.PLP.Fitness>
45.8081

> <Gold.PLP.PLP>
-32.6479

> <Gold.PLP.part.hbond>
-3.0000

> <Gold.PLP.part.metal>
0.0000

> <Gold.PLP.part.buried>
-3.3080

> <Gold.PLP.part.nonpolar>
-27.2728

> <Gold.PLP.part.repulsive>
0.7969

> <Gold.PLP.ligand.clash>
0.0000

> <Gold.PLP.ligand.torsion>
0.5141

> <Gold.PLP.Chemscore.Hbond>
2.8666

> <Gold.PLP.Chemscore.CHOScore>
1.8488

> <Gold.PLP.Chemscore.Metal>
0.0000

> <Gold.Chemscore.Hbonds>
donor molecule, donor type, donor heavy atom, donor atom, acceptor molecule, acceptor atom, score
      L1  H     4    44       P1  7957  0.96
      L1  H     8    34       P1  7948  1.00
      L1  H    11    35       P1  7948  0.91
      L1  C    13    36       P1 10747  1.00
      L1  C    16    37       P1 10186  0.45

> <Gold.PLP.Chemscore.Internal.Correction>
0.0419

> <Gold.Rescore>
     Score         DG    S(hbond)    S(metal)    S(lipo)     H(rot)  DE(clash)    DE(int)     intcor
     15.77     -18.93       2.63        0.00      82.19       1.93       0.65       2.51       ----

> <Gold.Chemscore.Fitness>
15.7672

> <Gold.Chemscore.DG>
-18.9298

> <Gold.Chemscore.ZeroCoef>
-5.4800

> <Gold.Chemscore.Hbond>
2.6307

> <Gold.Chemscore.Metal>
0.0000

> <Gold.Chemscore.Lipo>
82.1883

> <Gold.Chemscore.Internal_Hbond>
0.0000

> <Gold.Chemscore.DEClash>
0.6499

> <Gold.Chemscore.DEInternal>
2.5127

> <Gold.Chemscore.Rot>
1.9347

> <Gold.Chemscore.Internal.Correction>
   9.000000E+99

> <Gold.Chemscore.Hbonds>
donor molecule, donor type, donor heavy atom, donor atom, acceptor molecule, acceptor atom, score
      L1  H     4    44       P1  7957  0.91
      L1  H     8    34       P1  7948  0.98
      L1  H    11    35       P1  7948  0.61

> <Gold.Chemscore.Hbond.Weighted>
-8.7866

> <Gold.Chemscore.Metal.Weighted>
-0.0000

> <Gold.Chemscore.Lipo.Weighted>
-9.6160

> <Gold.Chemscore.Internal_Hbond.Weighted>
0.0000

> <Gold.Chemscore.DEClash.Weighted>
0.6499

> <Gold.Chemscore.DEInternal.Weighted>
2.5127

> <Gold.Chemscore.Rot.Weighted>
4.9528

> <Gold.Chemscore.Internal.Correction.Weighted>
   9.000000E+99

> <Gold.Protein.RotatedTorsions>
[ 6907 6896 6895 6894 ] final -146.58 input  -60.11 | X-H torsion
[ 7974 7965 7964 7962 ] final   64.38 input  175.53 | X-H torsion
[ 8008 7997 7996 7995 ] final -176.45 input   59.86 | X-H torsion
[ 10167 10162 10161 10158 ] final   36.25 input  -65.29 | X-H torsion
[ 10718 10713 10712 10709 ] final   64.56 input   66.30 | X-H torsion
[ 10763 10752 10751 10750 ] final  -40.78 input  -60.55 | X-H torsion
[ 11005 11000 10999 10996 ] final  -64.65 input  -57.11 | X-H torsion

> <Gold.Protein.ActiveResidues>
 VAL166  LYS551  ARG553  GLY616  TRP617  ASP618  TYR619  PRO620  LYS621  CYS622 
 ASP623  PHE694  ASN695  SER759  ASP760  ASP761  ALA762  ILE779  LEU786  VAL792 
 PHE793  MET794  SER795  GLU796  ALA797  LYS798  CYS799  TRP800  GLU811  SER814 

> <Gold.Protein.RotatedAtoms>
  151.1437  133.4954  159.2596 H   0  0  0  0  0  0  0  0  0  0  0  0  # atno 6907 bound_to 6896
  151.1628  135.0281  159.8727 H   0  0  0  0  0  0  0  0  0  0  0  0  # atno 6908 bound_to 6896
  152.5463  134.1309  159.8492 H   0  0  0  0  0  0  0  0  0  0  0  0  # atno 6909 bound_to 6896
  145.8509  139.3253  143.0876 H   0  0  0  0  0  0  0  0  0  0  0  0  # atno 7974 bound_to 7965
  155.9950  140.1209  157.0602 H   0  0  0  0  0  0  0  0  0  0  0  0  # atno 8008 bound_to 7997
  154.4223  140.1118  156.5686 H   0  0  0  0  0  0  0  0  0  0  0  0  # atno 8009 bound_to 7997
  155.6291  140.3473  155.4679 H   0  0  0  0  0  0  0  0  0  0  0  0  # atno 8010 bound_to 7997
  140.4146  144.1545  150.6142 H   0  0  0  0  0  0  0  0  0  0  0  0  # atno 10167 bound_to 10162
  157.6048  130.9167  149.9862 H   0  0  0  0  0  0  0  0  0  0  0  0  # atno 10718 bound_to 10713
  153.9517  135.6750  153.4744 H   0  0  0  0  0  0  0  0  0  0  0  0  # atno 10763 bound_to 10752
  153.0881  135.4888  154.8634 H   0  0  0  0  0  0  0  0  0  0  0  0  # atno 10764 bound_to 10752
  154.7322  135.3141  154.8831 H   0  0  0  0  0  0  0  0  0  0  0  0  # atno 10765 bound_to 10752
  141.1431  133.6669  156.5866 H   0  0  0  0  0  0  0  0  0  0  0  0  # atno 11005 bound_to 11000
  145.9358  140.9015  143.0333 LP  0  0  0  0  0  0  0  0  0  0  0  0  # atno 17320 bound_to 7965
  144.6729  140.1481  143.7432 LP  0  0  0  0  0  0  0  0  0  0  0  0  # atno 17321 bound_to 7965
  140.4601  143.2452  151.9231 LP  0  0  0  0  0  0  0  0  0  0  0  0  # atno 17342 bound_to 10162
  139.4782  144.5476  151.8434 LP  0  0  0  0  0  0  0  0  0  0  0  0  # atno 17343 bound_to 10162
  156.1131  130.3649  150.0015 LP  0  0  0  0  0  0  0  0  0  0  0  0  # atno 17370 bound_to 10713
  156.8110  130.9324  151.3644 LP  0  0  0  0  0  0  0  0  0  0  0  0  # atno 17371 bound_to 10713
  140.3796  134.7535  157.4652 LP  0  0  0  0  0  0  0  0  0  0  0  0  # atno 17394 bound_to 11000
  140.0648  134.5945  155.8708 LP  0  0  0  0  0  0  0  0  0  0  0  0  # atno 17395 bound_to 11000

$$$$
