AV-unprocessed.smi:2451|AV-procd|sdf|9675|dock10
  -GOLD-   2272013313D 1   1.00000     0.00000
 Structure written by MMmdl.
 38 39  0  0  0  0  0  0  0  0  1 V2000
  151.8562  145.8815  160.1179 C   0  0  0  0  0  0  0  0  0  0  0  0
  151.5967  144.4122  159.7467 C   0  0  2  0  0  0  0  0  0  0  0  0
  152.7831  143.5045  160.1364 C   0  0  0  0  0  0  0  0  0  0  0  0
  152.4821  142.0222  159.8563 C   0  0  0  0  0  0  0  0  0  0  0  0
  152.0490  141.7942  158.3998 C   0  0  0  0  0  0  0  0  0  0  0  0
  150.8679  142.7099  158.0323 C   0  0  2  0  0  0  0  0  0  0  0  0
  150.4350  142.4621  156.6542 N   0  0  0  0  0  0  0  0  0  0  0  0
  150.3253  140.8333  156.1012 S   0  0  0  0  0  0  0  0  0  0  0  0
  151.6846  140.2714  156.1146 O   0  0  0  0  0  0  0  0  0  0  0  0
  149.2523  140.1766  156.8639 O   0  0  0  0  0  0  0  0  0  0  0  0
  149.7685  141.0385  154.3575 C   0  0  0  0  0  0  0  0  0  0  0  0
  148.6084  140.1233  154.0882 C   0  0  0  0  0  0  0  0  0  0  0  0
  147.3327  140.4465  153.5479 C   0  0  0  0  0  0  0  0  0  0  0  0
  146.6831  139.2461  153.5240 C   0  0  0  0  0  0  0  0  0  0  0  0
  147.4857  138.2621  154.0024 O   0  0  0  0  0  0  0  0  0  0  0  0
  148.7133  138.8317  154.3586 N   0  0  0  0  0  0  0  0  0  0  0  0
  151.1859  144.2085  158.2635 C   0  0  2  0  0  0  0  0  0  0  0  0
  152.2208  144.7713  157.2610 C   0  0  0  0  0  0  0  0  0  0  0  0
  152.7548  146.2698  159.6383 H   0  0  0  0  0  0  0  0  0  0  0  0
  151.9916  145.9901  161.1945 H   0  0  0  0  0  0  0  0  0  0  0  0
  151.0177  146.5152  159.8282 H   0  0  0  0  0  0  0  0  0  0  0  0
  150.7457  144.0976  160.3531 H   0  0  0  0  0  0  0  0  0  0  0  0
  153.6812  143.8053  159.5962 H   0  0  0  0  0  0  0  0  0  0  0  0
  153.0123  143.6296  161.1951 H   0  0  0  0  0  0  0  0  0  0  0  0
  153.3589  141.4152  160.0834 H   0  0  0  0  0  0  0  0  0  0  0  0
  151.6905  141.6820  160.5250 H   0  0  0  0  0  0  0  0  0  0  0  0
  152.8917  141.9739  157.7316 H   0  0  0  0  0  0  0  0  0  0  0  0
  151.7675  140.7494  158.2633 H   0  0  0  0  0  0  0  0  0  0  0  0
  150.0398  142.4446  158.6918 H   0  0  0  0  0  0  0  0  0  0  0  0
  150.9498  143.0449  155.9945 H   0  0  0  0  0  0  0  0  0  0  0  0
  149.4910  142.0811  154.2045 H   0  0  0  0  0  0  0  0  0  0  0  0
  150.6104  140.8178  153.7007 H   0  0  0  0  0  0  0  0  0  0  0  0
  146.9538  141.4076  153.2338 H   0  0  0  0  0  0  0  0  0  0  0  0
  145.6952  138.9426  153.2107 H   0  0  0  0  0  0  0  0  0  0  0  0
  150.2605  144.7636  158.1019 H   0  0  0  0  0  0  0  0  0  0  0  0
  153.1939  144.2912  157.3577 H   0  0  0  0  0  0  0  0  0  0  0  0
  152.3670  145.8423  157.3978 H   0  0  0  0  0  0  0  0  0  0  0  0
  151.8920  144.6375  156.2304 H   0  0  0  0  0  0  0  0  0  0  0  0
  1  2  1  0  0  0  0
  1 19  1  0  0  0  0
  1 20  1  0  0  0  0
  1 21  1  0  0  0  0
  2 17  1  0  0  0  0
  2  3  1  0  0  0  0
  2 22  1  0  0  0  0
  3  4  1  0  0  0  0
  3 23  1  0  0  0  0
  3 24  1  0  0  0  0
  4  5  1  0  0  0  0
  4 25  1  0  0  0  0
  4 26  1  0  0  0  0
  5  6  1  0  0  0  0
  5 27  1  0  0  0  0
  5 28  1  0  0  0  0
  6  7  1  0  0  0  0
  6 17  1  0  0  0  0
  6 29  1  0  0  0  0
  7  8  1  0  0  0  0
  7 30  1  0  0  0  0
  8  9  2  0  0  0  0
  8 10  2  0  0  0  0
  8 11  1  0  0  0  0
 11 12  1  0  0  0  0
 11 31  1  0  0  0  0
 11 32  1  0  0  0  0
 12 16  2  0  0  0  0
 12 13  1  0  0  0  0
 13 14  2  0  0  0  0
 13 33  1  0  0  0  0
 14 15  1  0  0  0  0
 14 34  1  0  0  0  0
 15 16  1  0  0  0  0
 17 18  1  0  0  0  0
 17 35  1  0  0  0  0
 18 36  1  0  0  0  0
 18 37  1  0  0  0  0
 18 38  1  0  0  0  0
M  END
> <s_m_source_file>
AV-unprocessed.smi

> <i_m_source_file_index>
2451

> <i_lp_mmshare_version>
43012

> <i_f3d_flags>
0

> <s_epik_input>
W0NIM11bQ0BASF0xW0NIMl1bQ0gyXVtDSDJdW0NASF0oW0NASF0xW0NIM10pW05IXVMoPU8pKD1PKVtDSDJdYzJbY0hdW2NIXW9uMg==

> <s_epik_cmdline>
J2VwaWtfcHl0aG9uJywgJy1waCcsICc3LjAnLCAnLXRuJywgJzgnLCAnLW1hJywgJzIwMCcsICctbWV0YWxfYmluZGluZycsICctaW1hZScsICc8aW5maWxlLm1hZT4nLCAnLW9tYWUnLCAnPG91dGZpbGUubWFlPic=

> <r_lp_tautomer_probability>
1

> <r_epik_Ionization_Penalty>
8.73668e-05

> <r_epik_Ionization_Penalty_Charging>
0

> <r_epik_Ionization_Penalty_Neutral>
8.73668e-05

> <r_epik_State_Penalty>
-0

> <r_epik_Charging_Adjusted_Penalty>
0

> <i_epik_Tot_Q>
0

> <i_epik_Tot_abs_Q>
0

> <r_epik_Metal_State_Penalty>
0.0716439

> <b_epik_Metal_Only>
0

> <s_lp_Force_Field>
OPLS_2005

> <r_lp_Energy>
8.89421

> <b_lp_Chiralities_Consistent>
1

> <s_lp_Variant>
AV-unprocessed.smi:2451-7

> <Gold.Version>
5.8.1

> <Gold.Id.Protein>
6NUR|6NUR_protein|mol2

> <Gold.PLP.Fitness>
37.9707

> <Gold.PLP.PLP>
-35.6817

> <Gold.PLP.part.hbond>
-1.0000

> <Gold.PLP.part.metal>
0.0000

> <Gold.PLP.part.buried>
-2.1185

> <Gold.PLP.part.nonpolar>
-31.9224

> <Gold.PLP.part.repulsive>
0.3131

> <Gold.PLP.ligand.clash>
0.0000

> <Gold.PLP.ligand.torsion>
0.3804

> <Gold.PLP.Chemscore.Hbond>
0.0000

> <Gold.PLP.Chemscore.CHOScore>
0.9680

> <Gold.PLP.Chemscore.Metal>
0.0000

> <Gold.Chemscore.Hbonds>
donor molecule, donor type, donor heavy atom, donor atom, acceptor molecule, acceptor atom, score
      L1  C    14    34       P1 10175  0.72

> <Gold.PLP.Chemscore.Internal.Correction>
0.1458

> <Gold.Rescore>
     Score         DG    S(hbond)    S(metal)    S(lipo)     H(rot)  DE(clash)    DE(int)     intcor
     10.77     -14.66       0.00        0.00     114.72       1.66       0.64       3.24       ----

> <Gold.Chemscore.Fitness>
10.7725

> <Gold.Chemscore.DG>
-14.6560

> <Gold.Chemscore.ZeroCoef>
-5.4800

> <Gold.Chemscore.Hbond>
0.0000

> <Gold.Chemscore.Metal>
0.0000

> <Gold.Chemscore.Lipo>
114.7226

> <Gold.Chemscore.Internal_Hbond>
0.0000

> <Gold.Chemscore.DEClash>
0.6391

> <Gold.Chemscore.DEInternal>
3.2444

> <Gold.Chemscore.Rot>
1.6588

> <Gold.Chemscore.Internal.Correction>
   9.000000E+99

> <Gold.Chemscore.Hbond.Weighted>
-0.0000

> <Gold.Chemscore.Metal.Weighted>
-0.0000

> <Gold.Chemscore.Lipo.Weighted>
-13.4225

> <Gold.Chemscore.Internal_Hbond.Weighted>
0.0000

> <Gold.Chemscore.DEClash.Weighted>
0.6391

> <Gold.Chemscore.DEInternal.Weighted>
3.2444

> <Gold.Chemscore.Rot.Weighted>
4.2466

> <Gold.Chemscore.Internal.Correction.Weighted>
   9.000000E+99

> <Gold.Protein.RotatedTorsions>
[ 6907 6896 6895 6894 ] final  -73.98 input  -60.11 | X-H torsion
[ 7974 7965 7964 7962 ] final   33.05 input  175.53 | X-H torsion
[ 8008 7997 7996 7995 ] final  143.93 input   59.86 | X-H torsion
[ 10167 10162 10161 10158 ] final   63.95 input  -65.29 | X-H torsion
[ 10718 10713 10712 10709 ] final  -24.08 input   66.30 | X-H torsion
[ 10763 10752 10751 10750 ] final  -98.55 input  -60.55 | X-H torsion
[ 11005 11000 10999 10996 ] final  -97.37 input  -57.11 | X-H torsion

> <Gold.Protein.ActiveResidues>
 VAL166  LYS551  ARG553  GLY616  TRP617  ASP618  TYR619  PRO620  LYS621  CYS622 
 ASP623  PHE694  ASN695  SER759  ASP760  ASP761  ALA762  ILE779  LEU786  VAL792 
 PHE793  MET794  SER795  GLU796  ALA797  LYS798  CYS799  TRP800  GLU811  SER814 

> <Gold.Protein.RotatedAtoms>
  150.7110  134.4936  159.5527 H   0  0  0  0  0  0  0  0  0  0  0  0  # atno 6907 bound_to 6896
  152.2548  134.8092  160.0449 H   0  0  0  0  0  0  0  0  0  0  0  0  # atno 6908 bound_to 6896
  151.8827  133.3463  159.3808 H   0  0  0  0  0  0  0  0  0  0  0  0  # atno 6909 bound_to 6896
  146.1446  139.6447  142.9140 H   0  0  0  0  0  0  0  0  0  0  0  0  # atno 7974 bound_to 7965
  156.2919  140.2249  156.4971 H   0  0  0  0  0  0  0  0  0  0  0  0  # atno 8008 bound_to 7997
  154.7721  140.0466  157.1081 H   0  0  0  0  0  0  0  0  0  0  0  0  # atno 8009 bound_to 7997
  154.9861  140.3084  155.4929 H   0  0  0  0  0  0  0  0  0  0  0  0  # atno 8010 bound_to 7997
  140.1275  144.4674  150.6884 H   0  0  0  0  0  0  0  0  0  0  0  0  # atno 10167 bound_to 10162
  156.4824  130.4548  149.6804 H   0  0  0  0  0  0  0  0  0  0  0  0  # atno 10718 bound_to 10713
  154.7424  135.5005  153.9145 H   0  0  0  0  0  0  0  0  0  0  0  0  # atno 10763 bound_to 10752
  153.1056  135.6696  153.9600 H   0  0  0  0  0  0  0  0  0  0  0  0  # atno 10764 bound_to 10752
  153.9374  135.3071  155.3423 H   0  0  0  0  0  0  0  0  0  0  0  0  # atno 10765 bound_to 10752
  141.1381  133.8166  157.0697 H   0  0  0  0  0  0  0  0  0  0  0  0  # atno 11005 bound_to 11000
  145.4966  141.0438  143.2563 LP  0  0  0  0  0  0  0  0  0  0  0  0  # atno 17320 bound_to 7965
  144.7832  139.6482  143.7145 LP  0  0  0  0  0  0  0  0  0  0  0  0  # atno 17321 bound_to 7965
  140.6836  143.2339  151.5318 LP  0  0  0  0  0  0  0  0  0  0  0  0  # atno 17342 bound_to 10162
  139.5537  144.2331  152.1575 LP  0  0  0  0  0  0  0  0  0  0  0  0  # atno 17343 bound_to 10162
  156.3508  130.7431  151.2390 LP  0  0  0  0  0  0  0  0  0  0  0  0  # atno 17370 bound_to 10713
  157.7482  131.0377  150.4470 LP  0  0  0  0  0  0  0  0  0  0  0  0  # atno 17371 bound_to 10713
  140.0519  134.9801  157.1151 LP  0  0  0  0  0  0  0  0  0  0  0  0  # atno 17394 bound_to 11000
  140.3977  134.2116  155.7164 LP  0  0  0  0  0  0  0  0  0  0  0  0  # atno 17395 bound_to 11000

$$$$
