#       Name:                AV-unprocessed.smi:1890
#       Creating user name   scv26
#       Creation time:       Fri Mar 27 09:39:56 2020


#       File generated by GOLD software.
#

@<TRIPOS>MOLECULE
AV-unprocessed.smi:1890
    56    57     1
SMALL
NO_CHARGES


@<TRIPOS>ATOM
      1 ****        -6.6334  -0.9319  -2.6044 C.3            1 S1                 0.0000
      2 ****        -5.3464  -0.5834  -1.8437 C.3            1 S1                 0.0000
      3 ****        -4.6030   0.5339  -2.4360 N.pl3          1 S1                 0.0000
      4 ****        -5.2717   1.8264  -2.6075 C.3            1 S1                 0.0000
      5 ****        -5.5318   2.5438  -1.2746 C.3            1 S1                 0.0000
      6 ****        -3.2141   0.5961  -2.1785 C.ar           1 S1                 0.0000
      7 ****        -2.3320   1.3939  -2.9461 C.ar           1 S1                 0.0000
      8 ****        -0.9567   1.4189  -2.6359 C.ar           1 S1                 0.0000
      9 ****        -0.4650   0.6547  -1.5571 C.ar           1 S1                 0.0000
     10 ****         0.9319   0.7029  -1.2943 N.am           1 S1                 0.0000
     11 ****         1.5998   0.2801  -0.2066 C.2            1 S1                 0.0000
     12 ****         1.0813  -0.1943   0.8032 O.2            1 S1                 0.0000
     13 ****         2.9229   0.4553  -0.3556 N.am           1 S1                 0.0000
     14 ****         3.9798   0.1156   0.5998 C.3            1 S1                 0.0000
     15 ****         4.0609  -1.4043   0.8836 C.3            1 S1                 0.0000
     16 ****         5.1448  -1.7079   1.9332 C.3            1 S1                 0.0000
     17 ****         4.8628  -0.9242   3.1433 N.am           1 S1                 0.0000
     18 ****         4.3990  -1.4278   4.3123 C.2            1 S1                 0.0000
     19 ****         4.1977  -2.9387   4.4490 C.3            1 S1                 0.0000
     20 ****         4.1227  -0.7182   5.2794 O.2            1 S1                 0.0000
     21 ****         4.9895   0.5177   2.8974 C.3            1 S1                 0.0000
     22 ****         3.8955   0.9469   1.9027 C.3            1 S1                 0.0000
     23 ****        -1.3843  -0.1351  -0.8261 C.ar           1 S1                 0.0000
     24 ****        -2.6929  -0.1303  -1.1590 N.pl3          1 S1                 1.0000
     25 ****        -7.0903  -1.8295  -2.1874 H              1 S1                 0.0000
     26 ****        -6.4310  -1.1242  -3.6584 H              1 S1                 0.0000
     27 ****        -7.3739  -0.1349  -2.5384 H              1 S1                 0.0000
     28 ****        -5.5772  -0.3572  -0.8022 H              1 S1                 0.0000
     29 ****        -4.7206  -1.4765  -1.8394 H              1 S1                 0.0000
     30 ****        -4.6967   2.4796  -3.2613 H              1 S1                 0.0000
     31 ****        -6.2171   1.6767  -3.1270 H              1 S1                 0.0000
     32 ****        -6.0197   3.5037  -1.4446 H              1 S1                 0.0000
     33 ****        -4.6027   2.7369  -0.7374 H              1 S1                 0.0000
     34 ****        -6.1816   1.9574  -0.6245 H              1 S1                 0.0000
     35 ****        -2.6889   1.9758  -3.7823 H              1 S1                 0.0000
     36 ****        -0.2857   2.0242  -3.2279 H              1 S1                 0.0000
     37 ****         1.4922   1.1336  -2.0151 H              1 S1                 0.0000
     38 ****         3.2367   0.8620  -1.2246 H              1 S1                 0.0000
     39 ****         4.9120   0.3952   0.1071 H              1 S1                 0.0000
     40 ****         3.1061  -1.7814   1.2508 H              1 S1                 0.0000
     41 ****         4.2735  -1.9470  -0.0380 H              1 S1                 0.0000
     42 ****         5.2001  -2.7809   2.1107 H              1 S1                 0.0000
     43 ****         6.1257  -1.4281   1.5462 H              1 S1                 0.0000
     44 ****         3.5003  -3.3059   3.6954 H              1 S1                 0.0000
     45 ****         3.7867  -3.1840   5.4288 H              1 S1                 0.0000
     46 ****         5.1457  -3.4669   4.3439 H              1 S1                 0.0000
     47 ****         4.9155   1.1106   3.8100 H              1 S1                 0.0000
     48 ****         5.9772   0.7302   2.4856 H              1 S1                 0.0000
     49 ****         3.9934   2.0093   1.6776 H              1 S1                 0.0000
     50 ****         2.9229   0.8203   2.3791 H              1 S1                 0.0000
     51 ****        -1.1354  -0.7798   0.0027 H              1 S1                 0.0000
     52 ****        -3.3270  -0.7092  -0.6084 H              1 S1                 0.0000
     53 ****         0.0873  -0.2892   0.8574 LP             1 S1                 0.0000
     54 ****         1.6539  -0.4850   1.5698 LP             1 S1                 0.0000
     55 ****         4.2380   0.2734   5.2211 LP             1 S1                 0.0000
     56 ****         3.7830  -1.1333   6.1233 LP             1 S1                 0.0000
@<TRIPOS>BOND
    1    1    2 1     
    2    1   25 1     
    3    1   26 1     
    4    1   27 1     
    5    2    3 1     
    6    2   28 1     
    7    2   29 1     
    8    3    4 1     
    9    3    6 1     
   10    4    5 1     
   11    4   30 1     
   12    4   31 1     
   13    5   32 1     
   14    5   33 1     
   15    5   34 1     
   16    6   24 ar    
   17    6    7 ar    
   18    7    8 ar    
   19    7   35 1     
   20    8    9 ar    
   21    8   36 1     
   22    9   10 1     
   23    9   23 ar    
   24   10   11 am    
   25   10   37 1     
   26   11   12 2     
   27   11   13 am    
   28   13   14 1     
   29   13   38 1     
   30   14   22 1     
   31   14   15 1     
   32   14   39 1     
   33   15   16 1     
   34   15   40 1     
   35   15   41 1     
   36   16   17 1     
   37   16   42 1     
   38   16   43 1     
   39   17   18 am    
   40   17   21 1     
   41   18   19 1     
   42   18   20 2     
   43   19   44 1     
   44   19   45 1     
   45   19   46 1     
   46   21   22 1     
   47   21   47 1     
   48   21   48 1     
   49   22   49 1     
   50   22   50 1     
   51   23   24 ar    
   52   23   51 1     
   53   24   52 1     
   54   12   53 1     
   55   12   54 1     
   56   20   55 1     
   57   20   56 1     
@<TRIPOS>SUBSTRUCTURE
      1 S1             1
@<TRIPOS>SET
LONE_PAIRS      STATIC     ATOMS    <user>   **** ""
4 53 54 55 56
DONOR_HYDROGENS      STATIC     ATOMS    <user>   **** ""
3 37 38 52
ATOM$BLUE        STATIC     ATOMS    COLORGROUP SYSTEM
4 53 54 55 56
ATOM$RED        STATIC     ATOMS    COLORGROUP SYSTEM
3 37 38 52
