AV-unprocessed.smi:1962|AV-procd|sdf|7924|dock2
  -GOLD-   2272010 93D 1   1.00000     0.00000
 Structure written by MMmdl.
 35 36  0  0  0  0  0  0  0  0  2 V2000
  152.8177  142.0855  162.2020 C   0  0  0  0  0  0  0  0  0  0  0  0
  153.6881  142.1214  160.9381 C   0  0  2  0  0  0  0  0  0  0  0  0
  152.8136  142.1245  159.6562 C   0  0  0  0  0  0  0  0  0  0  0  0
  152.1264  143.3872  159.3945 N   0  0  0  0  0  0  0  0  0  0  0  0
  151.8774  144.4342  160.2623 C   0  0  0  0  0  0  0  0  0  0  0  0
  151.1940  145.3905  159.5674 C   0  0  0  0  0  0  0  0  0  0  0  0
  151.0562  144.8288  158.2679 C   0  0  0  0  0  0  0  0  0  0  0  0
  151.6007  143.6276  158.1701 N   0  0  0  0  0  0  0  0  0  0  0  0
  154.5737  140.9512  160.9479 N   0  5  0  0  0  0  0  0  0  0  0  0
  154.7533  140.0997  162.0037 C   0  0  0  0  0  0  0  0  0  0  0  0
  154.9698  140.4279  163.1766 O   0  0  0  0  0  0  0  0  0  0  0  0
  154.7083  138.6285  161.7541 C   0  0  0  0  0  0  0  0  0  0  0  0
  154.7055  138.1846  160.5357 N   0  0  0  0  0  0  0  0  0  0  0  0
  154.6933  136.8368  160.2425 N   0  0  0  0  0  0  0  0  0  0  0  0
  154.9776  136.5119  158.8465 C   0  0  0  0  0  0  0  0  0  0  0  0
  154.4242  135.8557  161.1385 C   0  0  0  0  0  0  0  0  0  0  0  0
  154.4368  134.6554  160.8646 O   0  0  0  0  0  0  0  0  0  0  0  0
  154.0589  136.3077  162.5547 C   0  0  0  0  0  0  0  0  0  0  0  0
  154.7081  137.6570  162.9213 C   0  0  0  0  0  0  0  0  0  0  0  0
  152.1538  142.9490  162.2435 H   0  0  0  0  0  0  0  0  0  0  0  0
  153.4310  142.1007  163.1037 H   0  0  0  0  0  0  0  0  0  0  0  0
  152.1978  141.1886  162.2350 H   0  0  0  0  0  0  0  0  0  0  0  0
  154.2491  143.0570  160.9666 H   0  0  0  0  0  0  0  0  0  0  0  0
  153.4173  141.8611  158.7857 H   0  0  0  0  0  0  0  0  0  0  0  0
  152.0482  141.3521  159.7370 H   0  0  0  0  0  0  0  0  0  0  0  0
  152.2125  144.4125  161.2888 H   0  0  0  0  0  0  0  0  0  0  0  0
  150.8457  146.3451  159.9323 H   0  0  0  0  0  0  0  0  0  0  0  0
  150.5747  145.2532  157.3994 H   0  0  0  0  0  0  0  0  0  0  0  0
  154.1573  135.9420  158.4072 H   0  0  0  0  0  0  0  0  0  0  0  0
  155.8884  135.9160  158.7715 H   0  0  0  0  0  0  0  0  0  0  0  0
  155.1184  137.4076  158.2388 H   0  0  0  0  0  0  0  0  0  0  0  0
  152.9731  136.3998  162.5988 H   0  0  0  0  0  0  0  0  0  0  0  0
  154.3397  135.5421  163.2787 H   0  0  0  0  0  0  0  0  0  0  0  0
  155.7340  137.4987  163.2560 H   0  0  0  0  0  0  0  0  0  0  0  0
  154.1666  138.0723  163.7719 H   0  0  0  0  0  0  0  0  0  0  0  0
  1  2  1  0  0  0  0
  1 20  1  0  0  0  0
  1 21  1  0  0  0  0
  1 22  1  0  0  0  0
  2  3  1  0  0  0  0
  2  9  1  0  0  0  0
  2 23  1  0  0  0  0
  3  4  1  0  0  0  0
  3 24  1  0  0  0  0
  3 25  1  0  0  0  0
  4  8  1  0  0  0  0
  4  5  1  0  0  0  0
  5  6  2  0  0  0  0
  5 26  1  0  0  0  0
  6  7  1  0  0  0  0
  6 27  1  0  0  0  0
  7  8  2  0  0  0  0
  7 28  1  0  0  0  0
  9 10  1  0  0  0  0
 10 11  2  0  0  0  0
 10 12  1  0  0  0  0
 12 19  1  0  0  0  0
 12 13  2  0  0  0  0
 13 14  1  0  0  0  0
 14 15  1  0  0  0  0
 14 16  1  0  0  0  0
 15 29  1  0  0  0  0
 15 30  1  0  0  0  0
 15 31  1  0  0  0  0
 16 17  2  0  0  0  0
 16 18  1  0  0  0  0
 18 19  1  0  0  0  0
 18 32  1  0  0  0  0
 18 33  1  0  0  0  0
 19 34  1  0  0  0  0
 19 35  1  0  0  0  0
M  CHG  1   9  -1
M  END
> <s_m_source_file>
AV-unprocessed.smi

> <i_m_source_file_index>
1962

> <i_lp_mmshare_version>
43012

> <i_f3d_flags>
0

> <s_epik_input>
bjFbY0hdW2NIXVtjSF1uMVtDSDJdW0NAQEhdKFtDSDNdKVtOSF1DKD1PKUMyPU5OKFtDSDNdKUMoPU8pW0NIMl1bQ0gyXTI=

> <s_epik_cmdline>
J2VwaWtfcHl0aG9uJywgJy1waCcsICc3LjAnLCAnLXRuJywgJzgnLCAnLW1hJywgJzIwMCcsICctbWV0YWxfYmluZGluZycsICctaW1hZScsICc8aW5maWxlLm1hZT4nLCAnLW9tYWUnLCAnPG91dGZpbGUubWFlPic=

> <r_lp_tautomer_probability>
1

> <r_epik_Ionization_Penalty>
5.21086

> <r_epik_Ionization_Penalty_Charging>
5.21084

> <r_epik_Ionization_Penalty_Neutral>
2.41961e-05

> <r_epik_State_Penalty>
5.21075

> <r_epik_Charging_Adjusted_Penalty>
10.4216

> <i_epik_Tot_Q>
-1

> <i_epik_Tot_abs_Q>
1

> <r_epik_Metal_State_Penalty>
1.27477

> <b_epik_Metal_Only>
1

> <s_epik_Chemistry_Notes>
This compound has an imine and may undergo hydrolysis.

> <s_lp_Force_Field>
OPLS_2005

> <r_lp_Energy>
24.8429

> <b_lp_Chiralities_Consistent>
1

> <s_lp_Variant>
AV-unprocessed.smi:1962-3

> <Gold.Version>
5.8.1

> <Gold.Id.Protein>
6NUR|6NUR_protein|mol2

> <Gold.PLP.Fitness>
43.0026

> <Gold.PLP.PLP>
-39.4287

> <Gold.PLP.part.hbond>
-2.5172

> <Gold.PLP.part.metal>
0.0000

> <Gold.PLP.part.buried>
-4.7204

> <Gold.PLP.part.nonpolar>
-32.1829

> <Gold.PLP.part.repulsive>
0.0976

> <Gold.PLP.ligand.clash>
0.0000

> <Gold.PLP.ligand.torsion>
0.8677

> <Gold.PLP.Chemscore.Hbond>
0.9913

> <Gold.PLP.Chemscore.CHOScore>
0.7283

> <Gold.PLP.Chemscore.Metal>
0.0000

> <Gold.Chemscore.Hbonds>
donor molecule, donor type, donor heavy atom, donor atom, acceptor molecule, acceptor atom, score
      P1  H  6896  6908       L1    17  0.74
      L1  C     7    28       P1  8028  0.76
      L1  C     7    28       P1  8029  0.03

> <Gold.PLP.Chemscore.Internal.Correction>
0.1508

> <Gold.Rescore>
     Score         DG    S(hbond)    S(metal)    S(lipo)     H(rot)  DE(clash)    DE(int)     intcor
     12.32     -14.71       0.69        0.00      91.91       1.50       0.29       2.10       ----

> <Gold.Chemscore.Fitness>
12.3205

> <Gold.Chemscore.DG>
-14.7111

> <Gold.Chemscore.ZeroCoef>
-5.4800

> <Gold.Chemscore.Hbond>
0.6911

> <Gold.Chemscore.Metal>
0.0000

> <Gold.Chemscore.Lipo>
91.9112

> <Gold.Chemscore.Internal_Hbond>
0.0000

> <Gold.Chemscore.DEClash>
0.2940

> <Gold.Chemscore.DEInternal>
2.0966

> <Gold.Chemscore.Rot>
1.4964

> <Gold.Chemscore.Internal.Correction>
   9.000000E+99

> <Gold.Chemscore.Hbonds>
donor molecule, donor type, donor heavy atom, donor atom, acceptor molecule, acceptor atom, score
      P1  H  6896  6908       L1    17  0.13

> <Gold.Chemscore.Hbond.Weighted>
-2.3084

> <Gold.Chemscore.Metal.Weighted>
-0.0000

> <Gold.Chemscore.Lipo.Weighted>
-10.7536

> <Gold.Chemscore.Internal_Hbond.Weighted>
0.0000

> <Gold.Chemscore.DEClash.Weighted>
0.2940

> <Gold.Chemscore.DEInternal.Weighted>
2.0966

> <Gold.Chemscore.Rot.Weighted>
3.8309

> <Gold.Chemscore.Internal.Correction.Weighted>
   9.000000E+99

> <Gold.Protein.RotatedTorsions>
[ 6907 6896 6895 6894 ] final  -51.82 input  -60.11 | X-H torsion
[ 7974 7965 7964 7962 ] final  129.08 input  175.53 | X-H torsion
[ 8008 7997 7996 7995 ] final  -85.64 input   59.86 | X-H torsion
[ 10167 10162 10161 10158 ] final  121.89 input  -65.29 | X-H torsion
[ 10718 10713 10712 10709 ] final   77.12 input   66.30 | X-H torsion
[ 10763 10752 10751 10750 ] final    2.42 input  -60.55 | X-H torsion
[ 11005 11000 10999 10996 ] final   26.50 input  -57.11 | X-H torsion

> <Gold.Protein.ActiveResidues>
 VAL166  LYS551  ARG553  GLY616  TRP617  ASP618  TYR619  PRO620  LYS621  CYS622 
 ASP623  PHE694  ASN695  SER759  ASP760  ASP761  ALA762  ILE779  LEU786  VAL792 
 PHE793  MET794  SER795  GLU796  ALA797  LYS798  CYS799  TRP800  GLU811  SER814 

> <Gold.Protein.RotatedAtoms>
  150.8575  134.7918  159.7056 H   0  0  0  0  0  0  0  0  0  0  0  0  # atno 6907 bound_to 6896
  152.4622  134.5154  159.9776 H   0  0  0  0  0  0  0  0  0  0  0  0  # atno 6908 bound_to 6896
  151.5264  133.3419  159.2946 H   0  0  0  0  0  0  0  0  0  0  0  0  # atno 6909 bound_to 6896
  145.0325  139.4033  143.5142 H   0  0  0  0  0  0  0  0  0  0  0  0  # atno 7974 bound_to 7965
  154.6430  140.0589  156.9867 H   0  0  0  0  0  0  0  0  0  0  0  0  # atno 8008 bound_to 7997
  155.1488  140.3272  155.4417 H   0  0  0  0  0  0  0  0  0  0  0  0  # atno 8009 bound_to 7997
  156.2540  140.1951  156.6600 H   0  0  0  0  0  0  0  0  0  0  0  0  # atno 8010 bound_to 7997
  139.5892  144.7018  151.3333 H   0  0  0  0  0  0  0  0  0  0  0  0  # atno 10167 bound_to 10162
  157.6699  130.9807  150.1596 H   0  0  0  0  0  0  0  0  0  0  0  0  # atno 10718 bound_to 10713
  153.2958  135.6952  153.7249 H   0  0  0  0  0  0  0  0  0  0  0  0  # atno 10763 bound_to 10752
  153.6182  135.3432  155.3003 H   0  0  0  0  0  0  0  0  0  0  0  0  # atno 10764 bound_to 10752
  154.8537  135.4380  154.2055 H   0  0  0  0  0  0  0  0  0  0  0  0  # atno 10765 bound_to 10752
  140.3364  134.2381  155.7695 H   0  0  0  0  0  0  0  0  0  0  0  0  # atno 11005 bound_to 11000
  146.3500  139.9883  142.8688 LP  0  0  0  0  0  0  0  0  0  0  0  0  # atno 17320 bound_to 7965
  145.1751  140.9740  143.4299 LP  0  0  0  0  0  0  0  0  0  0  0  0  # atno 17321 bound_to 7965
  140.7158  143.7269  150.7653 LP  0  0  0  0  0  0  0  0  0  0  0  0  # atno 17342 bound_to 10162
  140.0821  143.4958  152.2524 LP  0  0  0  0  0  0  0  0  0  0  0  0  # atno 17343 bound_to 10162
  156.2375  130.3688  149.8374 LP  0  0  0  0  0  0  0  0  0  0  0  0  # atno 17370 bound_to 10713
  156.6183  130.8616  151.3470 LP  0  0  0  0  0  0  0  0  0  0  0  0  # atno 17371 bound_to 10713
  141.2050  133.7871  157.0256 LP  0  0  0  0  0  0  0  0  0  0  0  0  # atno 17394 bound_to 11000
  140.0818  134.9644  157.1636 LP  0  0  0  0  0  0  0  0  0  0  0  0  # atno 17395 bound_to 11000

$$$$
