AV-unprocessed.smi:1484|AV-procd|sdf|5993|dock2
  -GOLD-   22720 6 83D 1   1.00000     0.00000
 Structure written by MMmdl.
 37 38  0  0  0  0  0  0  0  0  2 V2000
  151.4574  145.7115  159.5360 C   0  0  0  0  0  0  0  0  0  0  0  0
  151.7252  144.2602  159.9589 C   0  0  2  0  0  0  0  0  0  0  0  0
  152.1318  144.1728  161.4423 C   0  0  0  0  0  0  0  0  0  0  0  0
  152.4032  142.7219  161.8695 C   0  0  0  0  0  0  0  0  0  0  0  0
  153.4700  142.0660  160.9761 C   0  0  0  0  0  0  0  0  0  0  0  0
  153.1066  142.1473  159.4810 C   0  0  1  0  0  0  0  0  0  0  0  0
  151.9857  141.2570  159.1846 N   0  0  0  0  0  0  0  0  0  0  0  0
  152.0437  140.1529  158.4247 C   0  0  0  0  0  0  0  0  0  0  0  0
  153.0791  139.7655  157.8805 O   0  0  0  0  0  0  0  0  0  0  0  0
  150.7185  139.3910  158.2638 C   0  0  0  0  0  0  0  0  0  0  0  0
  150.4172  138.9864  156.8828 N   0  0  0  0  0  0  0  0  0  0  0  0
  151.4254  138.1092  156.2935 N   0  5  0  0  0  0  0  0  0  0  0  0
  151.2653  137.6825  155.0127 C   0  0  0  0  0  0  0  0  0  0  0  0
  152.0787  136.9566  154.4456 O   0  0  0  0  0  0  0  0  0  0  0  0
  150.0748  138.1058  154.2942 C   0  0  0  0  0  0  0  0  0  0  0  0
  149.1502  138.8989  154.8702 C   0  0  0  0  0  0  0  0  0  0  0  0
  149.2832  139.3847  156.2384 C   0  0  0  0  0  0  0  0  0  0  0  0
  148.4384  140.1031  156.7733 O   0  0  0  0  0  0  0  0  0  0  0  0
  152.7973  143.6022  159.0649 C   0  0  0  0  0  0  0  0  0  0  0  0
  152.3525  146.3262  159.6367 H   0  0  0  0  0  0  0  0  0  0  0  0
  150.6744  146.1606  160.1475 H   0  0  0  0  0  0  0  0  0  0  0  0
  151.1331  145.7631  158.4962 H   0  0  0  0  0  0  0  0  0  0  0  0
  150.7927  143.7086  159.8325 H   0  0  0  0  0  0  0  0  0  0  0  0
  153.0247  144.7748  161.6167 H   0  0  0  0  0  0  0  0  0  0  0  0
  151.3470  144.5965  162.0700 H   0  0  0  0  0  0  0  0  0  0  0  0
  152.7270  142.6969  162.9102 H   0  0  0  0  0  0  0  0  0  0  0  0
  151.4772  142.1473  161.8230 H   0  0  0  0  0  0  0  0  0  0  0  0
  154.4247  142.5683  161.1381 H   0  0  0  0  0  0  0  0  0  0  0  0
  153.6209  141.0270  161.2727 H   0  0  0  0  0  0  0  0  0  0  0  0
  153.9717  141.8013  158.9123 H   0  0  0  0  0  0  0  0  0  0  0  0
  151.0941  141.4999  159.5912 H   0  0  0  0  0  0  0  0  0  0  0  0
  150.7461  138.5132  158.9125 H   0  0  0  0  0  0  0  0  0  0  0  0
  149.9100  140.0125  158.6526 H   0  0  0  0  0  0  0  0  0  0  0  0
  149.9278  137.7752  153.2765 H   0  0  0  0  0  0  0  0  0  0  0  0
  148.2806  139.1874  154.2989 H   0  0  0  0  0  0  0  0  0  0  0  0
  152.4863  143.6354  158.0199 H   0  0  0  0  0  0  0  0  0  0  0  0
  153.7167  144.1863  159.1213 H   0  0  0  0  0  0  0  0  0  0  0  0
  1  2  1  0  0  0  0
  1 20  1  0  0  0  0
  1 21  1  0  0  0  0
  1 22  1  0  0  0  0
  2 19  1  0  0  0  0
  2  3  1  0  0  0  0
  2 23  1  0  0  0  0
  3  4  1  0  0  0  0
  3 24  1  0  0  0  0
  3 25  1  0  0  0  0
  4  5  1  0  0  0  0
  4 26  1  0  0  0  0
  4 27  1  0  0  0  0
  5  6  1  0  0  0  0
  5 28  1  0  0  0  0
  5 29  1  0  0  0  0
  6  7  1  0  0  0  0
  6 19  1  0  0  0  0
  6 30  1  0  0  0  0
  7  8  1  0  0  0  0
  7 31  1  0  0  0  0
  8  9  2  0  0  0  0
  8 10  1  0  0  0  0
 10 32  1  0  0  0  0
 10 33  1  0  0  0  0
 10 11  1  0  0  0  0
 11 12  1  0  0  0  0
 11 17  1  0  0  0  0
 12 13  1  0  0  0  0
 13 14  2  0  0  0  0
 13 15  1  0  0  0  0
 15 34  1  0  0  0  0
 15 16  2  0  0  0  0
 16 35  1  0  0  0  0
 16 17  1  0  0  0  0
 17 18  2  0  0  0  0
 19 36  1  0  0  0  0
 19 37  1  0  0  0  0
M  CHG  1  12  -1
M  END
> <s_m_source_file>
AV-unprocessed.smi

> <i_m_source_file_index>
1484

> <i_lp_mmshare_version>
43012

> <i_f3d_flags>
0

> <s_epik_input>
W0NIM11bQ0BASF0xW0NIMl1bQ0gyXVtDSDJdW0NASF0oW0NIMl0xKVtOSF1DKD1PKVtDSDJdbjJbbkhdYyg9TylbY0hdW2NIXWMyPU8=

> <s_epik_cmdline>
J2VwaWtfcHl0aG9uJywgJy1waCcsICc3LjAnLCAnLXRuJywgJzgnLCAnLW1hJywgJzIwMCcsICctbWV0YWxfYmluZGluZycsICctaW1hZScsICc8aW5maWxlLm1hZT4nLCAnLW9tYWUnLCAnPG91dGZpbGUubWFlPic=

> <r_lp_tautomer_probability>
1

> <r_epik_Ionization_Penalty>
0.101352

> <r_epik_Ionization_Penalty_Charging>
0.101352

> <r_epik_Ionization_Penalty_Neutral>
1.90469e-08

> <r_epik_State_Penalty>
0.0358555

> <r_epik_Charging_Adjusted_Penalty>
0.137208

> <i_epik_Tot_Q>
-1

> <i_epik_Tot_abs_Q>
1

> <r_epik_Metal_State_Penalty>
0.0358555

> <b_epik_Metal_Only>
0

> <s_lp_Force_Field>
OPLS_2005

> <r_lp_Energy>
23.9764

> <b_lp_Chiralities_Consistent>
1

> <s_lp_Variant>
AV-unprocessed.smi:1484-1

> <Gold.Version>
5.8.1

> <Gold.Id.Protein>
6NUR|6NUR_protein|mol2

> <Gold.PLP.Fitness>
44.9281

> <Gold.PLP.PLP>
-39.3249

> <Gold.PLP.part.hbond>
-2.0000

> <Gold.PLP.part.metal>
0.0000

> <Gold.PLP.part.buried>
-4.5703

> <Gold.PLP.part.nonpolar>
-32.6744

> <Gold.PLP.part.repulsive>
0.2827

> <Gold.PLP.ligand.clash>
0.0000

> <Gold.PLP.ligand.torsion>
0.2063

> <Gold.PLP.Chemscore.Hbond>
2.0000

> <Gold.PLP.Chemscore.CHOScore>
0.0000

> <Gold.PLP.Chemscore.Metal>
0.0000

> <Gold.Chemscore.Hbonds>
donor molecule, donor type, donor heavy atom, donor atom, acceptor molecule, acceptor atom, score
      P1  H  7997  8008       L1     9  1.00
      P1  H 10752 10765       L1    14  1.00

> <Gold.PLP.Chemscore.Internal.Correction>
0.0157

> <Gold.Rescore>
     Score         DG    S(hbond)    S(metal)    S(lipo)     H(rot)  DE(clash)    DE(int)     intcor
     17.51     -18.99       1.99        0.00      94.92       1.65       0.05       1.43       ----

> <Gold.Chemscore.Fitness>
17.5134

> <Gold.Chemscore.DG>
-18.9860

> <Gold.Chemscore.ZeroCoef>
-5.4800

> <Gold.Chemscore.Hbond>
1.9871

> <Gold.Chemscore.Metal>
0.0000

> <Gold.Chemscore.Lipo>
94.9178

> <Gold.Chemscore.Internal_Hbond>
0.0000

> <Gold.Chemscore.DEClash>
0.0456

> <Gold.Chemscore.DEInternal>
1.4270

> <Gold.Chemscore.Rot>
1.6549

> <Gold.Chemscore.Internal.Correction>
   9.000000E+99

> <Gold.Chemscore.Hbonds>
donor molecule, donor type, donor heavy atom, donor atom, acceptor molecule, acceptor atom, score
      P1  H  7997  8008       L1     9  0.99
      P1  H 10752 10765       L1    14  0.91

> <Gold.Chemscore.Hbond.Weighted>
-6.6371

> <Gold.Chemscore.Metal.Weighted>
-0.0000

> <Gold.Chemscore.Lipo.Weighted>
-11.1054

> <Gold.Chemscore.Internal_Hbond.Weighted>
0.0000

> <Gold.Chemscore.DEClash.Weighted>
0.0456

> <Gold.Chemscore.DEInternal.Weighted>
1.4270

> <Gold.Chemscore.Rot.Weighted>
4.2364

> <Gold.Chemscore.Internal.Correction.Weighted>
   9.000000E+99

> <Gold.Protein.RotatedTorsions>
[ 6907 6896 6895 6894 ] final -154.68 input  -60.11 | X-H torsion
[ 7974 7965 7964 7962 ] final  132.19 input  175.53 | X-H torsion
[ 8008 7997 7996 7995 ] final  -89.58 input   59.86 | X-H torsion
[ 10167 10162 10161 10158 ] final -167.12 input  -65.29 | X-H torsion
[ 10718 10713 10712 10709 ] final -152.45 input   66.30 | X-H torsion
[ 10763 10752 10751 10750 ] final  162.34 input  -60.55 | X-H torsion
[ 11005 11000 10999 10996 ] final -107.96 input  -57.11 | X-H torsion

> <Gold.Protein.ActiveResidues>
 VAL166  LYS551  ARG553  GLY616  TRP617  ASP618  TYR619  PRO620  LYS621  CYS622 
 ASP623  PHE694  ASN695  SER759  ASP760  ASP761  ALA762  ILE779  LEU786  VAL792 
 PHE793  MET794  SER795  GLU796  ALA797  LYS798  CYS799  TRP800  GLU811  SER814 

> <Gold.Protein.RotatedAtoms>
  151.2611  133.4301  159.2615 H   0  0  0  0  0  0  0  0  0  0  0  0  # atno 6907 bound_to 6896
  151.0530  134.9686  159.8231 H   0  0  0  0  0  0  0  0  0  0  0  0  # atno 6908 bound_to 6896
  152.5386  134.2565  159.8971 H   0  0  0  0  0  0  0  0  0  0  0  0  # atno 6909 bound_to 6896
  144.9994  139.4326  143.5299 H   0  0  0  0  0  0  0  0  0  0  0  0  # atno 7974 bound_to 7965
  154.6883  140.0540  157.0337 H   0  0  0  0  0  0  0  0  0  0  0  0  # atno 8008 bound_to 7997
  155.0853  140.3213  155.4571 H   0  0  0  0  0  0  0  0  0  0  0  0  # atno 8009 bound_to 7997
  156.2719  140.2057  156.5980 H   0  0  0  0  0  0  0  0  0  0  0  0  # atno 8010 bound_to 7997
  139.6070  144.0892  152.1803 H   0  0  0  0  0  0  0  0  0  0  0  0  # atno 10167 bound_to 10162
  156.4727  130.8266  151.2495 H   0  0  0  0  0  0  0  0  0  0  0  0  # atno 10718 bound_to 10713
  154.2769  135.2764  155.2714 H   0  0  0  0  0  0  0  0  0  0  0  0  # atno 10763 bound_to 10752
  154.5252  135.5745  153.6717 H   0  0  0  0  0  0  0  0  0  0  0  0  # atno 10764 bound_to 10752
  152.9935  135.6214  154.2926 H   0  0  0  0  0  0  0  0  0  0  0  0  # atno 10765 bound_to 10752
  141.0927  133.9027  157.2038 H   0  0  0  0  0  0  0  0  0  0  0  0  # atno 11005 bound_to 11000
  146.3449  139.9374  142.8745 LP  0  0  0  0  0  0  0  0  0  0  0  0  # atno 17320 bound_to 7965
  145.2174  140.9921  143.4065 LP  0  0  0  0  0  0  0  0  0  0  0  0  # atno 17321 bound_to 7965
  140.0502  144.5938  150.7342 LP  0  0  0  0  0  0  0  0  0  0  0  0  # atno 17342 bound_to 10162
  140.7292  143.2670  151.4013 LP  0  0  0  0  0  0  0  0  0  0  0  0  # atno 17343 bound_to 10162
  157.7490  131.0071  150.3177 LP  0  0  0  0  0  0  0  0  0  0  0  0  # atno 17370 bound_to 10713
  156.3602  130.3845  149.7257 LP  0  0  0  0  0  0  0  0  0  0  0  0  # atno 17371 bound_to 10713
  139.9756  135.0115  156.9622 LP  0  0  0  0  0  0  0  0  0  0  0  0  # atno 17394 bound_to 11000
  140.5215  134.0903  155.7293 LP  0  0  0  0  0  0  0  0  0  0  0  0  # atno 17395 bound_to 11000

$$$$
