AV-unprocessed.smi:3161|AV-procd|sdf|12057|dock5
  -GOLD-   2272017483D 1   1.00000     0.00000
 Structure written by MMmdl.
 41 42  0  0  0  0  0  0  0  0  2 V2000
  153.9288  129.6695  154.6578 C   0  0  0  0  0  0  0  0  0  0  0  0
  152.5071  130.1349  154.5281 C   0  0  0  0  0  0  0  0  0  0  0  0
  151.4360  129.4906  153.8462 C   0  0  0  0  0  0  0  0  0  0  0  0
  150.3020  130.1686  153.9138 N   0  0  0  0  0  0  0  0  0  0  0  0
  150.6067  131.2645  154.6415 N   0  0  0  0  0  0  0  0  0  0  0  0
  149.5854  132.2639  154.9042 C   0  0  0  0  0  0  0  0  0  0  0  0
  149.6288  133.4177  153.8839 C   0  0  2  0  0  0  0  0  0  0  0  0
  150.2987  134.6639  154.4843 C   0  0  0  0  0  0  0  0  0  0  0  0
  148.2608  133.7313  153.4138 N   0  3  0  0  0  0  0  0  0  0  0  0
  147.5854  132.6526  152.6648 C   0  0  0  0  0  0  0  0  0  0  0  0
  146.6515  133.2387  151.5973 C   0  0  1  0  0  0  0  0  0  0  0  0
  145.5357  132.2519  151.2031 C   0  0  0  0  0  0  0  0  0  0  0  0
  144.5601  132.9053  150.2174 C   0  0  0  0  0  0  0  0  0  0  0  0
  144.0532  134.2321  150.7929 C   0  0  0  0  0  0  0  0  0  0  0  0
  145.2365  135.1184  151.2114 C   0  0  0  0  0  0  0  0  0  0  0  0
  146.0588  134.4178  152.1395 O   0  0  0  0  0  0  0  0  0  0  0  0
  151.9307  131.2692  155.0264 C   0  0  0  0  0  0  0  0  0  0  0  0
  154.0065  128.5839  154.5940 H   0  0  0  0  0  0  0  0  0  0  0  0
  154.3669  129.9664  155.6109 H   0  0  0  0  0  0  0  0  0  0  0  0
  154.5592  130.0837  153.8710 H   0  0  0  0  0  0  0  0  0  0  0  0
  151.4503  128.5564  153.3042 H   0  0  0  0  0  0  0  0  0  0  0  0
  148.6059  131.7823  154.9046 H   0  0  0  0  0  0  0  0  0  0  0  0
  149.7437  132.6477  155.9130 H   0  0  0  0  0  0  0  0  0  0  0  0
  150.2219  133.0826  153.0313 H   0  0  0  0  0  0  0  0  0  0  0  0
  151.3053  134.4353  154.8352 H   0  0  0  0  0  0  0  0  0  0  0  0
  149.7318  135.0487  155.3327 H   0  0  0  0  0  0  0  0  0  0  0  0
  150.3871  135.4657  153.7512 H   0  0  0  0  0  0  0  0  0  0  0  0
  147.7001  133.9098  154.2360 H   0  0  0  0  0  0  0  0  0  0  0  0
  148.3377  132.0176  152.1964 H   0  0  0  0  0  0  0  0  0  0  0  0
  147.0138  132.0258  153.3505 H   0  0  0  0  0  0  0  0  0  0  0  0
  147.2359  133.4983  150.7123 H   0  0  0  0  0  0  0  0  0  0  0  0
  145.9640  131.3521  150.7602 H   0  0  0  0  0  0  0  0  0  0  0  0
  144.9931  131.9337  152.0943 H   0  0  0  0  0  0  0  0  0  0  0  0
  145.0636  133.0853  149.2667 H   0  0  0  0  0  0  0  0  0  0  0  0
  143.7245  132.2367  150.0084 H   0  0  0  0  0  0  0  0  0  0  0  0
  143.4323  134.7494  150.0608 H   0  0  0  0  0  0  0  0  0  0  0  0
  143.4203  134.0385  151.6599 H   0  0  0  0  0  0  0  0  0  0  0  0
  145.8241  135.4207  150.3431 H   0  0  0  0  0  0  0  0  0  0  0  0
  144.8728  136.0319  151.6823 H   0  0  0  0  0  0  0  0  0  0  0  0
  152.3508  132.0734  155.6126 H   0  0  0  0  0  0  0  0  0  0  0  0
  148.2820  134.5736  152.8568 H   0  0  0  0  0  0  0  0  0  0  0  0
  1  2  1  0  0  0  0
  1 18  1  0  0  0  0
  1 19  1  0  0  0  0
  1 20  1  0  0  0  0
  2 17  2  0  0  0  0
  2  3  1  0  0  0  0
  3  4  2  0  0  0  0
  3 21  1  0  0  0  0
  4  5  1  0  0  0  0
  5  6  1  0  0  0  0
  5 17  1  0  0  0  0
  6  7  1  0  0  0  0
  6 22  1  0  0  0  0
  6 23  1  0  0  0  0
  7  8  1  0  0  0  0
  7  9  1  0  0  0  0
  7 24  1  0  0  0  0
  8 25  1  0  0  0  0
  8 26  1  0  0  0  0
  8 27  1  0  0  0  0
  9 10  1  0  0  0  0
  9 28  1  0  0  0  0
  9 41  1  0  0  0  0
 10 11  1  0  0  0  0
 10 29  1  0  0  0  0
 10 30  1  0  0  0  0
 11 16  1  0  0  0  0
 11 12  1  0  0  0  0
 11 31  1  0  0  0  0
 12 13  1  0  0  0  0
 12 32  1  0  0  0  0
 12 33  1  0  0  0  0
 13 14  1  0  0  0  0
 13 34  1  0  0  0  0
 13 35  1  0  0  0  0
 14 15  1  0  0  0  0
 14 36  1  0  0  0  0
 14 37  1  0  0  0  0
 15 16  1  0  0  0  0
 15 38  1  0  0  0  0
 15 39  1  0  0  0  0
 17 40  1  0  0  0  0
M  CHG  1   9   1
M  END
> <s_m_source_file>
AV-unprocessed.smi

> <i_m_source_file_index>
3161

> <i_lp_mmshare_version>
43012

> <i_f3d_flags>
0

> <s_epik_input>
W0NIM11jMVtjSF1ubihbY0hdMSlbQ0gyXVtDQEhdKFtDSDNdKVtOSF1bQ0gyXVtDQEBIXTJbQ0gyXVtDSDJdW0NIMl1bQ0gyXU8y

> <s_epik_cmdline>
J2VwaWtfcHl0aG9uJywgJy1waCcsICc3LjAnLCAnLXRuJywgJzgnLCAnLW1hJywgJzIwMCcsICctbWV0YWxfYmluZGluZycsICctaW1hZScsICc8aW5maWxlLm1hZT4nLCAnLW9tYWUnLCAnPG91dGZpbGUubWFlPic=

> <r_lp_tautomer_probability>
1

> <r_epik_Ionization_Penalty>
0.00849661

> <r_epik_Ionization_Penalty_Charging>
0.00848754

> <r_epik_Ionization_Penalty_Neutral>
9.06711e-06

> <r_epik_State_Penalty>
0.00639836

> <r_epik_Charging_Adjusted_Penalty>
0.0148859

> <i_epik_Tot_Q>
1

> <i_epik_Tot_abs_Q>
1

> <r_epik_Metal_State_Penalty>
0.00639921

> <b_epik_Metal_Only>
0

> <s_lp_Force_Field>
OPLS_2005

> <r_lp_Energy>
12.1076

> <b_lp_Chiralities_Consistent>
1

> <s_lp_Variant>
AV-unprocessed.smi:3161-3

> <Gold.Version>
5.8.1

> <Gold.Id.Protein>
6NUR|6NUR_protein|mol2

> <Gold.PLP.Fitness>
40.8075

> <Gold.PLP.PLP>
-34.6728

> <Gold.PLP.part.hbond>
-1.0000

> <Gold.PLP.part.metal>
0.0000

> <Gold.PLP.part.buried>
-3.9724

> <Gold.PLP.part.nonpolar>
-29.5373

> <Gold.PLP.part.repulsive>
0.2210

> <Gold.PLP.ligand.clash>
0.0000

> <Gold.PLP.ligand.torsion>
1.4414

> <Gold.PLP.Chemscore.Hbond>
2.0000

> <Gold.PLP.Chemscore.CHOScore>
1.0000

> <Gold.PLP.Chemscore.Metal>
0.0000

> <Gold.Chemscore.Hbonds>
donor molecule, donor type, donor heavy atom, donor atom, acceptor molecule, acceptor atom, score
      L1  H     9    41       P1  7948  2.00
      L1  C     3    21       P1 10737  0.60

> <Gold.PLP.Chemscore.Internal.Correction>
0.0174

> <Gold.Rescore>
     Score         DG    S(hbond)    S(metal)    S(lipo)     H(rot)  DE(clash)    DE(int)     intcor
     12.46     -13.66       0.75        0.00      82.80       1.57       0.06       1.14       ----

> <Gold.Chemscore.Fitness>
12.4570

> <Gold.Chemscore.DG>
-13.6572

> <Gold.Chemscore.ZeroCoef>
-5.4800

> <Gold.Chemscore.Hbond>
0.7522

> <Gold.Chemscore.Metal>
0.0000

> <Gold.Chemscore.Lipo>
82.8007

> <Gold.Chemscore.Internal_Hbond>
0.0000

> <Gold.Chemscore.DEClash>
0.0600

> <Gold.Chemscore.DEInternal>
1.1402

> <Gold.Chemscore.Rot>
1.5714

> <Gold.Chemscore.Internal.Correction>
   9.000000E+99

> <Gold.Chemscore.Hbonds>
donor molecule, donor type, donor heavy atom, donor atom, acceptor molecule, acceptor atom, score
      L1  H     9    41       P1  7948  0.43

> <Gold.Chemscore.Hbond.Weighted>
-2.5124

> <Gold.Chemscore.Metal.Weighted>
-0.0000

> <Gold.Chemscore.Lipo.Weighted>
-9.6877

> <Gold.Chemscore.Internal_Hbond.Weighted>
0.0000

> <Gold.Chemscore.DEClash.Weighted>
0.0600

> <Gold.Chemscore.DEInternal.Weighted>
1.1402

> <Gold.Chemscore.Rot.Weighted>
4.0228

> <Gold.Chemscore.Internal.Correction.Weighted>
   9.000000E+99

> <Gold.Protein.RotatedTorsions>
[ 6907 6896 6895 6894 ] final -146.76 input  -60.11 | X-H torsion
[ 7974 7965 7964 7962 ] final  -93.87 input  175.53 | X-H torsion
[ 8008 7997 7996 7995 ] final -173.08 input   59.86 | X-H torsion
[ 10167 10162 10161 10158 ] final -163.80 input  -65.29 | X-H torsion
[ 10718 10713 10712 10709 ] final  176.42 input   66.30 | X-H torsion
[ 10763 10752 10751 10750 ] final  161.88 input  -60.55 | X-H torsion
[ 11005 11000 10999 10996 ] final  -97.07 input  -57.11 | X-H torsion

> <Gold.Protein.ActiveResidues>
 VAL166  LYS551  ARG553  GLY616  TRP617  ASP618  TYR619  PRO620  LYS621  CYS622 
 ASP623  PHE694  ASN695  SER759  ASP760  ASP761  ALA762  ILE779  LEU786  VAL792 
 PHE793  MET794  SER795  GLU796  ALA797  LYS798  CYS799  TRP800  GLU811  SER814 

> <Gold.Protein.RotatedAtoms>
  151.1462  133.4938  159.2595 H   0  0  0  0  0  0  0  0  0  0  0  0  # atno 6907 bound_to 6896
  151.1603  135.0269  159.8717 H   0  0  0  0  0  0  0  0  0  0  0  0  # atno 6908 bound_to 6896
  152.5463  134.1336  159.8503 H   0  0  0  0  0  0  0  0  0  0  0  0  # atno 6909 bound_to 6896
  145.3808  140.9517  143.2394 H   0  0  0  0  0  0  0  0  0  0  0  0  # atno 7974 bound_to 7965
  155.9528  140.1129  157.0962 H   0  0  0  0  0  0  0  0  0  0  0  0  # atno 8008 bound_to 7997
  154.4113  140.1197  156.5142 H   0  0  0  0  0  0  0  0  0  0  0  0  # atno 8009 bound_to 7997
  155.6820  140.3473  155.4861 H   0  0  0  0  0  0  0  0  0  0  0  0  # atno 8010 bound_to 7997
  139.6295  144.0467  152.2004 H   0  0  0  0  0  0  0  0  0  0  0  0  # atno 10167 bound_to 10162
  156.9204  130.9939  151.3005 H   0  0  0  0  0  0  0  0  0  0  0  0  # atno 10718 bound_to 10713
  154.2698  135.2766  155.2743 H   0  0  0  0  0  0  0  0  0  0  0  0  # atno 10763 bound_to 10752
  154.5311  135.5729  153.6763 H   0  0  0  0  0  0  0  0  0  0  0  0  # atno 10764 bound_to 10752
  152.9947  135.6228  154.2852 H   0  0  0  0  0  0  0  0  0  0  0  0  # atno 10765 bound_to 10752
  141.1391  133.8143  157.0656 H   0  0  0  0  0  0  0  0  0  0  0  0  # atno 11005 bound_to 11000
  144.8509  139.5324  143.6857 LP  0  0  0  0  0  0  0  0  0  0  0  0  # atno 17320 bound_to 7965
  146.2843  139.6960  142.9207 LP  0  0  0  0  0  0  0  0  0  0  0  0  # atno 17321 bound_to 7965
  140.0129  144.6211  150.7632 LP  0  0  0  0  0  0  0  0  0  0  0  0  # atno 17342 bound_to 10162
  140.7431  143.2841  151.3514 LP  0  0  0  0  0  0  0  0  0  0  0  0  # atno 17343 bound_to 10162
  157.5911  130.8444  149.8661 LP  0  0  0  0  0  0  0  0  0  0  0  0  # atno 17370 bound_to 10713
  156.0493  130.3721  150.1239 LP  0  0  0  0  0  0  0  0  0  0  0  0  # atno 17371 bound_to 10713
  140.0544  134.9788  157.1193 LP  0  0  0  0  0  0  0  0  0  0  0  0  # atno 17394 bound_to 11000
  140.3942  134.2152  155.7165 LP  0  0  0  0  0  0  0  0  0  0  0  0  # atno 17395 bound_to 11000

$$$$
