AV-unprocessed.smi:3323|AV-procd|sdf|12777|dock5
  -GOLD-   2272019123D 1   1.00000     0.00000
 Structure written by MMmdl.
 37 38  0  0  0  0  0  0  0  0  1 V2000
  154.0692  141.0462  160.0219 C   0  0  0  0  0  0  0  0  0  0  0  0
  152.9273  142.0567  160.1734 C   0  0  2  0  0  0  0  0  0  0  0  0
  152.7556  142.9261  158.9125 C   0  0  0  0  0  0  0  0  0  0  0  0
  151.6544  143.9891  159.1000 C   0  0  1  0  0  0  0  0  0  0  0  0
  150.2133  143.4273  159.0759 C   0  0  0  0  0  0  0  0  0  0  0  0
  149.7143  143.2413  157.7158 N   0  0  0  0  0  0  0  0  0  0  0  0
  149.2724  142.0856  157.1984 C   0  0  0  0  0  0  0  0  0  0  0  0
  149.2210  141.0333  157.8342 O   0  0  0  0  0  0  0  0  0  0  0  0
  148.9001  142.2432  155.9162 N   0  0  0  0  0  0  0  0  0  0  0  0
  148.4058  141.2774  154.9965 C   0  0  0  0  0  0  0  0  0  0  0  0
  148.8819  139.9477  154.8848 C   0  0  0  0  0  0  0  0  0  0  0  0
  148.3090  139.0991  153.9175 C   0  0  0  0  0  0  0  0  0  0  0  0
  147.2872  139.6095  153.0940 C   0  0  0  0  0  0  0  0  0  0  0  0
  146.8296  140.8756  153.1827 N   0  0  0  0  0  0  0  0  0  0  0  0
  147.3831  141.6830  154.1124 C   0  0  0  0  0  0  0  0  0  0  0  0
  151.9503  144.7675  160.3944 C   0  0  0  0  0  0  0  0  0  0  0  0
  152.1817  143.8213  161.5865 C   0  0  0  0  0  0  0  0  0  0  0  0
  153.2223  142.8976  161.2850 O   0  0  0  0  0  0  0  0  0  0  0  0
  153.8810  140.3652  159.1914 H   0  0  0  0  0  0  0  0  0  0  0  0
  154.1804  140.4454  160.9247 H   0  0  0  0  0  0  0  0  0  0  0  0
  155.0192  141.5479  159.8359 H   0  0  0  0  0  0  0  0  0  0  0  0
  152.0087  141.5044  160.3764 H   0  0  0  0  0  0  0  0  0  0  0  0
  153.6991  143.4318  158.7030 H   0  0  0  0  0  0  0  0  0  0  0  0
  152.5574  142.3017  158.0419 H   0  0  0  0  0  0  0  0  0  0  0  0
  151.7302  144.6927  158.2697 H   0  0  0  0  0  0  0  0  0  0  0  0
  150.1406  142.5014  159.6473 H   0  0  0  0  0  0  0  0  0  0  0  0
  149.5433  144.1315  159.5698 H   0  0  0  0  0  0  0  0  0  0  0  0
  149.7155  144.0562  157.1198 H   0  0  0  0  0  0  0  0  0  0  0  0
  148.9567  143.1846  155.5560 H   0  0  0  0  0  0  0  0  0  0  0  0
  149.6745  139.5604  155.5046 H   0  0  0  0  0  0  0  0  0  0  0  0
  148.6482  138.0799  153.8073 H   0  0  0  0  0  0  0  0  0  0  0  0
  146.8285  138.9856  152.3412 H   0  0  0  0  0  0  0  0  0  0  0  0
  146.9936  142.6898  154.1516 H   0  0  0  0  0  0  0  0  0  0  0  0
  152.8463  145.3727  160.2502 H   0  0  0  0  0  0  0  0  0  0  0  0
  151.1439  145.4670  160.6163 H   0  0  0  0  0  0  0  0  0  0  0  0
  152.4713  144.3963  162.4661 H   0  0  0  0  0  0  0  0  0  0  0  0
  151.2695  143.2849  161.8503 H   0  0  0  0  0  0  0  0  0  0  0  0
  1  2  1  0  0  0  0
  1 19  1  0  0  0  0
  1 20  1  0  0  0  0
  1 21  1  0  0  0  0
  2 18  1  0  0  0  0
  2  3  1  0  0  0  0
  2 22  1  0  0  0  0
  3  4  1  0  0  0  0
  3 23  1  0  0  0  0
  3 24  1  0  0  0  0
  4  5  1  0  0  0  0
  4 16  1  0  0  0  0
  4 25  1  0  0  0  0
  5  6  1  0  0  0  0
  5 26  1  0  0  0  0
  5 27  1  0  0  0  0
  6  7  1  0  0  0  0
  6 28  1  0  0  0  0
  7  8  2  0  0  0  0
  7  9  1  0  0  0  0
  9 10  1  0  0  0  0
  9 29  1  0  0  0  0
 10 15  1  0  0  0  0
 10 11  2  0  0  0  0
 11 12  1  0  0  0  0
 11 30  1  0  0  0  0
 12 13  2  0  0  0  0
 12 31  1  0  0  0  0
 13 14  1  0  0  0  0
 13 32  1  0  0  0  0
 14 15  2  0  0  0  0
 15 33  1  0  0  0  0
 16 17  1  0  0  0  0
 16 34  1  0  0  0  0
 16 35  1  0  0  0  0
 17 18  1  0  0  0  0
 17 36  1  0  0  0  0
 17 37  1  0  0  0  0
M  END
> <s_m_source_file>
AV-unprocessed.smi

> <i_m_source_file_index>
3323

> <i_lp_mmshare_version>
43012

> <i_f3d_flags>
0

> <s_epik_input>
W0NIM11bQ0BASF0xW0NIMl1bQ0BIXShbQ0gyXVtDSDJdTzEpW0NIMl1bTkhdQyg9TylbTkhdYzJbY0hdW2NIXVtjSF1uW2NIXTI=

> <s_epik_cmdline>
J2VwaWtfcHl0aG9uJywgJy1waCcsICc3LjAnLCAnLXRuJywgJzgnLCAnLW1hJywgJzIwMCcsICctbWV0YWxfYmluZGluZycsICctaW1hZScsICc8aW5maWxlLm1hZT4nLCAnLW9tYWUnLCAnPG91dGZpbGUubWFlPic=

> <r_epik_Ionization_Penalty>
0.00485293

> <r_epik_Ionization_Penalty_Charging>
0

> <r_epik_Ionization_Penalty_Neutral>
0.00485293

> <r_epik_State_Penalty>
0.00349083

> <r_epik_Charging_Adjusted_Penalty>
0.00349083

> <i_epik_Tot_Q>
0

> <i_epik_Tot_abs_Q>
0

> <r_epik_Metal_State_Penalty>
-0

> <b_epik_Metal_Only>
0

> <s_lp_Force_Field>
OPLS_2005

> <r_lp_Energy>
13.5955

> <b_lp_Chiralities_Consistent>
1

> <s_lp_Variant>
AV-unprocessed.smi:3323-1

> <Gold.Version>
5.8.1

> <Gold.Id.Protein>
6NUR|6NUR_protein|mol2

> <Gold.PLP.Fitness>
41.8236

> <Gold.PLP.PLP>
-37.3958

> <Gold.PLP.part.hbond>
-2.0604

> <Gold.PLP.part.metal>
0.0000

> <Gold.PLP.part.buried>
-2.3026

> <Gold.PLP.part.nonpolar>
-33.7195

> <Gold.PLP.part.repulsive>
0.3889

> <Gold.PLP.ligand.clash>
0.0000

> <Gold.PLP.ligand.torsion>
0.5604

> <Gold.PLP.Chemscore.Hbond>
1.8480

> <Gold.PLP.Chemscore.CHOScore>
0.0000

> <Gold.PLP.Chemscore.Metal>
0.0000

> <Gold.Chemscore.Hbonds>
donor molecule, donor type, donor heavy atom, donor atom, acceptor molecule, acceptor atom, score
      L1  H     6    28       P1  8028  0.83
      L1  H     9    29       P1  8028  1.00

> <Gold.PLP.Chemscore.Internal.Correction>
0.0045

> <Gold.Rescore>
     Score         DG    S(hbond)    S(metal)    S(lipo)     H(rot)  DE(clash)    DE(int)     intcor
     19.64     -20.81       1.85        0.00     105.09       1.23       0.08       1.08       ----

> <Gold.Chemscore.Fitness>
19.6433

> <Gold.Chemscore.DG>
-20.8066

> <Gold.Chemscore.ZeroCoef>
-5.4800

> <Gold.Chemscore.Hbond>
1.8482

> <Gold.Chemscore.Metal>
0.0000

> <Gold.Chemscore.Lipo>
105.0898

> <Gold.Chemscore.Internal_Hbond>
0.0000

> <Gold.Chemscore.DEClash>
0.0824

> <Gold.Chemscore.DEInternal>
1.0810

> <Gold.Chemscore.Rot>
1.2273

> <Gold.Chemscore.Internal.Correction>
   9.000000E+99

> <Gold.Chemscore.Hbonds>
donor molecule, donor type, donor heavy atom, donor atom, acceptor molecule, acceptor atom, score
      L1  H     6    28       P1  8028  0.58
      L1  H     9    29       P1  8028  0.92

> <Gold.Chemscore.Hbond.Weighted>
-6.1729

> <Gold.Chemscore.Metal.Weighted>
-0.0000

> <Gold.Chemscore.Lipo.Weighted>
-12.2955

> <Gold.Chemscore.Internal_Hbond.Weighted>
0.0000

> <Gold.Chemscore.DEClash.Weighted>
0.0824

> <Gold.Chemscore.DEInternal.Weighted>
1.0810

> <Gold.Chemscore.Rot.Weighted>
3.1418

> <Gold.Chemscore.Internal.Correction.Weighted>
   9.000000E+99

> <Gold.Protein.RotatedTorsions>
[ 6907 6896 6895 6894 ] final   44.06 input  -60.11 | X-H torsion
[ 7974 7965 7964 7962 ] final  117.12 input  175.53 | X-H torsion
[ 8008 7997 7996 7995 ] final -164.68 input   59.86 | X-H torsion
[ 10167 10162 10161 10158 ] final   33.04 input  -65.29 | X-H torsion
[ 10718 10713 10712 10709 ] final   51.86 input   66.30 | X-H torsion
[ 10763 10752 10751 10750 ] final  -56.89 input  -60.55 | X-H torsion
[ 11005 11000 10999 10996 ] final   86.28 input  -57.11 | X-H torsion

> <Gold.Protein.ActiveResidues>
 VAL166  LYS551  ARG553  GLY616  TRP617  ASP618  TYR619  PRO620  LYS621  CYS622 
 ASP623  PHE694  ASN695  SER759  ASP760  ASP761  ALA762  ILE779  LEU786  VAL792 
 PHE793  MET794  SER795  GLU796  ALA797  LYS798  CYS799  TRP800  GLU811  SER814 

> <Gold.Protein.RotatedAtoms>
  152.2279  134.8351  160.0477 H   0  0  0  0  0  0  0  0  0  0  0  0  # atno 6907 bound_to 6896
  151.9110  133.3556  159.3872 H   0  0  0  0  0  0  0  0  0  0  0  0  # atno 6908 bound_to 6896
  150.7017  134.4657  159.5446 H   0  0  0  0  0  0  0  0  0  0  0  0  # atno 6909 bound_to 6896
  145.1713  139.3100  143.4466 H   0  0  0  0  0  0  0  0  0  0  0  0  # atno 7974 bound_to 7965
  155.8391  140.0945  157.1746 H   0  0  0  0  0  0  0  0  0  0  0  0  # atno 8008 bound_to 7997
  154.3981  140.1404  156.3767 H   0  0  0  0  0  0  0  0  0  0  0  0  # atno 8009 bound_to 7997
  155.8084  140.3450  155.5446 H   0  0  0  0  0  0  0  0  0  0  0  0  # atno 8010 bound_to 7997
  140.4444  144.1140  150.6180 H   0  0  0  0  0  0  0  0  0  0  0  0  # atno 10167 bound_to 10162
  157.5020  130.8444  149.8329 H   0  0  0  0  0  0  0  0  0  0  0  0  # atno 10718 bound_to 10713
  154.2138  135.6390  153.5123 H   0  0  0  0  0  0  0  0  0  0  0  0  # atno 10763 bound_to 10752
  152.9984  135.5480  154.6187 H   0  0  0  0  0  0  0  0  0  0  0  0  # atno 10764 bound_to 10752
  154.5630  135.2910  155.0874 H   0  0  0  0  0  0  0  0  0  0  0  0  # atno 10765 bound_to 10752
  139.8949  134.8344  156.2698 H   0  0  0  0  0  0  0  0  0  0  0  0  # atno 11005 bound_to 11000
  146.3468  140.1859  142.8589 LP  0  0  0  0  0  0  0  0  0  0  0  0  # atno 17320 bound_to 7965
  145.0230  140.8809  143.5155 LP  0  0  0  0  0  0  0  0  0  0  0  0  # atno 17321 bound_to 7965
  140.4281  143.2581  151.9631 LP  0  0  0  0  0  0  0  0  0  0  0  0  # atno 17342 bound_to 10162
  139.4792  144.5769  151.7996 LP  0  0  0  0  0  0  0  0  0  0  0  0  # atno 17343 bound_to 10162
  156.0235  130.3787  150.1891 LP  0  0  0  0  0  0  0  0  0  0  0  0  # atno 17370 bound_to 10713
  157.0081  130.9942  151.3373 LP  0  0  0  0  0  0  0  0  0  0  0  0  # atno 17371 bound_to 10713
  141.0108  133.7097  156.1108 LP  0  0  0  0  0  0  0  0  0  0  0  0  # atno 17394 bound_to 11000
  140.7370  134.4192  157.5559 LP  0  0  0  0  0  0  0  0  0  0  0  0  # atno 17395 bound_to 11000

$$$$
