AV-unprocessed.smi:1843|AV-procd|sdf|7501|dock8
  -GOLD-   22720 9203D 1   1.00000     0.00000
 Structure written by MMmdl.
 37 39  0  0  0  0  0  0  0  0  1 V2000
  142.0138  136.6835  154.0705 O   0  0  0  0  0  0  0  0  0  0  0  0
  142.5416  137.6964  153.6107 C   0  0  0  0  0  0  0  0  0  0  0  0
  143.5818  137.7126  152.7586 N   0  0  0  0  0  0  0  0  0  0  0  0
  144.2813  136.6085  152.2032 C   0  0  0  0  0  0  0  0  0  0  0  0
  145.4794  136.7076  151.6112 N   0  0  0  0  0  0  0  0  0  0  0  0
  145.9350  135.4787  151.1549 N   0  0  0  0  0  0  0  0  0  0  0  0
  145.0733  134.4884  151.4156 C   0  0  0  0  0  0  0  0  0  0  0  0
  145.3418  133.0750  151.0182 C   0  0  0  0  0  0  0  0  0  0  0  0
  144.5509  132.3957  149.9216 C   0  0  0  0  0  0  0  0  0  0  0  0
  144.3603  131.9769  151.3572 C   0  0  0  0  0  0  0  0  0  0  0  0
  143.6086  134.9882  152.2555 S   0  0  0  0  0  0  0  0  0  0  0  0
  142.1385  138.9403  153.9079 N   0  0  0  0  0  0  0  0  0  0  0  0
  141.0257  139.2785  154.7934 C   0  0  1  0  0  0  0  0  0  0  0  0
  140.6908  140.7842  154.7466 C   0  0  0  0  0  0  0  0  0  0  0  0
  139.5296  141.1184  155.6977 C   0  0  0  0  0  0  0  0  0  0  0  0
  138.2881  140.2639  155.3936 C   0  0  0  0  0  0  0  0  0  0  0  0
  138.6166  138.7592  155.4146 C   0  0  0  0  0  0  0  0  0  0  0  0
  139.7888  138.4072  154.4778 C   0  0  1  0  0  0  0  0  0  0  0  0
  139.3714  138.5812  153.1357 O   0  0  0  0  0  0  0  0  0  0  0  0
  143.9122  138.6222  152.4720 H   0  0  0  0  0  0  0  0  0  0  0  0
  146.4038  132.8499  151.0945 H   0  0  0  0  0  0  0  0  0  0  0  0
  143.7379  132.9474  149.4541 H   0  0  0  0  0  0  0  0  0  0  0  0
  145.0874  131.7131  149.2661 H   0  0  0  0  0  0  0  0  0  0  0  0
  144.7688  131.0150  151.6596 H   0  0  0  0  0  0  0  0  0  0  0  0
  143.4299  132.2631  151.8441 H   0  0  0  0  0  0  0  0  0  0  0  0
  142.6333  139.7127  153.4871 H   0  0  0  0  0  0  0  0  0  0  0  0
  141.3282  139.0380  155.8149 H   0  0  0  0  0  0  0  0  0  0  0  0
  141.5654  141.3736  155.0241 H   0  0  0  0  0  0  0  0  0  0  0  0
  140.4305  141.0806  153.7297 H   0  0  0  0  0  0  0  0  0  0  0  0
  139.8442  140.9488  156.7282 H   0  0  0  0  0  0  0  0  0  0  0  0
  139.2794  142.1769  155.6222 H   0  0  0  0  0  0  0  0  0  0  0  0
  137.5030  140.4807  156.1189 H   0  0  0  0  0  0  0  0  0  0  0  0
  137.8868  140.5395  154.4176 H   0  0  0  0  0  0  0  0  0  0  0  0
  138.8752  138.4675  156.4334 H   0  0  0  0  0  0  0  0  0  0  0  0
  137.7322  138.1791  155.1487 H   0  0  0  0  0  0  0  0  0  0  0  0
  140.0432  137.3543  154.6070 H   0  0  0  0  0  0  0  0  0  0  0  0
  139.9258  139.2292  152.7301 H   0  0  0  0  0  0  0  0  0  0  0  0
  1  2  2  0  0  0  0
  2  3  1  0  0  0  0
  2 12  1  0  0  0  0
  3  4  1  0  0  0  0
  3 20  1  0  0  0  0
  4 11  1  0  0  0  0
  4  5  2  0  0  0  0
  5  6  1  0  0  0  0
  6  7  2  0  0  0  0
  7  8  1  0  0  0  0
  7 11  1  0  0  0  0
  8 10  1  0  0  0  0
  8  9  1  0  0  0  0
  8 21  1  0  0  0  0
  9 10  1  0  0  0  0
  9 22  1  0  0  0  0
  9 23  1  0  0  0  0
 10 24  1  0  0  0  0
 10 25  1  0  0  0  0
 12 13  1  0  0  0  0
 12 26  1  0  0  0  0
 13 18  1  0  0  0  0
 13 14  1  0  0  0  0
 13 27  1  0  0  0  0
 14 15  1  0  0  0  0
 14 28  1  0  0  0  0
 14 29  1  0  0  0  0
 15 16  1  0  0  0  0
 15 30  1  0  0  0  0
 15 31  1  0  0  0  0
 16 17  1  0  0  0  0
 16 32  1  0  0  0  0
 16 33  1  0  0  0  0
 17 18  1  0  0  0  0
 17 34  1  0  0  0  0
 17 35  1  0  0  0  0
 18 19  1  0  0  0  0
 18 36  1  0  0  0  0
 19 37  1  0  0  0  0
M  END
> <s_m_source_file>
AV-unprocessed.smi

> <i_m_source_file_index>
1843

> <i_lp_mmshare_version>
43012

> <i_f3d_flags>
0

> <s_epik_input>
W09IXVtDQEBIXTFbQ0gyXVtDSDJdW0NIMl1bQ0gyXVtDQEhdMVtOSF1DKD1PKVtOSF1jMm5uYyhzMilbQ0hdM1tDSDJdW0NIMl0z

> <s_epik_cmdline>
J2VwaWtfcHl0aG9uJywgJy1waCcsICc3LjAnLCAnLXRuJywgJzgnLCAnLW1hJywgJzIwMCcsICctbWV0YWxfYmluZGluZycsICctaW1hZScsICc8aW5maWxlLm1hZT4nLCAnLW9tYWUnLCAnPG91dGZpbGUubWFlPic=

> <r_lp_tautomer_probability>
1

> <r_epik_Ionization_Penalty>
0.000257313

> <r_epik_Ionization_Penalty_Charging>
0

> <r_epik_Ionization_Penalty_Neutral>
0.000257313

> <r_epik_State_Penalty>
-0

> <r_epik_Charging_Adjusted_Penalty>
0

> <i_epik_Tot_Q>
0

> <i_epik_Tot_abs_Q>
0

> <r_epik_Metal_State_Penalty>
0.147479

> <b_epik_Metal_Only>
0

> <s_lp_Force_Field>
OPLS_2005

> <r_lp_Energy>
11.0621

> <b_lp_Chiralities_Consistent>
1

> <s_lp_Variant>
AV-unprocessed.smi:1843-2

> <Gold.Version>
5.8.1

> <Gold.Id.Protein>
6NUR|6NUR_protein|mol2

> <Gold.PLP.Fitness>
39.0607

> <Gold.PLP.PLP>
-30.6502

> <Gold.PLP.part.hbond>
-3.7002

> <Gold.PLP.part.metal>
0.0000

> <Gold.PLP.part.buried>
-4.9938

> <Gold.PLP.part.nonpolar>
-22.4950

> <Gold.PLP.part.repulsive>
1.0099

> <Gold.PLP.ligand.clash>
0.0000

> <Gold.PLP.ligand.torsion>
0.2697

> <Gold.PLP.Chemscore.Hbond>
2.9360

> <Gold.PLP.Chemscore.CHOScore>
0.0000

> <Gold.PLP.Chemscore.Metal>
0.0000

> <Gold.Chemscore.Hbonds>
donor molecule, donor type, donor heavy atom, donor atom, acceptor molecule, acceptor atom, score
      L1  H     3    20       P1 10175  0.96
      L1  H    12    26       P1 10175  1.00
      L1  H    19    37       P1 10160  0.25

> <Gold.PLP.Chemscore.Internal.Correction>
0.1419

> <Gold.Rescore>
     Score         DG    S(hbond)    S(metal)    S(lipo)     H(rot)  DE(clash)    DE(int)     intcor
     16.17     -18.94       2.90        0.00      70.42       1.74       0.02       2.75       ----

> <Gold.Chemscore.Fitness>
16.1704

> <Gold.Chemscore.DG>
-18.9417

> <Gold.Chemscore.ZeroCoef>
-5.4800

> <Gold.Chemscore.Hbond>
2.8975

> <Gold.Chemscore.Metal>
0.0000

> <Gold.Chemscore.Lipo>
70.4231

> <Gold.Chemscore.Internal_Hbond>
0.0000

> <Gold.Chemscore.DEClash>
0.0224

> <Gold.Chemscore.DEInternal>
2.7490

> <Gold.Chemscore.Rot>
1.7404

> <Gold.Chemscore.Internal.Correction>
   9.000000E+99

> <Gold.Chemscore.Hbonds>
donor molecule, donor type, donor heavy atom, donor atom, acceptor molecule, acceptor atom, score
      L1  H     3    20       P1 10175  0.92
      L1  H    12    26       P1 10175  0.96
      L1  H    19    37       P1 10160  0.25

> <Gold.Chemscore.Hbond.Weighted>
-9.6777

> <Gold.Chemscore.Metal.Weighted>
-0.0000

> <Gold.Chemscore.Lipo.Weighted>
-8.2395

> <Gold.Chemscore.Internal_Hbond.Weighted>
0.0000

> <Gold.Chemscore.DEClash.Weighted>
0.0224

> <Gold.Chemscore.DEInternal.Weighted>
2.7490

> <Gold.Chemscore.Rot.Weighted>
4.4555

> <Gold.Chemscore.Internal.Correction.Weighted>
   9.000000E+99

> <Gold.Protein.RotatedTorsions>
[ 6907 6896 6895 6894 ] final  -90.74 input  -60.11 | X-H torsion
[ 7974 7965 7964 7962 ] final -143.00 input  175.53 | X-H torsion
[ 8008 7997 7996 7995 ] final -133.71 input   59.86 | X-H torsion
[ 10167 10162 10161 10158 ] final  104.12 input  -65.29 | X-H torsion
[ 10718 10713 10712 10709 ] final  -63.40 input   66.30 | X-H torsion
[ 10763 10752 10751 10750 ] final -138.87 input  -60.55 | X-H torsion
[ 11005 11000 10999 10996 ] final  -28.20 input  -57.11 | X-H torsion

> <Gold.Protein.ActiveResidues>
 VAL166  LYS551  ARG553  GLY616  TRP617  ASP618  TYR619  PRO620  LYS621  CYS622 
 ASP623  PHE694  ASN695  SER759  ASP760  ASP761  ALA762  ILE779  LEU786  VAL792 
 PHE793  MET794  SER795  GLU796  ALA797  LYS798  CYS799  TRP800  GLU811  SER814 

> <Gold.Protein.RotatedAtoms>
  150.6885  134.2385  159.4462 H   0  0  0  0  0  0  0  0  0  0  0  0  # atno 6907 bound_to 6896
  152.0330  134.9754  160.0582 H   0  0  0  0  0  0  0  0  0  0  0  0  # atno 6908 bound_to 6896
  152.1285  133.4359  159.4746 H   0  0  0  0  0  0  0  0  0  0  0  0  # atno 6909 bound_to 6896
  144.8402  140.5889  143.5457 H   0  0  0  0  0  0  0  0  0  0  0  0  # atno 7974 bound_to 7965
  155.3499  140.0477  157.3046 H   0  0  0  0  0  0  0  0  0  0  0  0  # atno 8008 bound_to 7997
  154.5232  140.2232  155.8901 H   0  0  0  0  0  0  0  0  0  0  0  0  # atno 8009 bound_to 7997
  156.1712  140.3095  155.8983 H   0  0  0  0  0  0  0  0  0  0  0  0  # atno 8010 bound_to 7997
  139.7204  144.7059  151.0882 H   0  0  0  0  0  0  0  0  0  0  0  0  # atno 10167 bound_to 10162
  156.0793  130.4220  150.1272 H   0  0  0  0  0  0  0  0  0  0  0  0  # atno 10718 bound_to 10713
  154.8625  135.3599  154.5455 H   0  0  0  0  0  0  0  0  0  0  0  0  # atno 10763 bound_to 10752
  153.6075  135.7010  153.5365 H   0  0  0  0  0  0  0  0  0  0  0  0  # atno 10764 bound_to 10752
  153.3238  135.4144  155.1400 H   0  0  0  0  0  0  0  0  0  0  0  0  # atno 10765 bound_to 10752
  140.9187  133.7413  156.0771 H   0  0  0  0  0  0  0  0  0  0  0  0  # atno 11005 bound_to 11000
  145.4710  139.1503  143.3814 LP  0  0  0  0  0  0  0  0  0  0  0  0  # atno 17320 bound_to 7965
  146.2695  140.4843  142.8820 LP  0  0  0  0  0  0  0  0  0  0  0  0  # atno 17321 bound_to 7965
  140.7752  143.5173  150.9579 LP  0  0  0  0  0  0  0  0  0  0  0  0  # atno 17342 bound_to 10162
  139.8860  143.7012  152.3151 LP  0  0  0  0  0  0  0  0  0  0  0  0  # atno 17343 bound_to 10162
  156.9306  130.9712  151.3533 LP  0  0  0  0  0  0  0  0  0  0  0  0  # atno 17370 bound_to 10713
  157.5903  130.8439  149.8650 LP  0  0  0  0  0  0  0  0  0  0  0  0  # atno 17371 bound_to 10713
  140.8016  134.3502  157.5438 LP  0  0  0  0  0  0  0  0  0  0  0  0  # atno 17394 bound_to 11000
  139.8771  134.9201  156.3243 LP  0  0  0  0  0  0  0  0  0  0  0  0  # atno 17395 bound_to 11000

$$$$
