AV-unprocessed.smi:1510|AV-procd|sdf|6095|dock8
  -GOLD-   22720 6223D 1   1.00000     0.00000
 Structure written by MMmdl.
 32 33  0  0  0  0  0  0  0  0  2 V2000
  155.5062  139.9924  159.4204 O   0  0  0  0  0  0  0  0  0  0  0  0
  154.2942  139.7765  159.3637 C   0  0  0  0  0  0  0  0  0  0  0  0
  153.7442  138.3878  159.0012 C   0  0  0  0  0  0  0  0  0  0  0  0
  152.4938  138.4149  158.2280 N   0  0  0  0  0  0  0  0  0  0  0  0
  152.5699  139.2211  157.0126 N   0  5  0  0  0  0  0  0  0  0  0  0
  151.4751  139.3183  156.2126 C   0  0  0  0  0  0  0  0  0  0  0  0
  151.4678  139.9674  155.1692 O   0  0  0  0  0  0  0  0  0  0  0  0
  150.2652  138.6237  156.6211 C   0  0  0  0  0  0  0  0  0  0  0  0
  150.2182  137.9012  157.7576 C   0  0  0  0  0  0  0  0  0  0  0  0
  151.3684  137.7658  158.6431 C   0  0  0  0  0  0  0  0  0  0  0  0
  151.3299  137.1148  159.6873 O   0  0  0  0  0  0  0  0  0  0  0  0
  153.3712  140.7208  159.6003 N   0  0  0  0  0  0  0  0  0  0  0  0
  153.6560  142.1041  159.9619 C   0  0  0  0  0  0  0  0  0  0  0  0
  152.4142  142.9976  159.8065 C   0  0  1  0  0  0  0  0  0  0  0  0
  152.3138  144.1067  160.8556 C   0  0  0  0  0  0  0  0  0  0  0  0
  151.5921  145.2369  160.1337 C   0  0  0  0  0  0  0  0  0  0  0  0
  151.4910  144.7536  158.6859 C   0  0  0  0  0  0  0  0  0  0  0  0
  152.4633  143.7249  158.5886 O   0  0  0  0  0  0  0  0  0  0  0  0
  154.5050  137.8400  158.4425 H   0  0  0  0  0  0  0  0  0  0  0  0
  153.6042  137.8285  159.9281 H   0  0  0  0  0  0  0  0  0  0  0  0
  149.3838  138.6912  156.0004 H   0  0  0  0  0  0  0  0  0  0  0  0
  149.2972  137.4038  158.0229 H   0  0  0  0  0  0  0  0  0  0  0  0
  152.3990  140.4581  159.5326 H   0  0  0  0  0  0  0  0  0  0  0  0
  154.0283  142.1487  160.9868 H   0  0  0  0  0  0  0  0  0  0  0  0
  154.4623  142.4664  159.3236 H   0  0  0  0  0  0  0  0  0  0  0  0
  151.5024  142.3972  159.8237 H   0  0  0  0  0  0  0  0  0  0  0  0
  151.7891  143.7768  161.7529 H   0  0  0  0  0  0  0  0  0  0  0  0
  153.3075  144.4427  161.1553 H   0  0  0  0  0  0  0  0  0  0  0  0
  150.6056  145.4329  160.5549 H   0  0  0  0  0  0  0  0  0  0  0  0
  152.1734  146.1576  160.1982 H   0  0  0  0  0  0  0  0  0  0  0  0
  150.5034  144.3338  158.4887 H   0  0  0  0  0  0  0  0  0  0  0  0
  151.6746  145.5477  157.9620 H   0  0  0  0  0  0  0  0  0  0  0  0
  1  2  2  0  0  0  0
  2  3  1  0  0  0  0
  2 12  1  0  0  0  0
  3 19  1  0  0  0  0
  3 20  1  0  0  0  0
  3  4  1  0  0  0  0
  4  5  1  0  0  0  0
  4 10  1  0  0  0  0
  5  6  1  0  0  0  0
  6  7  2  0  0  0  0
  6  8  1  0  0  0  0
  8 21  1  0  0  0  0
  8  9  2  0  0  0  0
  9 22  1  0  0  0  0
  9 10  1  0  0  0  0
 10 11  2  0  0  0  0
 12 13  1  0  0  0  0
 12 23  1  0  0  0  0
 13 14  1  0  0  0  0
 13 24  1  0  0  0  0
 13 25  1  0  0  0  0
 14 18  1  0  0  0  0
 14 15  1  0  0  0  0
 14 26  1  0  0  0  0
 15 16  1  0  0  0  0
 15 27  1  0  0  0  0
 15 28  1  0  0  0  0
 16 17  1  0  0  0  0
 16 29  1  0  0  0  0
 16 30  1  0  0  0  0
 17 18  1  0  0  0  0
 17 31  1  0  0  0  0
 17 32  1  0  0  0  0
M  CHG  1   5  -1
M  END
> <s_m_source_file>
AV-unprocessed.smi

> <i_m_source_file_index>
1510

> <i_lp_mmshare_version>
43012

> <i_f3d_flags>
0

> <s_epik_input>
TzFbQ0gyXVtDSDJdW0NIMl1bQ0BIXTFbQ0gyXVtOSF1DKD1PKVtDSDJdbjJbbkhdYyg9TylbY0hdW2NIXWMyPU8=

> <s_epik_cmdline>
J2VwaWtfcHl0aG9uJywgJy1waCcsICc3LjAnLCAnLXRuJywgJzgnLCAnLW1hJywgJzIwMCcsICctbWV0YWxfYmluZGluZycsICctaW1hZScsICc8aW5maWxlLm1hZT4nLCAnLW9tYWUnLCAnPG91dGZpbGUubWFlPic=

> <r_lp_tautomer_probability>
1

> <r_epik_Ionization_Penalty>
0.0970799

> <r_epik_Ionization_Penalty_Charging>
0.0970799

> <r_epik_Ionization_Penalty_Neutral>
2.6859e-08

> <r_epik_State_Penalty>
0.0341592

> <r_epik_Charging_Adjusted_Penalty>
0.131239

> <i_epik_Tot_Q>
-1

> <i_epik_Tot_abs_Q>
1

> <r_epik_Metal_State_Penalty>
0.0341592

> <b_epik_Metal_Only>
0

> <s_lp_Force_Field>
OPLS_2005

> <r_lp_Energy>
32.1041

> <b_lp_Chiralities_Consistent>
1

> <s_lp_Variant>
AV-unprocessed.smi:1510-2

> <Gold.Version>
5.8.1

> <Gold.Id.Protein>
6NUR|6NUR_protein|mol2

> <Gold.PLP.Fitness>
44.5784

> <Gold.PLP.PLP>
-33.7641

> <Gold.PLP.part.hbond>
-4.0000

> <Gold.PLP.part.metal>
0.0000

> <Gold.PLP.part.buried>
-5.7778

> <Gold.PLP.part.nonpolar>
-24.7359

> <Gold.PLP.part.repulsive>
0.1386

> <Gold.PLP.ligand.clash>
0.0000

> <Gold.PLP.ligand.torsion>
0.9933

> <Gold.PLP.Chemscore.Hbond>
4.2637

> <Gold.PLP.Chemscore.CHOScore>
0.0000

> <Gold.PLP.Chemscore.Metal>
0.0000

> <Gold.Chemscore.Hbonds>
donor molecule, donor type, donor heavy atom, donor atom, acceptor molecule, acceptor atom, score
      P1  H  6896  6908       L1    11  1.00
      P1  H  7989  7998       L1     7  1.00
      P1  H  7997  8008       L1     5  1.56
      P1  H  7997  8010       L1     1  0.40

> <Gold.PLP.Chemscore.Internal.Correction>
0.0099

> <Gold.Rescore>
     Score         DG    S(hbond)    S(metal)    S(lipo)     H(rot)  DE(clash)    DE(int)     intcor
     17.24     -18.24       2.92        0.00      70.40       2.05       0.06       0.93       ----

> <Gold.Chemscore.Fitness>
17.2411

> <Gold.Chemscore.DG>
-18.2378

> <Gold.Chemscore.ZeroCoef>
-5.4800

> <Gold.Chemscore.Hbond>
2.9219

> <Gold.Chemscore.Metal>
0.0000

> <Gold.Chemscore.Lipo>
70.4030

> <Gold.Chemscore.Internal_Hbond>
0.0000

> <Gold.Chemscore.DEClash>
0.0640

> <Gold.Chemscore.DEInternal>
0.9327

> <Gold.Chemscore.Rot>
2.0463

> <Gold.Chemscore.Internal.Correction>
   9.000000E+99

> <Gold.Chemscore.Hbonds>
donor molecule, donor type, donor heavy atom, donor atom, acceptor molecule, acceptor atom, score
      P1  H  6896  6908       L1    11  0.98
      P1  H  7989  7998       L1     7  0.98
      P1  H  7997  8008       L1     5  0.67
      P1  H  7997  8010       L1     1  0.04

> <Gold.Chemscore.Hbond.Weighted>
-9.7592

> <Gold.Chemscore.Metal.Weighted>
-0.0000

> <Gold.Chemscore.Lipo.Weighted>
-8.2371

> <Gold.Chemscore.Internal_Hbond.Weighted>
0.0000

> <Gold.Chemscore.DEClash.Weighted>
0.0640

> <Gold.Chemscore.DEInternal.Weighted>
0.9327

> <Gold.Chemscore.Rot.Weighted>
5.2386

> <Gold.Chemscore.Internal.Correction.Weighted>
   9.000000E+99

> <Gold.Protein.RotatedTorsions>
[ 6907 6896 6895 6894 ] final -133.45 input  -60.11 | X-H torsion
[ 7974 7965 7964 7962 ] final   41.91 input  175.53 | X-H torsion
[ 8008 7997 7996 7995 ] final  -38.23 input   59.86 | X-H torsion
[ 10167 10162 10161 10158 ] final -130.84 input  -65.29 | X-H torsion
[ 10718 10713 10712 10709 ] final   78.58 input   66.30 | X-H torsion
[ 10763 10752 10751 10750 ] final   90.69 input  -60.55 | X-H torsion
[ 11005 11000 10999 10996 ] final  131.71 input  -57.11 | X-H torsion

> <Gold.Protein.ActiveResidues>
 VAL166  LYS551  ARG553  GLY616  TRP617  ASP618  TYR619  PRO620  LYS621  CYS622 
 ASP623  PHE694  ASN695  SER759  ASP760  ASP761  ALA762  ILE779  LEU786  VAL792 
 PHE793  MET794  SER795  GLU796  ALA797  LYS798  CYS799  TRP800  GLU811  SER814 

> <Gold.Protein.RotatedAtoms>
  150.9742  133.6312  159.2732 H   0  0  0  0  0  0  0  0  0  0  0  0  # atno 6907 bound_to 6896
  151.3590  135.0899  159.9438 H   0  0  0  0  0  0  0  0  0  0  0  0  # atno 6908 bound_to 6896
  152.5193  133.9319  159.7639 H   0  0  0  0  0  0  0  0  0  0  0  0  # atno 6909 bound_to 6896
  146.0785  139.5362  142.9552 H   0  0  0  0  0  0  0  0  0  0  0  0  # atno 7974 bound_to 7965
  154.4040  140.1583  156.2667 H   0  0  0  0  0  0  0  0  0  0  0  0  # atno 8008 bound_to 7997
  155.8989  140.3434  155.5989 H   0  0  0  0  0  0  0  0  0  0  0  0  # atno 8009 bound_to 7997
  155.7471  140.0800  157.2209 H   0  0  0  0  0  0  0  0  0  0  0  0  # atno 8010 bound_to 7997
  139.9252  143.6336  152.2544 H   0  0  0  0  0  0  0  0  0  0  0  0  # atno 10167 bound_to 10162
  157.6749  130.9875  150.1808 H   0  0  0  0  0  0  0  0  0  0  0  0  # atno 10718 bound_to 10713
  153.2002  135.4425  155.0257 H   0  0  0  0  0  0  0  0  0  0  0  0  # atno 10763 bound_to 10752
  154.8142  135.3308  154.7223 H   0  0  0  0  0  0  0  0  0  0  0  0  # atno 10764 bound_to 10752
  153.7669  135.6987  153.4969 H   0  0  0  0  0  0  0  0  0  0  0  0  # atno 10765 bound_to 10752
  139.9746  134.9567  156.9478 H   0  0  0  0  0  0  0  0  0  0  0  0  # atno 11005 bound_to 11000
  145.6262  141.0313  143.1888 LP  0  0  0  0  0  0  0  0  0  0  0  0  # atno 17320 bound_to 7965
  144.7277  139.7823  143.7359 LP  0  0  0  0  0  0  0  0  0  0  0  0  # atno 17321 bound_to 7965
  139.6828  144.7654  151.1577 LP  0  0  0  0  0  0  0  0  0  0  0  0  # atno 17342 bound_to 10162
  140.7652  143.5700  150.9006 LP  0  0  0  0  0  0  0  0  0  0  0  0  # atno 17343 bound_to 10162
  156.2541  130.3703  149.8201 LP  0  0  0  0  0  0  0  0  0  0  0  0  # atno 17370 bound_to 10713
  156.5965  130.8528  151.3421 LP  0  0  0  0  0  0  0  0  0  0  0  0  # atno 17371 bound_to 10713
  140.5221  134.0897  155.7294 LP  0  0  0  0  0  0  0  0  0  0  0  0  # atno 17394 bound_to 11000
  141.1424  133.9114  157.2294 LP  0  0  0  0  0  0  0  0  0  0  0  0  # atno 17395 bound_to 11000

$$$$
