#       Name:                AV-unprocessed.smi:1103
#       Creating user name   scv26
#       Creation time:       Fri Mar 27 03:31:09 2020


#       File generated by GOLD software.
#

@<TRIPOS>MOLECULE
AV-unprocessed.smi:1103
    47    48     1
SMALL
NO_CHARGES


@<TRIPOS>ATOM
      1 ****         0.0858   2.5525  -2.4518 C.3            1 S1                 0.0000
      2 ****        -1.3786   2.1540  -2.6864 C.3            1 S1                 0.0000
      3 ****        -1.9419   1.3659  -1.5610 N.4            1 S1                 1.0000
      4 ****        -3.4256   1.4261  -1.5238 C.3            1 S1                 0.0000
      5 ****        -3.9742   0.7256  -0.2718 C.3            1 S1                 0.0000
      6 ****        -3.4902  -0.7276  -0.2027 C.3            1 S1                 0.0000
      7 ****        -1.9542  -0.7856  -0.2683 C.3            1 S1                 0.0000
      8 ****        -1.4574  -2.2470  -0.2087 C.3            1 S1                 0.0000
      9 ****        -0.0014  -2.3520  -0.1886 N.am           1 S1                 0.0000
     10 ****         0.7738  -2.1083   0.8792 C.2            1 S1                 0.0000
     11 ****         0.3220  -1.7591   1.9708 O.2            1 S1                 0.0000
     12 ****         2.2818  -2.2892   0.6696 C.3            1 S1                 0.0000
     13 ****         3.0711  -1.5166   1.6148 N.pl3          1 S1                 0.0000
     14 ****         3.3050  -0.1570   1.6284 C.2            1 S1                 0.0000
     15 ****         4.1000   0.1130   2.7059 C.2            1 S1                 0.0000
     16 ****         4.6348   1.4376   3.1679 C.3            1 S1                 0.0000
     17 ****         4.3047  -1.1672   3.2950 C.2            1 S1                 0.0000
     18 ****         3.6910  -2.1390   2.6400 N.2            1 S1                 0.0000
     19 ****        -1.4498  -0.0379  -1.5234 C.3            1 S1                 0.0000
     20 ****         0.4365   3.2050  -3.2519 H              1 S1                 0.0000
     21 ****         0.7495   1.6888  -2.4280 H              1 S1                 0.0000
     22 ****         0.2013   3.0928  -1.5116 H              1 S1                 0.0000
     23 ****        -1.9541   3.0728  -2.8056 H              1 S1                 0.0000
     24 ****        -1.4839   1.6017  -3.6213 H              1 S1                 0.0000
     25 ****        -3.7545   2.4662  -1.5221 H              1 S1                 0.0000
     26 ****        -3.8340   0.9652  -2.4247 H              1 S1                 0.0000
     27 ****        -3.6515   1.2633   0.6209 H              1 S1                 0.0000
     28 ****        -5.0642   0.7560  -0.2741 H              1 S1                 0.0000
     29 ****        -3.8471  -1.1912   0.7177 H              1 S1                 0.0000
     30 ****        -3.9213  -1.2975  -1.0270 H              1 S1                 0.0000
     31 ****        -1.5706  -0.2626   0.6093 H              1 S1                 0.0000
     32 ****        -1.8669  -2.7512   0.6684 H              1 S1                 0.0000
     33 ****        -1.8219  -2.7998  -1.0750 H              1 S1                 0.0000
     34 ****         0.4482  -2.6455  -1.0440 H              1 S1                 0.0000
     35 ****         2.5335  -3.3469   0.7627 H              1 S1                 0.0000
     36 ****         2.5583  -1.9791  -0.3389 H              1 S1                 0.0000
     37 ****         2.8864   0.4992   0.8796 H              1 S1                 0.0000
     38 ****         5.1799   1.3491   4.1079 H              1 S1                 0.0000
     39 ****         3.8344   2.1603   3.3282 H              1 S1                 0.0000
     40 ****         5.3198   1.8710   2.4391 H              1 S1                 0.0000
     41 ****         4.8781  -1.4177   4.1753 H              1 S1                 0.0000
     42 ****        -1.7700  -0.5598  -2.4268 H              1 S1                 0.0000
     43 ****        -0.3607  -0.0399  -1.5296 H              1 S1                 0.0000
     44 ****        -1.6233   1.8126  -0.7129 H              1 S1                 0.0000
     45 ****        -0.6643  -1.6455   2.0905 LP             1 S1                 0.0000
     46 ****         0.9416  -1.5893   2.7372 LP             1 S1                 0.0000
     47 ****         3.6872  -3.1155   2.8558 LP             1 S1                 0.0000
@<TRIPOS>BOND
    1    1    2 1     
    2    1   20 1     
    3    1   21 1     
    4    1   22 1     
    5    2    3 1     
    6    2   23 1     
    7    2   24 1     
    8    3   19 1     
    9    3    4 1     
   10    3   44 1     
   11    4    5 1     
   12    4   25 1     
   13    4   26 1     
   14    5    6 1     
   15    5   27 1     
   16    5   28 1     
   17    6    7 1     
   18    6   29 1     
   19    6   30 1     
   20    7    8 1     
   21    7   19 1     
   22    7   31 1     
   23    8    9 1     
   24    8   32 1     
   25    8   33 1     
   26    9   10 am    
   27    9   34 1     
   28   10   11 2     
   29   10   12 1     
   30   12   13 1     
   31   12   35 1     
   32   12   36 1     
   33   13   18 1     
   34   13   14 1     
   35   14   15 2     
   36   14   37 1     
   37   15   16 1     
   38   15   17 1     
   39   16   38 1     
   40   16   39 1     
   41   16   40 1     
   42   17   18 2     
   43   17   41 1     
   44   19   42 1     
   45   19   43 1     
   46   11   45 1     
   47   11   46 1     
   48   18   47 1     
@<TRIPOS>SUBSTRUCTURE
      1 S1             1
@<TRIPOS>SET
LONE_PAIRS      STATIC     ATOMS    <user>   **** ""
3 45 46 47
DONOR_HYDROGENS      STATIC     ATOMS    <user>   **** ""
2 44 34
ATOM$BLUE        STATIC     ATOMS    COLORGROUP SYSTEM
3 45 46 47
ATOM$RED        STATIC     ATOMS    COLORGROUP SYSTEM
2 44 34
