AV-unprocessed.smi:470|AV-procd|sdf|2656|dock2
  -GOLD-   2262023 63D 1   1.00000     0.00000
 Structure written by MMmdl.
 32 33  0  0  0  0  0  0  0  0  2 V2000
  149.7806  138.4310  153.4342 N   0  0  0  0  0  0  0  0  0  0  0  0
  150.6632  138.5716  154.4279 C   0  0  0  0  0  0  0  0  0  0  0  0
  151.0533  139.6739  154.8081 O   0  0  0  0  0  0  0  0  0  0  0  0
  151.1939  137.2929  155.0818 C   0  0  0  0  0  0  0  0  0  0  0  0
  150.1092  136.6137  155.8663 C   0  0  0  0  0  0  0  0  0  0  0  0
  148.9814  136.0142  155.3685 C   0  0  0  0  0  0  0  0  0  0  0  0
  148.0001  135.3371  156.6363 S   0  0  0  0  0  0  0  0  0  0  0  0
  149.1814  135.8819  157.8284 C   0  0  0  0  0  0  0  0  0  0  0  0
  149.0807  135.6975  159.1560 N   0  5  0  0  0  0  0  0  0  0  0  0
  147.9250  135.8177  159.8698 C   0  0  0  0  0  0  0  0  0  0  0  0
  146.8632  136.2265  159.4042 O   0  0  0  0  0  0  0  0  0  0  0  0
  147.9708  135.4003  161.3709 C   0  0  2  0  0  0  0  0  0  0  0  0
  147.0213  134.2138  161.6729 C   0  0  0  0  0  0  0  0  0  0  0  0
  145.5879  134.6389  161.9367 C   0  0  0  0  0  0  0  0  0  0  0  0
  145.2308  135.8932  162.2573 C   0  0  0  0  0  0  0  0  0  0  0  0
  146.2148  137.0407  162.3862 C   0  0  0  0  0  0  0  0  0  0  0  0
  147.6874  136.5745  162.3425 C   0  0  0  0  0  0  0  0  0  0  0  0
  150.1913  136.5504  157.2600 N   0  0  0  0  0  0  0  0  0  0  0  0
  149.3884  139.2479  152.9896 H   0  0  0  0  0  0  0  0  0  0  0  0
  149.4929  137.5060  153.1467 H   0  0  0  0  0  0  0  0  0  0  0  0
  151.5873  136.6331  154.3073 H   0  0  0  0  0  0  0  0  0  0  0  0
  152.0349  137.5412  155.7304 H   0  0  0  0  0  0  0  0  0  0  0  0
  148.6713  135.9267  154.3382 H   0  0  0  0  0  0  0  0  0  0  0  0
  148.9813  135.0828  161.6241 H   0  0  0  0  0  0  0  0  0  0  0  0
  147.0147  133.5049  160.8454 H   0  0  0  0  0  0  0  0  0  0  0  0
  147.3769  133.6627  162.5438 H   0  0  0  0  0  0  0  0  0  0  0  0
  144.8348  133.8669  161.8784 H   0  0  0  0  0  0  0  0  0  0  0  0
  144.1902  136.1258  162.4282 H   0  0  0  0  0  0  0  0  0  0  0  0
  146.0109  137.7526  161.5867 H   0  0  0  0  0  0  0  0  0  0  0  0
  146.0248  137.5691  163.3207 H   0  0  0  0  0  0  0  0  0  0  0  0
  147.9718  136.2526  163.3451 H   0  0  0  0  0  0  0  0  0  0  0  0
  148.3350  137.4222  162.1147 H   0  0  0  0  0  0  0  0  0  0  0  0
  1  2  1  0  0  0  0
  1 19  1  0  0  0  0
  1 20  1  0  0  0  0
  2  3  2  0  0  0  0
  2  4  1  0  0  0  0
  4  5  1  0  0  0  0
  4 21  1  0  0  0  0
  4 22  1  0  0  0  0
  5 18  1  0  0  0  0
  5  6  2  0  0  0  0
  6  7  1  0  0  0  0
  6 23  1  0  0  0  0
  7  8  1  0  0  0  0
  8  9  1  0  0  0  0
  8 18  2  0  0  0  0
  9 10  1  0  0  0  0
 10 11  2  0  0  0  0
 10 12  1  0  0  0  0
 12 17  1  0  0  0  0
 12 13  1  0  0  0  0
 12 24  1  0  0  0  0
 13 14  1  0  0  0  0
 13 25  1  0  0  0  0
 13 26  1  0  0  0  0
 14 15  2  0  0  0  0
 14 27  1  0  0  0  0
 15 16  1  0  0  0  0
 15 28  1  0  0  0  0
 16 17  1  0  0  0  0
 16 29  1  0  0  0  0
 16 30  1  0  0  0  0
 17 31  1  0  0  0  0
 17 32  1  0  0  0  0
M  CHG  1   9  -1
M  END
> <s_m_source_file>
AV-unprocessed.smi

> <i_m_source_file_index>
470

> <i_lp_mmshare_version>
43012

> <i_f3d_flags>
0

> <s_epik_input>
W05IMl1DKD1PKVtDSDJdYzFbY0hdc2MobjEpW05IXUMoPU8pW0NAQEhdMltDSDJdW0NIXT1bQ0hdW0NIMl1bQ0gyXTI=

> <s_epik_cmdline>
J2VwaWtfcHl0aG9uJywgJy1waCcsICc3LjAnLCAnLXRuJywgJzgnLCAnLW1hJywgJzIwMCcsICctbWV0YWxfYmluZGluZycsICctaW1hZScsICc8aW5maWxlLm1hZT4nLCAnLW9tYWUnLCAnPG91dGZpbGUubWFlPic=

> <r_lp_tautomer_probability>
1

> <r_epik_Ionization_Penalty>
4.98985

> <r_epik_Ionization_Penalty_Charging>
4.63309

> <r_epik_Ionization_Penalty_Neutral>
0.356756

> <r_epik_State_Penalty>
4.63286

> <r_epik_Charging_Adjusted_Penalty>
9.26595

> <i_epik_Tot_Q>
-1

> <i_epik_Tot_abs_Q>
1

> <r_epik_Metal_State_Penalty>
0.88943

> <b_epik_Metal_Only>
1

> <s_lp_Force_Field>
OPLS_2005

> <r_lp_Energy>
8.68427

> <b_lp_Chiralities_Consistent>
1

> <s_lp_Variant>
AV-unprocessed.smi:470-3

> <Gold.Version>
5.8.1

> <Gold.Id.Protein>
6NUR|6NUR_protein|mol2

> <Gold.PLP.Fitness>
45.2820

> <Gold.PLP.PLP>
-29.0340

> <Gold.PLP.part.hbond>
-4.0000

> <Gold.PLP.part.metal>
0.0000

> <Gold.PLP.part.buried>
-4.6994

> <Gold.PLP.part.nonpolar>
-19.9786

> <Gold.PLP.part.repulsive>
0.1367

> <Gold.PLP.ligand.clash>
0.0000

> <Gold.PLP.ligand.torsion>
0.4843

> <Gold.PLP.Chemscore.Hbond>
4.7200

> <Gold.PLP.Chemscore.CHOScore>
1.0000

> <Gold.PLP.Chemscore.Metal>
0.0000

> <Gold.Chemscore.Hbonds>
donor molecule, donor type, donor heavy atom, donor atom, acceptor molecule, acceptor atom, score
      L1  H     1    19       P1  7957  0.64
      L1  H     1    20       P1  7948  1.00
      P1  H  6896  6909       L1     9  2.00
      P1  H  7989  7998       L1     3  1.00
      L1  C     6    23       P1  7948  1.00

> <Gold.PLP.Chemscore.Internal.Correction>
0.0567

> <Gold.Rescore>
     Score         DG    S(hbond)    S(metal)    S(lipo)     H(rot)  DE(clash)    DE(int)     intcor
     18.71     -19.28       3.43        0.00      60.91       1.87       0.10       0.47       ----

> <Gold.Chemscore.Fitness>
18.7072

> <Gold.Chemscore.DG>
-19.2828

> <Gold.Chemscore.ZeroCoef>
-5.4800

> <Gold.Chemscore.Hbond>
3.4314

> <Gold.Chemscore.Metal>
0.0000

> <Gold.Chemscore.Lipo>
60.9090

> <Gold.Chemscore.Internal_Hbond>
0.0000

> <Gold.Chemscore.DEClash>
0.1045

> <Gold.Chemscore.DEInternal>
0.4711

> <Gold.Chemscore.Rot>
1.8689

> <Gold.Chemscore.Internal.Correction>
   9.000000E+99

> <Gold.Chemscore.Hbonds>
donor molecule, donor type, donor heavy atom, donor atom, acceptor molecule, acceptor atom, score
      L1  H     1    19       P1  7957  0.61
      L1  H     1    20       P1  7948  0.85
      P1  H  6896  6909       L1     9  0.33
      P1  H  7989  7998       L1     3  0.94

> <Gold.Chemscore.Hbond.Weighted>
-11.4609

> <Gold.Chemscore.Metal.Weighted>
-0.0000

> <Gold.Chemscore.Lipo.Weighted>
-7.1264

> <Gold.Chemscore.Internal_Hbond.Weighted>
0.0000

> <Gold.Chemscore.DEClash.Weighted>
0.1045

> <Gold.Chemscore.DEInternal.Weighted>
0.4711

> <Gold.Chemscore.Rot.Weighted>
4.7844

> <Gold.Chemscore.Internal.Correction.Weighted>
   9.000000E+99

> <Gold.Protein.RotatedTorsions>
[ 6907 6896 6895 6894 ] final   42.26 input  -60.11 | X-H torsion
[ 7974 7965 7964 7962 ] final  -82.60 input  175.53 | X-H torsion
[ 8008 7997 7996 7995 ] final  164.87 input   59.86 | X-H torsion
[ 10167 10162 10161 10158 ] final  176.72 input  -65.29 | X-H torsion
[ 10718 10713 10712 10709 ] final   14.22 input   66.30 | X-H torsion
[ 10763 10752 10751 10750 ] final -145.52 input  -60.55 | X-H torsion
[ 11005 11000 10999 10996 ] final   43.18 input  -57.11 | X-H torsion

> <Gold.Protein.ActiveResidues>
 VAL166  LYS551  ARG553  GLY616  TRP617  ASP618  TYR619  PRO620  LYS621  CYS622 
 ASP623  PHE694  ASN695  SER759  ASP760  ASP761  ALA762  ILE779  LEU786  VAL792 
 PHE793  MET794  SER795  GLU796  ALA797  LYS798  CYS799  TRP800  GLU811  SER814 

> <Gold.Protein.RotatedAtoms>
  152.2056  134.8548  160.0502 H   0  0  0  0  0  0  0  0  0  0  0  0  # atno 6907 bound_to 6896
  151.9386  133.3626  159.3965 H   0  0  0  0  0  0  0  0  0  0  0  0  # atno 6908 bound_to 6896
  150.6964  134.4387  159.5326 H   0  0  0  0  0  0  0  0  0  0  0  0  # atno 6909 bound_to 6896
  145.5311  140.9521  143.1602 H   0  0  0  0  0  0  0  0  0  0  0  0  # atno 7974 bound_to 7965
  156.1846  140.1685  156.8210 H   0  0  0  0  0  0  0  0  0  0  0  0  # atno 8008 bound_to 7997
  154.5399  140.0739  156.8524 H   0  0  0  0  0  0  0  0  0  0  0  0  # atno 8009 bound_to 7997
  155.3236  140.3375  155.4243 H   0  0  0  0  0  0  0  0  0  0  0  0  # atno 8010 bound_to 7997
  139.5225  144.2882  152.0487 H   0  0  0  0  0  0  0  0  0  0  0  0  # atno 10167 bound_to 10162
  157.0360  130.6212  149.5743 H   0  0  0  0  0  0  0  0  0  0  0  0  # atno 10718 bound_to 10713
  154.8380  135.3411  154.6516 H   0  0  0  0  0  0  0  0  0  0  0  0  # atno 10763 bound_to 10752
  153.7129  135.6963  153.5037 H   0  0  0  0  0  0  0  0  0  0  0  0  # atno 10764 bound_to 10752
  153.2438  135.4376  155.0679 H   0  0  0  0  0  0  0  0  0  0  0  0  # atno 10765 bound_to 10752
  140.1669  134.4271  155.8282 H   0  0  0  0  0  0  0  0  0  0  0  0  # atno 11005 bound_to 11000
  144.7625  139.6922  143.7228 LP  0  0  0  0  0  0  0  0  0  0  0  0  # atno 17320 bound_to 7965
  146.2043  139.5358  142.9722 LP  0  0  0  0  0  0  0  0  0  0  0  0  # atno 17321 bound_to 7965
  140.2334  144.4345  150.6290 LP  0  0  0  0  0  0  0  0  0  0  0  0  # atno 17342 bound_to 10162
  140.6340  143.2192  151.6435 LP  0  0  0  0  0  0  0  0  0  0  0  0  # atno 17343 bound_to 10162
  156.0054  130.5139  150.7810 LP  0  0  0  0  0  0  0  0  0  0  0  0  # atno 17370 bound_to 10713
  157.5141  131.0927  151.0161 LP  0  0  0  0  0  0  0  0  0  0  0  0  # atno 17371 bound_to 10713
  141.2214  133.6938  156.7694 LP  0  0  0  0  0  0  0  0  0  0  0  0  # atno 17394 bound_to 11000
  140.2423  134.8604  157.3586 LP  0  0  0  0  0  0  0  0  0  0  0  0  # atno 17395 bound_to 11000

$$$$
