AV-unprocessed.smi:695|AV-procd|sdf|3384|dock5
  -GOLD-   22720 0363D 1   1.00000     0.00000
 Structure written by MMmdl.
 38 39  0  0  0  0  0  0  0  0  1 V2000
  148.8332  132.9729  153.2017 C   0  0  0  0  0  0  0  0  0  0  0  0
  148.7065  133.8204  154.4749 C   0  0  0  0  0  0  0  0  0  0  0  0
  149.5081  135.0346  154.3846 N   0  0  0  0  0  0  0  0  0  0  0  0
  150.4427  135.4021  155.2719 C   0  0  0  0  0  0  0  0  0  0  0  0
  150.7683  134.7270  156.2487 O   0  0  0  0  0  0  0  0  0  0  0  0
  150.9578  136.6057  154.9813 N   0  0  0  0  0  0  0  0  0  0  0  0
  151.9455  137.3214  155.7860 C   0  0  0  0  0  0  0  0  0  0  0  0
  152.3723  138.6566  155.1438 C   0  0  0  0  0  0  0  0  0  0  0  0
  152.0211  139.8585  155.9712 C   0  0  0  0  0  0  0  0  0  0  0  0
  151.1203  140.8452  155.6530 C   0  0  0  0  0  0  0  0  0  0  0  0
  150.9659  142.0216  156.9283 S   0  0  0  0  0  0  0  0  0  0  0  0
  152.1676  141.1257  157.8528 C   0  0  0  0  0  0  0  0  0  0  0  0
  152.5853  141.5341  159.1161 N   0  0  0  0  0  0  0  0  0  0  0  0
  152.4890  142.8847  159.6613 C   0  0  0  0  0  0  0  0  0  0  0  0
  152.7760  142.8030  161.1582 C   0  0  0  0  0  0  0  0  0  0  0  0
  153.7352  141.6313  161.2361 C   0  0  0  0  0  0  0  0  0  0  0  0
  153.2057  140.7041  160.1443 C   0  0  0  0  0  0  0  0  0  0  0  0
  152.6197  140.0393  157.2218 N   0  0  0  0  0  0  0  0  0  0  0  0
  148.2557  132.0526  153.2900 H   0  0  0  0  0  0  0  0  0  0  0  0
  149.8712  132.6969  153.0140 H   0  0  0  0  0  0  0  0  0  0  0  0
  148.4664  133.5114  152.3272 H   0  0  0  0  0  0  0  0  0  0  0  0
  147.6607  134.0672  154.6645 H   0  0  0  0  0  0  0  0  0  0  0  0
  149.0511  133.2470  155.3355 H   0  0  0  0  0  0  0  0  0  0  0  0
  149.3126  135.6542  153.6121 H   0  0  0  0  0  0  0  0  0  0  0  0
  150.6214  137.0766  154.1543 H   0  0  0  0  0  0  0  0  0  0  0  0
  151.5678  137.4917  156.7958 H   0  0  0  0  0  0  0  0  0  0  0  0
  152.8178  136.6768  155.8943 H   0  0  0  0  0  0  0  0  0  0  0  0
  153.4481  138.6351  154.9659 H   0  0  0  0  0  0  0  0  0  0  0  0
  151.9147  138.7404  154.1574 H   0  0  0  0  0  0  0  0  0  0  0  0
  150.5241  140.9385  154.7575 H   0  0  0  0  0  0  0  0  0  0  0  0
  153.2303  143.5112  159.1638 H   0  0  0  0  0  0  0  0  0  0  0  0
  151.5063  143.3168  159.4706 H   0  0  0  0  0  0  0  0  0  0  0  0
  153.1903  143.7265  161.5632 H   0  0  0  0  0  0  0  0  0  0  0  0
  151.8598  142.5713  161.7031 H   0  0  0  0  0  0  0  0  0  0  0  0
  154.7451  141.9610  160.9885 H   0  0  0  0  0  0  0  0  0  0  0  0
  153.7609  141.1610  162.2193 H   0  0  0  0  0  0  0  0  0  0  0  0
  152.4479  140.0327  160.5495 H   0  0  0  0  0  0  0  0  0  0  0  0
  154.0055  140.0914  159.7274 H   0  0  0  0  0  0  0  0  0  0  0  0
  1  2  1  0  0  0  0
  1 19  1  0  0  0  0
  1 20  1  0  0  0  0
  1 21  1  0  0  0  0
  2  3  1  0  0  0  0
  2 22  1  0  0  0  0
  2 23  1  0  0  0  0
  3  4  1  0  0  0  0
  3 24  1  0  0  0  0
  4  5  2  0  0  0  0
  4  6  1  0  0  0  0
  6  7  1  0  0  0  0
  6 25  1  0  0  0  0
  7  8  1  0  0  0  0
  7 26  1  0  0  0  0
  7 27  1  0  0  0  0
  8  9  1  0  0  0  0
  8 28  1  0  0  0  0
  8 29  1  0  0  0  0
  9 18  1  0  0  0  0
  9 10  2  0  0  0  0
 10 11  1  0  0  0  0
 10 30  1  0  0  0  0
 11 12  1  0  0  0  0
 12 13  1  0  0  0  0
 12 18  2  0  0  0  0
 13 17  1  0  0  0  0
 13 14  1  0  0  0  0
 14 15  1  0  0  0  0
 14 31  1  0  0  0  0
 14 32  1  0  0  0  0
 15 16  1  0  0  0  0
 15 33  1  0  0  0  0
 15 34  1  0  0  0  0
 16 17  1  0  0  0  0
 16 35  1  0  0  0  0
 16 36  1  0  0  0  0
 17 37  1  0  0  0  0
 17 38  1  0  0  0  0
M  END
> <s_m_source_file>
AV-unprocessed.smi

> <i_m_source_file_index>
695

> <i_lp_mmshare_version>
43012

> <i_f3d_flags>
0

> <s_epik_input>
W0NIM11bQ0gyXVtOSF1DKD1PKVtOSF1bQ0gyXVtDSDJdYzFbY0hdc2MobjEpTjJbQ0gyXVtDSDJdW0NIMl1bQ0gyXTI=

> <s_epik_cmdline>
J2VwaWtfcHl0aG9uJywgJy1waCcsICc3LjAnLCAnLXRuJywgJzgnLCAnLW1hJywgJzIwMCcsICctbWV0YWxfYmluZGluZycsICctaW1hZScsICc8aW5maWxlLm1hZT4nLCAnLW9tYWUnLCAnPG91dGZpbGUubWFlPic=

> <r_epik_Ionization_Penalty>
0.166233

> <r_epik_Ionization_Penalty_Charging>
0

> <r_epik_Ionization_Penalty_Neutral>
0.166233

> <r_epik_State_Penalty>
0.155475

> <r_epik_Charging_Adjusted_Penalty>
0.155475

> <i_epik_Tot_Q>
0

> <i_epik_Tot_abs_Q>
0

> <r_epik_Metal_State_Penalty>
0.121092

> <b_epik_Metal_Only>
0

> <s_lp_Force_Field>
OPLS_2005

> <r_lp_Energy>
13.2485

> <b_lp_Chiralities_Consistent>
1

> <s_lp_Variant>
AV-unprocessed.smi:695-1

> <Gold.Version>
5.8.1

> <Gold.Id.Protein>
6NUR|6NUR_protein|mol2

> <Gold.PLP.Fitness>
46.0206

> <Gold.PLP.PLP>
-41.2239

> <Gold.PLP.part.hbond>
-2.0000

> <Gold.PLP.part.metal>
0.0000

> <Gold.PLP.part.buried>
-3.3272

> <Gold.PLP.part.nonpolar>
-35.1510

> <Gold.PLP.part.repulsive>
0.1321

> <Gold.PLP.ligand.clash>
0.0000

> <Gold.PLP.ligand.torsion>
0.6212

> <Gold.PLP.Chemscore.Hbond>
2.0000

> <Gold.PLP.Chemscore.CHOScore>
0.0000

> <Gold.PLP.Chemscore.Metal>
0.0000

> <Gold.Chemscore.Hbonds>
donor molecule, donor type, donor heavy atom, donor atom, acceptor molecule, acceptor atom, score
      L1  H     3    24       P1  7948  1.00
      P1  H  7997  8010       L1    18  0.70

> <Gold.PLP.Chemscore.Internal.Correction>
0.0391

> <Gold.Rescore>
     Score         DG    S(hbond)    S(metal)    S(lipo)     H(rot)  DE(clash)    DE(int)     intcor
     16.67     -17.48       1.75        0.00      89.85       1.70       0.19       0.62       ----

> <Gold.Chemscore.Fitness>
16.6669

> <Gold.Chemscore.DG>
-17.4805

> <Gold.Chemscore.ZeroCoef>
-5.4800

> <Gold.Chemscore.Hbond>
1.7457

> <Gold.Chemscore.Metal>
0.0000

> <Gold.Chemscore.Lipo>
89.8511

> <Gold.Chemscore.Internal_Hbond>
0.0000

> <Gold.Chemscore.DEClash>
0.1913

> <Gold.Chemscore.DEInternal>
0.6223

> <Gold.Chemscore.Rot>
1.6963

> <Gold.Chemscore.Internal.Correction>
   9.000000E+99

> <Gold.Chemscore.Hbonds>
donor molecule, donor type, donor heavy atom, donor atom, acceptor molecule, acceptor atom, score
      L1  H     3    24       P1  7948  0.50
      P1  H  7997  8010       L1    18  0.07

> <Gold.Chemscore.Hbond.Weighted>
-5.8306

> <Gold.Chemscore.Metal.Weighted>
-0.0000

> <Gold.Chemscore.Lipo.Weighted>
-10.5126

> <Gold.Chemscore.Internal_Hbond.Weighted>
0.0000

> <Gold.Chemscore.DEClash.Weighted>
0.1913

> <Gold.Chemscore.DEInternal.Weighted>
0.6223

> <Gold.Chemscore.Rot.Weighted>
4.3426

> <Gold.Chemscore.Internal.Correction.Weighted>
   9.000000E+99

> <Gold.Protein.RotatedTorsions>
[ 6907 6896 6895 6894 ] final   20.86 input  -60.11 | X-H torsion
[ 7974 7965 7964 7962 ] final -142.72 input  175.53 | X-H torsion
[ 8008 7997 7996 7995 ] final   67.73 input   59.86 | X-H torsion
[ 10167 10162 10161 10158 ] final   -6.27 input  -65.29 | X-H torsion
[ 10718 10713 10712 10709 ] final -110.41 input   66.30 | X-H torsion
[ 10763 10752 10751 10750 ] final  107.08 input  -60.55 | X-H torsion
[ 11005 11000 10999 10996 ] final  -96.80 input  -57.11 | X-H torsion

> <Gold.Protein.ActiveResidues>
 VAL166  LYS551  ARG553  GLY616  TRP617  ASP618  TYR619  PRO620  LYS621  CYS622 
 ASP623  PHE694  ASN695  SER759  ASP760  ASP761  ALA762  ILE779  LEU786  VAL792 
 PHE793  MET794  SER795  GLU796  ALA797  LYS798  CYS799  TRP800  GLU811  SER814 

> <Gold.Protein.RotatedAtoms>
  151.9029  135.0371  160.0507 H   0  0  0  0  0  0  0  0  0  0  0  0  # atno 6907 bound_to 6896
  152.2343  133.5079  159.5242 H   0  0  0  0  0  0  0  0  0  0  0  0  # atno 6908 bound_to 6896
  150.7034  134.1091  159.4036 H   0  0  0  0  0  0  0  0  0  0  0  0  # atno 6909 bound_to 6896
  144.8422  140.5923  143.5445 H   0  0  0  0  0  0  0  0  0  0  0  0  # atno 7974 bound_to 7965
  155.6973  140.3495  155.4918 H   0  0  0  0  0  0  0  0  0  0  0  0  # atno 8008 bound_to 7997
  155.9471  140.1112  157.1030 H   0  0  0  0  0  0  0  0  0  0  0  0  # atno 8009 bound_to 7997
  154.4114  140.1201  156.4990 H   0  0  0  0  0  0  0  0  0  0  0  0  # atno 8010 bound_to 7997
  140.6991  143.6213  150.8610 H   0  0  0  0  0  0  0  0  0  0  0  0  # atno 10167 bound_to 10162
  156.0589  130.5814  150.8233 H   0  0  0  0  0  0  0  0  0  0  0  0  # atno 10718 bound_to 10713
  153.4018  135.3856  155.1992 H   0  0  0  0  0  0  0  0  0  0  0  0  # atno 10763 bound_to 10752
  154.8730  135.3773  154.4610 H   0  0  0  0  0  0  0  0  0  0  0  0  # atno 10764 bound_to 10752
  153.5108  135.7087  153.5844 H   0  0  0  0  0  0  0  0  0  0  0  0  # atno 10765 bound_to 10752
  141.1400  133.8124  157.0620 H   0  0  0  0  0  0  0  0  0  0  0  0  # atno 11005 bound_to 11000
  145.4670  139.1507  143.3835 LP  0  0  0  0  0  0  0  0  0  0  0  0  # atno 17320 bound_to 7965
  146.2713  140.4802  142.8813 LP  0  0  0  0  0  0  0  0  0  0  0  0  # atno 17321 bound_to 7965
  139.9934  143.5823  152.2902 LP  0  0  0  0  0  0  0  0  0  0  0  0  # atno 17342 bound_to 10162
  139.6486  144.7659  151.2194 LP  0  0  0  0  0  0  0  0  0  0  0  0  # atno 17343 bound_to 10162
  157.5582  131.0945  150.9598 LP  0  0  0  0  0  0  0  0  0  0  0  0  # atno 17370 bound_to 10713
  156.9841  130.5538  149.5298 LP  0  0  0  0  0  0  0  0  0  0  0  0  # atno 17371 bound_to 10713
  140.0565  134.9778  157.1229 LP  0  0  0  0  0  0  0  0  0  0  0  0  # atno 17394 bound_to 11000
  140.3912  134.2183  155.7166 LP  0  0  0  0  0  0  0  0  0  0  0  0  # atno 17395 bound_to 11000

$$$$
