AV-unprocessed.smi:904|AV-procd|sdf|4097|dock4
  -GOLD-   22720 1583D 1   1.00000     0.00000
 Structure written by MMmdl.
 42 43  0  0  0  0  0  0  0  0  1 V2000
  149.5427  135.7437  156.9194 C   0  0  0  0  0  0  0  0  0  0  0  0
  149.8032  134.2815  156.6956 C   0  0  0  0  0  0  0  0  0  0  0  0
  150.2345  133.5368  157.7000 N   0  0  0  0  0  0  0  0  0  0  0  0
  150.3697  132.3010  157.1789 N   0  0  0  0  0  0  0  0  0  0  0  0
  150.8325  131.2191  158.0261 C   0  0  0  0  0  0  0  0  0  0  0  0
  150.0205  132.2639  155.8429 C   0  0  0  0  0  0  0  0  0  0  0  0
  150.0917  131.0060  155.0381 C   0  0  0  0  0  0  0  0  0  0  0  0
  149.6458  133.5339  155.4918 C   0  0  0  0  0  0  0  0  0  0  0  0
  149.1765  134.0479  154.1529 C   0  0  0  0  0  0  0  0  0  0  0  0
  148.0500  133.1663  153.6103 C   0  0  0  0  0  0  0  0  0  0  0  0
  147.7276  132.1417  154.2112 O   0  0  0  0  0  0  0  0  0  0  0  0
  147.4688  133.5693  152.4691 N   0  0  0  0  0  0  0  0  0  0  0  0
  146.3842  132.8789  151.7798 C   0  0  2  0  0  0  0  0  0  0  0  0
  146.8380  132.4330  150.3746 C   0  0  0  0  0  0  0  0  0  0  0  0
  145.6875  131.7782  149.5937 C   0  0  0  0  0  0  0  0  0  0  0  0
  144.4722  132.7172  149.5083 C   0  0  1  0  0  0  0  0  0  0  0  0
  143.4138  132.0609  148.8432 O   0  0  0  0  0  0  0  0  0  0  0  0
  144.0091  133.1515  150.9093 C   0  0  0  0  0  0  0  0  0  0  0  0
  145.1575  133.8068  151.6936 C   0  0  0  0  0  0  0  0  0  0  0  0
  150.0144  136.3472  156.1437 H   0  0  0  0  0  0  0  0  0  0  0  0
  149.9311  136.0816  157.8807 H   0  0  0  0  0  0  0  0  0  0  0  0
  148.4735  135.9550  156.9004 H   0  0  0  0  0  0  0  0  0  0  0  0
  151.6592  130.6993  157.5417 H   0  0  0  0  0  0  0  0  0  0  0  0
  150.0183  130.5144  158.1952 H   0  0  0  0  0  0  0  0  0  0  0  0
  151.1747  131.6028  158.9882 H   0  0  0  0  0  0  0  0  0  0  0  0
  149.6567  131.1415  154.0483 H   0  0  0  0  0  0  0  0  0  0  0  0
  149.5513  130.1974  155.5308 H   0  0  0  0  0  0  0  0  0  0  0  0
  151.1270  130.6912  154.9067 H   0  0  0  0  0  0  0  0  0  0  0  0
  148.8174  135.0749  154.2173 H   0  0  0  0  0  0  0  0  0  0  0  0
  149.9942  134.0631  153.4311 H   0  0  0  0  0  0  0  0  0  0  0  0
  147.7992  134.4271  152.0514 H   0  0  0  0  0  0  0  0  0  0  0  0
  146.0980  131.9954  152.3541 H   0  0  0  0  0  0  0  0  0  0  0  0
  147.2097  133.2929  149.8155 H   0  0  0  0  0  0  0  0  0  0  0  0
  147.6708  131.7331  150.4528 H   0  0  0  0  0  0  0  0  0  0  0  0
  146.0268  131.5102  148.5925 H   0  0  0  0  0  0  0  0  0  0  0  0
  145.4036  130.8462  150.0850 H   0  0  0  0  0  0  0  0  0  0  0  0
  144.7377  133.6001  148.9250 H   0  0  0  0  0  0  0  0  0  0  0  0
  142.7049  132.6749  148.7270 H   0  0  0  0  0  0  0  0  0  0  0  0
  143.1733  133.8478  150.8294 H   0  0  0  0  0  0  0  0  0  0  0  0
  143.6408  132.2869  151.4637 H   0  0  0  0  0  0  0  0  0  0  0  0
  144.8153  134.0669  152.6960 H   0  0  0  0  0  0  0  0  0  0  0  0
  145.4351  134.7440  151.2090 H   0  0  0  0  0  0  0  0  0  0  0  0
  1  2  1  0  0  0  0
  1 20  1  0  0  0  0
  1 21  1  0  0  0  0
  1 22  1  0  0  0  0
  2  8  1  0  0  0  0
  2  3  2  0  0  0  0
  3  4  1  0  0  0  0
  4  5  1  0  0  0  0
  4  6  1  0  0  0  0
  5 23  1  0  0  0  0
  5 24  1  0  0  0  0
  5 25  1  0  0  0  0
  6  7  1  0  0  0  0
  6  8  2  0  0  0  0
  7 26  1  0  0  0  0
  7 27  1  0  0  0  0
  7 28  1  0  0  0  0
  8  9  1  0  0  0  0
  9 10  1  0  0  0  0
  9 29  1  0  0  0  0
  9 30  1  0  0  0  0
 10 11  2  0  0  0  0
 10 12  1  0  0  0  0
 12 13  1  0  0  0  0
 12 31  1  0  0  0  0
 13 19  1  0  0  0  0
 13 14  1  0  0  0  0
 13 32  1  0  0  0  0
 14 15  1  0  0  0  0
 14 33  1  0  0  0  0
 14 34  1  0  0  0  0
 15 16  1  0  0  0  0
 15 35  1  0  0  0  0
 15 36  1  0  0  0  0
 16 17  1  0  0  0  0
 16 18  1  0  0  0  0
 16 37  1  0  0  0  0
 17 38  1  0  0  0  0
 18 19  1  0  0  0  0
 18 39  1  0  0  0  0
 18 40  1  0  0  0  0
 19 41  1  0  0  0  0
 19 42  1  0  0  0  0
M  END
> <s_m_source_file>
AV-unprocessed.smi

> <i_m_source_file_index>
904

> <i_lp_mmshare_version>
43012

> <i_f3d_flags>
0

> <s_epik_input>
W0NIM11jMW5uKFtDSDNdKWMoW0NIM10pYzFbQ0gyXUMoPU8pW05IXVtDQEBIXTJbQ0gyXVtDSDJdW0NAQEhdKFtPSF0pW0NIMl1bQ0gyXTI=

> <s_epik_cmdline>
J2VwaWtfcHl0aG9uJywgJy1waCcsICc3LjAnLCAnLXRuJywgJzgnLCAnLW1hJywgJzIwMCcsICctbWV0YWxfYmluZGluZycsICctaW1hZScsICc8aW5maWxlLm1hZT4nLCAnLW9tYWUnLCAnPG91dGZpbGUubWFlPic=

> <r_lp_tautomer_probability>
1

> <r_epik_Ionization_Penalty>
0.00340889

> <r_epik_Ionization_Penalty_Charging>
0

> <r_epik_Ionization_Penalty_Neutral>
0.00340889

> <r_epik_State_Penalty>
0.00241397

> <r_epik_Charging_Adjusted_Penalty>
0.00241397

> <i_epik_Tot_Q>
0

> <i_epik_Tot_abs_Q>
0

> <r_epik_Metal_State_Penalty>
-0

> <b_epik_Metal_Only>
0

> <s_lp_Force_Field>
OPLS_2005

> <r_lp_Energy>
1.52997

> <b_lp_Chiralities_Consistent>
1

> <s_lp_Variant>
AV-unprocessed.smi:904-1

> <Gold.Version>
5.8.1

> <Gold.Id.Protein>
6NUR|6NUR_protein|mol2

> <Gold.PLP.Fitness>
45.8009

> <Gold.PLP.PLP>
-36.1602

> <Gold.PLP.part.hbond>
-4.3936

> <Gold.PLP.part.metal>
0.0000

> <Gold.PLP.part.buried>
-3.5654

> <Gold.PLP.part.nonpolar>
-28.2536

> <Gold.PLP.part.repulsive>
0.0763

> <Gold.PLP.ligand.clash>
0.0001

> <Gold.PLP.ligand.torsion>
0.1074

> <Gold.PLP.Chemscore.Hbond>
3.2839

> <Gold.PLP.Chemscore.CHOScore>
0.0000

> <Gold.PLP.Chemscore.Metal>
0.0000

> <Gold.Chemscore.Hbonds>
donor molecule, donor type, donor heavy atom, donor atom, acceptor molecule, acceptor atom, score
      L1  H    12    31       P1  7948  0.83
      P1  H  6896  6909       L1     3  0.83
      P1  H 10785 10796       L1    17  0.88

> <Gold.PLP.Chemscore.Internal.Correction>
0.0040

> <Gold.Rescore>
     Score         DG    S(hbond)    S(metal)    S(lipo)     H(rot)  DE(clash)    DE(int)     intcor
     16.46     -19.06       2.66        0.00      80.40       1.84       1.10       1.49       ----

> <Gold.Chemscore.Fitness>
16.4612

> <Gold.Chemscore.DG>
-19.0588

> <Gold.Chemscore.ZeroCoef>
-5.4800

> <Gold.Chemscore.Hbond>
2.6600

> <Gold.Chemscore.Metal>
0.0000

> <Gold.Chemscore.Lipo>
80.3959

> <Gold.Chemscore.Internal_Hbond>
0.0000

> <Gold.Chemscore.DEClash>
1.1033

> <Gold.Chemscore.DEInternal>
1.4944

> <Gold.Chemscore.Rot>
1.8406

> <Gold.Chemscore.Internal.Correction>
   9.000000E+99

> <Gold.Chemscore.Hbonds>
donor molecule, donor type, donor heavy atom, donor atom, acceptor molecule, acceptor atom, score
      L1  H    12    31       P1  7948  0.24
      P1  H  6896  6909       L1     3  0.42
      P1  H 10785 10796       L1    17  0.85

> <Gold.Chemscore.Hbond.Weighted>
-8.8843

> <Gold.Chemscore.Metal.Weighted>
-0.0000

> <Gold.Chemscore.Lipo.Weighted>
-9.4063

> <Gold.Chemscore.Internal_Hbond.Weighted>
0.0000

> <Gold.Chemscore.DEClash.Weighted>
1.1033

> <Gold.Chemscore.DEInternal.Weighted>
1.4944

> <Gold.Chemscore.Rot.Weighted>
4.7118

> <Gold.Chemscore.Internal.Correction.Weighted>
   9.000000E+99

> <Gold.Protein.RotatedTorsions>
[ 6907 6896 6895 6894 ] final  -26.57 input  -60.11 | X-H torsion
[ 7974 7965 7964 7962 ] final  -30.61 input  175.53 | X-H torsion
[ 8008 7997 7996 7995 ] final  147.97 input   59.86 | X-H torsion
[ 10167 10162 10161 10158 ] final -142.83 input  -65.29 | X-H torsion
[ 10718 10713 10712 10709 ] final -171.19 input   66.30 | X-H torsion
[ 10763 10752 10751 10750 ] final   -7.79 input  -60.55 | X-H torsion
[ 11005 11000 10999 10996 ] final -150.73 input  -57.11 | X-H torsion

> <Gold.Protein.ActiveResidues>
 VAL166  LYS551  ARG553  GLY616  TRP617  ASP618  TYR619  PRO620  LYS621  CYS622 
 ASP623  PHE694  ASN695  SER759  ASP760  ASP761  ALA762  ILE779  LEU786  VAL792 
 PHE793  MET794  SER795  GLU796  ALA797  LYS798  CYS799  TRP800  GLU811  SER814 

> <Gold.Protein.RotatedAtoms>
  151.1591  135.0265  159.8702 H   0  0  0  0  0  0  0  0  0  0  0  0  # atno 6907 bound_to 6896
  152.5452  134.1299  159.8445 H   0  0  0  0  0  0  0  0  0  0  0  0  # atno 6908 bound_to 6896
  151.1393  133.4936  159.2630 H   0  0  0  0  0  0  0  0  0  0  0  0  # atno 6909 bound_to 6896
  146.1130  140.5562  142.8769 H   0  0  0  0  0  0  0  0  0  0  0  0  # atno 7974 bound_to 7965
  156.2807  140.2141  156.5623 H   0  0  0  0  0  0  0  0  0  0  0  0  # atno 8008 bound_to 7997
  154.7203  140.0504  157.0655 H   0  0  0  0  0  0  0  0  0  0  0  0  # atno 8009 bound_to 7997
  155.0488  140.3154  155.4702 H   0  0  0  0  0  0  0  0  0  0  0  0  # atno 8010 bound_to 7997
  139.8051  143.7779  152.2660 H   0  0  0  0  0  0  0  0  0  0  0  0  # atno 10167 bound_to 10162
  156.7372  130.9328  151.3108 H   0  0  0  0  0  0  0  0  0  0  0  0  # atno 10718 bound_to 10713
  153.4314  135.7012  153.6228 H   0  0  0  0  0  0  0  0  0  0  0  0  # atno 10763 bound_to 10752
  153.4641  135.3729  155.2355 H   0  0  0  0  0  0  0  0  0  0  0  0  # atno 10764 bound_to 10752
  154.8725  135.4027  154.3698 H   0  0  0  0  0  0  0  0  0  0  0  0  # atno 10765 bound_to 10752
  140.7370  134.3556  157.5155 H   0  0  0  0  0  0  0  0  0  0  0  0  # atno 11005 bound_to 11000
  144.7528  140.5233  143.6790 LP  0  0  0  0  0  0  0  0  0  0  0  0  # atno 17320 bound_to 7965
  145.5625  139.1480  143.3333 LP  0  0  0  0  0  0  0  0  0  0  0  0  # atno 17321 bound_to 7965
  139.7911  144.7410  150.9953 LP  0  0  0  0  0  0  0  0  0  0  0  0  # atno 17342 bound_to 10162
  140.7819  143.4441  151.0508 LP  0  0  0  0  0  0  0  0  0  0  0  0  # atno 17343 bound_to 10162
  157.6834  130.9162  150.0324 LP  0  0  0  0  0  0  0  0  0  0  0  0  # atno 17370 bound_to 10713
  156.1489  130.3642  149.9468 LP  0  0  0  0  0  0  0  0  0  0  0  0  # atno 17371 bound_to 10713
  139.8814  134.9056  156.2903 LP  0  0  0  0  0  0  0  0  0  0  0  0  # atno 17394 bound_to 11000
  140.9870  133.7232  156.0757 LP  0  0  0  0  0  0  0  0  0  0  0  0  # atno 17395 bound_to 11000

$$$$
