AV-unprocessed.smi:2510|AV-procd|sdf|9879|dock10
  -GOLD-   2272013513D 1   1.00000     0.00000
 Structure written by MMmdl.
 48 49  0  0  0  0  0  0  0  0  1 V2000
  151.5840  137.1382  154.4738 C   0  0  0  0  0  0  0  0  0  0  0  0
  150.6424  137.6409  155.5772 C   0  0  0  0  0  0  0  0  0  0  0  0
  149.2664  136.9425  155.6515 C   0  0  0  0  0  0  0  0  0  0  0  0
  148.3533  137.5607  154.5458 C   0  0  0  0  0  0  0  0  0  0  0  0
  148.3388  139.0964  154.4527 C   0  0  0  0  0  0  0  0  0  0  0  0
  149.3559  135.3882  155.6893 C   0  0  2  0  0  0  0  0  0  0  0  0
  149.0841  134.7229  154.4212 N   0  0  0  0  0  0  0  0  0  0  0  0
  148.9079  133.4007  154.2791 C   0  0  0  0  0  0  0  0  0  0  0  0
  148.8228  132.6204  155.2270 O   0  0  0  0  0  0  0  0  0  0  0  0
  148.8554  132.8757  152.8445 C   0  0  0  0  0  0  0  0  0  0  0  0
  147.5511  133.2379  152.2072 C   0  0  0  0  0  0  0  0  0  0  0  0
  146.4745  132.4719  151.8559 C   0  0  0  0  0  0  0  0  0  0  0  0
  145.5666  133.3927  151.2560 C   0  0  0  0  0  0  0  0  0  0  0  0
  144.2166  133.1105  150.6660 C   0  0  0  0  0  0  0  0  0  0  0  0
  146.0364  134.6313  151.2445 N   0  0  0  0  0  0  0  0  0  0  0  0
  147.2437  134.5256  151.8294 N   0  0  0  0  0  0  0  0  0  0  0  0
  148.1560  135.3779  156.6425 C   0  0  1  0  0  0  0  0  0  0  0  0
  148.0076  134.2552  157.6613 C   0  0  0  0  0  0  0  0  0  0  0  0
  148.6391  136.7782  157.0682 C   0  0  1  0  0  0  0  0  0  0  0  0
  149.6360  136.7279  158.0851 O   0  0  0  0  0  0  0  0  0  0  0  0
  149.1050  136.4947  159.3783 C   0  0  0  0  0  0  0  0  0  0  0  0
  147.8420  135.3295  151.9564 H   0  0  0  0  0  0  0  0  0  0  0  0
  152.4459  137.7991  154.3791 H   0  0  0  0  0  0  0  0  0  0  0  0
  151.0863  137.1056  153.5043 H   0  0  0  0  0  0  0  0  0  0  0  0
  151.9701  136.1449  154.6979 H   0  0  0  0  0  0  0  0  0  0  0  0
  151.1549  137.5748  156.5376 H   0  0  0  0  0  0  0  0  0  0  0  0
  150.4996  138.7105  155.4200 H   0  0  0  0  0  0  0  0  0  0  0  0
  148.6195  137.1595  153.5672 H   0  0  0  0  0  0  0  0  0  0  0  0
  147.3137  137.2645  154.6812 H   0  0  0  0  0  0  0  0  0  0  0  0
  147.8083  139.4157  153.5553 H   0  0  0  0  0  0  0  0  0  0  0  0
  149.3372  139.5269  154.4129 H   0  0  0  0  0  0  0  0  0  0  0  0
  147.8182  139.5404  155.3007 H   0  0  0  0  0  0  0  0  0  0  0  0
  150.2602  135.0241  156.1837 H   0  0  0  0  0  0  0  0  0  0  0  0
  149.1314  135.2900  153.5873 H   0  0  0  0  0  0  0  0  0  0  0  0
  149.6801  133.2978  152.2688 H   0  0  0  0  0  0  0  0  0  0  0  0
  148.9951  131.7939  152.8501 H   0  0  0  0  0  0  0  0  0  0  0  0
  146.3595  131.4068  151.9935 H   0  0  0  0  0  0  0  0  0  0  0  0
  143.9023  132.0874  150.8741 H   0  0  0  0  0  0  0  0  0  0  0  0
  144.2288  133.2401  149.5835 H   0  0  0  0  0  0  0  0  0  0  0  0
  143.4586  133.7793  151.0751 H   0  0  0  0  0  0  0  0  0  0  0  0
  147.2283  135.4878  156.0764 H   0  0  0  0  0  0  0  0  0  0  0  0
  148.9237  134.1084  158.2340 H   0  0  0  0  0  0  0  0  0  0  0  0
  147.7744  133.3101  157.1709 H   0  0  0  0  0  0  0  0  0  0  0  0
  147.2041  134.4662  158.3668 H   0  0  0  0  0  0  0  0  0  0  0  0
  147.8386  137.4811  157.2973 H   0  0  0  0  0  0  0  0  0  0  0  0
  149.9185  136.4265  160.1002 H   0  0  0  0  0  0  0  0  0  0  0  0
  148.5383  135.5645  159.4201 H   0  0  0  0  0  0  0  0  0  0  0  0
  148.4528  137.3136  159.6846 H   0  0  0  0  0  0  0  0  0  0  0  0
  1  2  1  0  0  0  0
  1 23  1  0  0  0  0
  1 24  1  0  0  0  0
  1 25  1  0  0  0  0
  2  3  1  0  0  0  0
  2 26  1  0  0  0  0
  2 27  1  0  0  0  0
  3 19  1  0  0  0  0
  3  4  1  0  0  0  0
  3  6  1  0  0  0  0
  4  5  1  0  0  0  0
  4 28  1  0  0  0  0
  4 29  1  0  0  0  0
  5 30  1  0  0  0  0
  5 31  1  0  0  0  0
  5 32  1  0  0  0  0
  6  7  1  0  0  0  0
  6 17  1  0  0  0  0
  6 33  1  0  0  0  0
  7  8  1  0  0  0  0
  7 34  1  0  0  0  0
  8  9  2  0  0  0  0
  8 10  1  0  0  0  0
 10 35  1  0  0  0  0
 10 36  1  0  0  0  0
 10 11  1  0  0  0  0
 11 16  1  0  0  0  0
 11 12  2  0  0  0  0
 12 13  1  0  0  0  0
 12 37  1  0  0  0  0
 13 14  1  0  0  0  0
 13 15  2  0  0  0  0
 14 38  1  0  0  0  0
 14 39  1  0  0  0  0
 14 40  1  0  0  0  0
 15 16  1  0  0  0  0
 16 22  1  0  0  0  0
 17 18  1  0  0  0  0
 17 19  1  0  0  0  0
 17 41  1  0  0  0  0
 18 42  1  0  0  0  0
 18 43  1  0  0  0  0
 18 44  1  0  0  0  0
 19 20  1  0  0  0  0
 19 45  1  0  0  0  0
 20 21  1  0  0  0  0
 21 46  1  0  0  0  0
 21 47  1  0  0  0  0
 21 48  1  0  0  0  0
M  END
> <s_m_source_file>
AV-unprocessed.smi

> <i_m_source_file_index>
2510

> <i_lp_mmshare_version>
43012

> <i_f3d_flags>
0

> <s_epik_input>
W0NIM11PW0NAQEhdMVtDQEhdKFtDSDNdKVtDQEBIXShDMShbQ0gyXVtDSDNdKVtDSDJdW0NIM10pW05IXUMoPU8pW0NIMl1jMltjSF1jKFtDSDNdKVtuSF1uMg==

> <s_epik_cmdline>
J2VwaWtfcHl0aG9uJywgJy1waCcsICc3LjAnLCAnLXRuJywgJzgnLCAnLW1hJywgJzIwMCcsICctbWV0YWxfYmluZGluZycsICctaW1hZScsICc8aW5maWxlLm1hZT4nLCAnLW9tYWUnLCAnPG91dGZpbGUubWFlPic=

> <r_lp_tautomer_probability>
0.5

> <r_epik_Ionization_Penalty>
0.000134763

> <r_epik_Ionization_Penalty_Charging>
0

> <r_epik_Ionization_Penalty_Neutral>
0.000134763

> <r_epik_State_Penalty>
0.41068

> <r_epik_Charging_Adjusted_Penalty>
0.41068

> <i_epik_Tot_Q>
0

> <i_epik_Tot_abs_Q>
0

> <r_epik_Metal_State_Penalty>
0.410661

> <b_epik_Metal_Only>
0

> <s_lp_Force_Field>
OPLS_2005

> <r_lp_Energy>
26.7648

> <b_lp_Chiralities_Consistent>
1

> <s_lp_Variant>
AV-unprocessed.smi:2510-10

> <Gold.Version>
5.8.1

> <Gold.Id.Protein>
6NUR|6NUR_protein|mol2

> <Gold.PLP.Fitness>
31.5204

> <Gold.PLP.PLP>
-26.8267

> <Gold.PLP.part.hbond>
-1.9667

> <Gold.PLP.part.metal>
0.0000

> <Gold.PLP.part.buried>
-3.7849

> <Gold.PLP.part.nonpolar>
-20.0559

> <Gold.PLP.part.repulsive>
0.1965

> <Gold.PLP.ligand.clash>
0.0000

> <Gold.PLP.ligand.torsion>
0.9868

> <Gold.PLP.Chemscore.Hbond>
1.9920

> <Gold.PLP.Chemscore.CHOScore>
0.0000

> <Gold.PLP.Chemscore.Metal>
0.0000

> <Gold.Chemscore.Hbonds>
donor molecule, donor type, donor heavy atom, donor atom, acceptor molecule, acceptor atom, score
      L1  H     7    34       P1  7948  1.00
      L1  H    16    22       P1  7948  0.65

> <Gold.PLP.Chemscore.Internal.Correction>
0.6913

> <Gold.Rescore>
     Score         DG    S(hbond)    S(metal)    S(lipo)     H(rot)  DE(clash)    DE(int)     intcor
     13.56     -14.68       1.90        0.00      63.99       1.81       0.08       1.04       ----

> <Gold.Chemscore.Fitness>
13.5604

> <Gold.Chemscore.DG>
-14.6775

> <Gold.Chemscore.ZeroCoef>
-5.4800

> <Gold.Chemscore.Hbond>
1.8997

> <Gold.Chemscore.Metal>
0.0000

> <Gold.Chemscore.Lipo>
63.9890

> <Gold.Chemscore.Internal_Hbond>
0.0000

> <Gold.Chemscore.DEClash>
0.0758

> <Gold.Chemscore.DEInternal>
1.0413

> <Gold.Chemscore.Rot>
1.8102

> <Gold.Chemscore.Internal.Correction>
   9.000000E+99

> <Gold.Chemscore.Hbonds>
donor molecule, donor type, donor heavy atom, donor atom, acceptor molecule, acceptor atom, score
      L1  H     7    34       P1  7948  0.44
      L1  H    16    22       P1  7948  0.60

> <Gold.Chemscore.Hbond.Weighted>
-6.3449

> <Gold.Chemscore.Metal.Weighted>
-0.0000

> <Gold.Chemscore.Lipo.Weighted>
-7.4867

> <Gold.Chemscore.Internal_Hbond.Weighted>
0.0000

> <Gold.Chemscore.DEClash.Weighted>
0.0758

> <Gold.Chemscore.DEInternal.Weighted>
1.0413

> <Gold.Chemscore.Rot.Weighted>
4.6341

> <Gold.Chemscore.Internal.Correction.Weighted>
   9.000000E+99

> <Gold.Protein.RotatedTorsions>
[ 6907 6896 6895 6894 ] final  -48.14 input  -60.11 | X-H torsion
[ 7974 7965 7964 7962 ] final  155.21 input  175.53 | X-H torsion
[ 8008 7997 7996 7995 ] final   86.87 input   59.86 | X-H torsion
[ 10167 10162 10161 10158 ] final  -10.89 input  -65.29 | X-H torsion
[ 10718 10713 10712 10709 ] final   91.35 input   66.30 | X-H torsion
[ 10763 10752 10751 10750 ] final -158.77 input  -60.55 | X-H torsion
[ 11005 11000 10999 10996 ] final   30.65 input  -57.11 | X-H torsion

> <Gold.Protein.ActiveResidues>
 VAL166  LYS551  ARG553  GLY616  TRP617  ASP618  TYR619  PRO620  LYS621  CYS622 
 ASP623  PHE694  ASN695  SER759  ASP760  ASP761  ALA762  ILE779  LEU786  VAL792 
 PHE793  MET794  SER795  GLU796  ALA797  LYS798  CYS799  TRP800  GLU811  SER814 

> <Gold.Protein.RotatedAtoms>
  150.8935  134.8341  159.7310 H   0  0  0  0  0  0  0  0  0  0  0  0  # atno 6907 bound_to 6896
  152.4851  134.4611  159.9615 H   0  0  0  0  0  0  0  0  0  0  0  0  # atno 6908 bound_to 6896
  151.4671  133.3539  159.2853 H   0  0  0  0  0  0  0  0  0  0  0  0  # atno 6909 bound_to 6896
  144.8039  139.7037  143.6170 H   0  0  0  0  0  0  0  0  0  0  0  0  # atno 7974 bound_to 7965
  155.9682  140.3388  155.6552 H   0  0  0  0  0  0  0  0  0  0  0  0  # atno 8008 bound_to 7997
  155.6709  140.0727  157.2538 H   0  0  0  0  0  0  0  0  0  0  0  0  # atno 8009 bound_to 7997
  154.4160  140.1691  156.1865 H   0  0  0  0  0  0  0  0  0  0  0  0  # atno 8010 bound_to 7997
  140.7125  143.5699  150.9104 H   0  0  0  0  0  0  0  0  0  0  0  0  # atno 10167 bound_to 10162
  157.6960  131.0404  150.3716 H   0  0  0  0  0  0  0  0  0  0  0  0  # atno 10718 bound_to 10713
  154.7529  135.3097  154.8524 H   0  0  0  0  0  0  0  0  0  0  0  0  # atno 10763 bound_to 10752
  153.9306  135.6785  153.4750 H   0  0  0  0  0  0  0  0  0  0  0  0  # atno 10764 bound_to 10752
  153.1125  135.4859  154.8989 H   0  0  0  0  0  0  0  0  0  0  0  0  # atno 10765 bound_to 10752
  140.2921  134.2852  155.7773 H   0  0  0  0  0  0  0  0  0  0  0  0  # atno 11005 bound_to 11000
  146.2327  139.5844  142.9544 LP  0  0  0  0  0  0  0  0  0  0  0  0  # atno 17320 bound_to 7965
  145.5485  141.0415  143.2291 LP  0  0  0  0  0  0  0  0  0  0  0  0  # atno 17321 bound_to 7965
  139.9425  143.6365  152.3050 LP  0  0  0  0  0  0  0  0  0  0  0  0  # atno 17342 bound_to 10162
  139.6855  144.7652  151.1531 LP  0  0  0  0  0  0  0  0  0  0  0  0  # atno 17343 bound_to 10162
  156.4140  130.3939  149.6871 LP  0  0  0  0  0  0  0  0  0  0  0  0  # atno 17370 bound_to 10713
  156.4146  130.7738  151.2753 LP  0  0  0  0  0  0  0  0  0  0  0  0  # atno 17371 bound_to 10713
  141.2144  133.7592  156.9641 LP  0  0  0  0  0  0  0  0  0  0  0  0  # atno 17394 bound_to 11000
  140.1186  134.9431  157.2170 LP  0  0  0  0  0  0  0  0  0  0  0  0  # atno 17395 bound_to 11000

$$$$
