AV-unprocessed.smi:3319|AV-procd|sdf|12767|dock6
  -GOLD-   2272019103D 1   1.00000     0.00000
 Structure written by MMmdl.
 40 41  0  0  0  0  0  0  0  0  2 V2000
  145.6752  131.3642  152.0687 C   0  0  0  0  0  0  0  0  0  0  0  0
  144.7001  131.9927  151.6875 C   0  0  0  0  0  0  0  0  0  0  0  0
  143.5301  132.7545  151.2133 C   0  0  0  0  0  0  0  0  0  0  0  0
  143.7401  134.2022  151.2319 N   0  0  0  0  0  0  0  0  0  0  0  0
  145.0298  134.5005  150.6061 C   0  0  0  0  0  0  0  0  0  0  0  0
  145.2373  136.0221  150.5125 C   0  0  0  0  0  0  0  0  0  0  0  0
  145.1924  136.6749  151.9022 C   0  0  0  0  0  0  0  0  0  0  0  0
  145.3021  138.1452  151.7762 N   0  3  0  0  0  0  0  0  0  0  0  0
  146.6096  138.7180  152.1596 C   0  0  0  0  0  0  0  0  0  0  0  0
  146.7170  138.8668  153.6831 C   0  0  0  0  0  0  0  0  0  0  0  0
  148.0405  139.4732  154.1081 C   0  0  0  0  0  0  0  0  0  0  0  0
  149.1482  138.6516  154.4025 C   0  0  0  0  0  0  0  0  0  0  0  0
  150.3553  139.2660  154.7936 C   0  0  0  0  0  0  0  0  0  0  0  0
  150.5059  140.6038  154.8988 N   0  0  0  0  0  0  0  0  0  0  0  0
  149.4412  141.3842  154.6144 C   0  0  0  0  0  0  0  0  0  0  0  0
  148.1904  140.8712  154.2148 C   0  0  0  0  0  0  0  0  0  0  0  0
  143.8883  136.2514  152.6016 C   0  0  0  0  0  0  0  0  0  0  0  0
  143.7344  134.7203  152.6054 C   0  0  0  0  0  0  0  0  0  0  0  0
  146.5294  130.8185  152.4015 H   0  0  0  0  0  0  0  0  0  0  0  0
  143.2572  132.4094  150.2150 H   0  0  0  0  0  0  0  0  0  0  0  0
  142.7102  132.4910  151.8827 H   0  0  0  0  0  0  0  0  0  0  0  0
  145.8409  134.0372  151.1707 H   0  0  0  0  0  0  0  0  0  0  0  0
  145.0565  134.0758  149.6017 H   0  0  0  0  0  0  0  0  0  0  0  0
  146.1937  136.2311  150.0321 H   0  0  0  0  0  0  0  0  0  0  0  0
  144.4677  136.4529  149.8698 H   0  0  0  0  0  0  0  0  0  0  0  0
  146.0452  136.3112  152.4779 H   0  0  0  0  0  0  0  0  0  0  0  0
  145.1425  138.3810  150.8072 H   0  0  0  0  0  0  0  0  0  0  0  0
  147.4136  138.0769  151.7983 H   0  0  0  0  0  0  0  0  0  0  0  0
  146.7307  139.6910  151.6818 H   0  0  0  0  0  0  0  0  0  0  0  0
  145.9054  139.4922  154.0577 H   0  0  0  0  0  0  0  0  0  0  0  0
  146.6032  137.8941  154.1635 H   0  0  0  0  0  0  0  0  0  0  0  0
  149.0796  137.5757  154.3330 H   0  0  0  0  0  0  0  0  0  0  0  0
  151.2227  138.6665  155.0275 H   0  0  0  0  0  0  0  0  0  0  0  0
  149.5897  142.4499  154.7072 H   0  0  0  0  0  0  0  0  0  0  0  0
  147.3691  141.5386  153.9977 H   0  0  0  0  0  0  0  0  0  0  0  0
  143.8706  136.6103  153.6305 H   0  0  0  0  0  0  0  0  0  0  0  0
  143.0300  136.7019  152.1004 H   0  0  0  0  0  0  0  0  0  0  0  0
  142.7980  134.4640  153.1016 H   0  0  0  0  0  0  0  0  0  0  0  0
  144.5364  134.2594  153.1844 H   0  0  0  0  0  0  0  0  0  0  0  0
  144.5760  138.5736  152.3327 H   0  0  0  0  0  0  0  0  0  0  0  0
  1  2  3  0  0  0  0
  1 19  1  0  0  0  0
  2  3  1  0  0  0  0
  3  4  1  0  0  0  0
  3 20  1  0  0  0  0
  3 21  1  0  0  0  0
  4 18  1  0  0  0  0
  4  5  1  0  0  0  0
  5  6  1  0  0  0  0
  5 22  1  0  0  0  0
  5 23  1  0  0  0  0
  6  7  1  0  0  0  0
  6 24  1  0  0  0  0
  6 25  1  0  0  0  0
  7  8  1  0  0  0  0
  7 17  1  0  0  0  0
  7 26  1  0  0  0  0
  8  9  1  0  0  0  0
  8 27  1  0  0  0  0
  8 40  1  0  0  0  0
  9 10  1  0  0  0  0
  9 28  1  0  0  0  0
  9 29  1  0  0  0  0
 10 11  1  0  0  0  0
 10 30  1  0  0  0  0
 10 31  1  0  0  0  0
 11 16  1  0  0  0  0
 11 12  2  0  0  0  0
 12 13  1  0  0  0  0
 12 32  1  0  0  0  0
 13 14  2  0  0  0  0
 13 33  1  0  0  0  0
 14 15  1  0  0  0  0
 15 16  2  0  0  0  0
 15 34  1  0  0  0  0
 16 35  1  0  0  0  0
 17 18  1  0  0  0  0
 17 36  1  0  0  0  0
 17 37  1  0  0  0  0
 18 38  1  0  0  0  0
 18 39  1  0  0  0  0
M  CHG  1   8   1
M  END
> <s_m_source_file>
AV-unprocessed.smi

> <i_m_source_file_index>
3319

> <i_lp_mmshare_version>
43012

> <i_f3d_flags>
0

> <s_epik_input>
W0NIXSNDW0NIMl1OMVtDSDJdW0NIMl1bQ0hdKFtDSDJdW0NIMl0xKVtOSF1bQ0gyXVtDSDJdYzJbY0hdW2NIXW5bY0hdW2NIXTI=

> <s_epik_cmdline>
J2VwaWtfcHl0aG9uJywgJy1waCcsICc3LjAnLCAnLXRuJywgJzgnLCAnLW1hJywgJzIwMCcsICctbWV0YWxfYmluZGluZycsICctaW1hZScsICc8aW5maWxlLm1hZT4nLCAnLW9tYWUnLCAnPG91dGZpbGUubWFlPic=

> <r_epik_Ionization_Penalty>
0.00927662

> <r_epik_Ionization_Penalty_Charging>
0.000485704

> <r_epik_Ionization_Penalty_Neutral>
0.00879091

> <r_epik_State_Penalty>
0.00559669

> <r_epik_Charging_Adjusted_Penalty>
0.0060824

> <i_epik_Tot_Q>
1

> <i_epik_Tot_abs_Q>
1

> <r_epik_Metal_State_Penalty>
-0

> <b_epik_Metal_Only>
0

> <s_lp_Force_Field>
OPLS_2005

> <r_lp_Energy>
19.7292

> <b_lp_Chiralities_Consistent>
1

> <s_lp_Variant>
AV-unprocessed.smi:3319-1

> <Gold.Version>
5.8.1

> <Gold.Id.Protein>
6NUR|6NUR_protein|mol2

> <Gold.PLP.Fitness>
46.1779

> <Gold.PLP.PLP>
-36.6396

> <Gold.PLP.part.hbond>
-2.7825

> <Gold.PLP.part.metal>
0.0000

> <Gold.PLP.part.buried>
-1.2768

> <Gold.PLP.part.nonpolar>
-32.9211

> <Gold.PLP.part.repulsive>
0.3263

> <Gold.PLP.ligand.clash>
0.0000

> <Gold.PLP.ligand.torsion>
1.2030

> <Gold.PLP.Chemscore.Hbond>
3.0197

> <Gold.PLP.Chemscore.CHOScore>
0.9511

> <Gold.PLP.Chemscore.Metal>
0.0000

> <Gold.Chemscore.Hbonds>
donor molecule, donor type, donor heavy atom, donor atom, acceptor molecule, acceptor atom, score
      L1  H     8    27       P1 10171  0.77
      L1  H     8    40       P1 10175  1.29
      P1  H  7989  7998       L1    14  0.96
      L1  C    15    34       P1  8028  0.96

> <Gold.PLP.Chemscore.Internal.Correction>
0.0319

> <Gold.Rescore>
     Score         DG    S(hbond)    S(metal)    S(lipo)     H(rot)  DE(clash)    DE(int)     intcor
     17.17     -18.98       1.65        0.00      99.69       1.44       0.57       1.24       ----

> <Gold.Chemscore.Fitness>
17.1705

> <Gold.Chemscore.DG>
-18.9822

> <Gold.Chemscore.ZeroCoef>
-5.4800

> <Gold.Chemscore.Hbond>
1.6520

> <Gold.Chemscore.Metal>
0.0000

> <Gold.Chemscore.Lipo>
99.6874

> <Gold.Chemscore.Internal_Hbond>
0.0000

> <Gold.Chemscore.DEClash>
0.5686

> <Gold.Chemscore.DEInternal>
1.2431

> <Gold.Chemscore.Rot>
1.4371

> <Gold.Chemscore.Internal.Correction>
   9.000000E+99

> <Gold.Chemscore.Hbonds>
donor molecule, donor type, donor heavy atom, donor atom, acceptor molecule, acceptor atom, score
      L1  H     8    27       P1 10171  0.77
      L1  H     8    40       P1 10175  0.62
      P1  H  7989  7998       L1    14  0.09

> <Gold.Chemscore.Hbond.Weighted>
-5.5178

> <Gold.Chemscore.Metal.Weighted>
-0.0000

> <Gold.Chemscore.Lipo.Weighted>
-11.6634

> <Gold.Chemscore.Internal_Hbond.Weighted>
0.0000

> <Gold.Chemscore.DEClash.Weighted>
0.5686

> <Gold.Chemscore.DEInternal.Weighted>
1.2431

> <Gold.Chemscore.Rot.Weighted>
3.6790

> <Gold.Chemscore.Internal.Correction.Weighted>
   9.000000E+99

> <Gold.Protein.RotatedTorsions>
[ 6907 6896 6895 6894 ] final  176.51 input  -60.11 | X-H torsion
[ 7974 7965 7964 7962 ] final   73.49 input  175.53 | X-H torsion
[ 8008 7997 7996 7995 ] final -117.55 input   59.86 | X-H torsion
[ 10167 10162 10161 10158 ] final   95.77 input  -65.29 | X-H torsion
[ 10718 10713 10712 10709 ] final  -94.23 input   66.30 | X-H torsion
[ 10763 10752 10751 10750 ] final  -97.85 input  -60.55 | X-H torsion
[ 11005 11000 10999 10996 ] final  107.87 input  -57.11 | X-H torsion

> <Gold.Protein.ActiveResidues>
 VAL166  LYS551  ARG553  GLY616  TRP617  ASP618  TYR619  PRO620  LYS621  CYS622 
 ASP623  PHE694  ASN695  SER759  ASP760  ASP761  ALA762  ILE779  LEU786  VAL792 
 PHE793  MET794  SER795  GLU796  ALA797  LYS798  CYS799  TRP800  GLU811  SER814 

> <Gold.Protein.RotatedAtoms>
  151.7190  133.3314  159.3310 H   0  0  0  0  0  0  0  0  0  0  0  0  # atno 6907 bound_to 6896
  150.7661  134.6465  159.6274 H   0  0  0  0  0  0  0  0  0  0  0  0  # atno 6908 bound_to 6896
  152.3664  134.6801  160.0242 H   0  0  0  0  0  0  0  0  0  0  0  0  # atno 6909 bound_to 6896
  145.7402  139.2718  143.1491 H   0  0  0  0  0  0  0  0  0  0  0  0  # atno 7974 bound_to 7965
  155.0855  140.0394  157.2652 H   0  0  0  0  0  0  0  0  0  0  0  0  # atno 8008 bound_to 7997
  154.6873  140.2646  155.6823 H   0  0  0  0  0  0  0  0  0  0  0  0  # atno 8009 bound_to 7997
  156.2716  140.2766  156.1439 H   0  0  0  0  0  0  0  0  0  0  0  0  # atno 8010 bound_to 7997
  139.7957  144.6834  150.9832 H   0  0  0  0  0  0  0  0  0  0  0  0  # atno 10167 bound_to 10162
  156.0024  130.5059  150.5895 H   0  0  0  0  0  0  0  0  0  0  0  0  # atno 10718 bound_to 10713
  154.7364  135.5031  153.9049 H   0  0  0  0  0  0  0  0  0  0  0  0  # atno 10763 bound_to 10752
  153.0999  135.6682  153.9700 H   0  0  0  0  0  0  0  0  0  0  0  0  # atno 10764 bound_to 10752
  153.9489  135.3060  155.3419 H   0  0  0  0  0  0  0  0  0  0  0  0  # atno 10765 bound_to 10752
  139.8835  134.9414  156.5885 H   0  0  0  0  0  0  0  0  0  0  0  0  # atno 11005 bound_to 11000
  146.0455  140.8122  142.9807 LP  0  0  0  0  0  0  0  0  0  0  0  0  # atno 17320 bound_to 7965
  144.6872  140.2975  143.7268 LP  0  0  0  0  0  0  0  0  0  0  0  0  # atno 17321 bound_to 7965
  140.7820  143.4334  151.0660 LP  0  0  0  0  0  0  0  0  0  0  0  0  # atno 17342 bound_to 10162
  139.8009  143.8086  152.3162 LP  0  0  0  0  0  0  0  0  0  0  0  0  # atno 17343 bound_to 10162
  157.3762  131.0773  151.1515 LP  0  0  0  0  0  0  0  0  0  0  0  0  # atno 17370 bound_to 10713
  157.2253  130.6500  149.5827 LP  0  0  0  0  0  0  0  0  0  0  0  0  # atno 17371 bound_to 10713
  140.7973  133.8534  155.8696 LP  0  0  0  0  0  0  0  0  0  0  0  0  # atno 17394 bound_to 11000
  140.9624  134.1638  157.4643 LP  0  0  0  0  0  0  0  0  0  0  0  0  # atno 17395 bound_to 11000

$$$$
