#       Name:                AV-unprocessed.smi:3329
#       Creating user name   scv26
#       Creation time:       Fri Mar 27 19:15:11 2020


#       File generated by GOLD software.
#

@<TRIPOS>MOLECULE
AV-unprocessed.smi:3329
    46    47     1
SMALL
NO_CHARGES


@<TRIPOS>ATOM
      1 ****        -3.9226   1.6786   3.6152 C.3            1 S1                 0.0000
      2 ****        -3.4110   2.0845   2.2630 C.2            1 S1                 0.0000
      3 ****        -2.4373   3.0786   1.9615 C.2            1 S1                 0.0000
      4 ****        -2.2074   3.1947   0.6637 N.2            1 S1                 0.0000
      5 ****        -3.0190   2.2797   0.0921 N.pl3          1 S1                 0.0000
      6 ****        -3.0430   2.1322  -1.3534 C.3            1 S1                 0.0000
      7 ****        -1.6560   1.8250  -1.9438 C.3            1 S1                 0.0000
      8 ****        -1.1080   0.5664  -1.4013 N.4            1 S1                 1.0000
      9 ****         0.2547   0.2451  -1.8703 C.3            1 S1                 0.0000
     10 ****         0.7748  -1.0596  -1.2653 C.2            1 S1                 0.0000
     11 ****        -0.0086  -1.8720  -0.7740 O.2            1 S1                 0.0000
     12 ****         2.1060  -1.2395  -1.3155 N.am           1 S1                 0.0000
     13 ****         2.8926  -2.3815  -0.8286 C.3            1 S1                 0.0000
     14 ****         4.1935  -2.3820  -1.6483 C.3            1 S1                 0.0000
     15 ****         2.2061  -3.6643  -1.0786 C.1            1 S1                 0.0000
     16 ****         1.6695  -4.6707  -1.2755 N.1            1 S1                 0.0000
     17 ****         3.2570  -2.3352   0.6574 C.3            1 S1                 0.0000
     18 ****         2.3101  -1.8938   1.7520 C.3            1 S1                 0.0000
     19 ****         3.5015  -1.0350   1.3898 C.3            1 S1                 0.0000
     20 ****        -3.7657   1.6039   1.0342 C.2            1 S1                 0.0000
     21 ****        -4.6664   2.3817   3.9903 H              1 S1                 0.0000
     22 ****        -3.1207   1.6347   4.3526 H              1 S1                 0.0000
     23 ****        -4.3918   0.6948   3.5934 H              1 S1                 0.0000
     24 ****        -1.8944   3.7160   2.6439 H              1 S1                 0.0000
     25 ****        -3.7462   1.3394  -1.6127 H              1 S1                 0.0000
     26 ****        -3.4370   3.0541  -1.7829 H              1 S1                 0.0000
     27 ****        -1.7287   1.7422  -3.0287 H              1 S1                 0.0000
     28 ****        -0.9657   2.6436  -1.7357 H              1 S1                 0.0000
     29 ****        -1.0858   0.6373  -0.3937 H              1 S1                 0.0000
     30 ****         0.2550   0.1557  -2.9573 H              1 S1                 0.0000
     31 ****         0.9282   1.0618  -1.6058 H              1 S1                 0.0000
     32 ****         2.6446  -0.5007  -1.7442 H              1 S1                 0.0000
     33 ****         4.8325  -3.2237  -1.3780 H              1 S1                 0.0000
     34 ****         4.7676  -1.4686  -1.4858 H              1 S1                 0.0000
     35 ****         3.9898  -2.4599  -2.7173 H              1 S1                 0.0000
     36 ****         3.9141  -3.1547   0.9445 H              1 S1                 0.0000
     37 ****         1.3280  -1.5140   1.4860 H              1 S1                 0.0000
     38 ****         2.3526  -2.4347   2.6951 H              1 S1                 0.0000
     39 ****         4.3320  -1.0055   2.0922 H              1 S1                 0.0000
     40 ****         3.3044  -0.1019   0.8664 H              1 S1                 0.0000
     41 ****        -4.4789   0.8416   0.7566 H              1 S1                 0.0000
     42 ****        -1.7220  -0.1947  -1.6549 H              1 S1                 0.0000
     43 ****        -1.5741   3.8203   0.2081 LP             1 S1                 0.0000
     44 ****        -0.9900  -1.6803  -0.7692 LP             1 S1                 0.0000
     45 ****         0.3364  -2.7237  -0.3796 LP             1 S1                 0.0000
     46 ****         1.2059  -5.5402  -1.4456 LP             1 S1                 0.0000
@<TRIPOS>BOND
    1    1    2 1     
    2    1   21 1     
    3    1   22 1     
    4    1   23 1     
    5    2   20 2     
    6    2    3 1     
    7    3    4 2     
    8    3   24 1     
    9    4    5 1     
   10    5    6 1     
   11    5   20 1     
   12    6    7 1     
   13    6   25 1     
   14    6   26 1     
   15    7    8 1     
   16    7   27 1     
   17    7   28 1     
   18    8    9 1     
   19    8   29 1     
   20    8   42 1     
   21    9   10 1     
   22    9   30 1     
   23    9   31 1     
   24   10   11 2     
   25   10   12 am    
   26   12   13 1     
   27   12   32 1     
   28   13   14 1     
   29   13   15 1     
   30   13   17 1     
   31   14   33 1     
   32   14   34 1     
   33   14   35 1     
   34   15   16 3     
   35   17   19 1     
   36   17   18 1     
   37   17   36 1     
   38   18   19 1     
   39   18   37 1     
   40   18   38 1     
   41   19   39 1     
   42   19   40 1     
   43   20   41 1     
   44    4   43 1     
   45   11   44 1     
   46   11   45 1     
   47   16   46 1     
@<TRIPOS>SUBSTRUCTURE
      1 S1             1
@<TRIPOS>SET
LONE_PAIRS      STATIC     ATOMS    <user>   **** ""
4 43 44 45 46
DONOR_HYDROGENS      STATIC     ATOMS    <user>   **** ""
3 29 42 32
ATOM$BLUE        STATIC     ATOMS    COLORGROUP SYSTEM
4 43 44 45 46
ATOM$RED        STATIC     ATOMS    COLORGROUP SYSTEM
3 29 42 32
