AV-unprocessed.smi:1033|AV-procd|sdf|4501|dock10
  -GOLD-   22720 2503D 1   1.00000     0.00000
 Structure written by MMmdl.
 57 59  0  0  0  0  0  0  0  0  3 V2000
  151.9311  143.6887  160.2970 C   0  0  0  0  0  0  0  0  0  0  0  0
  151.6689  142.7493  159.1321 C   0  0  0  0  0  0  0  0  0  0  0  0
  150.7850  143.1700  158.1126 C   0  0  0  0  0  0  0  0  0  0  0  0
  150.5664  142.2896  157.0597 C   0  0  0  0  0  0  0  0  0  0  0  0
  149.7628  142.4026  155.9231 N   0  3  0  0  0  0  0  0  0  0  0  0
  149.8719  141.2701  155.1746 C   0  0  0  0  0  0  0  0  0  0  0  0
  150.7437  140.4405  155.8109 N   0  0  0  0  0  0  0  0  0  0  0  0
  151.2143  139.0988  155.4431 C   0  0  0  0  0  0  0  0  0  0  0  0
  150.1151  138.2169  154.8150 C   0  0  1  0  0  0  0  0  0  0  0  0
  150.0434  138.5540  153.4445 O   0  0  0  0  0  0  0  0  0  0  0  0
  150.3948  136.7034  154.9520 C   0  0  0  0  0  0  0  0  0  0  0  0
  149.2829  135.8577  154.4473 N   0  3  0  0  0  0  0  0  0  0  0  0
  147.9546  136.2196  155.0120 C   0  0  0  0  0  0  0  0  0  0  0  0
  146.8527  135.3268  154.4054 C   0  0  0  0  0  0  0  0  0  0  0  0
  147.0949  133.8941  154.5948 N   0  0  0  0  0  0  0  0  0  0  0  0
  146.9379  133.4222  155.9757 C   0  0  0  0  0  0  0  0  0  0  0  0
  145.4875  133.1574  156.4259 C   0  0  1  0  0  0  0  0  0  0  0  0
  144.5665  134.3695  156.2257 C   0  0  0  0  0  0  0  0  0  0  0  0
  144.9786  132.0877  155.6581 O   0  0  0  0  0  0  0  0  0  0  0  0
  148.4040  133.5676  154.0312 C   0  0  0  0  0  0  0  0  0  0  0  0
  149.5511  134.4075  154.6292 C   0  0  0  0  0  0  0  0  0  0  0  0
  151.1930  141.0300  156.9973 C   0  0  0  0  0  0  0  0  0  0  0  0
  152.0624  140.5973  157.9956 C   0  0  0  0  0  0  0  0  0  0  0  0
  152.2978  141.4784  159.0752 C   0  0  0  0  0  0  0  0  0  0  0  0
  153.2422  141.0347  160.1795 C   0  0  0  0  0  0  0  0  0  0  0  0
  151.4028  144.6348  160.1738 H   0  0  0  0  0  0  0  0  0  0  0  0
  152.9953  143.9109  160.3788 H   0  0  0  0  0  0  0  0  0  0  0  0
  151.5973  143.2400  161.2328 H   0  0  0  0  0  0  0  0  0  0  0  0
  150.2992  144.1342  158.1524 H   0  0  0  0  0  0  0  0  0  0  0  0
  149.3616  141.0693  154.2433 H   0  0  0  0  0  0  0  0  0  0  0  0
  152.0618  139.2104  154.7651 H   0  0  0  0  0  0  0  0  0  0  0  0
  151.6028  138.6314  156.3494 H   0  0  0  0  0  0  0  0  0  0  0  0
  149.1608  138.4732  155.2726 H   0  0  0  0  0  0  0  0  0  0  0  0
  149.6037  137.8603  152.9773 H   0  0  0  0  0  0  0  0  0  0  0  0
  151.3099  136.4725  154.4042 H   0  0  0  0  0  0  0  0  0  0  0  0
  150.5894  136.4334  155.9904 H   0  0  0  0  0  0  0  0  0  0  0  0
  147.9716  136.1303  156.0990 H   0  0  0  0  0  0  0  0  0  0  0  0
  147.7219  137.2605  154.7908 H   0  0  0  0  0  0  0  0  0  0  0  0
  145.8807  135.6087  154.8079 H   0  0  0  0  0  0  0  0  0  0  0  0
  146.7892  135.5327  153.3359 H   0  0  0  0  0  0  0  0  0  0  0  0
  147.4976  132.4933  156.0949 H   0  0  0  0  0  0  0  0  0  0  0  0
  147.3979  134.1289  156.6658 H   0  0  0  0  0  0  0  0  0  0  0  0
  145.4578  132.8411  157.4678 H   0  0  0  0  0  0  0  0  0  0  0  0
  144.8977  135.2177  156.8251 H   0  0  0  0  0  0  0  0  0  0  0  0
  143.5431  134.1391  156.5234 H   0  0  0  0  0  0  0  0  0  0  0  0
  144.5465  134.6877  155.1829 H   0  0  0  0  0  0  0  0  0  0  0  0
  144.1742  132.3663  155.2473 H   0  0  0  0  0  0  0  0  0  0  0  0
  148.6119  132.5057  154.1675 H   0  0  0  0  0  0  0  0  0  0  0  0
  148.3755  133.7265  152.9523 H   0  0  0  0  0  0  0  0  0  0  0  0
  150.4843  134.1440  154.1297 H   0  0  0  0  0  0  0  0  0  0  0  0
  149.6884  134.1837  155.6879 H   0  0  0  0  0  0  0  0  0  0  0  0
  152.5381  139.6285  157.9541 H   0  0  0  0  0  0  0  0  0  0  0  0
  153.6131  140.0241  160.0063 H   0  0  0  0  0  0  0  0  0  0  0  0
  152.7340  141.0411  161.1440 H   0  0  0  0  0  0  0  0  0  0  0  0
  154.1038  141.7005  160.2363 H   0  0  0  0  0  0  0  0  0  0  0  0
  149.2325  136.0071  153.4497 H   0  0  0  0  0  0  0  0  0  0  0  0
  149.1774  143.1911  155.6774 H   0  0  0  0  0  0  0  0  0  0  0  0
  1  2  1  0  0  0  0
  1 26  1  0  0  0  0
  1 27  1  0  0  0  0
  1 28  1  0  0  0  0
  2 24  1  0  0  0  0
  2  3  2  0  0  0  0
  3  4  1  0  0  0  0
  3 29  1  0  0  0  0
  4 22  2  0  0  0  0
  4  5  1  0  0  0  0
  5  6  2  0  0  0  0
  5 57  1  0  0  0  0
  6  7  1  0  0  0  0
  6 30  1  0  0  0  0
  7  8  1  0  0  0  0
  7 22  1  0  0  0  0
  8  9  1  0  0  0  0
  8 31  1  0  0  0  0
  8 32  1  0  0  0  0
  9 10  1  0  0  0  0
  9 11  1  0  0  0  0
  9 33  1  0  0  0  0
 10 34  1  0  0  0  0
 11 12  1  0  0  0  0
 11 35  1  0  0  0  0
 11 36  1  0  0  0  0
 12 21  1  0  0  0  0
 12 13  1  0  0  0  0
 12 56  1  0  0  0  0
 13 14  1  0  0  0  0
 13 37  1  0  0  0  0
 13 38  1  0  0  0  0
 14 15  1  0  0  0  0
 14 39  1  0  0  0  0
 14 40  1  0  0  0  0
 15 16  1  0  0  0  0
 15 20  1  0  0  0  0
 16 17  1  0  0  0  0
 16 41  1  0  0  0  0
 16 42  1  0  0  0  0
 17 18  1  0  0  0  0
 17 19  1  0  0  0  0
 17 43  1  0  0  0  0
 18 44  1  0  0  0  0
 18 45  1  0  0  0  0
 18 46  1  0  0  0  0
 19 47  1  0  0  0  0
 20 21  1  0  0  0  0
 20 48  1  0  0  0  0
 20 49  1  0  0  0  0
 21 50  1  0  0  0  0
 21 51  1  0  0  0  0
 22 23  1  0  0  0  0
 23 24  2  0  0  0  0
 23 52  1  0  0  0  0
 24 25  1  0  0  0  0
 25 53  1  0  0  0  0
 25 54  1  0  0  0  0
 25 55  1  0  0  0  0
M  CHG  1   5   1
M  CHG  1  12   1
M  END
> <s_m_source_file>
AV-unprocessed.smi

> <i_m_source_file_index>
1033

> <i_lp_mmshare_version>
43012

> <i_f3d_flags>
0

> <s_epik_input>
W0NIM11jKFtjSF0xKWMoW0NIM10pW2NIXWMoYzEyKW4oW2NIXW4yKVtDSDJdW0NASF0oW09IXSlbQ0gyXU4zW0NIMl1bQ0gyXU4oW0NIMl1bQ0gyXTMpW0NIMl1bQ0BIXShbQ0gzXSlbT0hd

> <s_epik_cmdline>
J2VwaWtfcHl0aG9uJywgJy1waCcsICc3LjAnLCAnLXRuJywgJzgnLCAnLW1hJywgJzIwMCcsICctbWV0YWxfYmluZGluZycsICctaW1hZScsICc8aW5maWxlLm1hZT4nLCAnLW9tYWUnLCAnPG91dGZpbGUubWFlPic=

> <r_epik_Ionization_Penalty>
1.22049

> <r_epik_Ionization_Penalty_Charging>
1.17952

> <r_epik_Ionization_Penalty_Neutral>
0.0409743

> <r_epik_State_Penalty>
1.61468

> <r_epik_Charging_Adjusted_Penalty>
2.7942

> <i_epik_Tot_Q>
2

> <i_epik_Tot_abs_Q>
2

> <r_epik_Metal_State_Penalty>
5.63169

> <b_epik_Metal_Only>
0

> <s_lp_Force_Field>
OPLS_2005

> <r_lp_Energy>
46.1755

> <b_lp_Chiralities_Consistent>
1

> <s_lp_Variant>
AV-unprocessed.smi:1033-12

> <Gold.Version>
5.8.1

> <Gold.Id.Protein>
6NUR|6NUR_protein|mol2

> <Gold.PLP.Fitness>
60.3733

> <Gold.PLP.PLP>
-43.9668

> <Gold.PLP.part.hbond>
-5.1396

> <Gold.PLP.part.metal>
0.0000

> <Gold.PLP.part.buried>
-4.3975

> <Gold.PLP.part.nonpolar>
-35.0438

> <Gold.PLP.part.repulsive>
0.2040

> <Gold.PLP.ligand.clash>
0.0000

> <Gold.PLP.ligand.torsion>
0.8413

> <Gold.PLP.Chemscore.Hbond>
5.9913

> <Gold.PLP.Chemscore.CHOScore>
0.0000

> <Gold.PLP.Chemscore.Metal>
0.0000

> <Gold.Chemscore.Hbonds>
donor molecule, donor type, donor heavy atom, donor atom, acceptor molecule, acceptor atom, score
      L1  H     5    57       P1  8028  2.00
      L1  H    10    34       P1  7948  0.99
      L1  H    12    56       P1  7948  2.00
      L1  H    19    47       P1 10957  0.78

> <Gold.PLP.Chemscore.Internal.Correction>
0.1153

> <Gold.Rescore>
     Score         DG    S(hbond)    S(metal)    S(lipo)     H(rot)  DE(clash)    DE(int)     intcor
     21.05     -22.10       3.65        0.00     106.61       3.15       0.14       0.90       ----

> <Gold.Chemscore.Fitness>
21.0515

> <Gold.Chemscore.DG>
-22.0970

> <Gold.Chemscore.ZeroCoef>
-5.4800

> <Gold.Chemscore.Hbond>
3.6536

> <Gold.Chemscore.Metal>
0.0000

> <Gold.Chemscore.Lipo>
106.6125

> <Gold.Chemscore.Internal_Hbond>
0.0000

> <Gold.Chemscore.DEClash>
0.1428

> <Gold.Chemscore.DEInternal>
0.9027

> <Gold.Chemscore.Rot>
3.1483

> <Gold.Chemscore.Internal.Correction>
   9.000000E+99

> <Gold.Chemscore.Hbonds>
donor molecule, donor type, donor heavy atom, donor atom, acceptor molecule, acceptor atom, score
      L1  H     5    57       P1  8028  0.92
      L1  H    10    34       P1  7948  0.69
      L1  H    12    56       P1  7948  0.77
      L1  H    19    47       P1 10957  0.76

> <Gold.Chemscore.Hbond.Weighted>
-12.2030

> <Gold.Chemscore.Metal.Weighted>
-0.0000

> <Gold.Chemscore.Lipo.Weighted>
-12.4737

> <Gold.Chemscore.Internal_Hbond.Weighted>
0.0000

> <Gold.Chemscore.DEClash.Weighted>
0.1428

> <Gold.Chemscore.DEInternal.Weighted>
0.9027

> <Gold.Chemscore.Rot.Weighted>
8.0597

> <Gold.Chemscore.Internal.Correction.Weighted>
   9.000000E+99

> <Gold.Protein.RotatedTorsions>
[ 6907 6896 6895 6894 ] final  -80.45 input  -60.11 | X-H torsion
[ 7974 7965 7964 7962 ] final  117.49 input  175.53 | X-H torsion
[ 8008 7997 7996 7995 ] final -138.64 input   59.86 | X-H torsion
[ 10167 10162 10161 10158 ] final   40.80 input  -65.29 | X-H torsion
[ 10718 10713 10712 10709 ] final   36.03 input   66.30 | X-H torsion
[ 10763 10752 10751 10750 ] final   29.97 input  -60.55 | X-H torsion
[ 11005 11000 10999 10996 ] final -109.21 input  -57.11 | X-H torsion

> <Gold.Protein.ActiveResidues>
 VAL166  LYS551  ARG553  GLY616  TRP617  ASP618  TYR619  PRO620  LYS621  CYS622 
 ASP623  PHE694  ASN695  SER759  ASP760  ASP761  ALA762  ILE779  LEU786  VAL792 
 PHE793  MET794  SER795  GLU796  ALA797  LYS798  CYS799  TRP800  GLU811  SER814 

> <Gold.Protein.RotatedAtoms>
  150.6929  134.3968  159.5100 H   0  0  0  0  0  0  0  0  0  0  0  0  # atno 6907 bound_to 6896
  152.1748  134.8801  160.0540 H   0  0  0  0  0  0  0  0  0  0  0  0  # atno 6908 bound_to 6896
  151.9814  133.3724  159.4146 H   0  0  0  0  0  0  0  0  0  0  0  0  # atno 6909 bound_to 6896
  145.1667  139.3124  143.4489 H   0  0  0  0  0  0  0  0  0  0  0  0  # atno 7974 bound_to 7965
  155.4317  140.0525  157.3018 H   0  0  0  0  0  0  0  0  0  0  0  0  # atno 8008 bound_to 7997
  154.4857  140.2099  155.9620 H   0  0  0  0  0  0  0  0  0  0  0  0  # atno 8009 bound_to 7997
  156.1271  140.3178  155.8298 H   0  0  0  0  0  0  0  0  0  0  0  0  # atno 8010 bound_to 7997
  140.3706  144.2110  150.6133 H   0  0  0  0  0  0  0  0  0  0  0  0  # atno 10167 bound_to 10162
  157.3300  130.7492  149.6841 H   0  0  0  0  0  0  0  0  0  0  0  0  # atno 10718 bound_to 10713
  153.0399  135.6476  154.0973 H   0  0  0  0  0  0  0  0  0  0  0  0  # atno 10763 bound_to 10752
  154.0681  135.2882  155.3314 H   0  0  0  0  0  0  0  0  0  0  0  0  # atno 10764 bound_to 10752
  154.6612  135.5390  153.8086 H   0  0  0  0  0  0  0  0  0  0  0  0  # atno 10765 bound_to 10752
  141.0860  133.9138  157.2184 H   0  0  0  0  0  0  0  0  0  0  0  0  # atno 11005 bound_to 11000
  146.3474  140.1797  142.8589 LP  0  0  0  0  0  0  0  0  0  0  0  0  # atno 17320 bound_to 7965
  145.0275  140.8844  143.5129 LP  0  0  0  0  0  0  0  0  0  0  0  0  # atno 17321 bound_to 7965
  140.5037  143.2310  151.8640 LP  0  0  0  0  0  0  0  0  0  0  0  0  # atno 17342 bound_to 10162
  139.4804  144.5030  151.9035 LP  0  0  0  0  0  0  0  0  0  0  0  0  # atno 17343 bound_to 10162
  155.9694  130.4198  150.4393 LP  0  0  0  0  0  0  0  0  0  0  0  0  # atno 17370 bound_to 10713
  157.2423  131.0528  151.2429 LP  0  0  0  0  0  0  0  0  0  0  0  0  # atno 17371 bound_to 10713
  139.9678  135.0137  156.9434 LP  0  0  0  0  0  0  0  0  0  0  0  0  # atno 17394 bound_to 11000
  140.5362  134.0765  155.7329 LP  0  0  0  0  0  0  0  0  0  0  0  0  # atno 17395 bound_to 11000

$$$$
