#       Name:                AV-unprocessed.smi:1005
#       Creating user name   scv26
#       Creation time:       Fri Mar 27 02:30:04 2020


#       File generated by GOLD software.
#

@<TRIPOS>MOLECULE
AV-unprocessed.smi:1005
    62    64     1
SMALL
NO_CHARGES


@<TRIPOS>ATOM
      1 ****         2.0829   4.9665  -0.8165 C.3            1 S1                 0.0000
      2 ****         0.9926   4.1007  -0.2082 C.ar           1 S1                 0.0000
      3 ****        -0.1986   3.9008  -0.9415 C.ar           1 S1                 0.0000
      4 ****        -1.1782   3.1070  -0.3569 C.ar           1 S1                 0.0000
      5 ****        -2.4412   2.7279  -0.8161 N.pl3          1 S1                 1.0000
      6 ****        -3.0465   1.9409   0.1156 C.2            1 S1                 0.0000
      7 ****        -2.1854   1.8043   1.1607 N.pl3          1 S1                 0.0000
      8 ****        -2.3611   1.0757   2.4254 C.3            1 S1                 0.0000
      9 ****        -2.0581  -0.4316   2.3070 C.3            1 S1                 0.0000
     10 ****        -2.3704  -1.0158   3.5552 O.3            1 S1                 0.0000
     11 ****        -0.5842  -0.7391   1.9623 C.3            1 S1                 0.0000
     12 ****        -0.3244  -2.1932   1.7816 N.4            1 S1                 1.0000
     13 ****         1.0815  -2.5831   2.0467 C.3            1 S1                 0.0000
     14 ****         1.9898  -2.2254   0.8582 C.3            1 S1                 0.0000
     15 ****         1.4964  -2.8593  -0.3156 O.3            1 S1                 0.0000
     16 ****         0.1893  -2.4191  -0.6702 C.3            1 S1                 0.0000
     17 ****        -0.2123  -3.1358  -1.9737 C.3            1 S1                 0.0000
     18 ****         0.6673  -2.7906  -3.1207 N.4            1 S1                 1.0000
     19 ****         0.4257  -1.4335  -3.6637 C.3            1 S1                 0.0000
     20 ****         0.6170  -3.8158  -4.1869 C.3            1 S1                 0.0000
     21 ****        -0.7839  -2.7543   0.4845 C.3            1 S1                 0.0000
     22 ****        -1.0077   2.5210   0.9128 C.ar           1 S1                 0.0000
     23 ****         0.1603   2.7093   1.6489 C.ar           1 S1                 0.0000
     24 ****         1.1698   3.5112   1.0702 C.ar           1 S1                 0.0000
     25 ****         2.4547   3.7328   1.8500 C.3            1 S1                 0.0000
     26 ****         1.7987   5.3334  -1.8032 H              1 S1                 0.0000
     27 ****         3.0074   4.3993  -0.9266 H              1 S1                 0.0000
     28 ****         2.2808   5.8325  -0.1843 H              1 S1                 0.0000
     29 ****        -0.3419   4.3504  -1.9134 H              1 S1                 0.0000
     30 ****        -4.0350   1.5099   0.0420 H              1 S1                 0.0000
     31 ****        -1.7548   1.5429   3.2017 H              1 S1                 0.0000
     32 ****        -3.3995   1.2210   2.7273 H              1 S1                 0.0000
     33 ****        -2.7260  -0.8584   1.5592 H              1 S1                 0.0000
     34 ****        -2.3787  -1.9563   3.4654 H              1 S1                 0.0000
     35 ****        -0.2782  -0.2035   1.0652 H              1 S1                 0.0000
     36 ****         0.0401  -0.3520   2.7692 H              1 S1                 0.0000
     37 ****         1.4443  -2.1241   2.9672 H              1 S1                 0.0000
     38 ****         1.1134  -3.6611   2.2109 H              1 S1                 0.0000
     39 ****         2.0488  -1.1457   0.7125 H              1 S1                 0.0000
     40 ****         3.0050  -2.5756   1.0457 H              1 S1                 0.0000
     41 ****         0.2003  -1.3419  -0.8323 H              1 S1                 0.0000
     42 ****        -0.1695  -4.2121  -1.7981 H              1 S1                 0.0000
     43 ****        -1.2479  -2.9101  -2.2326 H              1 S1                 0.0000
     44 ****        -0.5970  -1.3353  -4.0299 H              1 S1                 0.0000
     45 ****         1.1024  -1.2275  -4.4938 H              1 S1                 0.0000
     46 ****         0.5965  -0.6624  -2.9137 H              1 S1                 0.0000
     47 ****        -0.3834  -3.8857  -4.6159 H              1 S1                 0.0000
     48 ****         0.8921  -4.7963  -3.7967 H              1 S1                 0.0000
     49 ****         1.3165  -3.5745  -4.9883 H              1 S1                 0.0000
     50 ****        -0.8501  -3.8376   0.5972 H              1 S1                 0.0000
     51 ****        -1.7913  -2.4139   0.2480 H              1 S1                 0.0000
     52 ****         0.2985   2.2662   2.6238 H              1 S1                 0.0000
     53 ****         2.4389   3.2067   2.8051 H              1 S1                 0.0000
     54 ****         2.5986   4.7936   2.0566 H              1 S1                 0.0000
     55 ****         3.3139   3.3701   1.2850 H              1 S1                 0.0000
     56 ****         1.6158  -2.8042  -2.7723 H              1 S1                 0.0000
     57 ****        -0.8692  -2.6449   2.5027 H              1 S1                 0.0000
     58 ****        -2.8669   2.9968  -1.6944 H              1 S1                 0.0000
     59 ****        -3.2705  -0.7008   3.8559 LP             1 S1                 0.0000
     60 ****        -1.6818  -0.7505   4.2301 LP             1 S1                 0.0000
     61 ****         1.4699  -3.8466  -0.1589 LP             1 S1                 0.0000
     62 ****         2.1180  -2.6586  -1.0728 LP             1 S1                 0.0000
@<TRIPOS>BOND
    1    1    2 1     
    2    1   26 1     
    3    1   27 1     
    4    1   28 1     
    5    2   24 ar    
    6    2    3 ar    
    7    3    4 ar    
    8    3   29 1     
    9    4   22 ar    
   10    4    5 1     
   11    5    6 2     
   12    5   58 1     
   13    6    7 1     
   14    6   30 1     
   15    7    8 1     
   16    7   22 1     
   17    8    9 1     
   18    8   31 1     
   19    8   32 1     
   20    9   10 1     
   21    9   11 1     
   22    9   33 1     
   23   10   34 1     
   24   11   12 1     
   25   11   35 1     
   26   11   36 1     
   27   12   21 1     
   28   12   13 1     
   29   12   57 1     
   30   13   14 1     
   31   13   37 1     
   32   13   38 1     
   33   14   15 1     
   34   14   39 1     
   35   14   40 1     
   36   15   16 1     
   37   16   17 1     
   38   16   21 1     
   39   16   41 1     
   40   17   18 1     
   41   17   42 1     
   42   17   43 1     
   43   18   19 1     
   44   18   20 1     
   45   18   56 1     
   46   19   44 1     
   47   19   45 1     
   48   19   46 1     
   49   20   47 1     
   50   20   48 1     
   51   20   49 1     
   52   21   50 1     
   53   21   51 1     
   54   22   23 ar    
   55   23   24 ar    
   56   23   52 1     
   57   24   25 1     
   58   25   53 1     
   59   25   54 1     
   60   25   55 1     
   61   10   59 1     
   62   10   60 1     
   63   15   61 1     
   64   15   62 1     
@<TRIPOS>SUBSTRUCTURE
      1 S1             1
@<TRIPOS>SET
LONE_PAIRS      STATIC     ATOMS    <user>   **** ""
4 59 60 61 62
DONOR_HYDROGENS      STATIC     ATOMS    <user>   **** ""
4 58 34 57 56
ATOM$BLUE        STATIC     ATOMS    COLORGROUP SYSTEM
4 59 60 61 62
ATOM$RED        STATIC     ATOMS    COLORGROUP SYSTEM
4 58 34 57 56
