AV-unprocessed.smi:2078|AV-procd|sdf|8463|dock1
  -GOLD-   2272011163D 1   1.00000     0.00000
 Structure written by MMmdl.
 42 43  0  0  0  0  0  0  0  0  2 V2000
  153.2823  137.3693  156.7673 C   0  0  0  0  0  0  0  0  0  0  0  0
  152.3848  138.1283  155.8514 C   0  0  0  0  0  0  0  0  0  0  0  0
  151.3123  137.7651  155.0862 C   0  0  0  0  0  0  0  0  0  0  0  0
  150.9327  138.9861  154.4682 C   0  0  0  0  0  0  0  0  0  0  0  0
  149.8320  139.0394  153.5753 N   0  0  0  0  0  0  0  0  0  0  0  0
  148.5421  138.7838  153.8524 C   0  0  0  0  0  0  0  0  0  0  0  0
  148.1035  138.4547  154.9551 O   0  0  0  0  0  0  0  0  0  0  0  0
  147.7689  138.9257  152.7658 N   0  0  0  0  0  0  0  0  0  0  0  0
  146.3256  138.7190  152.7436 C   0  0  0  0  0  0  0  0  0  0  0  0
  145.9293  137.6051  151.7551 C   0  0  0  0  0  0  0  0  0  0  0  0
  146.4091  136.2691  152.1889 N   0  3  1  0  0  0  0  0  0  0  0  0
  146.1545  136.0220  153.6315 C   0  0  0  0  0  0  0  0  0  0  0  0
  146.7818  134.6943  154.0849 C   0  0  0  0  0  0  0  0  0  0  0  0
  146.2678  133.5257  153.2350 C   0  0  0  0  0  0  0  0  0  0  0  0
  146.5070  133.8063  151.7417 C   0  0  1  0  0  0  0  0  0  0  0  0
  145.9741  132.6649  150.8641 C   0  0  0  0  0  0  0  0  0  0  0  0
  145.8852  135.1608  151.3454 C   0  0  0  0  0  0  0  0  0  0  0  0
  151.7037  140.0025  154.8232 N   0  0  0  0  0  0  0  0  0  0  0  0
  152.6383  139.4577  155.7116 O   0  0  0  0  0  0  0  0  0  0  0  0
  153.0192  136.3116  156.7834 H   0  0  0  0  0  0  0  0  0  0  0  0
  153.2078  137.7521  157.7852 H   0  0  0  0  0  0  0  0  0  0  0  0
  154.3212  137.4544  156.4485 H   0  0  0  0  0  0  0  0  0  0  0  0
  150.8727  136.7833  154.9881 H   0  0  0  0  0  0  0  0  0  0  0  0
  150.0515  139.2980  152.6249 H   0  0  0  0  0  0  0  0  0  0  0  0
  148.2069  139.2020  151.8989 H   0  0  0  0  0  0  0  0  0  0  0  0
  145.9825  138.5002  153.7552 H   0  0  0  0  0  0  0  0  0  0  0  0
  145.8526  139.6574  152.4531 H   0  0  0  0  0  0  0  0  0  0  0  0
  144.8407  137.5941  151.6840 H   0  0  0  0  0  0  0  0  0  0  0  0
  146.2986  137.8151  150.7499 H   0  0  0  0  0  0  0  0  0  0  0  0
  146.5735  136.8346  154.2261 H   0  0  0  0  0  0  0  0  0  0  0  0
  145.0790  136.0146  153.8166 H   0  0  0  0  0  0  0  0  0  0  0  0
  147.8682  134.7555  154.0069 H   0  0  0  0  0  0  0  0  0  0  0  0
  146.5572  134.5162  155.1369 H   0  0  0  0  0  0  0  0  0  0  0  0
  146.7671  132.6028  153.5324 H   0  0  0  0  0  0  0  0  0  0  0  0
  145.2028  133.3781  153.4212 H   0  0  0  0  0  0  0  0  0  0  0  0
  147.5841  133.8696  151.5785 H   0  0  0  0  0  0  0  0  0  0  0  0
  144.8958  132.5466  150.9773 H   0  0  0  0  0  0  0  0  0  0  0  0
  146.4423  131.7160  151.1272 H   0  0  0  0  0  0  0  0  0  0  0  0
  146.1793  132.8510  149.8095 H   0  0  0  0  0  0  0  0  0  0  0  0
  144.7985  135.1183  151.4373 H   0  0  0  0  0  0  0  0  0  0  0  0
  146.1020  135.3557  150.2957 H   0  0  0  0  0  0  0  0  0  0  0  0
  147.4129  136.2757  152.0787 H   0  0  0  0  0  0  0  0  0  0  0  0
  1  2  1  0  0  0  0
  1 20  1  0  0  0  0
  1 21  1  0  0  0  0
  1 22  1  0  0  0  0
  2 19  1  0  0  0  0
  2  3  2  0  0  0  0
  3  4  1  0  0  0  0
  3 23  1  0  0  0  0
  4  5  1  0  0  0  0
  4 18  2  0  0  0  0
  5  6  1  0  0  0  0
  5 24  1  0  0  0  0
  6  7  2  0  0  0  0
  6  8  1  0  0  0  0
  8  9  1  0  0  0  0
  8 25  1  0  0  0  0
  9 10  1  0  0  0  0
  9 26  1  0  0  0  0
  9 27  1  0  0  0  0
 10 11  1  0  0  0  0
 10 28  1  0  0  0  0
 10 29  1  0  0  0  0
 11 17  1  0  0  0  0
 11 12  1  0  0  0  0
 11 42  1  0  0  0  0
 12 13  1  0  0  0  0
 12 30  1  0  0  0  0
 12 31  1  0  0  0  0
 13 14  1  0  0  0  0
 13 32  1  0  0  0  0
 13 33  1  0  0  0  0
 14 15  1  0  0  0  0
 14 34  1  0  0  0  0
 14 35  1  0  0  0  0
 15 16  1  0  0  0  0
 15 17  1  0  0  0  0
 15 36  1  0  0  0  0
 16 37  1  0  0  0  0
 16 38  1  0  0  0  0
 16 39  1  0  0  0  0
 17 40  1  0  0  0  0
 17 41  1  0  0  0  0
 18 19  1  0  0  0  0
M  CHG  1  11   1
M  END
> <s_m_source_file>
AV-unprocessed.smi

> <i_m_source_file_index>
2078

> <i_lp_mmshare_version>
43012

> <i_f3d_flags>
0

> <s_epik_input>
W0NIM11jMVtjSF1jKG5vMSlbTkhdQyg9TylbTkhdW0NIMl1bQ0gyXU4yW0NIMl1bQ0gyXVtDSDJdW0NAQEhdKFtDSDNdKVtDSDJdMg==

> <s_epik_cmdline>
J2VwaWtfcHl0aG9uJywgJy1waCcsICc3LjAnLCAnLXRuJywgJzgnLCAnLW1hJywgJzIwMCcsICctbWV0YWxfYmluZGluZycsICctaW1hZScsICc8aW5maWxlLm1hZT4nLCAnLW9tYWUnLCAnPG91dGZpbGUubWFlPic=

> <r_epik_Ionization_Penalty>
0.00216453

> <r_epik_Ionization_Penalty_Charging>
0.00212879

> <r_epik_Ionization_Penalty_Neutral>
3.57418e-05

> <r_epik_State_Penalty>
0.00146033

> <r_epik_Charging_Adjusted_Penalty>
0.00358912

> <i_epik_Tot_Q>
1

> <i_epik_Tot_abs_Q>
1

> <r_epik_Metal_State_Penalty>
0.0215827

> <b_epik_Metal_Only>
0

> <s_lp_Force_Field>
OPLS_2005

> <r_lp_Energy>
12.7312

> <b_lp_Chiralities_Consistent>
1

> <s_lp_Variant>
AV-unprocessed.smi:2078-1

> <Gold.Version>
5.8.1

> <Gold.Id.Protein>
6NUR|6NUR_protein|mol2

> <Gold.PLP.Fitness>
45.4303

> <Gold.PLP.PLP>
-28.8715

> <Gold.PLP.part.hbond>
-5.8864

> <Gold.PLP.part.metal>
0.0000

> <Gold.PLP.part.buried>
-1.8134

> <Gold.PLP.part.nonpolar>
-22.3148

> <Gold.PLP.part.repulsive>
0.3531

> <Gold.PLP.ligand.clash>
0.0000

> <Gold.PLP.ligand.torsion>
0.6763

> <Gold.PLP.Chemscore.Hbond>
5.9600

> <Gold.PLP.Chemscore.CHOScore>
0.0000

> <Gold.PLP.Chemscore.Metal>
0.0000

> <Gold.Chemscore.Hbonds>
donor molecule, donor type, donor heavy atom, donor atom, acceptor molecule, acceptor atom, score
      L1  H     5    24       P1  7957  1.00
      L1  H     8    25       P1  7957  0.94
      L1  H    11    42       P1  7948  2.00
      P1  H  7989  7998       L1    18  1.00
      P1  H  7997  8008       L1    19  1.00

> <Gold.PLP.Chemscore.Internal.Correction>
0.0313

> <Gold.Rescore>
     Score         DG    S(hbond)    S(metal)    S(lipo)     H(rot)  DE(clash)    DE(int)     intcor
     21.38     -22.20       4.22        0.00      56.67       1.57       0.26       0.56       ----

> <Gold.Chemscore.Fitness>
21.3849

> <Gold.Chemscore.DG>
-22.2004

> <Gold.Chemscore.ZeroCoef>
-5.4800

> <Gold.Chemscore.Hbond>
4.2241

> <Gold.Chemscore.Metal>
0.0000

> <Gold.Chemscore.Lipo>
56.6710

> <Gold.Chemscore.Internal_Hbond>
0.0000

> <Gold.Chemscore.DEClash>
0.2604

> <Gold.Chemscore.DEInternal>
0.5551

> <Gold.Chemscore.Rot>
1.5697

> <Gold.Chemscore.Internal.Correction>
   9.000000E+99

> <Gold.Chemscore.Hbonds>
donor molecule, donor type, donor heavy atom, donor atom, acceptor molecule, acceptor atom, score
      L1  H     5    24       P1  7957  0.81
      L1  H     8    25       P1  7957  0.90
      L1  H    11    42       P1  7948  0.93
      P1  H  7989  7998       L1    18  0.28
      P1  H  7997  8008       L1    19  0.97

> <Gold.Chemscore.Hbond.Weighted>
-14.1083

> <Gold.Chemscore.Metal.Weighted>
-0.0000

> <Gold.Chemscore.Lipo.Weighted>
-6.6305

> <Gold.Chemscore.Internal_Hbond.Weighted>
0.0000

> <Gold.Chemscore.DEClash.Weighted>
0.2604

> <Gold.Chemscore.DEInternal.Weighted>
0.5551

> <Gold.Chemscore.Rot.Weighted>
4.0185

> <Gold.Chemscore.Internal.Correction.Weighted>
   9.000000E+99

> <Gold.Protein.RotatedTorsions>
[ 6907 6896 6895 6894 ] final    0.59 input  -60.11 | X-H torsion
[ 7974 7965 7964 7962 ] final  140.60 input  175.53 | X-H torsion
[ 8008 7997 7996 7995 ] final  -28.70 input   59.86 | X-H torsion
[ 10167 10162 10161 10158 ] final  -74.57 input  -65.29 | X-H torsion
[ 10718 10713 10712 10709 ] final  -56.40 input   66.30 | X-H torsion
[ 10763 10752 10751 10750 ] final   32.09 input  -60.55 | X-H torsion
[ 11005 11000 10999 10996 ] final    5.31 input  -57.11 | X-H torsion

> <Gold.Protein.ActiveResidues>
 VAL166  LYS551  ARG553  GLY616  TRP617  ASP618  TYR619  PRO620  LYS621  CYS622 
 ASP623  PHE694  ASN695  SER759  ASP760  ASP761  ALA762  ILE779  LEU786  VAL792 
 PHE793  MET794  SER795  GLU796  ALA797  LYS798  CYS799  TRP800  GLU811  SER814 

> <Gold.Protein.RotatedAtoms>
  151.5789  135.1059  160.0012 H   0  0  0  0  0  0  0  0  0  0  0  0  # atno 6907 bound_to 6896
  152.4364  133.7364  159.6627 H   0  0  0  0  0  0  0  0  0  0  0  0  # atno 6908 bound_to 6896
  150.8262  133.8098  159.3141 H   0  0  0  0  0  0  0  0  0  0  0  0  # atno 6909 bound_to 6896
  144.9172  139.5215  143.5680 H   0  0  0  0  0  0  0  0  0  0  0  0  # atno 7974 bound_to 7965
  154.4321  140.1838  156.1130 H   0  0  0  0  0  0  0  0  0  0  0  0  # atno 8008 bound_to 7997
  156.0202  140.3341  155.7006 H   0  0  0  0  0  0  0  0  0  0  0  0  # atno 8009 bound_to 7997
  155.5986  140.0638  157.2730 H   0  0  0  0  0  0  0  0  0  0  0  0  # atno 8010 bound_to 7997
  140.5016  143.2360  151.7743 H   0  0  0  0  0  0  0  0  0  0  0  0  # atno 10167 bound_to 10162
  156.1292  130.4160  150.0300 H   0  0  0  0  0  0  0  0  0  0  0  0  # atno 10718 bound_to 10713
  153.0281  135.6422  154.1301 H   0  0  0  0  0  0  0  0  0  0  0  0  # atno 10763 bound_to 10752
  154.1027  135.2858  155.3249 H   0  0  0  0  0  0  0  0  0  0  0  0  # atno 10764 bound_to 10752
  154.6387  135.5467  153.7827 H   0  0  0  0  0  0  0  0  0  0  0  0  # atno 10765 bound_to 10752
  140.5722  134.0092  155.8013 H   0  0  0  0  0  0  0  0  0  0  0  0  # atno 11005 bound_to 11000
  146.3187  139.8024  142.8962 LP  0  0  0  0  0  0  0  0  0  0  0  0  # atno 17320 bound_to 7965
  145.3356  141.0276  143.3421 LP  0  0  0  0  0  0  0  0  0  0  0  0  # atno 17321 bound_to 7965
  139.4873  144.4514  151.9649 LP  0  0  0  0  0  0  0  0  0  0  0  0  # atno 17342 bound_to 10162
  140.3604  144.2980  150.5934 LP  0  0  0  0  0  0  0  0  0  0  0  0  # atno 17343 bound_to 10162
  156.8217  130.9361  151.3641 LP  0  0  0  0  0  0  0  0  0  0  0  0  # atno 17370 bound_to 10713
  157.6471  130.8853  149.9560 LP  0  0  0  0  0  0  0  0  0  0  0  0  # atno 17371 bound_to 10713
  141.1049  133.9709  157.3014 LP  0  0  0  0  0  0  0  0  0  0  0  0  # atno 17394 bound_to 11000
  139.9356  135.0196  156.8546 LP  0  0  0  0  0  0  0  0  0  0  0  0  # atno 17395 bound_to 11000

$$$$
