AV-unprocessed.smi:2641|AV-procd|sdf|10273|dock1
  -GOLD-   2272014283D 1   1.00000     0.00000
 Structure written by MMmdl.
 40 41  0  0  0  0  0  0  0  0  3 V2000
  152.7384  143.8310  163.1105 C   0  0  0  0  0  0  0  0  0  0  0  0
  152.4863  143.7177  161.6218 C   0  0  0  0  0  0  0  0  0  0  0  0
  153.0101  142.6608  160.8467 C   0  0  0  0  0  0  0  0  0  0  0  0
  152.7365  142.6205  159.4636 C   0  0  0  0  0  0  0  0  0  0  0  0
  151.9449  143.6364  158.8833 C   0  0  0  0  0  0  0  0  0  0  0  0
  151.6342  143.6220  157.3973 C   0  0  0  0  0  0  0  0  0  0  0  0
  150.9901  142.2931  156.9979 C   0  0  0  0  0  0  0  0  0  0  0  0
  151.5160  141.2403  157.3557 O   0  0  0  0  0  0  0  0  0  0  0  0
  149.8661  142.3914  156.2636 N   0  0  0  0  0  0  0  0  0  0  0  0
  148.9513  141.3773  155.7141 C   0  0  0  0  0  0  0  0  0  0  0  0
  149.8418  140.1300  155.4796 C   0  0  0  0  0  0  0  0  0  0  0  0
  150.7493  140.2138  154.6217 O   0  0  0  0  0  0  0  0  0  0  0  0
  149.5739  139.0892  156.1205 O   0  5  0  0  0  0  0  0  0  0  0  0
  147.8716  141.1032  156.8003 C   0  0  0  0  0  0  0  0  0  0  0  0
  146.8017  140.0844  156.3590 C   0  0  0  0  0  0  0  0  0  0  0  0
  146.1196  140.5215  155.0548 C   0  0  0  0  0  0  0  0  0  0  0  0
  147.1523  140.7767  153.9478 C   0  0  0  0  0  0  0  0  0  0  0  0
  148.2135  141.7983  154.4024 C   0  0  0  0  0  0  0  0  0  0  0  0
  151.4486  144.6687  159.7086 C   0  0  0  0  0  0  0  0  0  0  0  0
  151.7338  144.6720  161.0291 N   0  3  0  0  0  0  0  0  0  0  0  0
  153.2854  142.9646  163.4835 H   0  0  0  0  0  0  0  0  0  0  0  0
  151.7950  143.8966  163.6535 H   0  0  0  0  0  0  0  0  0  0  0  0
  153.3250  144.7239  163.3282 H   0  0  0  0  0  0  0  0  0  0  0  0
  153.6153  141.8902  161.3023 H   0  0  0  0  0  0  0  0  0  0  0  0
  153.1335  141.8203  158.8559 H   0  0  0  0  0  0  0  0  0  0  0  0
  150.9541  144.4380  157.1497 H   0  0  0  0  0  0  0  0  0  0  0  0
  152.5507  143.7947  156.8305 H   0  0  0  0  0  0  0  0  0  0  0  0
  149.5640  143.3363  156.0753 H   0  0  0  0  0  0  0  0  0  0  0  0
  148.3283  140.7683  157.7327 H   0  0  0  0  0  0  0  0  0  0  0  0
  147.3723  142.0413  157.0476 H   0  0  0  0  0  0  0  0  0  0  0  0
  147.2516  139.1001  156.2254 H   0  0  0  0  0  0  0  0  0  0  0  0
  146.0546  139.9716  157.1450 H   0  0  0  0  0  0  0  0  0  0  0  0
  145.4079  139.7608  154.7330 H   0  0  0  0  0  0  0  0  0  0  0  0
  145.5431  141.4303  155.2317 H   0  0  0  0  0  0  0  0  0  0  0  0
  147.6276  139.8374  153.6636 H   0  0  0  0  0  0  0  0  0  0  0  0
  146.6485  141.1440  153.0535 H   0  0  0  0  0  0  0  0  0  0  0  0
  147.6982  142.7460  154.5631 H   0  0  0  0  0  0  0  0  0  0  0  0
  148.9184  141.9731  153.5883 H   0  0  0  0  0  0  0  0  0  0  0  0
  150.8397  145.4878  159.3539 H   0  0  0  0  0  0  0  0  0  0  0  0
  151.3652  145.4297  161.6042 H   0  0  0  0  0  0  0  0  0  0  0  0
  1  2  1  0  0  0  0
  1 21  1  0  0  0  0
  1 22  1  0  0  0  0
  1 23  1  0  0  0  0
  2 20  1  0  0  0  0
  2  3  2  0  0  0  0
  3  4  1  0  0  0  0
  3 24  1  0  0  0  0
  4  5  2  0  0  0  0
  4 25  1  0  0  0  0
  5  6  1  0  0  0  0
  5 19  1  0  0  0  0
  6  7  1  0  0  0  0
  6 26  1  0  0  0  0
  6 27  1  0  0  0  0
  7  8  2  0  0  0  0
  7  9  1  0  0  0  0
  9 10  1  0  0  0  0
  9 28  1  0  0  0  0
 10 18  1  0  0  0  0
 10 11  1  0  0  0  0
 10 14  1  0  0  0  0
 11 12  2  0  0  0  0
 11 13  1  0  0  0  0
 14 15  1  0  0  0  0
 14 29  1  0  0  0  0
 14 30  1  0  0  0  0
 15 16  1  0  0  0  0
 15 31  1  0  0  0  0
 15 32  1  0  0  0  0
 16 17  1  0  0  0  0
 16 33  1  0  0  0  0
 16 34  1  0  0  0  0
 17 18  1  0  0  0  0
 17 35  1  0  0  0  0
 17 36  1  0  0  0  0
 18 37  1  0  0  0  0
 18 38  1  0  0  0  0
 19 20  2  0  0  0  0
 19 39  1  0  0  0  0
 20 40  1  0  0  0  0
M  CHG  1  13  -1
M  CHG  1  20   1
M  END
> <s_m_source_file>
AV-unprocessed.smi

> <i_m_source_file_index>
2641

> <i_lp_mmshare_version>
43012

> <i_f3d_flags>
0

> <s_epik_input>
W0NIM11jMVtjSF1bY0hdYyhbY0hdbjEpW0NIMl1DKD1PKVtOSF1DMihDKD1PKVtPSF0pW0NIMl1bQ0gyXVtDSDJdW0NIMl1bQ0gyXTI=

> <s_epik_cmdline>
J2VwaWtfcHl0aG9uJywgJy1waCcsICc3LjAnLCAnLXRuJywgJzgnLCAnLW1hJywgJzIwMCcsICctbWV0YWxfYmluZGluZycsICctaW1hZScsICc8aW5maWxlLm1hZT4nLCAnLW9tYWUnLCAnPG91dGZpbGUubWFlPic=

> <r_epik_Ionization_Penalty>
2.05743

> <r_epik_Ionization_Penalty_Charging>
2.05743

> <r_epik_Ionization_Penalty_Neutral>
6.51537e-08

> <r_epik_State_Penalty>
2.19002

> <r_epik_Charging_Adjusted_Penalty>
4.24745

> <i_epik_Tot_Q>
0

> <i_epik_Tot_abs_Q>
2

> <r_epik_Metal_State_Penalty>
2.2083

> <b_epik_Metal_Only>
0

> <s_lp_Force_Field>
OPLS_2005

> <r_lp_Energy>
7.8147

> <b_lp_Chiralities_Consistent>
1

> <s_lp_Variant>
AV-unprocessed.smi:2641-2

> <Gold.Version>
5.8.1

> <Gold.Id.Protein>
6NUR|6NUR_protein|mol2

> <Gold.PLP.Fitness>
46.6297

> <Gold.PLP.PLP>
-42.0586

> <Gold.PLP.part.hbond>
-2.6199

> <Gold.PLP.part.metal>
0.0000

> <Gold.PLP.part.buried>
-5.1941

> <Gold.PLP.part.nonpolar>
-34.7203

> <Gold.PLP.part.repulsive>
0.2809

> <Gold.PLP.ligand.clash>
0.0476

> <Gold.PLP.ligand.torsion>
0.7169

> <Gold.PLP.Chemscore.Hbond>
2.0000

> <Gold.PLP.Chemscore.CHOScore>
0.0000

> <Gold.PLP.Chemscore.Metal>
0.0000

> <Gold.Chemscore.Hbonds>
donor molecule, donor type, donor heavy atom, donor atom, acceptor molecule, acceptor atom, score
      L1  H     9    28       P1  8028  1.00
      P1  H  7989  7998       L1    12  1.00

> <Gold.PLP.Chemscore.Internal.Correction>
0.0525

> <Gold.Rescore>
     Score         DG    S(hbond)    S(metal)    S(lipo)     H(rot)  DE(clash)    DE(int)     intcor
     14.27     -19.89       1.96        0.00     109.14       1.91       0.50       5.12       ----

> <Gold.Chemscore.Fitness>
14.2709

> <Gold.Chemscore.DG>
-19.8890

> <Gold.Chemscore.ZeroCoef>
-5.4800

> <Gold.Chemscore.Hbond>
1.9587

> <Gold.Chemscore.Metal>
0.0000

> <Gold.Chemscore.Lipo>
109.1371

> <Gold.Chemscore.Internal_Hbond>
0.0000

> <Gold.Chemscore.DEClash>
0.4982

> <Gold.Chemscore.DEInternal>
5.1199

> <Gold.Chemscore.Rot>
1.9149

> <Gold.Chemscore.Internal.Correction>
   9.000000E+99

> <Gold.Chemscore.Hbonds>
donor molecule, donor type, donor heavy atom, donor atom, acceptor molecule, acceptor atom, score
      L1  H     9    28       P1  8028  0.98
      P1  H  7989  7998       L1    12  0.97

> <Gold.Chemscore.Hbond.Weighted>
-6.5422

> <Gold.Chemscore.Metal.Weighted>
-0.0000

> <Gold.Chemscore.Lipo.Weighted>
-12.7690

> <Gold.Chemscore.Internal_Hbond.Weighted>
0.0000

> <Gold.Chemscore.DEClash.Weighted>
0.4982

> <Gold.Chemscore.DEInternal.Weighted>
5.1199

> <Gold.Chemscore.Rot.Weighted>
4.9023

> <Gold.Chemscore.Internal.Correction.Weighted>
   9.000000E+99

> <Gold.Protein.RotatedTorsions>
[ 6907 6896 6895 6894 ] final   20.59 input  -60.11 | X-H torsion
[ 7974 7965 7964 7962 ] final  -63.88 input  175.53 | X-H torsion
[ 8008 7997 7996 7995 ] final  -88.45 input   59.86 | X-H torsion
[ 10167 10162 10161 10158 ] final -146.45 input  -65.29 | X-H torsion
[ 10718 10713 10712 10709 ] final  158.83 input   66.30 | X-H torsion
[ 10763 10752 10751 10750 ] final   44.90 input  -60.55 | X-H torsion
[ 11005 11000 10999 10996 ] final  -32.63 input  -57.11 | X-H torsion

> <Gold.Protein.ActiveResidues>
 VAL166  LYS551  ARG553  GLY616  TRP617  ASP618  TYR619  PRO620  LYS621  CYS622 
 ASP623  PHE694  ASN695  SER759  ASP760  ASP761  ALA762  ILE779  LEU786  VAL792 
 PHE793  MET794  SER795  GLU796  ALA797  LYS798  CYS799  TRP800  GLU811  SER814 

> <Gold.Protein.RotatedAtoms>
  151.8988  135.0387  160.0504 H   0  0  0  0  0  0  0  0  0  0  0  0  # atno 6907 bound_to 6896
  152.2375  133.5104  159.5259 H   0  0  0  0  0  0  0  0  0  0  0  0  # atno 6908 bound_to 6896
  150.7043  134.1050  159.4022 H   0  0  0  0  0  0  0  0  0  0  0  0  # atno 6909 bound_to 6896
  145.7736  140.8800  143.0367 H   0  0  0  0  0  0  0  0  0  0  0  0  # atno 7974 bound_to 7965
  154.6750  140.0553  157.0206 H   0  0  0  0  0  0  0  0  0  0  0  0  # atno 8008 bound_to 7997
  155.1034  140.3231  155.4522 H   0  0  0  0  0  0  0  0  0  0  0  0  # atno 8009 bound_to 7997
  156.2672  140.2027  156.6159 H   0  0  0  0  0  0  0  0  0  0  0  0  # atno 8010 bound_to 7997
  139.7712  143.8235  152.2625 H   0  0  0  0  0  0  0  0  0  0  0  0  # atno 10167 bound_to 10162
  157.1725  131.0613  151.2175 H   0  0  0  0  0  0  0  0  0  0  0  0  # atno 10718 bound_to 10713
  152.9833  135.6056  154.3349 H   0  0  0  0  0  0  0  0  0  0  0  0  # atno 10763 bound_to 10752
  154.3050  135.2772  155.2595 H   0  0  0  0  0  0  0  0  0  0  0  0  # atno 10764 bound_to 10752
  154.4830  135.5912  153.6459 H   0  0  0  0  0  0  0  0  0  0  0  0  # atno 10765 bound_to 10752
  140.9568  133.7188  156.1306 H   0  0  0  0  0  0  0  0  0  0  0  0  # atno 11005 bound_to 11000
  144.6808  139.9890  143.7484 LP  0  0  0  0  0  0  0  0  0  0  0  0  # atno 17320 bound_to 7965
  146.0145  139.3198  143.0850 LP  0  0  0  0  0  0  0  0  0  0  0  0  # atno 17321 bound_to 7965
  139.8270  144.7271  150.9499 LP  0  0  0  0  0  0  0  0  0  0  0  0  # atno 17342 bound_to 10162
  140.7814  143.4105  151.1000 LP  0  0  0  0  0  0  0  0  0  0  0  0  # atno 17343 bound_to 10162
  157.4030  130.7343  149.6781 LP  0  0  0  0  0  0  0  0  0  0  0  0  # atno 17370 bound_to 10713
  155.9736  130.4116  150.3988 LP  0  0  0  0  0  0  0  0  0  0  0  0  # atno 17371 bound_to 10713
  140.7524  134.4030  157.5539 LP  0  0  0  0  0  0  0  0  0  0  0  0  # atno 17394 bound_to 11000
  139.8865  134.8908  156.2582 LP  0  0  0  0  0  0  0  0  0  0  0  0  # atno 17395 bound_to 11000

$$$$
