AV-unprocessed.smi:94|AV-procd|sdf|852|dock5
  -GOLD-   2262017293D 1   1.00000     0.00000
 Structure written by MMmdl.
 53 55  0  0  0  0  0  0  0  0  1 V2000
  148.8305  141.5620  154.8472 C   0  0  0  0  0  0  0  0  0  0  0  0
  149.9421  140.7632  155.2249 O   0  0  0  0  0  0  0  0  0  0  0  0
  150.6654  141.1259  156.3433 C   0  0  0  0  0  0  0  0  0  0  0  0
  150.6234  142.4274  156.9057 C   0  0  0  0  0  0  0  0  0  0  0  0
  151.3928  142.7465  158.0390 C   0  0  0  0  0  0  0  0  0  0  0  0
  152.2209  141.7736  158.6270 C   0  0  0  0  0  0  0  0  0  0  0  0
  153.0555  142.1172  159.8435 C   0  0  0  0  0  0  0  0  0  0  0  0
  152.2672  140.4775  158.0799 C   0  0  0  0  0  0  0  0  0  0  0  0
  151.4890  140.1413  156.9471 C   0  0  0  0  0  0  0  0  0  0  0  0
  151.5586  138.7328  156.3541 C   0  0  1  0  0  0  0  0  0  0  0  0
  152.6611  137.9063  157.0374 C   0  0  0  0  0  0  0  0  0  0  0  0
  150.2790  138.0275  156.4289 N   0  0  0  0  0  0  0  0  0  0  0  0
  149.9761  136.8886  155.7875 C   0  0  0  0  0  0  0  0  0  0  0  0
  150.7630  136.3040  155.0416 O   0  0  0  0  0  0  0  0  0  0  0  0
  148.5621  136.3368  156.0219 C   0  0  0  0  0  0  0  0  0  0  0  0
  147.9787  136.7879  157.3040 N   0  0  0  0  0  0  0  0  0  0  0  0
  146.8940  137.6995  157.2852 C   0  0  0  0  0  0  0  0  0  0  0  0
  146.4415  138.1332  156.2249 O   0  0  0  0  0  0  0  0  0  0  0  0
  146.3623  138.0720  158.5914 C   0  0  0  0  0  0  0  0  0  0  0  0
  145.3447  138.9462  158.6703 F   0  0  0  0  0  0  0  0  0  0  0  0
  146.8762  137.5531  159.7258 C   0  0  0  0  0  0  0  0  0  0  0  0
  147.9213  136.6463  159.7280 N   0  0  0  0  0  0  0  0  0  0  0  0
  148.4830  136.0650  161.0092 C   0  0  2  0  0  0  0  0  0  0  0  0
  147.5156  135.0212  161.6027 C   0  0  0  0  0  0  0  0  0  0  0  0
  147.3318  135.5023  163.0284 C   0  0  0  0  0  0  0  0  0  0  0  0
  147.5448  137.0014  162.8862 C   0  0  0  0  0  0  0  0  0  0  0  0
  148.6270  137.0744  161.9677 O   0  0  0  0  0  0  0  0  0  0  0  0
  148.5060  136.2551  158.5041 C   0  0  0  0  0  0  0  0  0  0  0  0
  149.4496  135.4612  158.4852 O   0  0  0  0  0  0  0  0  0  0  0  0
  148.3716  141.1380  153.9543 H   0  0  0  0  0  0  0  0  0  0  0  0
  149.1347  142.5819  154.6084 H   0  0  0  0  0  0  0  0  0  0  0  0
  148.0702  141.5832  155.6292 H   0  0  0  0  0  0  0  0  0  0  0  0
  150.0080  143.2067  156.4832 H   0  0  0  0  0  0  0  0  0  0  0  0
  151.3475  143.7435  158.4524 H   0  0  0  0  0  0  0  0  0  0  0  0
  153.9868  141.5500  159.8484 H   0  0  0  0  0  0  0  0  0  0  0  0
  152.5048  141.8829  160.7546 H   0  0  0  0  0  0  0  0  0  0  0  0
  153.3071  143.1782  159.8567 H   0  0  0  0  0  0  0  0  0  0  0  0
  152.9141  139.7430  158.5366 H   0  0  0  0  0  0  0  0  0  0  0  0
  151.8081  138.8315  155.2966 H   0  0  0  0  0  0  0  0  0  0  0  0
  153.6315  138.3945  156.9424 H   0  0  0  0  0  0  0  0  0  0  0  0
  152.7511  136.9148  156.5923 H   0  0  0  0  0  0  0  0  0  0  0  0
  152.4574  137.7762  158.1008 H   0  0  0  0  0  0  0  0  0  0  0  0
  149.5694  138.4409  157.0161 H   0  0  0  0  0  0  0  0  0  0  0  0
  147.9157  136.6223  155.1897 H   0  0  0  0  0  0  0  0  0  0  0  0
  148.6092  135.2489  155.9590 H   0  0  0  0  0  0  0  0  0  0  0  0
  146.4382  137.8735  160.6586 H   0  0  0  0  0  0  0  0  0  0  0  0
  149.4642  135.6675  160.7439 H   0  0  0  0  0  0  0  0  0  0  0  0
  146.5634  135.0393  161.0699 H   0  0  0  0  0  0  0  0  0  0  0  0
  147.9374  134.0177  161.5404 H   0  0  0  0  0  0  0  0  0  0  0  0
  146.3568  135.2465  163.4439 H   0  0  0  0  0  0  0  0  0  0  0  0
  148.1022  135.0748  163.6715 H   0  0  0  0  0  0  0  0  0  0  0  0
  146.6600  137.4823  162.4666 H   0  0  0  0  0  0  0  0  0  0  0  0
  147.7865  137.4859  163.8323 H   0  0  0  0  0  0  0  0  0  0  0  0
  1  2  1  0  0  0  0
  1 30  1  0  0  0  0
  1 31  1  0  0  0  0
  1 32  1  0  0  0  0
  2  3  1  0  0  0  0
  3  9  1  0  0  0  0
  3  4  2  0  0  0  0
  4  5  1  0  0  0  0
  4 33  1  0  0  0  0
  5  6  2  0  0  0  0
  5 34  1  0  0  0  0
  6  7  1  0  0  0  0
  6  8  1  0  0  0  0
  7 35  1  0  0  0  0
  7 36  1  0  0  0  0
  7 37  1  0  0  0  0
  8  9  2  0  0  0  0
  8 38  1  0  0  0  0
  9 10  1  0  0  0  0
 10 11  1  0  0  0  0
 10 12  1  0  0  0  0
 10 39  1  0  0  0  0
 11 40  1  0  0  0  0
 11 41  1  0  0  0  0
 11 42  1  0  0  0  0
 12 13  1  0  0  0  0
 12 43  1  0  0  0  0
 13 14  2  0  0  0  0
 13 15  1  0  0  0  0
 15 16  1  0  0  0  0
 15 44  1  0  0  0  0
 15 45  1  0  0  0  0
 16 28  1  0  0  0  0
 16 17  1  0  0  0  0
 17 18  2  0  0  0  0
 17 19  1  0  0  0  0
 19 20  1  0  0  0  0
 19 21  2  0  0  0  0
 21 22  1  0  0  0  0
 21 46  1  0  0  0  0
 22 23  1  0  0  0  0
 22 28  1  0  0  0  0
 23 27  1  0  0  0  0
 23 24  1  0  0  0  0
 23 47  1  0  0  0  0
 24 25  1  0  0  0  0
 24 48  1  0  0  0  0
 24 49  1  0  0  0  0
 25 26  1  0  0  0  0
 25 50  1  0  0  0  0
 25 51  1  0  0  0  0
 26 27  1  0  0  0  0
 26 52  1  0  0  0  0
 26 53  1  0  0  0  0
 28 29  2  0  0  0  0
M  END
> <s_m_source_file>
AV-unprocessed.smi

> <i_m_source_file_index>
94

> <i_lp_mmshare_version>
43012

> <i_f3d_flags>
0

> <s_epik_input>
W0NIM11PYzFbY0hdW2NIXWMoW0NIM10pW2NIXWMxW0NASF0oW0NIM10pW05IXUMoPU8pW0NIMl1uMmMoPU8pYyhGKVtjSF1uKGMyPU8pW0NAQEhdM1tDSDJdW0NIMl1bQ0gyXU8z

> <s_epik_cmdline>
J2VwaWtfcHl0aG9uJywgJy1waCcsICc3LjAnLCAnLXRuJywgJzgnLCAnLW1hJywgJzIwMCcsICctbWV0YWxfYmluZGluZycsICctaW1hZScsICc8aW5maWxlLm1hZT4nLCAnLW9tYWUnLCAnPG91dGZpbGUubWFlPic=

> <r_lp_tautomer_probability>
1

> <r_epik_Ionization_Penalty>
3.37009e-08

> <r_epik_Ionization_Penalty_Charging>
3.59856e-09

> <r_epik_Ionization_Penalty_Neutral>
3.01024e-08

> <r_epik_State_Penalty>
-0

> <r_epik_Charging_Adjusted_Penalty>
3.59856e-09

> <i_epik_Tot_Q>
0

> <i_epik_Tot_abs_Q>
0

> <r_epik_Metal_State_Penalty>
-0

> <b_epik_Metal_Only>
0

> <s_epik_Chemistry_Notes>
This compound contains an acetal/aminal-like group ( X-CH(R)-Y where X, Y are N, S, or O) that may be acid/base labile, releasing an aldehyde.

> <s_lp_Force_Field>
OPLS_2005

> <r_lp_Energy>
32.1562

> <b_lp_Chiralities_Consistent>
1

> <s_lp_Variant>
AV-unprocessed.smi:94-2

> <Gold.Version>
5.8.1

> <Gold.Id.Protein>
6NUR|6NUR_protein|mol2

> <Gold.PLP.Fitness>
52.7766

> <Gold.PLP.PLP>
-43.5448

> <Gold.PLP.part.hbond>
-4.4327

> <Gold.PLP.part.metal>
0.0000

> <Gold.PLP.part.buried>
-5.4854

> <Gold.PLP.part.nonpolar>
-34.8102

> <Gold.PLP.part.repulsive>
0.2679

> <Gold.PLP.ligand.clash>
0.0000

> <Gold.PLP.ligand.torsion>
1.2399

> <Gold.PLP.Chemscore.Hbond>
3.8632

> <Gold.PLP.Chemscore.CHOScore>
0.0000

> <Gold.PLP.Chemscore.Metal>
0.0000

> <Gold.Chemscore.Hbonds>
donor molecule, donor type, donor heavy atom, donor atom, acceptor molecule, acceptor atom, score
      P1  H  6896  6908       L1    29  0.93
      P1  H  6931  6943       L1    27  0.26
      P1  H  7989  7998       L1     2  0.04
      P1  H 10752 10765       L1    14  0.05

> <Gold.PLP.Chemscore.Internal.Correction>
0.1220

> <Gold.Rescore>
     Score         DG    S(hbond)    S(metal)    S(lipo)     H(rot)  DE(clash)    DE(int)     intcor
     20.16     -21.61       2.93        0.00     105.44       2.34       0.03       1.42       ----

> <Gold.Chemscore.Fitness>
20.1618

> <Gold.Chemscore.DG>
-21.6093

> <Gold.Chemscore.ZeroCoef>
-5.4800

> <Gold.Chemscore.Hbond>
2.9268

> <Gold.Chemscore.Metal>
0.0000

> <Gold.Chemscore.Lipo>
105.4409

> <Gold.Chemscore.Internal_Hbond>
0.0000

> <Gold.Chemscore.DEClash>
0.0280

> <Gold.Chemscore.DEInternal>
1.4195

> <Gold.Chemscore.Rot>
2.3370

> <Gold.Chemscore.Internal.Correction>
   9.000000E+99

> <Gold.Chemscore.Hbonds>
donor molecule, donor type, donor heavy atom, donor atom, acceptor molecule, acceptor atom, score
      P1  H  6896  6908       L1    29  0.90
      P1  H  6931  6943       L1    27  0.19
      P1  H  7989  7998       L1     2  0.02
      P1  H 10752 10765       L1    14  0.09

> <Gold.Chemscore.Hbond.Weighted>
-9.7754

> <Gold.Chemscore.Metal.Weighted>
-0.0000

> <Gold.Chemscore.Lipo.Weighted>
-12.3366

> <Gold.Chemscore.Internal_Hbond.Weighted>
0.0000

> <Gold.Chemscore.DEClash.Weighted>
0.0280

> <Gold.Chemscore.DEInternal.Weighted>
1.4195

> <Gold.Chemscore.Rot.Weighted>
5.9827

> <Gold.Chemscore.Internal.Correction.Weighted>
   9.000000E+99

> <Gold.Protein.RotatedTorsions>
[ 6907 6896 6895 6894 ] final  146.48 input  -60.11 | X-H torsion
[ 7974 7965 7964 7962 ] final   99.57 input  175.53 | X-H torsion
[ 8008 7997 7996 7995 ] final   66.47 input   59.86 | X-H torsion
[ 10167 10162 10161 10158 ] final   90.82 input  -65.29 | X-H torsion
[ 10718 10713 10712 10709 ] final   94.89 input   66.30 | X-H torsion
[ 10763 10752 10751 10750 ] final  157.90 input  -60.55 | X-H torsion
[ 11005 11000 10999 10996 ] final  -44.83 input  -57.11 | X-H torsion

> <Gold.Protein.ActiveResidues>
 VAL166  LYS551  ARG553  GLY616  TRP617  ASP618  TYR619  PRO620  LYS621  CYS622 
 ASP623  PHE694  ASN695  SER759  ASP760  ASP761  ALA762  ILE779  LEU786  VAL792 
 PHE793  MET794  SER795  GLU796  ALA797  LYS798  CYS799  TRP800  GLU811  SER814 

> <Gold.Protein.RotatedAtoms>
  152.1674  133.4621  159.4891 H   0  0  0  0  0  0  0  0  0  0  0  0  # atno 6907 bound_to 6896
  150.6915  134.1996  159.4326 H   0  0  0  0  0  0  0  0  0  0  0  0  # atno 6908 bound_to 6896
  151.9901  134.9983  160.0612 H   0  0  0  0  0  0  0  0  0  0  0  0  # atno 6909 bound_to 6896
  145.3971  139.2353  143.3320 H   0  0  0  0  0  0  0  0  0  0  0  0  # atno 7974 bound_to 7965
  155.6779  140.3496  155.4844 H   0  0  0  0  0  0  0  0  0  0  0  0  # atno 8008 bound_to 7997
  155.9632  140.1141  157.0900 H   0  0  0  0  0  0  0  0  0  0  0  0  # atno 8009 bound_to 7997
  154.4148  140.1171  156.5193 H   0  0  0  0  0  0  0  0  0  0  0  0  # atno 8010 bound_to 7997
  139.8435  144.6629  150.9255 H   0  0  0  0  0  0  0  0  0  0  0  0  # atno 10167 bound_to 10162
  157.6944  131.0527  150.4255 H   0  0  0  0  0  0  0  0  0  0  0  0  # atno 10718 bound_to 10713
  154.2076  135.2787  155.2969 H   0  0  0  0  0  0  0  0  0  0  0  0  # atno 10763 bound_to 10752
  154.5804  135.5591  153.7183 H   0  0  0  0  0  0  0  0  0  0  0  0  # atno 10764 bound_to 10752
  153.0072  135.6343  154.2215 H   0  0  0  0  0  0  0  0  0  0  0  0  # atno 10765 bound_to 10752
  141.0476  133.6755  156.2928 H   0  0  0  0  0  0  0  0  0  0  0  0  # atno 11005 bound_to 11000
  146.2770  140.4663  142.8791 LP  0  0  0  0  0  0  0  0  0  0  0  0  # atno 17320 bound_to 7965
  144.8399  140.6841  143.6236 LP  0  0  0  0  0  0  0  0  0  0  0  0  # atno 17321 bound_to 7965
  140.7795  143.3891  151.1341 LP  0  0  0  0  0  0  0  0  0  0  0  0  # atno 17342 bound_to 10162
  139.7535  143.8742  152.3083 LP  0  0  0  0  0  0  0  0  0  0  0  0  # atno 17343 bound_to 10162
  156.4626  130.4035  149.6567 LP  0  0  0  0  0  0  0  0  0  0  0  0  # atno 17370 bound_to 10713
  156.3676  130.7514  151.2493 LP  0  0  0  0  0  0  0  0  0  0  0  0  # atno 17371 bound_to 10713
  140.6116  134.5452  157.5534 LP  0  0  0  0  0  0  0  0  0  0  0  0  # atno 17394 bound_to 11000
  139.9324  134.7938  156.0893 LP  0  0  0  0  0  0  0  0  0  0  0  0  # atno 17395 bound_to 11000

$$$$
