#       Name:                AV-unprocessed.smi:653
#       Creating user name   scv26
#       Creation time:       Fri Mar 27 00:14:35 2020


#       File generated by GOLD software.
#

@<TRIPOS>MOLECULE
AV-unprocessed.smi:653
    49    50     1
SMALL
NO_CHARGES


@<TRIPOS>ATOM
      1 ****        -5.4037   3.6049   3.0815 C.3            1 S1                 0.0000
      2 ****        -4.7044   2.5547   2.2443 C.ar           1 S1                 0.0000
      3 ****        -4.6513   2.6284   0.8360 C.ar           1 S1                 0.0000
      4 ****        -3.9793   1.6174   0.1181 C.ar           1 S1                 0.0000
      5 ****        -3.3740   0.5524   0.8217 C.ar           1 S1                 0.0000
      6 ****        -2.6403  -0.5497   0.0775 C.3            1 S1                 0.0000
      7 ****        -1.1411  -0.2498   0.0083 C.2            1 S1                 0.0000
      8 ****        -0.7454   0.8111  -0.4753 O.2            1 S1                 0.0000
      9 ****        -0.3180  -1.1904   0.4963 N.am           1 S1                 0.0000
     10 ****         1.1375  -1.0946   0.5227 C.3            1 S1                 0.0000
     11 ****         1.7634  -1.4178  -0.8486 C.3            1 S1                 0.0000
     12 ****         1.5133  -2.8337  -1.3319 C.3            1 S1                 0.0000
     13 ****         2.5989  -2.9984  -2.3898 C.3            1 S1                 0.0000
     14 ****         3.7041  -2.2276  -1.9290 O.3            1 S1                 0.0000
     15 ****         3.2984  -1.3701  -0.8632 C.3            1 S1                 0.0000
     16 ****         3.9349   0.0326  -0.9992 C.3            1 S1                 0.0000
     17 ****         3.6465   0.7092  -2.3519 C.3            1 S1                 0.0000
     18 ****         5.4480  -0.0268  -0.7373 C.3            1 S1                 0.0000
     19 ****        -3.4599   0.5317   2.2308 C.ar           1 S1                 0.0000
     20 ****        -4.1114   1.5203   2.8817 N.pl3          1 S1                 1.0000
     21 ****        -6.1549   4.1331   2.4936 H              1 S1                 0.0000
     22 ****        -4.6825   4.3340   3.4514 H              1 S1                 0.0000
     23 ****        -5.9032   3.1493   3.9371 H              1 S1                 0.0000
     24 ****        -5.1172   3.4490   0.3097 H              1 S1                 0.0000
     25 ****        -3.9266   1.6631  -0.9600 H              1 S1                 0.0000
     26 ****        -2.8210  -1.5057   0.5718 H              1 S1                 0.0000
     27 ****        -3.0319  -0.6402  -0.9365 H              1 S1                 0.0000
     28 ****        -0.7264  -2.0343   0.8715 H              1 S1                 0.0000
     29 ****         1.4343  -0.0971   0.8503 H              1 S1                 0.0000
     30 ****         1.5088  -1.7870   1.2788 H              1 S1                 0.0000
     31 ****         1.3654  -0.7354  -1.5989 H              1 S1                 0.0000
     32 ****         1.6692  -3.5481  -0.5223 H              1 S1                 0.0000
     33 ****         0.5091  -2.9814  -1.7306 H              1 S1                 0.0000
     34 ****         2.8760  -4.0412  -2.5452 H              1 S1                 0.0000
     35 ****         2.2651  -2.5898  -3.3446 H              1 S1                 0.0000
     36 ****         3.6570  -1.8350   0.0569 H              1 S1                 0.0000
     37 ****         3.5069   0.6660  -0.2216 H              1 S1                 0.0000
     38 ****         4.0211   0.1125  -3.1839 H              1 S1                 0.0000
     39 ****         4.1266   1.6864  -2.4077 H              1 S1                 0.0000
     40 ****         2.5812   0.8716  -2.5102 H              1 S1                 0.0000
     41 ****         5.9550  -0.6454  -1.4783 H              1 S1                 0.0000
     42 ****         5.6620  -0.4440   0.2471 H              1 S1                 0.0000
     43 ****         5.8934   0.9678  -0.7737 H              1 S1                 0.0000
     44 ****        -3.0270  -0.2376   2.8535 H              1 S1                 0.0000
     45 ****        -4.1574   1.4853   3.9003 H              1 S1                 0.0000
     46 ****        -1.4039   1.4783  -0.8236 LP             1 S1                 0.0000
     47 ****         0.2345   1.0056  -0.5198 LP             1 S1                 0.0000
     48 ****         4.0569  -1.6731  -2.6827 LP             1 S1                 0.0000
     49 ****         4.4222  -2.8424  -1.6029 LP             1 S1                 0.0000
@<TRIPOS>BOND
    1    1    2 1     
    2    1   21 1     
    3    1   22 1     
    4    1   23 1     
    5    2   20 ar    
    6    2    3 ar    
    7    3    4 ar    
    8    3   24 1     
    9    4    5 ar    
   10    4   25 1     
   11    5    6 1     
   12    5   19 ar    
   13    6    7 1     
   14    6   26 1     
   15    6   27 1     
   16    7    8 2     
   17    7    9 am    
   18    9   10 1     
   19    9   28 1     
   20   10   11 1     
   21   10   29 1     
   22   10   30 1     
   23   11   15 1     
   24   11   12 1     
   25   11   31 1     
   26   12   13 1     
   27   12   32 1     
   28   12   33 1     
   29   13   14 1     
   30   13   34 1     
   31   13   35 1     
   32   14   15 1     
   33   15   16 1     
   34   15   36 1     
   35   16   17 1     
   36   16   18 1     
   37   16   37 1     
   38   17   38 1     
   39   17   39 1     
   40   17   40 1     
   41   18   41 1     
   42   18   42 1     
   43   18   43 1     
   44   19   20 ar    
   45   19   44 1     
   46   20   45 1     
   47    8   46 1     
   48    8   47 1     
   49   14   48 1     
   50   14   49 1     
@<TRIPOS>SUBSTRUCTURE
      1 S1             1
@<TRIPOS>SET
LONE_PAIRS      STATIC     ATOMS    <user>   **** ""
4 46 47 48 49
DONOR_HYDROGENS      STATIC     ATOMS    <user>   **** ""
2 28 45
ATOM$BLUE        STATIC     ATOMS    COLORGROUP SYSTEM
4 46 47 48 49
ATOM$RED        STATIC     ATOMS    COLORGROUP SYSTEM
2 28 45
