AV-unprocessed.smi:3147|AV-procd|sdf|11989|dock8
  -GOLD-   2272017393D 1   1.00000     0.00000
 Structure written by MMmdl.
 36 37  0  0  0  0  0  0  0  0  1 V2000
  150.8907  141.8996  157.2602 C   0  0  0  0  0  0  0  0  0  0  0  0
  150.6904  140.8676  156.1943 C   0  0  0  0  0  0  0  0  0  0  0  0
  149.6585  140.9767  155.2652 N   0  0  0  0  0  0  0  0  0  0  0  0
  149.8068  139.9039  154.5005 C   0  0  0  0  0  0  0  0  0  0  0  0
  150.8307  139.1106  154.8458 N   0  0  0  0  0  0  0  0  0  0  0  0
  151.2269  137.8727  154.1910 C   0  0  0  0  0  0  0  0  0  0  0  0
  151.1626  136.6558  155.1221 C   0  0  0  0  0  0  0  0  0  0  0  0
  151.8802  136.5783  156.1205 O   0  0  0  0  0  0  0  0  0  0  0  0
  150.2810  135.7061  154.7752 N   0  0  0  0  0  0  0  0  0  0  0  0
  150.0138  134.4858  155.5308 C   0  0  0  0  0  0  0  0  0  0  0  0
  148.9166  133.6168  154.8858 C   0  0  2  0  0  0  0  0  0  0  0  0
  149.2417  133.0542  153.4989 C   0  0  0  0  0  0  0  0  0  0  0  0
  147.8575  132.8282  152.9350 C   0  0  0  0  0  0  0  0  0  0  0  0
  147.1064  134.0431  153.4702 C   0  0  0  0  0  0  0  0  0  0  0  0
  147.6975  134.3408  154.7321 O   0  0  0  0  0  0  0  0  0  0  0  0
  151.4215  139.7246  155.9490 C   0  0  0  0  0  0  0  0  0  0  0  0
  152.6191  139.1747  156.6538 C   0  0  0  0  0  0  0  0  0  0  0  0
  150.8701  141.4479  158.2521 H   0  0  0  0  0  0  0  0  0  0  0  0
  150.1141  142.6644  157.2306 H   0  0  0  0  0  0  0  0  0  0  0  0
  151.8518  142.4007  157.1441 H   0  0  0  0  0  0  0  0  0  0  0  0
  149.1530  139.6892  153.6679 H   0  0  0  0  0  0  0  0  0  0  0  0
  150.5817  137.7116  153.3266 H   0  0  0  0  0  0  0  0  0  0  0  0
  152.2446  137.9823  153.8140 H   0  0  0  0  0  0  0  0  0  0  0  0
  149.7369  135.8492  153.9369 H   0  0  0  0  0  0  0  0  0  0  0  0
  150.9425  133.9169  155.5799 H   0  0  0  0  0  0  0  0  0  0  0  0
  149.7486  134.7221  156.5626 H   0  0  0  0  0  0  0  0  0  0  0  0
  148.6971  132.7802  155.5508 H   0  0  0  0  0  0  0  0  0  0  0  0
  149.7707  133.7823  152.8831 H   0  0  0  0  0  0  0  0  0  0  0  0
  149.8407  132.1441  153.5401 H   0  0  0  0  0  0  0  0  0  0  0  0
  147.8410  132.7616  151.8468 H   0  0  0  0  0  0  0  0  0  0  0  0
  147.4306  131.9108  153.3424 H   0  0  0  0  0  0  0  0  0  0  0  0
  147.2533  134.8978  152.8095 H   0  0  0  0  0  0  0  0  0  0  0  0
  146.0347  133.8664  153.5627 H   0  0  0  0  0  0  0  0  0  0  0  0
  152.8792  139.7811  157.5212 H   0  0  0  0  0  0  0  0  0  0  0  0
  153.4822  139.1574  155.9884 H   0  0  0  0  0  0  0  0  0  0  0  0
  152.4359  138.1576  157.0001 H   0  0  0  0  0  0  0  0  0  0  0  0
  1  2  1  0  0  0  0
  1 18  1  0  0  0  0
  1 19  1  0  0  0  0
  1 20  1  0  0  0  0
  2 16  2  0  0  0  0
  2  3  1  0  0  0  0
  3  4  2  0  0  0  0
  4  5  1  0  0  0  0
  4 21  1  0  0  0  0
  5  6  1  0  0  0  0
  5 16  1  0  0  0  0
  6  7  1  0  0  0  0
  6 22  1  0  0  0  0
  6 23  1  0  0  0  0
  7  8  2  0  0  0  0
  7  9  1  0  0  0  0
  9 10  1  0  0  0  0
  9 24  1  0  0  0  0
 10 11  1  0  0  0  0
 10 25  1  0  0  0  0
 10 26  1  0  0  0  0
 11 15  1  0  0  0  0
 11 12  1  0  0  0  0
 11 27  1  0  0  0  0
 12 13  1  0  0  0  0
 12 28  1  0  0  0  0
 12 29  1  0  0  0  0
 13 14  1  0  0  0  0
 13 30  1  0  0  0  0
 13 31  1  0  0  0  0
 14 15  1  0  0  0  0
 14 32  1  0  0  0  0
 14 33  1  0  0  0  0
 16 17  1  0  0  0  0
 17 34  1  0  0  0  0
 17 35  1  0  0  0  0
 17 36  1  0  0  0  0
M  END
> <s_m_source_file>
AV-unprocessed.smi

> <i_m_source_file_index>
3147

> <i_lp_mmshare_version>
43012

> <i_f3d_flags>
0

> <s_epik_input>
W0NIM11jMW5bY0hdbihjMVtDSDNdKVtDSDJdQyg9TylbTkhdW0NIMl1bQ0BASF0yW0NIMl1bQ0gyXVtDSDJdTzI=

> <s_epik_cmdline>
J2VwaWtfcHl0aG9uJywgJy1waCcsICc3LjAnLCAnLXRuJywgJzgnLCAnLW1hJywgJzIwMCcsICctbWV0YWxfYmluZGluZycsICctaW1hZScsICc8aW5maWxlLm1hZT4nLCAnLW9tYWUnLCAnPG91dGZpbGUubWFlPic=

> <r_lp_tautomer_probability>
1

> <r_epik_Ionization_Penalty>
0.957393

> <r_epik_Ionization_Penalty_Charging>
0.957393

> <r_epik_Ionization_Penalty_Neutral>
1.43432e-07

> <r_epik_State_Penalty>
1.0022

> <r_epik_Charging_Adjusted_Penalty>
1.9596

> <i_epik_Tot_Q>
0

> <i_epik_Tot_abs_Q>
0

> <r_epik_Metal_State_Penalty>
0.374967

> <b_epik_Metal_Only>
0

> <s_lp_Force_Field>
OPLS_2005

> <r_lp_Energy>
19.2408

> <b_lp_Chiralities_Consistent>
1

> <s_lp_Variant>
AV-unprocessed.smi:3147-3

> <Gold.Version>
5.8.1

> <Gold.Id.Protein>
6NUR|6NUR_protein|mol2

> <Gold.PLP.Fitness>
39.5788

> <Gold.PLP.PLP>
-30.8246

> <Gold.PLP.part.hbond>
-2.3302

> <Gold.PLP.part.metal>
0.0000

> <Gold.PLP.part.buried>
0.3661

> <Gold.PLP.part.nonpolar>
-28.7828

> <Gold.PLP.part.repulsive>
0.2806

> <Gold.PLP.ligand.clash>
0.0000

> <Gold.PLP.ligand.torsion>
0.0191

> <Gold.PLP.Chemscore.Hbond>
2.0000

> <Gold.PLP.Chemscore.CHOScore>
0.9279

> <Gold.PLP.Chemscore.Metal>
0.0000

> <Gold.Chemscore.Hbonds>
donor molecule, donor type, donor heavy atom, donor atom, acceptor molecule, acceptor atom, score
      L1  H     9    24       P1  7948  0.54
      P1  H 10752 10764       L1     8  0.60
      L1  C     4    21       P1  7957  0.86

> <Gold.PLP.Chemscore.Internal.Correction>
0.0088

> <Gold.Rescore>
     Score         DG    S(hbond)    S(metal)    S(lipo)     H(rot)  DE(clash)    DE(int)     intcor
     10.28     -13.09       1.49        0.00      59.87       1.70       1.44       1.38       ----

> <Gold.Chemscore.Fitness>
10.2790

> <Gold.Chemscore.DG>
-13.0943

> <Gold.Chemscore.ZeroCoef>
-5.4800

> <Gold.Chemscore.Hbond>
1.4882

> <Gold.Chemscore.Metal>
0.0000

> <Gold.Chemscore.Lipo>
59.8676

> <Gold.Chemscore.Internal_Hbond>
0.0000

> <Gold.Chemscore.DEClash>
1.4384

> <Gold.Chemscore.DEInternal>
1.3769

> <Gold.Chemscore.Rot>
1.7034

> <Gold.Chemscore.Internal.Correction>
   9.000000E+99

> <Gold.Chemscore.Hbonds>
donor molecule, donor type, donor heavy atom, donor atom, acceptor molecule, acceptor atom, score
      L1  H     9    24       P1  7948  0.14
      P1  H 10752 10764       L1     8  0.04

> <Gold.Chemscore.Hbond.Weighted>
-4.9704

> <Gold.Chemscore.Metal.Weighted>
-0.0000

> <Gold.Chemscore.Lipo.Weighted>
-7.0045

> <Gold.Chemscore.Internal_Hbond.Weighted>
0.0000

> <Gold.Chemscore.DEClash.Weighted>
1.4384

> <Gold.Chemscore.DEInternal.Weighted>
1.3769

> <Gold.Chemscore.Rot.Weighted>
4.3607

> <Gold.Chemscore.Internal.Correction.Weighted>
   9.000000E+99

> <Gold.Protein.RotatedTorsions>
[ 6907 6896 6895 6894 ] final   67.52 input  -60.11 | X-H torsion
[ 7974 7965 7964 7962 ] final  149.20 input  175.53 | X-H torsion
[ 8008 7997 7996 7995 ] final  140.80 input   59.86 | X-H torsion
[ 10167 10162 10161 10158 ] final  -80.16 input  -65.29 | X-H torsion
[ 10718 10713 10712 10709 ] final   29.76 input   66.30 | X-H torsion
[ 10763 10752 10751 10750 ] final  -22.10 input  -60.55 | X-H torsion
[ 11005 11000 10999 10996 ] final   56.98 input  -57.11 | X-H torsion

> <Gold.Protein.ActiveResidues>
 VAL166  LYS551  ARG553  GLY616  TRP617  ASP618  TYR619  PRO620  LYS621  CYS622 
 ASP623  PHE694  ASN695  SER759  ASP760  ASP761  ALA762  ILE779  LEU786  VAL792 
 PHE793  MET794  SER795  GLU796  ALA797  LYS798  CYS799  TRP800  GLU811  SER814 

> <Gold.Protein.RotatedAtoms>
  152.4557  134.5296  159.9806 H   0  0  0  0  0  0  0  0  0  0  0  0  # atno 6907 bound_to 6896
  151.5358  133.3435  159.2934 H   0  0  0  0  0  0  0  0  0  0  0  0  # atno 6908 bound_to 6896
  150.8501  134.7853  159.7064 H   0  0  0  0  0  0  0  0  0  0  0  0  # atno 6909 bound_to 6896
  144.8456  139.6250  143.5997 H   0  0  0  0  0  0  0  0  0  0  0  0  # atno 7974 bound_to 7965
  156.2974  140.2332  156.4461 H   0  0  0  0  0  0  0  0  0  0  0  0  # atno 8008 bound_to 7997
  154.8143  140.0441  157.1386 H   0  0  0  0  0  0  0  0  0  0  0  0  # atno 8009 bound_to 7997
  154.9387  140.3026  155.5135 H   0  0  0  0  0  0  0  0  0  0  0  0  # atno 8010 bound_to 7997
  140.4528  143.2477  151.8464 H   0  0  0  0  0  0  0  0  0  0  0  0  # atno 10167 bound_to 10162
  157.2507  130.7114  149.6404 H   0  0  0  0  0  0  0  0  0  0  0  0  # atno 10718 bound_to 10713
  153.6465  135.6983  153.5223 H   0  0  0  0  0  0  0  0  0  0  0  0  # atno 10763 bound_to 10752
  153.2740  135.4206  155.1015 H   0  0  0  0  0  0  0  0  0  0  0  0  # atno 10764 bound_to 10752
  154.8487  135.3585  154.6010 H   0  0  0  0  0  0  0  0  0  0  0  0  # atno 10765 bound_to 10752
  140.0487  134.5768  155.9290 H   0  0  0  0  0  0  0  0  0  0  0  0  # atno 11005 bound_to 11000
  146.2741  139.6708  142.9275 LP  0  0  0  0  0  0  0  0  0  0  0  0  # atno 17320 bound_to 7965
  145.4604  141.0432  143.2754 LP  0  0  0  0  0  0  0  0  0  0  0  0  # atno 17321 bound_to 7965
  139.4798  144.5100  151.8946 LP  0  0  0  0  0  0  0  0  0  0  0  0  # atno 17342 bound_to 10162
  140.4187  144.2273  150.5887 LP  0  0  0  0  0  0  0  0  0  0  0  0  # atno 17343 bound_to 10162
  155.9666  130.4428  150.5397 LP  0  0  0  0  0  0  0  0  0  0  0  0  # atno 17370 bound_to 10713
  157.3280  131.0694  151.1882 LP  0  0  0  0  0  0  0  0  0  0  0  0  # atno 17371 bound_to 10713
  141.1920  133.6573  156.5480 LP  0  0  0  0  0  0  0  0  0  0  0  0  # atno 17394 bound_to 11000
  140.3952  134.7405  157.4746 LP  0  0  0  0  0  0  0  0  0  0  0  0  # atno 17395 bound_to 11000

$$$$
