AV-unprocessed.smi:1722|AV-procd|sdf|6944|dock2
  -GOLD-   22720 8153D 1   1.00000     0.00000
 Structure written by MMmdl.
 38 39  0  0  0  0  0  0  0  0  2 V2000
  151.7456  137.9420  157.7459 O   0  0  0  0  0  0  0  0  0  0  0  0
  150.7455  138.6579  157.7090 C   0  0  0  0  0  0  0  0  0  0  0  0
  150.8693  140.0822  157.1707 C   0  0  0  0  0  0  0  0  0  0  0  0
  151.9538  140.7268  157.8260 O   0  0  0  0  0  0  0  0  0  0  0  0
  151.5991  141.9009  158.5431 C   0  0  0  0  0  0  0  0  0  0  0  0
  151.2850  142.9916  157.5037 C   0  0  0  0  0  0  0  0  0  0  0  0
  150.9702  144.3377  158.1756 C   0  0  0  0  0  0  0  0  0  0  0  0
  152.1173  144.7790  159.0983 C   0  0  0  0  0  0  0  0  0  0  0  0
  152.4380  143.6956  160.1402 C   0  0  0  0  0  0  0  0  0  0  0  0
  152.7507  142.3488  159.4678 C   0  0  0  0  0  0  0  0  0  0  0  0
  149.5172  138.3060  158.1377 N   0  0  0  0  0  0  0  0  0  0  0  0
  149.0639  137.0734  158.6369 C   0  0  0  0  0  0  0  0  0  0  0  0
  148.3356  136.9192  159.7772 C   0  0  0  0  0  0  0  0  0  0  0  0
  147.9096  135.6117  160.2603 C   0  0  0  0  0  0  0  0  0  0  0  0
  147.1666  135.3966  161.5670 C   0  0  0  0  0  0  0  0  0  0  0  0
  147.8265  135.9808  162.5660 F   0  0  0  0  0  0  0  0  0  0  0  0
  145.9423  135.9217  161.5146 F   0  0  0  0  0  0  0  0  0  0  0  0
  147.0552  134.0978  161.8460 F   0  0  0  0  0  0  0  0  0  0  0  0
  148.3559  134.5839  159.4523 C   0  0  0  0  0  0  0  0  0  0  0  0
  149.0708  134.6505  158.3076 N   0  5  0  0  0  0  0  0  0  0  0  0
  149.4567  135.8790  157.8608 C   0  0  0  0  0  0  0  0  0  0  0  0
  150.1191  136.0112  156.8310 O   0  0  0  0  0  0  0  0  0  0  0  0
  151.0423  140.0413  156.0943 H   0  0  0  0  0  0  0  0  0  0  0  0
  149.9344  140.6172  157.3393 H   0  0  0  0  0  0  0  0  0  0  0  0
  150.6985  141.7193  159.1329 H   0  0  0  0  0  0  0  0  0  0  0  0
  152.1348  143.1125  156.8304 H   0  0  0  0  0  0  0  0  0  0  0  0
  150.4428  142.6818  156.8839 H   0  0  0  0  0  0  0  0  0  0  0  0
  150.7904  145.0993  157.4161 H   0  0  0  0  0  0  0  0  0  0  0  0
  150.0485  144.2520  158.7524 H   0  0  0  0  0  0  0  0  0  0  0  0
  153.0066  144.9869  158.5020 H   0  0  0  0  0  0  0  0  0  0  0  0
  151.8555  145.7116  159.5986 H   0  0  0  0  0  0  0  0  0  0  0  0
  153.2822  144.0092  160.7544 H   0  0  0  0  0  0  0  0  0  0  0  0
  151.5906  143.5773  160.8167 H   0  0  0  0  0  0  0  0  0  0  0  0
  152.9412  141.6005  160.2364 H   0  0  0  0  0  0  0  0  0  0  0  0
  153.6707  142.4374  158.8886 H   0  0  0  0  0  0  0  0  0  0  0  0
  148.8149  139.0316  158.1209 H   0  0  0  0  0  0  0  0  0  0  0  0
  148.0641  137.7713  160.3783 H   0  0  0  0  0  0  0  0  0  0  0  0
  148.1051  133.5518  159.7776 H   0  0  0  0  0  0  0  0  0  0  0  0
  1  2  2  0  0  0  0
  2  3  1  0  0  0  0
  2 11  1  0  0  0  0
  3  4  1  0  0  0  0
  3 23  1  0  0  0  0
  3 24  1  0  0  0  0
  4  5  1  0  0  0  0
  5 10  1  0  0  0  0
  5  6  1  0  0  0  0
  5 25  1  0  0  0  0
  6  7  1  0  0  0  0
  6 26  1  0  0  0  0
  6 27  1  0  0  0  0
  7  8  1  0  0  0  0
  7 28  1  0  0  0  0
  7 29  1  0  0  0  0
  8  9  1  0  0  0  0
  8 30  1  0  0  0  0
  8 31  1  0  0  0  0
  9 10  1  0  0  0  0
  9 32  1  0  0  0  0
  9 33  1  0  0  0  0
 10 34  1  0  0  0  0
 10 35  1  0  0  0  0
 11 12  1  0  0  0  0
 11 36  1  0  0  0  0
 12 21  1  0  0  0  0
 12 13  2  0  0  0  0
 13 14  1  0  0  0  0
 13 37  1  0  0  0  0
 14 15  1  0  0  0  0
 14 19  2  0  0  0  0
 15 16  1  0  0  0  0
 15 17  1  0  0  0  0
 15 18  1  0  0  0  0
 19 20  1  0  0  0  0
 19 38  1  0  0  0  0
 20 21  1  0  0  0  0
 21 22  2  0  0  0  0
M  CHG  1  20  -1
M  END
> <s_m_source_file>
AV-unprocessed.smi

> <i_m_source_file_index>
1722

> <i_lp_mmshare_version>
43012

> <i_f3d_flags>
0

> <s_epik_input>
Tz1jMVtuSF1bY0hdYyhDKEYpKEYpRilbY0hdYzFbTkhdQyg9TylbQ0gyXU9bQ0hdMltDSDJdW0NIMl1bQ0gyXVtDSDJdW0NIMl0y

> <s_epik_cmdline>
J2VwaWtfcHl0aG9uJywgJy1waCcsICc3LjAnLCAnLXRuJywgJzgnLCAnLW1hJywgJzIwMCcsICctbWV0YWxfYmluZGluZycsICctaW1hZScsICc8aW5maWxlLm1hZT4nLCAnLW9tYWUnLCAnPG91dGZpbGUubWFlPic=

> <r_epik_Ionization_Penalty>
2.55378

> <r_epik_Ionization_Penalty_Charging>
0.0617094

> <r_epik_Ionization_Penalty_Neutral>
2.49207

> <r_epik_State_Penalty>
2.65647

> <r_epik_Charging_Adjusted_Penalty>
2.71818

> <i_epik_Tot_Q>
-1

> <i_epik_Tot_abs_Q>
1

> <r_epik_Metal_State_Penalty>
0.516461

> <b_epik_Metal_Only>
0

> <s_lp_Force_Field>
OPLS_2005

> <r_lp_Energy>
27.5399

> <b_lp_Chiralities_Consistent>
1

> <s_lp_Variant>
AV-unprocessed.smi:1722-2

> <Gold.Version>
5.8.1

> <Gold.Id.Protein>
6NUR|6NUR_protein|mol2

> <Gold.PLP.Fitness>
45.5744

> <Gold.PLP.PLP>
-42.7107

> <Gold.PLP.part.hbond>
-1.0000

> <Gold.PLP.part.metal>
0.0000

> <Gold.PLP.part.buried>
-2.5221

> <Gold.PLP.part.nonpolar>
-39.1449

> <Gold.PLP.part.repulsive>
0.1737

> <Gold.PLP.ligand.clash>
0.0000

> <Gold.PLP.ligand.torsion>
1.0290

> <Gold.PLP.Chemscore.Hbond>
1.6000

> <Gold.PLP.Chemscore.CHOScore>
0.0000

> <Gold.PLP.Chemscore.Metal>
0.0000

> <Gold.Chemscore.Hbonds>
donor molecule, donor type, donor heavy atom, donor atom, acceptor molecule, acceptor atom, score
      P1  H  6896  6907       L1    20  0.51

> <Gold.PLP.Chemscore.Internal.Correction>
0.1217

> <Gold.Rescore>
     Score         DG    S(hbond)    S(metal)    S(lipo)     H(rot)  DE(clash)    DE(int)     intcor
     11.52     -12.91       0.00        0.00      97.89       1.57       0.03       1.36       ----

> <Gold.Chemscore.Fitness>
11.5180

> <Gold.Chemscore.DG>
-12.9091

> <Gold.Chemscore.ZeroCoef>
-5.4800

> <Gold.Chemscore.Hbond>
0.0000

> <Gold.Chemscore.Metal>
0.0000

> <Gold.Chemscore.Lipo>
97.8867

> <Gold.Chemscore.Internal_Hbond>
0.0000

> <Gold.Chemscore.DEClash>
0.0276

> <Gold.Chemscore.DEInternal>
1.3635

> <Gold.Chemscore.Rot>
1.5717

> <Gold.Chemscore.Internal.Correction>
   9.000000E+99

> <Gold.Chemscore.Hbond.Weighted>
-0.0000

> <Gold.Chemscore.Metal.Weighted>
-0.0000

> <Gold.Chemscore.Lipo.Weighted>
-11.4527

> <Gold.Chemscore.Internal_Hbond.Weighted>
0.0000

> <Gold.Chemscore.DEClash.Weighted>
0.0276

> <Gold.Chemscore.DEInternal.Weighted>
1.3635

> <Gold.Chemscore.Rot.Weighted>
4.0237

> <Gold.Chemscore.Internal.Correction.Weighted>
   9.000000E+99

> <Gold.Protein.RotatedTorsions>
[ 6907 6896 6895 6894 ] final  -87.78 input  -60.11 | X-H torsion
[ 7974 7965 7964 7962 ] final  131.62 input  175.53 | X-H torsion
[ 8008 7997 7996 7995 ] final   85.86 input   59.86 | X-H torsion
[ 10167 10162 10161 10158 ] final -105.61 input  -65.29 | X-H torsion
[ 10718 10713 10712 10709 ] final   90.48 input   66.30 | X-H torsion
[ 10763 10752 10751 10750 ] final   -1.47 input  -60.55 | X-H torsion
[ 11005 11000 10999 10996 ] final   75.78 input  -57.11 | X-H torsion

> <Gold.Protein.ActiveResidues>
 VAL166  LYS551  ARG553  GLY616  TRP617  ASP618  TYR619  PRO620  LYS621  CYS622 
 ASP623  PHE694  ASN695  SER759  ASP760  ASP761  ALA762  ILE779  LEU786  VAL792 
 PHE793  MET794  SER795  GLU796  ALA797  LYS798  CYS799  TRP800  GLU811  SER814 

> <Gold.Protein.RotatedAtoms>
  150.6867  134.2844  159.4640 H   0  0  0  0  0  0  0  0  0  0  0  0  # atno 6907 bound_to 6896
  152.0755  134.9503  160.0583 H   0  0  0  0  0  0  0  0  0  0  0  0  # atno 6908 bound_to 6896
  152.0876  133.4149  159.4566 H   0  0  0  0  0  0  0  0  0  0  0  0  # atno 6909 bound_to 6896
  145.0054  139.4272  143.5271 H   0  0  0  0  0  0  0  0  0  0  0  0  # atno 7974 bound_to 7965
  155.9554  140.3397  155.6444 H   0  0  0  0  0  0  0  0  0  0  0  0  # atno 8008 bound_to 7997
  155.6866  140.0744  157.2482 H   0  0  0  0  0  0  0  0  0  0  0  0  # atno 8009 bound_to 7997
  154.4131  140.1664  156.2028 H   0  0  0  0  0  0  0  0  0  0  0  0  # atno 8010 bound_to 7997
  140.1967  143.3850  152.1163 H   0  0  0  0  0  0  0  0  0  0  0  0  # atno 10167 bound_to 10162
  157.6959  131.0372  150.3584 H   0  0  0  0  0  0  0  0  0  0  0  0  # atno 10718 bound_to 10713
  153.3453  135.6983  153.6833 H   0  0  0  0  0  0  0  0  0  0  0  0  # atno 10763 bound_to 10752
  153.5581  135.3540  155.2788 H   0  0  0  0  0  0  0  0  0  0  0  0  # atno 10764 bound_to 10752
  154.8644  135.4242  154.2676 H   0  0  0  0  0  0  0  0  0  0  0  0  # atno 10765 bound_to 10752
  139.9328  134.7546  156.1314 H   0  0  0  0  0  0  0  0  0  0  0  0  # atno 11005 bound_to 11000
  146.3460  139.9466  142.8734 LP  0  0  0  0  0  0  0  0  0  0  0  0  # atno 17320 bound_to 7965
  145.2096  140.9890  143.4108 LP  0  0  0  0  0  0  0  0  0  0  0  0  # atno 17321 bound_to 7965
  139.5234  144.7070  151.5322 LP  0  0  0  0  0  0  0  0  0  0  0  0  # atno 17342 bound_to 10162
  140.6419  143.8873  150.6699 LP  0  0  0  0  0  0  0  0  0  0  0  0  # atno 17343 bound_to 10162
  156.4024  130.3918  149.6950 LP  0  0  0  0  0  0  0  0  0  0  0  0  # atno 17370 bound_to 10713
  156.4263  130.7793  151.2812 LP  0  0  0  0  0  0  0  0  0  0  0  0  # atno 17371 bound_to 10713
  141.0926  133.6708  156.2574 LP  0  0  0  0  0  0  0  0  0  0  0  0  # atno 17394 bound_to 11000
  140.6156  134.5414  157.5540 LP  0  0  0  0  0  0  0  0  0  0  0  0  # atno 17395 bound_to 11000

$$$$
