AV-unprocessed.smi:2149|AV-procd|sdf|8752|dock5
  -GOLD-   2272011523D 1   1.00000     0.00000
 Structure written by MMmdl.
 42 43  0  0  0  0  0  0  0  0  1 V2000
  146.5130  135.8834  158.3277 C   0  0  0  0  0  0  0  0  0  0  0  0
  148.1090  136.4236  159.0653 S   0  0  0  0  0  0  0  0  0  0  0  0
  147.8594  136.8193  160.4598 O   0  0  0  0  0  0  0  0  0  0  0  0
  149.1202  135.3976  158.7682 O   0  0  0  0  0  0  0  0  0  0  0  0
  148.5267  137.8573  158.1715 N   0  0  0  0  0  0  0  0  0  0  0  0
  148.0091  138.0527  156.8016 C   0  0  0  0  0  0  0  0  0  0  0  0
  149.0770  137.7380  155.7397 C   0  0  0  0  0  0  0  0  0  0  0  0
  150.3650  138.5283  155.9968 C   0  0  0  0  0  0  0  0  0  0  0  0
  150.8823  138.2320  157.4158 C   0  0  1  0  0  0  0  0  0  0  0  0
  152.1710  139.0125  157.7078 C   0  0  0  0  0  0  0  0  0  0  0  0
  153.0706  139.0621  156.8685 O   0  0  0  0  0  0  0  0  0  0  0  0
  152.2484  139.6159  158.9042 N   0  0  0  0  0  0  0  0  0  0  0  0
  153.3857  140.3973  159.3753 C   0  0  0  0  0  0  0  0  0  0  0  0
  152.9693  141.3969  160.4668 C   0  0  0  0  0  0  0  0  0  0  0  0
  152.4339  142.6917  159.8855 C   0  0  0  0  0  0  0  0  0  0  0  0
  151.9655  143.7209  160.7299 C   0  0  0  0  0  0  0  0  0  0  0  0
  151.4713  144.9001  160.1394 C   0  0  0  0  0  0  0  0  0  0  0  0
  151.4639  145.0040  158.7350 C   0  0  0  0  0  0  0  0  0  0  0  0
  151.9527  143.9191  157.9801 C   0  0  0  0  0  0  0  0  0  0  0  0
  152.4273  142.7837  158.5365 N   0  0  0  0  0  0  0  0  0  0  0  0
  149.7923  138.5634  158.4597 C   0  0  0  0  0  0  0  0  0  0  0  0
  146.1608  134.9969  158.8544 H   0  0  0  0  0  0  0  0  0  0  0  0
  146.6557  135.6348  157.2775 H   0  0  0  0  0  0  0  0  0  0  0  0
  145.7706  136.6726  158.4290 H   0  0  0  0  0  0  0  0  0  0  0  0
  147.1207  137.4432  156.6388 H   0  0  0  0  0  0  0  0  0  0  0  0
  147.6915  139.0910  156.7004 H   0  0  0  0  0  0  0  0  0  0  0  0
  149.2964  136.6712  155.7316 H   0  0  0  0  0  0  0  0  0  0  0  0
  148.6901  137.9760  154.7485 H   0  0  0  0  0  0  0  0  0  0  0  0
  151.1163  138.2620  155.2522 H   0  0  0  0  0  0  0  0  0  0  0  0
  150.1671  139.5947  155.8761 H   0  0  0  0  0  0  0  0  0  0  0  0
  151.1132  137.1687  157.4748 H   0  0  0  0  0  0  0  0  0  0  0  0
  151.4644  139.5262  159.5344 H   0  0  0  0  0  0  0  0  0  0  0  0
  154.1718  139.7338  159.7403 H   0  0  0  0  0  0  0  0  0  0  0  0
  153.8042  140.9328  158.5228 H   0  0  0  0  0  0  0  0  0  0  0  0
  152.2092  140.9519  161.1102 H   0  0  0  0  0  0  0  0  0  0  0  0
  153.8187  141.6272  161.1118 H   0  0  0  0  0  0  0  0  0  0  0  0
  151.9822  143.6111  161.8044 H   0  0  0  0  0  0  0  0  0  0  0  0
  151.1045  145.7100  160.7526 H   0  0  0  0  0  0  0  0  0  0  0  0
  151.0928  145.8932  158.2476 H   0  0  0  0  0  0  0  0  0  0  0  0
  151.9621  143.9643  156.9012 H   0  0  0  0  0  0  0  0  0  0  0  0
  149.5883  139.6353  158.4630 H   0  0  0  0  0  0  0  0  0  0  0  0
  150.1374  138.3167  159.4638 H   0  0  0  0  0  0  0  0  0  0  0  0
  1  2  1  0  0  0  0
  1 22  1  0  0  0  0
  1 23  1  0  0  0  0
  1 24  1  0  0  0  0
  2  3  2  0  0  0  0
  2  4  2  0  0  0  0
  2  5  1  0  0  0  0
  5 21  1  0  0  0  0
  5  6  1  0  0  0  0
  6  7  1  0  0  0  0
  6 25  1  0  0  0  0
  6 26  1  0  0  0  0
  7  8  1  0  0  0  0
  7 27  1  0  0  0  0
  7 28  1  0  0  0  0
  8  9  1  0  0  0  0
  8 29  1  0  0  0  0
  8 30  1  0  0  0  0
  9 10  1  0  0  0  0
  9 21  1  0  0  0  0
  9 31  1  0  0  0  0
 10 11  2  0  0  0  0
 10 12  1  0  0  0  0
 12 13  1  0  0  0  0
 12 32  1  0  0  0  0
 13 14  1  0  0  0  0
 13 33  1  0  0  0  0
 13 34  1  0  0  0  0
 14 15  1  0  0  0  0
 14 35  1  0  0  0  0
 14 36  1  0  0  0  0
 15 20  1  0  0  0  0
 15 16  2  0  0  0  0
 16 17  1  0  0  0  0
 16 37  1  0  0  0  0
 17 18  2  0  0  0  0
 17 38  1  0  0  0  0
 18 19  1  0  0  0  0
 18 39  1  0  0  0  0
 19 20  2  0  0  0  0
 19 40  1  0  0  0  0
 21 41  1  0  0  0  0
 21 42  1  0  0  0  0
M  END
> <s_m_source_file>
AV-unprocessed.smi

> <i_m_source_file_index>
2149

> <i_lp_mmshare_version>
43012

> <i_f3d_flags>
0

> <s_epik_input>
W0NIM11TKD1PKSg9TylOMVtDSDJdW0NIMl1bQ0gyXVtDQEhdKFtDSDJdMSlDKD1PKVtOSF1bQ0gyXVtDSDJdYzJbY0hdW2NIXVtjSF1bY0hdbjI=

> <s_epik_cmdline>
J2VwaWtfcHl0aG9uJywgJy1waCcsICc3LjAnLCAnLXRuJywgJzgnLCAnLW1hJywgJzIwMCcsICctbWV0YWxfYmluZGluZycsICctaW1hZScsICc8aW5maWxlLm1hZT4nLCAnLW9tYWUnLCAnPG91dGZpbGUubWFlPic=

> <r_epik_Ionization_Penalty>
0.0273806

> <r_epik_Ionization_Penalty_Charging>
0

> <r_epik_Ionization_Penalty_Neutral>
0.0273806

> <r_epik_State_Penalty>
0.0224071

> <r_epik_Charging_Adjusted_Penalty>
0.0224071

> <i_epik_Tot_Q>
0

> <i_epik_Tot_abs_Q>
0

> <r_epik_Metal_State_Penalty>
0.0214134

> <b_epik_Metal_Only>
0

> <s_lp_Force_Field>
OPLS_2005

> <r_lp_Energy>
-0.402048

> <b_lp_Chiralities_Consistent>
1

> <s_lp_Variant>
AV-unprocessed.smi:2149-1

> <Gold.Version>
5.8.1

> <Gold.Id.Protein>
6NUR|6NUR_protein|mol2

> <Gold.PLP.Fitness>
46.4591

> <Gold.PLP.PLP>
-38.9864

> <Gold.PLP.part.hbond>
-3.6616

> <Gold.PLP.part.metal>
0.0000

> <Gold.PLP.part.buried>
-6.2286

> <Gold.PLP.part.nonpolar>
-30.2372

> <Gold.PLP.part.repulsive>
0.1230

> <Gold.PLP.ligand.clash>
1.4845

> <Gold.PLP.ligand.torsion>
1.8578

> <Gold.PLP.Chemscore.Hbond>
3.5289

> <Gold.PLP.Chemscore.CHOScore>
0.0000

> <Gold.PLP.Chemscore.Metal>
0.0000

> <Gold.Chemscore.Hbonds>
donor molecule, donor type, donor heavy atom, donor atom, acceptor molecule, acceptor atom, score
      P1  H  6896  6907       L1     4  1.00
      P1  H  6931  6943       L1     3  0.19
      P1  H  6934  6947       L1     3  0.19
      P1  H  7997  8010       L1    11  1.00

> <Gold.PLP.Chemscore.Internal.Correction>
2.0862

> <Gold.Rescore>
     Score         DG    S(hbond)    S(metal)    S(lipo)     H(rot)  DE(clash)    DE(int)     intcor
     22.88     -24.77       3.57        0.00      97.16       1.56       0.04       1.85       ----

> <Gold.Chemscore.Fitness>
22.8779

> <Gold.Chemscore.DG>
-24.7679

> <Gold.Chemscore.ZeroCoef>
-5.4800

> <Gold.Chemscore.Hbond>
3.5701

> <Gold.Chemscore.Metal>
0.0000

> <Gold.Chemscore.Lipo>
97.1641

> <Gold.Chemscore.Internal_Hbond>
0.0000

> <Gold.Chemscore.DEClash>
0.0414

> <Gold.Chemscore.DEInternal>
1.8485

> <Gold.Chemscore.Rot>
1.5643

> <Gold.Chemscore.Internal.Correction>
   9.000000E+99

> <Gold.Chemscore.Hbonds>
donor molecule, donor type, donor heavy atom, donor atom, acceptor molecule, acceptor atom, score
      P1  H  6896  6907       L1     4  1.00
      P1  H  6931  6943       L1     3  0.20
      P1  H  6934  6947       L1     3  0.18
      P1  H  7997  8010       L1    11  1.00

> <Gold.Chemscore.Hbond.Weighted>
-11.9243

> <Gold.Chemscore.Metal.Weighted>
-0.0000

> <Gold.Chemscore.Lipo.Weighted>
-11.3682

> <Gold.Chemscore.Internal_Hbond.Weighted>
0.0000

> <Gold.Chemscore.DEClash.Weighted>
0.0414

> <Gold.Chemscore.DEInternal.Weighted>
1.8485

> <Gold.Chemscore.Rot.Weighted>
4.0046

> <Gold.Chemscore.Internal.Correction.Weighted>
   9.000000E+99

> <Gold.Protein.RotatedTorsions>
[ 6907 6896 6895 6894 ] final  -74.60 input  -60.11 | X-H torsion
[ 7974 7965 7964 7962 ] final -179.11 input  175.53 | X-H torsion
[ 8008 7997 7996 7995 ] final   70.24 input   59.86 | X-H torsion
[ 10167 10162 10161 10158 ] final   42.02 input  -65.29 | X-H torsion
[ 10718 10713 10712 10709 ] final  149.15 input   66.30 | X-H torsion
[ 10763 10752 10751 10750 ] final -179.78 input  -60.55 | X-H torsion
[ 11005 11000 10999 10996 ] final   10.35 input  -57.11 | X-H torsion

> <Gold.Protein.ActiveResidues>
 VAL166  LYS551  ARG553  GLY616  TRP617  ASP618  TYR619  PRO620  LYS621  CYS622 
 ASP623  PHE694  ASN695  SER759  ASP760  ASP761  ALA762  ILE779  LEU786  VAL792 
 PHE793  MET794  SER795  GLU796  ALA797  LYS798  CYS799  TRP800  GLU811  SER814 

> <Gold.Protein.RotatedAtoms>
  150.7087  134.4844  159.5485 H   0  0  0  0  0  0  0  0  0  0  0  0  # atno 6907 bound_to 6896
  152.2475  134.8164  160.0460 H   0  0  0  0  0  0  0  0  0  0  0  0  # atno 6908 bound_to 6896
  151.8923  133.3484  159.3839 H   0  0  0  0  0  0  0  0  0  0  0  0  # atno 6909 bound_to 6896
  144.7134  140.0768  143.6427 H   0  0  0  0  0  0  0  0  0  0  0  0  # atno 7974 bound_to 7965
  155.7358  140.3491  155.5081 H   0  0  0  0  0  0  0  0  0  0  0  0  # atno 8008 bound_to 7997
  155.9140  140.1055  157.1279 H   0  0  0  0  0  0  0  0  0  0  0  0  # atno 8009 bound_to 7997
  154.4060  140.1262  156.4581 H   0  0  0  0  0  0  0  0  0  0  0  0  # atno 8010 bound_to 7997
  140.3585  144.2259  150.6140 H   0  0  0  0  0  0  0  0  0  0  0  0  # atno 10167 bound_to 10162
  157.2997  131.0868  151.1399 H   0  0  0  0  0  0  0  0  0  0  0  0  # atno 10718 bound_to 10713
  154.5307  135.2799  155.1183 H   0  0  0  0  0  0  0  0  0  0  0  0  # atno 10763 bound_to 10752
  154.2704  135.6305  153.5312 H   0  0  0  0  0  0  0  0  0  0  0  0  # atno 10764 bound_to 10752
  152.9956  135.5627  154.5819 H   0  0  0  0  0  0  0  0  0  0  0  0  # atno 10765 bound_to 10752
  140.5155  134.0610  155.7830 H   0  0  0  0  0  0  0  0  0  0  0  0  # atno 11005 bound_to 11000
  145.9737  139.2888  143.1084 LP  0  0  0  0  0  0  0  0  0  0  0  0  # atno 17320 bound_to 7965
  145.9088  140.9194  143.0464 LP  0  0  0  0  0  0  0  0  0  0  0  0  # atno 17321 bound_to 7965
  140.5150  143.2280  151.8477 LP  0  0  0  0  0  0  0  0  0  0  0  0  # atno 17342 bound_to 10162
  139.4817  144.4905  151.9191 LP  0  0  0  0  0  0  0  0  0  0  0  0  # atno 17343 bound_to 10162
  157.2763  130.6728  149.6044 LP  0  0  0  0  0  0  0  0  0  0  0  0  # atno 17370 bound_to 10713
  155.9671  130.4463  150.5537 LP  0  0  0  0  0  0  0  0  0  0  0  0  # atno 17371 bound_to 10713
  141.1363  133.9216  157.2427 LP  0  0  0  0  0  0  0  0  0  0  0  0  # atno 17394 bound_to 11000
  139.9635  135.0148  156.9325 LP  0  0  0  0  0  0  0  0  0  0  0  0  # atno 17395 bound_to 11000

$$$$
