AV-unprocessed.smi:3322|AV-procd|sdf|12773|dock2
  -GOLD-   2272019113D 1   1.00000     0.00000
 Structure written by MMmdl.
 39 40  0  0  0  0  0  0  0  0  2 V2000
  149.0026  141.4333  155.6947 C   0  0  0  0  0  0  0  0  0  0  0  0
  150.1657  141.5103  156.6982 C   0  0  2  0  0  0  0  0  0  0  0  0
  150.8879  142.7907  156.5057 N   0  3  0  0  0  0  0  0  0  0  0  0
  151.8400  143.1432  157.5806 C   0  0  0  0  0  0  0  0  0  0  0  0
  151.1145  143.7993  158.7636 C   0  0  0  0  0  0  0  0  0  0  0  0
  151.7654  143.4997  160.0241 N   0  0  0  0  0  0  0  0  0  0  0  0
  151.6674  144.1736  161.2233 C   0  0  0  0  0  0  0  0  0  0  0  0
  152.4584  143.5181  162.1228 C   0  0  0  0  0  0  0  0  0  0  0  0
  153.0041  142.4401  161.3711 C   0  0  0  0  0  0  0  0  0  0  0  0
  152.5863  142.4312  160.1153 N   0  0  0  0  0  0  0  0  0  0  0  0
  151.1001  140.2918  156.5284 C   0  0  0  0  0  0  0  0  0  0  0  0
  151.6027  140.0998  155.4193 O   0  0  0  0  0  0  0  0  0  0  0  0
  151.3430  139.4643  157.5762 N   0  0  0  0  0  0  0  0  0  0  0  0
  150.7373  139.5322  158.9117 C   0  0  0  0  0  0  0  0  0  0  0  0
  149.9326  138.2415  159.1530 C   0  0  0  0  0  0  0  0  0  0  0  0
  150.7832  137.1073  159.0136 O   0  0  0  0  0  0  0  0  0  0  0  0
  151.3944  137.0263  157.7295 C   0  0  0  0  0  0  0  0  0  0  0  0
  152.2256  138.2961  157.4772 C   0  0  0  0  0  0  0  0  0  0  0  0
  148.4171  140.5226  155.8202 H   0  0  0  0  0  0  0  0  0  0  0  0
  149.3620  141.4543  154.6649 H   0  0  0  0  0  0  0  0  0  0  0  0
  148.3209  142.2745  155.8230 H   0  0  0  0  0  0  0  0  0  0  0  0
  149.7619  141.5390  157.7097 H   0  0  0  0  0  0  0  0  0  0  0  0
  151.3836  142.7468  155.6264 H   0  0  0  0  0  0  0  0  0  0  0  0
  152.3547  142.2397  157.9109 H   0  0  0  0  0  0  0  0  0  0  0  0
  152.5997  143.8233  157.1936 H   0  0  0  0  0  0  0  0  0  0  0  0
  151.0855  144.8825  158.6374 H   0  0  0  0  0  0  0  0  0  0  0  0
  150.0797  143.4578  158.8181 H   0  0  0  0  0  0  0  0  0  0  0  0
  151.0515  145.0538  161.3367 H   0  0  0  0  0  0  0  0  0  0  0  0
  152.6216  143.7693  163.1603 H   0  0  0  0  0  0  0  0  0  0  0  0
  153.6860  141.6691  161.6982 H   0  0  0  0  0  0  0  0  0  0  0  0
  151.5275  139.6252  159.6583 H   0  0  0  0  0  0  0  0  0  0  0  0
  150.0822  140.3860  159.0645 H   0  0  0  0  0  0  0  0  0  0  0  0
  149.5101  138.2429  160.1579 H   0  0  0  0  0  0  0  0  0  0  0  0
  149.0970  138.1674  158.4554 H   0  0  0  0  0  0  0  0  0  0  0  0
  152.0337  136.1436  157.6978 H   0  0  0  0  0  0  0  0  0  0  0  0
  150.6322  136.8982  156.9591 H   0  0  0  0  0  0  0  0  0  0  0  0
  152.7282  138.2171  156.5125 H   0  0  0  0  0  0  0  0  0  0  0  0
  153.0185  138.3788  158.2222 H   0  0  0  0  0  0  0  0  0  0  0  0
  150.2026  143.5306  156.4530 H   0  0  0  0  0  0  0  0  0  0  0  0
  1  2  1  0  0  0  0
  1 19  1  0  0  0  0
  1 20  1  0  0  0  0
  1 21  1  0  0  0  0
  2  3  1  0  0  0  0
  2 11  1  0  0  0  0
  2 22  1  0  0  0  0
  3  4  1  0  0  0  0
  3 23  1  0  0  0  0
  3 39  1  0  0  0  0
  4  5  1  0  0  0  0
  4 24  1  0  0  0  0
  4 25  1  0  0  0  0
  5  6  1  0  0  0  0
  5 26  1  0  0  0  0
  5 27  1  0  0  0  0
  6 10  1  0  0  0  0
  6  7  1  0  0  0  0
  7  8  2  0  0  0  0
  7 28  1  0  0  0  0
  8  9  1  0  0  0  0
  8 29  1  0  0  0  0
  9 10  2  0  0  0  0
  9 30  1  0  0  0  0
 11 12  2  0  0  0  0
 11 13  1  0  0  0  0
 13 18  1  0  0  0  0
 13 14  1  0  0  0  0
 14 15  1  0  0  0  0
 14 31  1  0  0  0  0
 14 32  1  0  0  0  0
 15 16  1  0  0  0  0
 15 33  1  0  0  0  0
 15 34  1  0  0  0  0
 16 17  1  0  0  0  0
 17 18  1  0  0  0  0
 17 35  1  0  0  0  0
 17 36  1  0  0  0  0
 18 37  1  0  0  0  0
 18 38  1  0  0  0  0
M  CHG  1   3   1
M  END
> <s_m_source_file>
AV-unprocessed.smi

> <i_m_source_file_index>
3322

> <i_lp_mmshare_version>
43012

> <i_f3d_flags>
0

> <s_epik_input>
W0NIMl0xW0NIMl1PW0NIMl1bQ0gyXU4xQyg9TylbQ0BIXShbQ0gzXSlbTkhdW0NIMl1bQ0gyXW4yW2NIXVtjSF1bY0hdbjI=

> <s_epik_cmdline>
J2VwaWtfcHl0aG9uJywgJy1waCcsICc3LjAnLCAnLXRuJywgJzgnLCAnLW1hJywgJzIwMCcsICctbWV0YWxfYmluZGluZycsICctaW1hZScsICc8aW5maWxlLm1hZT4nLCAnLW9tYWUnLCAnPG91dGZpbGUubWFlPic=

> <r_lp_tautomer_probability>
1

> <r_epik_Ionization_Penalty>
0.3254

> <r_epik_Ionization_Penalty_Charging>
0.325398

> <r_epik_Ionization_Penalty_Neutral>
2.29478e-06

> <r_epik_State_Penalty>
0.320187

> <r_epik_Charging_Adjusted_Penalty>
0.645585

> <i_epik_Tot_Q>
1

> <i_epik_Tot_abs_Q>
1

> <r_epik_Metal_State_Penalty>
0.320558

> <b_epik_Metal_Only>
0

> <s_lp_Force_Field>
OPLS_2005

> <r_lp_Energy>
25.684

> <b_lp_Chiralities_Consistent>
1

> <s_lp_Variant>
AV-unprocessed.smi:3322-1

> <Gold.Version>
5.8.1

> <Gold.Id.Protein>
6NUR|6NUR_protein|mol2

> <Gold.PLP.Fitness>
44.5588

> <Gold.PLP.PLP>
-35.2943

> <Gold.PLP.part.hbond>
-2.9537

> <Gold.PLP.part.metal>
0.0000

> <Gold.PLP.part.buried>
-7.3442

> <Gold.PLP.part.nonpolar>
-25.7459

> <Gold.PLP.part.repulsive>
0.0968

> <Gold.PLP.ligand.clash>
0.0000

> <Gold.PLP.ligand.torsion>
0.7043

> <Gold.PLP.Chemscore.Hbond>
3.5410

> <Gold.PLP.Chemscore.CHOScore>
0.0000

> <Gold.PLP.Chemscore.Metal>
0.0000

> <Gold.Chemscore.Hbonds>
donor molecule, donor type, donor heavy atom, donor atom, acceptor molecule, acceptor atom, score
      L1  H     3    39       P1  8028  2.00
      P1  H  6896  6907       L1    16  0.54
      P1  H  7989  7998       L1    12  0.89

> <Gold.PLP.Chemscore.Internal.Correction>
0.0502

> <Gold.Rescore>
     Score         DG    S(hbond)    S(metal)    S(lipo)     H(rot)  DE(clash)    DE(int)     intcor
     18.75     -19.51       2.78        0.00      82.35       1.91       0.07       0.70       ----

> <Gold.Chemscore.Fitness>
18.7466

> <Gold.Chemscore.DG>
-19.5076

> <Gold.Chemscore.ZeroCoef>
-5.4800

> <Gold.Chemscore.Hbond>
2.7787

> <Gold.Chemscore.Metal>
0.0000

> <Gold.Chemscore.Lipo>
82.3518

> <Gold.Chemscore.Internal_Hbond>
0.0000

> <Gold.Chemscore.DEClash>
0.0650

> <Gold.Chemscore.DEInternal>
0.6959

> <Gold.Chemscore.Rot>
1.9095

> <Gold.Chemscore.Internal.Correction>
   9.000000E+99

> <Gold.Chemscore.Hbonds>
donor molecule, donor type, donor heavy atom, donor atom, acceptor molecule, acceptor atom, score
      L1  H     3    39       P1  8028  0.99
      P1  H  6896  6907       L1    16  0.19
      P1  H  7989  7998       L1    12  0.82

> <Gold.Chemscore.Hbond.Weighted>
-9.2808

> <Gold.Chemscore.Metal.Weighted>
-0.0000

> <Gold.Chemscore.Lipo.Weighted>
-9.6352

> <Gold.Chemscore.Internal_Hbond.Weighted>
0.0000

> <Gold.Chemscore.DEClash.Weighted>
0.0650

> <Gold.Chemscore.DEInternal.Weighted>
0.6959

> <Gold.Chemscore.Rot.Weighted>
4.8884

> <Gold.Chemscore.Internal.Correction.Weighted>
   9.000000E+99

> <Gold.Protein.RotatedTorsions>
[ 6907 6896 6895 6894 ] final  -16.80 input  -60.11 | X-H torsion
[ 7974 7965 7964 7962 ] final  -17.30 input  175.53 | X-H torsion
[ 8008 7997 7996 7995 ] final -104.02 input   59.86 | X-H torsion
[ 10167 10162 10161 10158 ] final   95.39 input  -65.29 | X-H torsion
[ 10718 10713 10712 10709 ] final   -8.93 input   66.30 | X-H torsion
[ 10763 10752 10751 10750 ] final   22.84 input  -60.55 | X-H torsion
[ 11005 11000 10999 10996 ] final   91.57 input  -57.11 | X-H torsion

> <Gold.Protein.ActiveResidues>
 VAL166  LYS551  ARG553  GLY616  TRP617  ASP618  TYR619  PRO620  LYS621  CYS622 
 ASP623  PHE694  ASN695  SER759  ASP760  ASP761  ALA762  ILE779  LEU786  VAL792 
 PHE793  MET794  SER795  GLU796  ALA797  LYS798  CYS799  TRP800  GLU811  SER814 

> <Gold.Protein.RotatedAtoms>
  151.3031  135.0774  159.9245 H   0  0  0  0  0  0  0  0  0  0  0  0  # atno 6907 bound_to 6896
  152.5293  133.9813  159.7818 H   0  0  0  0  0  0  0  0  0  0  0  0  # atno 6908 bound_to 6896
  151.0103  133.5920  159.2714 H   0  0  0  0  0  0  0  0  0  0  0  0  # atno 6909 bound_to 6896
  146.1947  140.3760  142.8445 H   0  0  0  0  0  0  0  0  0  0  0  0  # atno 7974 bound_to 7965
  154.8794  140.0420  157.1773 H   0  0  0  0  0  0  0  0  0  0  0  0  # atno 8008 bound_to 7997
  154.8655  140.2950  155.5492 H   0  0  0  0  0  0  0  0  0  0  0  0  # atno 8009 bound_to 7997
  156.2999  140.2439  156.3636 H   0  0  0  0  0  0  0  0  0  0  0  0  # atno 8010 bound_to 7997
  139.7993  144.6820  150.9786 H   0  0  0  0  0  0  0  0  0  0  0  0  # atno 10167 bound_to 10162
  156.6955  130.5077  149.5932 H   0  0  0  0  0  0  0  0  0  0  0  0  # atno 10718 bound_to 10713
  153.0884  135.6639  153.9903 H   0  0  0  0  0  0  0  0  0  0  0  0  # atno 10763 bound_to 10752
  153.9506  135.2984  155.3440 H   0  0  0  0  0  0  0  0  0  0  0  0  # atno 10764 bound_to 10752
  154.7295  135.5129  153.9014 H   0  0  0  0  0  0  0  0  0  0  0  0  # atno 10765 bound_to 10752
  139.8837  134.8682  156.3447 H   0  0  0  0  0  0  0  0  0  0  0  0  # atno 11005 bound_to 11000
  144.8556  140.7066  143.6140 LP  0  0  0  0  0  0  0  0  0  0  0  0  # atno 17320 bound_to 7965
  145.3681  139.1665  143.4347 LP  0  0  0  0  0  0  0  0  0  0  0  0  # atno 17321 bound_to 7965
  140.7820  143.4298  151.0712 LP  0  0  0  0  0  0  0  0  0  0  0  0  # atno 17342 bound_to 10162
  139.7971  143.8136  152.3159 LP  0  0  0  0  0  0  0  0  0  0  0  0  # atno 17343 bound_to 10162
  156.1767  130.6472  151.0902 LP  0  0  0  0  0  0  0  0  0  0  0  0  # atno 17370 bound_to 10713
  157.6993  131.0782  150.6871 LP  0  0  0  0  0  0  0  0  0  0  0  0  # atno 17371 bound_to 10713
  140.9635  133.7373  156.0434 LP  0  0  0  0  0  0  0  0  0  0  0  0  # atno 17394 bound_to 11000
  140.7960  134.3563  157.5452 LP  0  0  0  0  0  0  0  0  0  0  0  0  # atno 17395 bound_to 11000

$$$$
