AV-unprocessed.smi:207|AV-procd|sdf|1604|dock3
  -GOLD-   2262019523D 1   1.00000     0.00000
 Structure written by MMmdl.
 56 59  0  0  0  0  0  0  0  0  2 V2000
  147.1237  134.8581  154.7103 C   0  0  0  0  0  0  0  0  0  0  0  0
  146.3465  136.0635  154.1325 C   0  0  0  0  0  0  0  0  0  0  0  0
  145.0196  136.2306  154.9100 C   0  0  0  0  0  0  0  0  0  0  0  0
  147.2451  137.3036  154.3740 C   0  0  0  0  0  0  0  0  0  0  0  0
  146.7595  138.4881  153.6771 N   0  0  0  0  0  0  0  0  0  0  0  0
  147.2576  139.6674  154.1252 C   0  0  0  0  0  0  0  0  0  0  0  0
  146.4921  140.7901  154.0781 N   0  0  0  0  0  0  0  0  0  0  0  0
  146.9774  141.9556  154.5162 C   0  0  0  0  0  0  0  0  0  0  0  0
  148.1779  142.2166  155.0367 N   0  0  0  0  0  0  0  0  0  0  0  0
  148.9482  141.0925  155.0938 C   0  0  0  0  0  0  0  0  0  0  0  0
  148.5709  139.7906  154.6595 C   0  0  0  0  0  0  0  0  0  0  0  0
  149.6130  138.8978  154.8794 N   0  0  0  0  0  0  0  0  0  0  0  0
  150.5533  139.6307  155.4105 C   0  0  0  0  0  0  0  0  0  0  0  0
  150.2342  140.9581  155.5888 N   0  0  0  0  0  0  0  0  0  0  0  0
  151.0820  141.9921  156.1624 C   0  0  0  0  0  0  0  0  0  0  0  0
  151.1071  142.0290  157.7064 C   0  0  0  0  0  0  0  0  0  0  0  0
  151.4306  140.6354  158.2774 C   0  0  0  0  0  0  0  0  0  0  0  0
  152.7794  140.2702  158.0611 O   0  0  0  0  0  0  0  0  0  0  0  0
  151.8404  143.2157  158.3518 C   0  0  0  0  0  0  0  0  0  0  0  0
  150.6061  143.9157  158.6116 O   0  0  0  0  0  0  0  0  0  0  0  0
  149.8724  142.7089  158.3176 C   0  0  0  0  0  0  0  0  0  0  0  0
  146.6017  138.3074  152.2411 C   0  0  0  0  0  0  0  0  0  0  0  0
  145.6704  137.1235  151.9590 C   0  0  0  0  0  0  0  0  0  0  0  0
  146.1070  135.8810  152.6578 N   0  3  2  0  0  0  0  0  0  0  0  0
  145.2545  134.7168  152.2814 C   0  0  0  0  0  0  0  0  0  0  0  0
  145.4413  134.3244  150.8066 C   0  0  0  0  0  0  0  0  0  0  0  0
  144.5680  135.0798  149.9939 O   0  0  0  0  0  0  0  0  0  0  0  0
  147.4409  135.0553  155.7351 H   0  0  0  0  0  0  0  0  0  0  0  0
  148.0222  134.6495  154.1283 H   0  0  0  0  0  0  0  0  0  0  0  0
  146.5339  133.9437  154.7476 H   0  0  0  0  0  0  0  0  0  0  0  0
  145.2081  136.3797  155.9738 H   0  0  0  0  0  0  0  0  0  0  0  0
  144.3791  135.3533  154.8209 H   0  0  0  0  0  0  0  0  0  0  0  0
  144.4479  137.0924  154.5659 H   0  0  0  0  0  0  0  0  0  0  0  0
  147.3452  137.4855  155.4441 H   0  0  0  0  0  0  0  0  0  0  0  0
  148.2539  137.1025  154.0091 H   0  0  0  0  0  0  0  0  0  0  0  0
  146.3077  142.7996  154.4400 H   0  0  0  0  0  0  0  0  0  0  0  0
  151.5105  139.2163  155.6904 H   0  0  0  0  0  0  0  0  0  0  0  0
  152.0896  141.8415  155.7723 H   0  0  0  0  0  0  0  0  0  0  0  0
  150.7594  142.9561  155.7674 H   0  0  0  0  0  0  0  0  0  0  0  0
  151.2620  140.6080  159.3542 H   0  0  0  0  0  0  0  0  0  0  0  0
  150.7817  139.8719  157.8477 H   0  0  0  0  0  0  0  0  0  0  0  0
  153.1229  139.9032  158.8614 H   0  0  0  0  0  0  0  0  0  0  0  0
  152.3619  142.9645  159.2770 H   0  0  0  0  0  0  0  0  0  0  0  0
  152.4946  143.7653  157.6764 H   0  0  0  0  0  0  0  0  0  0  0  0
  149.0596  142.8762  157.6097 H   0  0  0  0  0  0  0  0  0  0  0  0
  149.4992  142.2344  159.2266 H   0  0  0  0  0  0  0  0  0  0  0  0
  146.1897  139.2103  151.7879 H   0  0  0  0  0  0  0  0  0  0  0  0
  147.5787  138.1328  151.7882 H   0  0  0  0  0  0  0  0  0  0  0  0
  144.6556  137.3789  152.2663 H   0  0  0  0  0  0  0  0  0  0  0  0
  145.6309  136.9568  150.8831 H   0  0  0  0  0  0  0  0  0  0  0  0
  145.4594  133.8388  152.8893 H   0  0  0  0  0  0  0  0  0  0  0  0
  144.2076  134.9572  152.4728 H   0  0  0  0  0  0  0  0  0  0  0  0
  146.4644  134.5351  150.4946 H   0  0  0  0  0  0  0  0  0  0  0  0
  145.2719  133.2612  150.6386 H   0  0  0  0  0  0  0  0  0  0  0  0
  144.8584  135.0143  149.0963 H   0  0  0  0  0  0  0  0  0  0  0  0
  147.0206  135.6674  152.2830 H   0  0  0  0  0  0  0  0  0  0  0  0
  1  2  1  0  0  0  0
  1 28  1  0  0  0  0
  1 29  1  0  0  0  0
  1 30  1  0  0  0  0
  2 24  1  0  0  0  0
  2  3  1  0  0  0  0
  2  4  1  0  0  0  0
  3 31  1  0  0  0  0
  3 32  1  0  0  0  0
  3 33  1  0  0  0  0
  4  5  1  0  0  0  0
  4 34  1  0  0  0  0
  4 35  1  0  0  0  0
  5  6  1  0  0  0  0
  5 22  1  0  0  0  0
  6 11  1  0  0  0  0
  6  7  2  0  0  0  0
  7  8  1  0  0  0  0
  8  9  2  0  0  0  0
  8 36  1  0  0  0  0
  9 10  1  0  0  0  0
 10 14  1  0  0  0  0
 10 11  2  0  0  0  0
 11 12  1  0  0  0  0
 12 13  2  0  0  0  0
 13 14  1  0  0  0  0
 13 37  1  0  0  0  0
 14 15  1  0  0  0  0
 15 16  1  0  0  0  0
 15 38  1  0  0  0  0
 15 39  1  0  0  0  0
 16 21  1  0  0  0  0
 16 17  1  0  0  0  0
 16 19  1  0  0  0  0
 17 18  1  0  0  0  0
 17 40  1  0  0  0  0
 17 41  1  0  0  0  0
 18 42  1  0  0  0  0
 19 20  1  0  0  0  0
 19 43  1  0  0  0  0
 19 44  1  0  0  0  0
 20 21  1  0  0  0  0
 21 45  1  0  0  0  0
 21 46  1  0  0  0  0
 22 23  1  0  0  0  0
 22 47  1  0  0  0  0
 22 48  1  0  0  0  0
 23 24  1  0  0  0  0
 23 49  1  0  0  0  0
 23 50  1  0  0  0  0
 24 25  1  0  0  0  0
 24 56  1  0  0  0  0
 25 26  1  0  0  0  0
 25 51  1  0  0  0  0
 25 52  1  0  0  0  0
 26 27  1  0  0  0  0
 26 53  1  0  0  0  0
 26 54  1  0  0  0  0
 27 55  1  0  0  0  0
M  CHG  1  24   1
M  END
> <s_m_source_file>
AV-unprocessed.smi

> <i_m_source_file_index>
207

> <i_lp_mmshare_version>
43012

> <i_f3d_flags>
0

> <s_epik_input>
W09IXVtDSDJdW0NIMl1OMVtDSDJdW0NIMl1OKFtDSDJdQzEoW0NIM10pW0NIM10pYyhuW2NIXW4yKWMoYzIzKW5bY0hdbjNbQ0gyXUM0KFtDSDJdW09IXSlbQ0gyXU9bQ0gyXTQ=

> <s_epik_cmdline>
J2VwaWtfcHl0aG9uJywgJy1waCcsICc3LjAnLCAnLXRuJywgJzgnLCAnLW1hJywgJzIwMCcsICctbWV0YWxfYmluZGluZycsICctaW1hZScsICc8aW5maWxlLm1hZT4nLCAnLW9tYWUnLCAnPG91dGZpbGUubWFlPic=

> <r_lp_tautomer_probability>
1

> <r_epik_Ionization_Penalty>
0.416568

> <r_epik_Ionization_Penalty_Charging>
0.416506

> <r_epik_Ionization_Penalty_Neutral>
6.2219e-05

> <r_epik_State_Penalty>
0.419386

> <r_epik_Charging_Adjusted_Penalty>
0.835892

> <i_epik_Tot_Q>
1

> <i_epik_Tot_abs_Q>
1

> <r_epik_Metal_State_Penalty>
0.420232

> <b_epik_Metal_Only>
0

> <s_lp_Force_Field>
OPLS_2005

> <r_lp_Energy>
56.1561

> <b_lp_Chiralities_Consistent>
1

> <s_lp_Variant>
AV-unprocessed.smi:207-3

> <Gold.Version>
5.8.1

> <Gold.Id.Protein>
6NUR|6NUR_protein|mol2

> <Gold.PLP.Fitness>
42.9474

> <Gold.PLP.PLP>
-33.0413

> <Gold.PLP.part.hbond>
-3.0000

> <Gold.PLP.part.metal>
0.0000

> <Gold.PLP.part.buried>
-4.6996

> <Gold.PLP.part.nonpolar>
-29.2902

> <Gold.PLP.part.repulsive>
3.8051

> <Gold.PLP.ligand.clash>
0.0000

> <Gold.PLP.ligand.torsion>
1.3246

> <Gold.PLP.Chemscore.Hbond>
3.9120

> <Gold.PLP.Chemscore.CHOScore>
0.0000

> <Gold.PLP.Chemscore.Metal>
0.0000

> <Gold.Chemscore.Hbonds>
donor molecule, donor type, donor heavy atom, donor atom, acceptor molecule, acceptor atom, score
      L1  H    24    56       P1  7948  1.98
      L1  H    27    55       P1  7921  1.00
      P1  H  7997  8009       L1    18  0.73

> <Gold.PLP.Chemscore.Internal.Correction>
0.8194

> <Gold.Rescore>
     Score         DG    S(hbond)    S(metal)    S(lipo)     H(rot)  DE(clash)    DE(int)     intcor
      7.46     -11.59       2.29        0.00      70.02       3.80       1.45       2.68       ----

> <Gold.Chemscore.Fitness>
7.4647

> <Gold.Chemscore.DG>
-11.5925

> <Gold.Chemscore.ZeroCoef>
-5.4800

> <Gold.Chemscore.Hbond>
2.2895

> <Gold.Chemscore.Metal>
0.0000

> <Gold.Chemscore.Lipo>
70.0233

> <Gold.Chemscore.Internal_Hbond>
0.0000

> <Gold.Chemscore.DEClash>
1.4503

> <Gold.Chemscore.DEInternal>
2.6774

> <Gold.Chemscore.Rot>
3.7997

> <Gold.Chemscore.Internal.Correction>
   9.000000E+99

> <Gold.Chemscore.Hbonds>
donor molecule, donor type, donor heavy atom, donor atom, acceptor molecule, acceptor atom, score
      L1  H    24    56       P1  7948  0.88
      L1  H    27    55       P1  7921  0.98
      P1  H  7997  8009       L1    18  0.24

> <Gold.Chemscore.Hbond.Weighted>
-7.6470

> <Gold.Chemscore.Metal.Weighted>
-0.0000

> <Gold.Chemscore.Lipo.Weighted>
-8.1927

> <Gold.Chemscore.Internal_Hbond.Weighted>
0.0000

> <Gold.Chemscore.DEClash.Weighted>
1.4503

> <Gold.Chemscore.DEInternal.Weighted>
2.6774

> <Gold.Chemscore.Rot.Weighted>
9.7273

> <Gold.Chemscore.Internal.Correction.Weighted>
   9.000000E+99

> <Gold.Protein.RotatedTorsions>
[ 6907 6896 6895 6894 ] final -141.41 input  -60.11 | X-H torsion
[ 7974 7965 7964 7962 ] final  123.43 input  175.53 | X-H torsion
[ 8008 7997 7996 7995 ] final  174.62 input   59.86 | X-H torsion
[ 10167 10162 10161 10158 ] final   55.87 input  -65.29 | X-H torsion
[ 10718 10713 10712 10709 ] final   18.87 input   66.30 | X-H torsion
[ 10763 10752 10751 10750 ] final -146.15 input  -60.55 | X-H torsion
[ 11005 11000 10999 10996 ] final   63.07 input  -57.11 | X-H torsion

> <Gold.Protein.ActiveResidues>
 VAL166  LYS551  ARG553  GLY616  TRP617  ASP618  TYR619  PRO620  LYS621  CYS622 
 ASP623  PHE694  ASN695  SER759  ASP760  ASP761  ALA762  ILE779  LEU786  VAL792 
 PHE793  MET794  SER795  GLU796  ALA797  LYS798  CYS799  TRP800  GLU811  SER814 

> <Gold.Protein.RotatedAtoms>
  151.0734  133.5447  159.2625 H   0  0  0  0  0  0  0  0  0  0  0  0  # atno 6907 bound_to 6896
  151.2378  135.0577  159.9023 H   0  0  0  0  0  0  0  0  0  0  0  0  # atno 6908 bound_to 6896
  152.5414  134.0514  159.8165 H   0  0  0  0  0  0  0  0  0  0  0  0  # atno 6909 bound_to 6896
  145.0960  139.3552  143.4836 H   0  0  0  0  0  0  0  0  0  0  0  0  # atno 7974 bound_to 7965
  156.0955  140.1430  156.9536 H   0  0  0  0  0  0  0  0  0  0  0  0  # atno 8008 bound_to 7997
  154.4669  140.0923  156.7089 H   0  0  0  0  0  0  0  0  0  0  0  0  # atno 8009 bound_to 7997
  155.4848  140.3446  155.4347 H   0  0  0  0  0  0  0  0  0  0  0  0  # atno 8010 bound_to 7997
  140.2148  144.3851  150.6474 H   0  0  0  0  0  0  0  0  0  0  0  0  # atno 10167 bound_to 10162
  157.1024  130.6473  149.5876 H   0  0  0  0  0  0  0  0  0  0  0  0  # atno 10718 bound_to 10713
  154.8349  135.3394  154.6617 H   0  0  0  0  0  0  0  0  0  0  0  0  # atno 10763 bound_to 10752
  153.7233  135.6957  153.5012 H   0  0  0  0  0  0  0  0  0  0  0  0  # atno 10764 bound_to 10752
  153.2365  135.4399  155.0605 H   0  0  0  0  0  0  0  0  0  0  0  0  # atno 10765 bound_to 10752
  140.0049  134.6385  155.9871 H   0  0  0  0  0  0  0  0  0  0  0  0  # atno 11005 bound_to 11000
  146.3530  140.0816  142.8617 LP  0  0  0  0  0  0  0  0  0  0  0  0  # atno 17320 bound_to 7965
  145.1010  140.9346  143.4712 LP  0  0  0  0  0  0  0  0  0  0  0  0  # atno 17321 bound_to 7965
  140.6298  143.2186  151.6520 LP  0  0  0  0  0  0  0  0  0  0  0  0  # atno 17342 bound_to 10162
  139.5166  144.3341  152.0800 LP  0  0  0  0  0  0  0  0  0  0  0  0  # atno 17343 bound_to 10162
  155.9870  130.4908  150.7106 LP  0  0  0  0  0  0  0  0  0  0  0  0  # atno 17370 bound_to 10713
  157.4629  131.0885  151.0726 LP  0  0  0  0  0  0  0  0  0  0  0  0  # atno 17371 bound_to 10713
  141.1669  133.6537  156.4513 LP  0  0  0  0  0  0  0  0  0  0  0  0  # atno 17394 bound_to 11000
  140.4660  134.6798  157.5107 LP  0  0  0  0  0  0  0  0  0  0  0  0  # atno 17395 bound_to 11000

$$$$
