AV-unprocessed.smi:1754|AV-procd|sdf|7065|dock7
  -GOLD-   22720 8283D 1   1.00000     0.00000
 Structure written by MMmdl.
 45 46  0  0  0  0  0  0  0  0  2 V2000
  144.2353  132.4015  149.5745 C   0  0  0  0  0  0  0  0  0  0  0  0
  144.2609  131.6518  150.9130 C   0  0  0  0  0  0  0  0  0  0  0  0
  144.7918  132.4758  151.9982 N   0  0  0  0  0  0  0  0  0  0  0  0
  145.8306  131.9232  152.8638 C   0  0  0  0  0  0  0  0  0  0  0  0
  146.2337  130.5018  152.4498 C   0  0  0  0  0  0  0  0  0  0  0  0
  144.3430  133.8054  152.1749 C   0  0  0  0  0  0  0  0  0  0  0  0
  145.0213  134.9330  151.6494 C   0  0  0  0  0  0  0  0  0  0  0  0
  144.5106  136.2295  151.8654 C   0  0  0  0  0  0  0  0  0  0  0  0
  143.3128  136.3952  152.6019 C   0  0  0  0  0  0  0  0  0  0  0  0
  142.7248  137.6554  152.8924 N   0  0  0  0  0  0  0  0  0  0  0  0
  141.5956  137.9168  153.5804 C   0  0  0  0  0  0  0  0  0  0  0  0
  140.9035  137.0655  154.1340 O   0  0  0  0  0  0  0  0  0  0  0  0
  141.2824  139.2228  153.6557 N   0  0  0  0  0  0  0  0  0  0  0  0
  140.1362  139.8448  154.3207 C   0  0  1  0  0  0  0  0  0  0  0  0
  140.2564  141.3802  154.3041 C   0  0  0  0  0  0  0  0  0  0  0  0
  138.8979  141.9864  154.6789 C   0  0  0  0  0  0  0  0  0  0  0  0
  137.6301  140.7967  154.0968 S   0  0  0  0  0  0  0  0  0  0  0  0
  136.8290  140.3549  155.2484 O   0  0  0  0  0  0  0  0  0  0  0  0
  136.9872  141.3129  152.8790 O   0  0  0  0  0  0  0  0  0  0  0  0
  138.8101  139.4728  153.6379 C   0  0  0  0  0  0  0  0  0  0  0  0
  142.6846  135.2444  153.1175 C   0  0  0  0  0  0  0  0  0  0  0  0
  143.2094  134.0220  152.8865 N   0  3  0  0  0  0  0  0  0  0  0  0
  143.8538  131.7596  148.7802 H   0  0  0  0  0  0  0  0  0  0  0  0
  145.2338  132.7287  149.2838 H   0  0  0  0  0  0  0  0  0  0  0  0
  143.5952  133.2828  149.6241 H   0  0  0  0  0  0  0  0  0  0  0  0
  143.2669  131.2784  151.1602 H   0  0  0  0  0  0  0  0  0  0  0  0
  144.8888  130.7657  150.8129 H   0  0  0  0  0  0  0  0  0  0  0  0
  146.7073  132.5693  152.8078 H   0  0  0  0  0  0  0  0  0  0  0  0
  145.5204  131.9487  153.9083 H   0  0  0  0  0  0  0  0  0  0  0  0
  147.0173  130.1178  153.1031 H   0  0  0  0  0  0  0  0  0  0  0  0
  146.6143  130.4801  151.4283 H   0  0  0  0  0  0  0  0  0  0  0  0
  145.3894  129.8144  152.5063 H   0  0  0  0  0  0  0  0  0  0  0  0
  145.9392  134.8308  151.0909 H   0  0  0  0  0  0  0  0  0  0  0  0
  145.0593  137.0716  151.4734 H   0  0  0  0  0  0  0  0  0  0  0  0
  143.2465  138.4607  152.5781 H   0  0  0  0  0  0  0  0  0  0  0  0
  141.9398  139.8629  153.2335 H   0  0  0  0  0  0  0  0  0  0  0  0
  140.0944  139.5346  155.3666 H   0  0  0  0  0  0  0  0  0  0  0  0
  141.0473  141.7331  154.9669 H   0  0  0  0  0  0  0  0  0  0  0  0
  140.5167  141.7088  153.2966 H   0  0  0  0  0  0  0  0  0  0  0  0
  138.8001  142.0787  155.7609 H   0  0  0  0  0  0  0  0  0  0  0  0
  138.7312  142.9657  154.2298 H   0  0  0  0  0  0  0  0  0  0  0  0
  138.9102  139.4794  152.5517 H   0  0  0  0  0  0  0  0  0  0  0  0
  138.4209  138.5022  153.9457 H   0  0  0  0  0  0  0  0  0  0  0  0
  141.7762  135.2613  153.7022 H   0  0  0  0  0  0  0  0  0  0  0  0
  142.7219  133.2118  153.2696 H   0  0  0  0  0  0  0  0  0  0  0  0
  1  2  1  0  0  0  0
  1 23  1  0  0  0  0
  1 24  1  0  0  0  0
  1 25  1  0  0  0  0
  2  3  1  0  0  0  0
  2 26  1  0  0  0  0
  2 27  1  0  0  0  0
  3  4  1  0  0  0  0
  3  6  1  0  0  0  0
  4  5  1  0  0  0  0
  4 28  1  0  0  0  0
  4 29  1  0  0  0  0
  5 30  1  0  0  0  0
  5 31  1  0  0  0  0
  5 32  1  0  0  0  0
  6 22  1  0  0  0  0
  6  7  2  0  0  0  0
  7  8  1  0  0  0  0
  7 33  1  0  0  0  0
  8  9  2  0  0  0  0
  8 34  1  0  0  0  0
  9 10  1  0  0  0  0
  9 21  1  0  0  0  0
 10 11  1  0  0  0  0
 10 35  1  0  0  0  0
 11 12  2  0  0  0  0
 11 13  1  0  0  0  0
 13 14  1  0  0  0  0
 13 36  1  0  0  0  0
 14 20  1  0  0  0  0
 14 15  1  0  0  0  0
 14 37  1  0  0  0  0
 15 16  1  0  0  0  0
 15 38  1  0  0  0  0
 15 39  1  0  0  0  0
 16 17  1  0  0  0  0
 16 40  1  0  0  0  0
 16 41  1  0  0  0  0
 17 18  2  0  0  0  0
 17 19  2  0  0  0  0
 17 20  1  0  0  0  0
 20 42  1  0  0  0  0
 20 43  1  0  0  0  0
 21 22  2  0  0  0  0
 21 44  1  0  0  0  0
 22 45  1  0  0  0  0
M  CHG  1  22   1
M  END
> <s_m_source_file>
AV-unprocessed.smi

> <i_m_source_file_index>
1754

> <i_lp_mmshare_version>
43012

> <i_f3d_flags>
0

> <s_epik_input>
W0NIM11bQ0gyXU4oW0NIMl1bQ0gzXSljMVtjSF1bY0hdYyhbY0hdbjEpW05IXUMoPU8pW05IXVtDQEBIXShbQ0gyXTIpW0NIMl1bQ0gyXVMyKD1PKT1P

> <s_epik_cmdline>
J2VwaWtfcHl0aG9uJywgJy1waCcsICc3LjAnLCAnLXRuJywgJzgnLCAnLW1hJywgJzIwMCcsICctbWV0YWxfYmluZGluZycsICctaW1hZScsICc8aW5maWxlLm1hZT4nLCAnLW9tYWUnLCAnPG91dGZpbGUubWFlPic=

> <r_lp_tautomer_probability>
0.999994

> <r_epik_Ionization_Penalty>
0.271106

> <r_epik_Ionization_Penalty_Charging>
0.271085

> <r_epik_Ionization_Penalty_Neutral>
2.10634e-05

> <r_epik_State_Penalty>
0.017795

> <r_epik_Charging_Adjusted_Penalty>
0.28888

> <i_epik_Tot_Q>
1

> <i_epik_Tot_abs_Q>
1

> <r_epik_Metal_State_Penalty>
0.0544868

> <b_epik_Metal_Only>
0

> <s_lp_Force_Field>
OPLS_2005

> <r_lp_Energy>
29.9971

> <b_lp_Chiralities_Consistent>
1

> <s_lp_Variant>
AV-unprocessed.smi:1754-2

> <Gold.Version>
5.8.1

> <Gold.Id.Protein>
6NUR|6NUR_protein|mol2

> <Gold.PLP.Fitness>
44.1952

> <Gold.PLP.PLP>
-36.7646

> <Gold.PLP.part.hbond>
-3.4708

> <Gold.PLP.part.metal>
0.0000

> <Gold.PLP.part.buried>
-7.5140

> <Gold.PLP.part.nonpolar>
-27.6853

> <Gold.PLP.part.repulsive>
0.1490

> <Gold.PLP.ligand.clash>
0.2657

> <Gold.PLP.ligand.torsion>
1.6636

> <Gold.PLP.Chemscore.Hbond>
3.6588

> <Gold.PLP.Chemscore.CHOScore>
0.0000

> <Gold.PLP.Chemscore.Metal>
0.0000

> <Gold.Chemscore.Hbonds>
donor molecule, donor type, donor heavy atom, donor atom, acceptor molecule, acceptor atom, score
      L1  H    10    35       P1 10175  1.00
      L1  H    13    36       P1 10175  1.00
      L1  H    22    45       P1 10957  1.66

> <Gold.PLP.Chemscore.Internal.Correction>
0.0471

> <Gold.Rescore>
     Score         DG    S(hbond)    S(metal)    S(lipo)     H(rot)  DE(clash)    DE(int)     intcor
     15.52     -18.54       2.73        0.00      64.46       1.41       0.01       3.01       ----

> <Gold.Chemscore.Fitness>
15.5181

> <Gold.Chemscore.DG>
-18.5380

> <Gold.Chemscore.ZeroCoef>
-5.4800

> <Gold.Chemscore.Hbond>
2.7299

> <Gold.Chemscore.Metal>
0.0000

> <Gold.Chemscore.Lipo>
64.4614

> <Gold.Chemscore.Internal_Hbond>
0.0000

> <Gold.Chemscore.DEClash>
0.0144

> <Gold.Chemscore.DEInternal>
3.0055

> <Gold.Chemscore.Rot>
1.4070

> <Gold.Chemscore.Internal.Correction>
   9.000000E+99

> <Gold.Chemscore.Hbonds>
donor molecule, donor type, donor heavy atom, donor atom, acceptor molecule, acceptor atom, score
      L1  H    10    35       P1 10175  0.93
      L1  H    13    36       P1 10175  0.55
      L1  H    22    45       P1 10957  0.69

> <Gold.Chemscore.Hbond.Weighted>
-9.1180

> <Gold.Chemscore.Metal.Weighted>
-0.0000

> <Gold.Chemscore.Lipo.Weighted>
-7.5420

> <Gold.Chemscore.Internal_Hbond.Weighted>
0.0000

> <Gold.Chemscore.DEClash.Weighted>
0.0144

> <Gold.Chemscore.DEInternal.Weighted>
3.0055

> <Gold.Chemscore.Rot.Weighted>
3.6020

> <Gold.Chemscore.Internal.Correction.Weighted>
   9.000000E+99

> <Gold.Protein.RotatedTorsions>
[ 6907 6896 6895 6894 ] final  -28.54 input  -60.11 | X-H torsion
[ 7974 7965 7964 7962 ] final -142.85 input  175.53 | X-H torsion
[ 8008 7997 7996 7995 ] final -153.52 input   59.86 | X-H torsion
[ 10167 10162 10161 10158 ] final   -4.19 input  -65.29 | X-H torsion
[ 10718 10713 10712 10709 ] final   18.18 input   66.30 | X-H torsion
[ 10763 10752 10751 10750 ] final  -73.37 input  -60.55 | X-H torsion
[ 11005 11000 10999 10996 ] final   -5.03 input  -57.11 | X-H torsion

> <Gold.Protein.ActiveResidues>
 VAL166  LYS551  ARG553  GLY616  TRP617  ASP618  TYR619  PRO620  LYS621  CYS622 
 ASP623  PHE694  ASN695  SER759  ASP760  ASP761  ALA762  ILE779  LEU786  VAL792 
 PHE793  MET794  SER795  GLU796  ALA797  LYS798  CYS799  TRP800  GLU811  SER814 

> <Gold.Protein.RotatedAtoms>
  151.1316  135.0133  159.8584 H   0  0  0  0  0  0  0  0  0  0  0  0  # atno 6907 bound_to 6896
  152.5451  134.1604  159.8565 H   0  0  0  0  0  0  0  0  0  0  0  0  # atno 6908 bound_to 6896
  151.1671  133.4763  159.2627 H   0  0  0  0  0  0  0  0  0  0  0  0  # atno 6909 bound_to 6896
  144.8413  140.5908  143.5450 H   0  0  0  0  0  0  0  0  0  0  0  0  # atno 7974 bound_to 7965
  155.6720  140.0734  157.2516 H   0  0  0  0  0  0  0  0  0  0  0  0  # atno 8008 bound_to 7997
  154.4121  140.1697  156.1941 H   0  0  0  0  0  0  0  0  0  0  0  0  # atno 8009 bound_to 7997
  155.9608  140.3370  155.6492 H   0  0  0  0  0  0  0  0  0  0  0  0  # atno 8010 bound_to 7997
  140.6918  143.6452  150.8399 H   0  0  0  0  0  0  0  0  0  0  0  0  # atno 10167 bound_to 10162
  157.0927  130.6434  149.5852 H   0  0  0  0  0  0  0  0  0  0  0  0  # atno 10718 bound_to 10713
  154.4585  135.5899  153.6239 H   0  0  0  0  0  0  0  0  0  0  0  0  # atno 10763 bound_to 10752
  152.9820  135.6038  154.3516 H   0  0  0  0  0  0  0  0  0  0  0  0  # atno 10764 bound_to 10752
  154.3385  135.2842  155.2414 H   0  0  0  0  0  0  0  0  0  0  0  0  # atno 10765 bound_to 10752
  140.6868  133.9106  155.8591 H   0  0  0  0  0  0  0  0  0  0  0  0  # atno 11005 bound_to 11000
  145.4688  139.1505  143.3825 LP  0  0  0  0  0  0  0  0  0  0  0  0  # atno 17320 bound_to 7965
  146.2705  140.4821  142.8816 LP  0  0  0  0  0  0  0  0  0  0  0  0  # atno 17321 bound_to 7965
  140.0166  143.5587  152.2818 LP  0  0  0  0  0  0  0  0  0  0  0  0  # atno 17342 bound_to 10162
  139.6330  144.7646  151.2497 LP  0  0  0  0  0  0  0  0  0  0  0  0  # atno 17343 bound_to 10162
  155.9894  130.4941  150.7211 LP  0  0  0  0  0  0  0  0  0  0  0  0  # atno 17370 bound_to 10713
  157.4707  131.0893  151.0645 LP  0  0  0  0  0  0  0  0  0  0  0  0  # atno 17371 bound_to 10713
  141.0274  134.0804  157.4053 LP  0  0  0  0  0  0  0  0  0  0  0  0  # atno 17394 bound_to 11000
  139.8935  135.0131  156.6903 LP  0  0  0  0  0  0  0  0  0  0  0  0  # atno 17395 bound_to 11000

$$$$
