AV-unprocessed.smi:112|AV-procd|sdf|1086|dock8
  -GOLD-   2262018183D 1   1.00000     0.00000
 Structure written by MMmdl.
 54 57  0  0  0  0  0  0  0  0  3 V2000
  140.9582  136.8290  153.5413 C   0  0  0  0  0  0  0  0  0  0  0  0
  142.4770  136.7926  153.4877 C   0  0  0  0  0  0  0  0  0  0  0  0
  143.1470  136.0177  152.6047 C   0  0  0  0  0  0  0  0  0  0  0  0
  144.5254  135.9623  152.5293 N   0  0  0  0  0  0  0  0  0  0  0  0
  145.1951  135.0790  151.5052 C   0  0  1  0  0  0  0  0  0  0  0  0
  146.0277  133.9890  152.1745 C   0  0  0  0  0  0  0  0  0  0  0  0
  146.0030  132.8940  151.1228 C   0  0  2  0  0  0  0  0  0  0  0  0
  147.1234  133.0122  150.2669 O   0  0  0  0  0  0  0  0  0  0  0  0
  144.7004  133.1657  150.3416 C   0  0  1  0  0  0  0  0  0  0  0  0
  143.5860  132.1187  150.5237 C   0  0  0  0  0  0  0  0  0  0  0  0
  142.9492  131.8092  149.3003 O   0  0  0  0  0  0  0  0  0  0  0  0
  144.2101  134.4366  150.7622 O   0  0  0  0  0  0  0  0  0  0  0  0
  145.3075  136.7290  153.4167 C   0  0  0  0  0  0  0  0  0  0  0  0
  146.5392  136.6892  153.3755 O   0  0  0  0  0  0  0  0  0  0  0  0
  144.6382  137.5415  154.3600 N   0  0  0  0  0  0  0  0  0  0  0  0
  145.4451  138.3484  155.3042 C   0  0  0  0  0  0  0  0  0  0  0  0
  145.3860  139.8695  155.0423 C   0  0  0  0  0  0  0  0  0  0  0  0
  144.2912  140.4332  155.0518 O   0  0  0  0  0  0  0  0  0  0  0  0
  146.5551  140.5170  154.8090 N   0  0  0  0  0  0  0  0  0  0  0  0
  146.6433  141.9638  154.5439 C   0  0  0  0  0  0  0  0  0  0  0  0
  148.1408  142.2773  154.3362 C   0  0  0  0  0  0  0  0  0  0  0  0
  148.7945  140.9383  154.5073 C   0  0  0  0  0  0  0  0  0  0  0  0
  150.1685  140.6587  154.4175 C   0  0  0  0  0  0  0  0  0  0  0  0
  150.6097  139.3261  154.6104 C   0  0  0  0  0  0  0  0  0  0  0  0
  152.0460  138.9951  154.5246 N   0  3  0  0  0  0  0  0  0  0  0  0
  152.3780  137.8174  154.6134 O   0  0  0  0  0  0  0  0  0  0  0  0
  152.8449  139.9129  154.3682 O   0  5  0  0  0  0  0  0  0  0  0  0
  149.6512  138.3149  154.8871 C   0  0  0  0  0  0  0  0  0  0  0  0
  148.2736  138.6138  154.9724 C   0  0  0  0  0  0  0  0  0  0  0  0
  147.8566  139.9484  154.7778 C   0  0  0  0  0  0  0  0  0  0  0  0
  143.2251  137.6256  154.4323 C   0  0  0  0  0  0  0  0  0  0  0  0
  142.6819  138.3684  155.2524 O   0  0  0  0  0  0  0  0  0  0  0  0
  140.5107  136.1689  152.7978 H   0  0  0  0  0  0  0  0  0  0  0  0
  140.5941  137.8395  153.3526 H   0  0  0  0  0  0  0  0  0  0  0  0
  140.6036  136.5140  154.5233 H   0  0  0  0  0  0  0  0  0  0  0  0
  142.5741  135.4061  151.9221 H   0  0  0  0  0  0  0  0  0  0  0  0
  145.7762  135.7076  150.8293 H   0  0  0  0  0  0  0  0  0  0  0  0
  147.0223  134.3496  152.4399 H   0  0  0  0  0  0  0  0  0  0  0  0
  145.5223  133.6460  153.0782 H   0  0  0  0  0  0  0  0  0  0  0  0
  146.0288  131.9023  151.5763 H   0  0  0  0  0  0  0  0  0  0  0  0
  147.6872  132.2661  150.4024 H   0  0  0  0  0  0  0  0  0  0  0  0
  144.9136  133.2460  149.2742 H   0  0  0  0  0  0  0  0  0  0  0  0
  143.9833  131.2069  150.9704 H   0  0  0  0  0  0  0  0  0  0  0  0
  142.8280  132.5044  151.2058 H   0  0  0  0  0  0  0  0  0  0  0  0
  142.0175  131.7604  149.4508 H   0  0  0  0  0  0  0  0  0  0  0  0
  145.1268  138.1495  156.3281 H   0  0  0  0  0  0  0  0  0  0  0  0
  146.4886  138.0310  155.2847 H   0  0  0  0  0  0  0  0  0  0  0  0
  146.0766  142.2294  153.6505 H   0  0  0  0  0  0  0  0  0  0  0  0
  146.2481  142.5365  155.3841 H   0  0  0  0  0  0  0  0  0  0  0  0
  148.3385  142.6729  153.3396 H   0  0  0  0  0  0  0  0  0  0  0  0
  148.5160  142.9833  155.0779 H   0  0  0  0  0  0  0  0  0  0  0  0
  150.8646  141.4568  154.2046 H   0  0  0  0  0  0  0  0  0  0  0  0
  149.9651  137.2925  155.0379 H   0  0  0  0  0  0  0  0  0  0  0  0
  147.5791  137.8162  155.1834 H   0  0  0  0  0  0  0  0  0  0  0  0
  1  2  1  0  0  0  0
  1 33  1  0  0  0  0
  1 34  1  0  0  0  0
  1 35  1  0  0  0  0
  2 31  1  0  0  0  0
  2  3  2  0  0  0  0
  3  4  1  0  0  0  0
  3 36  1  0  0  0  0
  4  5  1  0  0  0  0
  4 13  1  0  0  0  0
  5 12  1  0  0  0  0
  5  6  1  0  0  0  0
  5 37  1  0  0  0  0
  6  7  1  0  0  0  0
  6 38  1  0  0  0  0
  6 39  1  0  0  0  0
  7  8  1  0  0  0  0
  7  9  1  0  0  0  0
  7 40  1  0  0  0  0
  8 41  1  0  0  0  0
  9 10  1  0  0  0  0
  9 12  1  0  0  0  0
  9 42  1  0  0  0  0
 10 11  1  0  0  0  0
 10 43  1  0  0  0  0
 10 44  1  0  0  0  0
 11 45  1  0  0  0  0
 13 14  2  0  0  0  0
 13 15  1  0  0  0  0
 15 16  1  0  0  0  0
 15 31  1  0  0  0  0
 16 17  1  0  0  0  0
 16 46  1  0  0  0  0
 16 47  1  0  0  0  0
 17 18  2  0  0  0  0
 17 19  1  0  0  0  0
 19 30  1  0  0  0  0
 19 20  1  0  0  0  0
 20 21  1  0  0  0  0
 20 48  1  0  0  0  0
 20 49  1  0  0  0  0
 21 22  1  0  0  0  0
 21 50  1  0  0  0  0
 21 51  1  0  0  0  0
 22 30  2  0  0  0  0
 22 23  1  0  0  0  0
 23 24  2  0  0  0  0
 23 52  1  0  0  0  0
 24 25  1  0  0  0  0
 24 28  1  0  0  0  0
 25 26  2  0  0  0  0
 25 27  1  0  0  0  0
 28 29  2  0  0  0  0
 28 53  1  0  0  0  0
 29 30  1  0  0  0  0
 29 54  1  0  0  0  0
 31 32  2  0  0  0  0
M  CHG  1  25   1
M  CHG  1  27  -1
M  END
> <s_m_source_file>
AV-unprocessed.smi

> <i_m_source_file_index>
112

> <i_lp_mmshare_version>
43012

> <i_f3d_flags>
0

> <s_epik_input>
W09IXVtDSDJdW0NAQEhdKE8xKVtDQEhdKFtPSF0pW0NIMl1bQ0BIXTFuKFtjSF1jMltDSDNdKWMoPU8pbihjMj1PKVtDSDJdQyg9TylOKFtDSDJdW0NIMl0zKWMoYzM0KVtjSF1bY0hdYyhbY0hdNClbTitdKD1PKVtPLV0=

> <s_epik_cmdline>
J2VwaWtfcHl0aG9uJywgJy1waCcsICc3LjAnLCAnLXRuJywgJzgnLCAnLW1hJywgJzIwMCcsICctbWV0YWxfYmluZGluZycsICctaW1hZScsICc8aW5maWxlLm1hZT4nLCAnLW9tYWUnLCAnPG91dGZpbGUubWFlPic=

> <r_lp_tautomer_probability>
1

> <r_epik_Ionization_Penalty>
2.5696e-07

> <r_epik_Ionization_Penalty_Charging>
1.04886e-08

> <r_epik_Ionization_Penalty_Neutral>
2.46472e-07

> <r_epik_State_Penalty>
-0

> <r_epik_Charging_Adjusted_Penalty>
1.04886e-08

> <i_epik_Tot_Q>
0

> <i_epik_Tot_abs_Q>
2

> <r_epik_Metal_State_Penalty>
-0

> <b_epik_Metal_Only>
0

> <s_epik_Chemistry_Notes>
This compound contains an acetal/aminal-like group ( X-CH(R)-Y where X, Y are N, S, or O) that may be acid/base labile, releasing an aldehyde.

> <s_lp_Force_Field>
OPLS_2005

> <r_lp_Energy>
61.0713

> <b_lp_Chiralities_Consistent>
1

> <s_lp_Variant>
AV-unprocessed.smi:112-4

> <Gold.Version>
5.8.1

> <Gold.Id.Protein>
6NUR|6NUR_protein|mol2

> <Gold.PLP.Fitness>
51.2663

> <Gold.PLP.PLP>
-43.7430

> <Gold.PLP.part.hbond>
-7.6911

> <Gold.PLP.part.metal>
0.0000

> <Gold.PLP.part.buried>
-4.3444

> <Gold.PLP.part.nonpolar>
-34.4040

> <Gold.PLP.part.repulsive>
3.5999

> <Gold.PLP.ligand.clash>
4.5492

> <Gold.PLP.ligand.torsion>
0.7047

> <Gold.PLP.Chemscore.Hbond>
4.4899

> <Gold.PLP.Chemscore.CHOScore>
0.0000

> <Gold.PLP.Chemscore.Metal>
0.0000

> <Gold.Chemscore.Hbonds>
donor molecule, donor type, donor heavy atom, donor atom, acceptor molecule, acceptor atom, score
      L1  H     8    41       P1 10747  1.00
      L1  H    11    45       P1 10952  0.69
      P1  H  7989  7998       L1    27  0.20
      P1  H  7997  8008       L1    27  0.52
      P1  H 10752 10765       L1    26  0.29
      P1  H 10785 10796       L1    11  0.90

> <Gold.PLP.Chemscore.Internal.Correction>
0.0123

> <Gold.Rescore>
     Score         DG    S(hbond)    S(metal)    S(lipo)     H(rot)  DE(clash)    DE(int)     intcor
     12.97     -19.52       3.84        0.00      82.51       3.29       1.84       4.72       ----

> <Gold.Chemscore.Fitness>
12.9670

> <Gold.Chemscore.DG>
-19.5232

> <Gold.Chemscore.ZeroCoef>
-5.4800

> <Gold.Chemscore.Hbond>
3.8373

> <Gold.Chemscore.Metal>
0.0000

> <Gold.Chemscore.Lipo>
82.5062

> <Gold.Chemscore.Internal_Hbond>
0.0000

> <Gold.Chemscore.DEClash>
1.8396

> <Gold.Chemscore.DEInternal>
4.7166

> <Gold.Chemscore.Rot>
3.2916

> <Gold.Chemscore.Internal.Correction>
   9.000000E+99

> <Gold.Chemscore.Hbonds>
donor molecule, donor type, donor heavy atom, donor atom, acceptor molecule, acceptor atom, score
      L1  H     8    41       P1 10747  1.00
      L1  H    11    45       P1 10952  0.68
      P1  H  7989  7998       L1    27  0.02
      P1  H  7997  8008       L1    27  0.51
      P1  H 10752 10765       L1    26  0.27
      P1  H 10785 10796       L1    11  0.16

> <Gold.Chemscore.Hbond.Weighted>
-12.8165

> <Gold.Chemscore.Metal.Weighted>
-0.0000

> <Gold.Chemscore.Lipo.Weighted>
-9.6532

> <Gold.Chemscore.Internal_Hbond.Weighted>
0.0000

> <Gold.Chemscore.DEClash.Weighted>
1.8396

> <Gold.Chemscore.DEInternal.Weighted>
4.7166

> <Gold.Chemscore.Rot.Weighted>
8.4265

> <Gold.Chemscore.Internal.Correction.Weighted>
   9.000000E+99

> <Gold.Protein.RotatedTorsions>
[ 6907 6896 6895 6894 ] final  -95.84 input  -60.11 | X-H torsion
[ 7974 7965 7964 7962 ] final  124.10 input  175.53 | X-H torsion
[ 8008 7997 7996 7995 ] final  -14.23 input   59.86 | X-H torsion
[ 10167 10162 10161 10158 ] final  -56.11 input  -65.29 | X-H torsion
[ 10718 10713 10712 10709 ] final  -65.62 input   66.30 | X-H torsion
[ 10763 10752 10751 10750 ] final  172.22 input  -60.55 | X-H torsion
[ 11005 11000 10999 10996 ] final -120.29 input  -57.11 | X-H torsion

> <Gold.Protein.ActiveResidues>
 VAL166  LYS551  ARG553  GLY616  TRP617  ASP618  TYR619  PRO620  LYS621  CYS622 
 ASP623  PHE694  ASN695  SER759  ASP760  ASP761  ALA762  ILE779  LEU786  VAL792 
 PHE793  MET794  SER795  GLU796  ALA797  LYS798  CYS799  TRP800  GLU811  SER814 

> <Gold.Protein.RotatedAtoms>
  150.6974  134.1595  159.4170 H   0  0  0  0  0  0  0  0  0  0  0  0  # atno 6907 bound_to 6896
  151.9575  135.0137  160.0555 H   0  0  0  0  0  0  0  0  0  0  0  0  # atno 6908 bound_to 6896
  152.1956  133.4769  159.5068 H   0  0  0  0  0  0  0  0  0  0  0  0  # atno 6909 bound_to 6896
  145.0882  139.3606  143.4874 H   0  0  0  0  0  0  0  0  0  0  0  0  # atno 7974 bound_to 7965
  154.5227  140.2228  155.8946 H   0  0  0  0  0  0  0  0  0  0  0  0  # atno 8008 bound_to 7997
  156.1680  140.3128  155.8887 H   0  0  0  0  0  0  0  0  0  0  0  0  # atno 8009 bound_to 7997
  155.3617  140.0461  157.3037 H   0  0  0  0  0  0  0  0  0  0  0  0  # atno 8010 bound_to 7997
  140.6336  143.2471  151.5176 H   0  0  0  0  0  0  0  0  0  0  0  0  # atno 10167 bound_to 10162
  156.0659  130.4250  150.1590 H   0  0  0  0  0  0  0  0  0  0  0  0  # atno 10718 bound_to 10713
  154.4230  135.2758  155.1962 H   0  0  0  0  0  0  0  0  0  0  0  0  # atno 10763 bound_to 10752
  154.3900  135.6068  153.5841 H   0  0  0  0  0  0  0  0  0  0  0  0  # atno 10764 bound_to 10752
  152.9833  135.5901  154.4530 H   0  0  0  0  0  0  0  0  0  0  0  0  # atno 10765 bound_to 10752
  141.0154  134.0202  157.3356 H   0  0  0  0  0  0  0  0  0  0  0  0  # atno 11005 bound_to 11000
  146.3531  140.0705  142.8623 LP  0  0  0  0  0  0  0  0  0  0  0  0  # atno 17320 bound_to 7965
  145.1097  140.9397  143.4664 LP  0  0  0  0  0  0  0  0  0  0  0  0  # atno 17321 bound_to 7965
  139.5548  144.2303  152.1593 LP  0  0  0  0  0  0  0  0  0  0  0  0  # atno 17342 bound_to 10162
  140.1553  144.5076  150.6663 LP  0  0  0  0  0  0  0  0  0  0  0  0  # atno 17343 bound_to 10162
  156.9650  130.9817  151.3471 LP  0  0  0  0  0  0  0  0  0  0  0  0  # atno 17370 bound_to 10713
  157.5700  130.8304  149.8379 LP  0  0  0  0  0  0  0  0  0  0  0  0  # atno 17371 bound_to 10713
  139.9114  135.0190  156.7707 LP  0  0  0  0  0  0  0  0  0  0  0  0  # atno 17394 bound_to 11000
  140.6663  133.9600  155.7832 LP  0  0  0  0  0  0  0  0  0  0  0  0  # atno 17395 bound_to 11000

$$$$
