AV-unprocessed.smi:3046|AV-procd|sdf|11619|dock3
  -GOLD-   2272017 03D 1   1.00000     0.00000
 Structure written by MMmdl.
 37 37  0  0  0  0  0  0  0  0  1 V2000
  151.8966  144.3806  159.6290 C   0  0  0  0  0  0  0  0  0  0  0  0
  152.6834  143.3483  159.2910 C   0  0  0  0  0  0  0  0  0  0  0  0
  152.8824  142.1068  160.1384 C   0  0  0  0  0  0  0  0  0  0  0  0
  152.5072  140.9023  159.4093 N   0  0  0  0  0  0  0  0  0  0  0  0
  153.3581  139.9480  159.0009 C   0  0  0  0  0  0  0  0  0  0  0  0
  154.5691  139.9829  159.2220 O   0  0  0  0  0  0  0  0  0  0  0  0
  152.7540  138.7927  158.1861 C   0  0  2  0  0  0  0  0  0  0  0  0
  153.0347  137.4428  158.8649 C   0  0  0  0  0  0  0  0  0  0  0  0
  153.2326  138.7570  156.7926 N   0  0  0  0  0  0  0  0  0  0  0  0
  152.2821  139.2339  155.7878 C   0  0  1  0  0  0  0  0  0  0  0  0
  151.2328  138.1392  155.5407 C   0  0  0  0  0  0  0  0  0  0  0  0
  151.6299  140.5359  156.2932 C   0  0  0  0  0  0  0  0  0  0  0  0
  150.3292  140.7689  155.6889 N   0  0  0  0  0  0  0  0  0  0  0  0
  149.1833  141.2495  156.2867 C   0  0  0  0  0  0  0  0  0  0  0  0
  148.2104  141.2871  155.3296 C   0  0  0  0  0  0  0  0  0  0  0  0
  148.8668  140.8069  154.1621 C   0  0  0  0  0  0  0  0  0  0  0  0
  150.1351  140.4995  154.3796 N   0  0  0  0  0  0  0  0  0  0  0  0
  151.3387  144.3830  160.5541 H   0  0  0  0  0  0  0  0  0  0  0  0
  151.8005  145.2393  158.9810 H   0  0  0  0  0  0  0  0  0  0  0  0
  153.2281  143.3854  158.3585 H   0  0  0  0  0  0  0  0  0  0  0  0
  153.9247  142.0505  160.4564 H   0  0  0  0  0  0  0  0  0  0  0  0
  152.2785  142.1709  161.0441 H   0  0  0  0  0  0  0  0  0  0  0  0
  151.5302  140.7947  159.1778 H   0  0  0  0  0  0  0  0  0  0  0  0
  151.6702  138.9221  158.1605 H   0  0  0  0  0  0  0  0  0  0  0  0
  152.6757  137.4350  159.8948 H   0  0  0  0  0  0  0  0  0  0  0  0
  154.1011  137.2131  158.8820 H   0  0  0  0  0  0  0  0  0  0  0  0
  152.5310  136.6309  158.3391 H   0  0  0  0  0  0  0  0  0  0  0  0
  154.1241  139.2190  156.6838 H   0  0  0  0  0  0  0  0  0  0  0  0
  152.7829  139.4569  154.8446 H   0  0  0  0  0  0  0  0  0  0  0  0
  150.5021  138.4616  154.7986 H   0  0  0  0  0  0  0  0  0  0  0  0
  150.6901  137.8940  156.4545 H   0  0  0  0  0  0  0  0  0  0  0  0
  151.6901  137.2221  155.1686 H   0  0  0  0  0  0  0  0  0  0  0  0
  151.4869  140.4853  157.3732 H   0  0  0  0  0  0  0  0  0  0  0  0
  152.2766  141.3953  156.1060 H   0  0  0  0  0  0  0  0  0  0  0  0
  149.1556  141.5169  157.3327 H   0  0  0  0  0  0  0  0  0  0  0  0
  147.1861  141.6085  155.4455 H   0  0  0  0  0  0  0  0  0  0  0  0
  148.4622  140.6737  153.1696 H   0  0  0  0  0  0  0  0  0  0  0  0
  1  2  2  0  0  0  0
  1 18  1  0  0  0  0
  1 19  1  0  0  0  0
  2  3  1  0  0  0  0
  2 20  1  0  0  0  0
  3  4  1  0  0  0  0
  3 21  1  0  0  0  0
  3 22  1  0  0  0  0
  4  5  1  0  0  0  0
  4 23  1  0  0  0  0
  5  6  2  0  0  0  0
  5  7  1  0  0  0  0
  7  8  1  0  0  0  0
  7  9  1  0  0  0  0
  7 24  1  0  0  0  0
  8 25  1  0  0  0  0
  8 26  1  0  0  0  0
  8 27  1  0  0  0  0
  9 10  1  0  0  0  0
  9 28  1  0  0  0  0
 10 11  1  0  0  0  0
 10 12  1  0  0  0  0
 10 29  1  0  0  0  0
 11 30  1  0  0  0  0
 11 31  1  0  0  0  0
 11 32  1  0  0  0  0
 12 13  1  0  0  0  0
 12 33  1  0  0  0  0
 12 34  1  0  0  0  0
 13 17  1  0  0  0  0
 13 14  1  0  0  0  0
 14 15  2  0  0  0  0
 14 35  1  0  0  0  0
 15 16  1  0  0  0  0
 15 36  1  0  0  0  0
 16 17  2  0  0  0  0
 16 37  1  0  0  0  0
M  END
> <s_m_source_file>
AV-unprocessed.smi

> <i_m_source_file_index>
3046

> <i_lp_mmshare_version>
43012

> <i_f3d_flags>
0

> <s_epik_input>
W0NIMl09W0NIXVtDSDJdW05IXUMoPU8pW0NASF0oW0NIM10pW05IXVtDQEhdKFtDSDNdKVtDSDJdbjFbY0hdW2NIXVtjSF1uMQ==

> <s_epik_cmdline>
J2VwaWtfcHl0aG9uJywgJy1waCcsICc3LjAnLCAnLXRuJywgJzgnLCAnLW1hJywgJzIwMCcsICctbWV0YWxfYmluZGluZycsICctaW1hZScsICc8aW5maWxlLm1hZT4nLCAnLW9tYWUnLCAnPG91dGZpbGUubWFlPic=

> <r_lp_tautomer_probability>
1

> <r_epik_Ionization_Penalty>
0.950627

> <r_epik_Ionization_Penalty_Charging>
0

> <r_epik_Ionization_Penalty_Neutral>
0.950627

> <r_epik_State_Penalty>
0.994814

> <r_epik_Charging_Adjusted_Penalty>
0.994814

> <i_epik_Tot_Q>
0

> <i_epik_Tot_abs_Q>
0

> <r_epik_Metal_State_Penalty>
0.994788

> <b_epik_Metal_Only>
0

> <s_lp_Force_Field>
OPLS_2005

> <r_lp_Energy>
6.36017

> <b_lp_Chiralities_Consistent>
1

> <s_lp_Variant>
AV-unprocessed.smi:3046-7

> <Gold.Version>
5.8.1

> <Gold.Id.Protein>
6NUR|6NUR_protein|mol2

> <Gold.PLP.Fitness>
41.3132

> <Gold.PLP.PLP>
-35.2911

> <Gold.PLP.part.hbond>
-3.0000

> <Gold.PLP.part.metal>
0.0000

> <Gold.PLP.part.buried>
-2.7937

> <Gold.PLP.part.nonpolar>
-29.4469

> <Gold.PLP.part.repulsive>
0.2486

> <Gold.PLP.ligand.clash>
0.0000

> <Gold.PLP.ligand.torsion>
1.3908

> <Gold.PLP.Chemscore.Hbond>
1.8960

> <Gold.PLP.Chemscore.CHOScore>
0.9968

> <Gold.PLP.Chemscore.Metal>
0.0000

> <Gold.Chemscore.Hbonds>
donor molecule, donor type, donor heavy atom, donor atom, acceptor molecule, acceptor atom, score
      P1  H  7989  7998       L1    17  0.88
      P1  H  7997  8008       L1     6  0.96
      L1  C    16    37       P1  7957  0.98

> <Gold.PLP.Chemscore.Internal.Correction>
0.1253

> <Gold.Rescore>
     Score         DG    S(hbond)    S(metal)    S(lipo)     H(rot)  DE(clash)    DE(int)     intcor
     10.73     -13.23       1.21        0.00      79.16       2.17       0.01       2.48       ----

> <Gold.Chemscore.Fitness>
10.7343

> <Gold.Chemscore.DG>
-13.2296

> <Gold.Chemscore.ZeroCoef>
-5.4800

> <Gold.Chemscore.Hbond>
1.2136

> <Gold.Chemscore.Metal>
0.0000

> <Gold.Chemscore.Lipo>
79.1567

> <Gold.Chemscore.Internal_Hbond>
0.0000

> <Gold.Chemscore.DEClash>
0.0106

> <Gold.Chemscore.DEInternal>
2.4846

> <Gold.Chemscore.Rot>
2.1739

> <Gold.Chemscore.Internal.Correction>
   9.000000E+99

> <Gold.Chemscore.Hbonds>
donor molecule, donor type, donor heavy atom, donor atom, acceptor molecule, acceptor atom, score
      P1  H  7989  7998       L1    17  0.61
      P1  H  7997  8008       L1     6  0.27

> <Gold.Chemscore.Hbond.Weighted>
-4.0534

> <Gold.Chemscore.Metal.Weighted>
-0.0000

> <Gold.Chemscore.Lipo.Weighted>
-9.2613

> <Gold.Chemscore.Internal_Hbond.Weighted>
0.0000

> <Gold.Chemscore.DEClash.Weighted>
0.0106

> <Gold.Chemscore.DEInternal.Weighted>
2.4846

> <Gold.Chemscore.Rot.Weighted>
5.5652

> <Gold.Chemscore.Internal.Correction.Weighted>
   9.000000E+99

> <Gold.Protein.RotatedTorsions>
[ 6907 6896 6895 6894 ] final   -9.35 input  -60.11 | X-H torsion
[ 7974 7965 7964 7962 ] final   66.57 input  175.53 | X-H torsion
[ 8008 7997 7996 7995 ] final -131.00 input   59.86 | X-H torsion
[ 10167 10162 10161 10158 ] final   57.52 input  -65.29 | X-H torsion
[ 10718 10713 10712 10709 ] final   -3.98 input   66.30 | X-H torsion
[ 10763 10752 10751 10750 ] final  128.05 input  -60.55 | X-H torsion
[ 11005 11000 10999 10996 ] final  -28.22 input  -57.11 | X-H torsion

> <Gold.Protein.ActiveResidues>
 VAL166  LYS551  ARG553  GLY616  TRP617  ASP618  TYR619  PRO620  LYS621  CYS622 
 ASP623  PHE694  ASN695  SER759  ASP760  ASP761  ALA762  ILE779  LEU786  VAL792 
 PHE793  MET794  SER795  GLU796  ALA797  LYS798  CYS799  TRP800  GLU811  SER814 

> <Gold.Protein.RotatedAtoms>
  151.4191  135.0995  159.9608 H   0  0  0  0  0  0  0  0  0  0  0  0  # atno 6907 bound_to 6896
  152.4994  133.8724  159.7316 H   0  0  0  0  0  0  0  0  0  0  0  0  # atno 6908 bound_to 6896
  150.9236  133.6793  159.2854 H   0  0  0  0  0  0  0  0  0  0  0  0  # atno 6909 bound_to 6896
  145.8251  139.3106  143.1021 H   0  0  0  0  0  0  0  0  0  0  0  0  # atno 7974 bound_to 7965
  155.3050  140.0454  157.3032 H   0  0  0  0  0  0  0  0  0  0  0  0  # atno 8008 bound_to 7997
  154.5465  140.2304  155.8522 H   0  0  0  0  0  0  0  0  0  0  0  0  # atno 8009 bound_to 7997
  156.1928  140.3046  155.9374 H   0  0  0  0  0  0  0  0  0  0  0  0  # atno 8010 bound_to 7997
  140.1971  144.4026  150.6545 H   0  0  0  0  0  0  0  0  0  0  0  0  # atno 10167 bound_to 10162
  156.7681  130.5291  149.5772 H   0  0  0  0  0  0  0  0  0  0  0  0  # atno 10718 bound_to 10713
  153.7192  135.3256  155.3263 H   0  0  0  0  0  0  0  0  0  0  0  0  # atno 10763 bound_to 10752
  154.8361  135.4495  154.1234 H   0  0  0  0  0  0  0  0  0  0  0  0  # atno 10764 bound_to 10752
  153.2350  135.6964  153.7927 H   0  0  0  0  0  0  0  0  0  0  0  0  # atno 10765 bound_to 10752
  140.9189  133.7411  156.0774 H   0  0  0  0  0  0  0  0  0  0  0  0  # atno 11005 bound_to 11000
  145.9633  140.8818  143.0200 LP  0  0  0  0  0  0  0  0  0  0  0  0  # atno 17320 bound_to 7965
  144.6744  140.1843  143.7403 LP  0  0  0  0  0  0  0  0  0  0  0  0  # atno 17321 bound_to 7965
  140.6416  143.2204  151.6278 LP  0  0  0  0  0  0  0  0  0  0  0  0  # atno 17342 bound_to 10162
  139.5232  144.3140  152.0968 LP  0  0  0  0  0  0  0  0  0  0  0  0  # atno 17343 bound_to 10162
  156.1296  130.6168  151.0313 LP  0  0  0  0  0  0  0  0  0  0  0  0  # atno 17370 bound_to 10713
  157.6704  131.0862  150.7627 LP  0  0  0  0  0  0  0  0  0  0  0  0  # atno 17371 bound_to 10713
  140.8013  134.3505  157.5438 LP  0  0  0  0  0  0  0  0  0  0  0  0  # atno 17394 bound_to 11000
  139.8771  134.9199  156.3239 LP  0  0  0  0  0  0  0  0  0  0  0  0  # atno 17395 bound_to 11000

$$$$
