AV-unprocessed.smi:1047|AV-procd|sdf|4572|dock7
  -GOLD-   22720 3 33D 1   1.00000     0.00000
 Structure written by MMmdl.
 56 58  0  0  0  0  0  0  0  0  2 V2000
  147.0542  133.0774  152.0516 C   0  0  0  0  0  0  0  0  0  0  0  0
  146.9807  133.8556  153.3730 C   0  0  0  0  0  0  0  0  0  0  0  0
  146.9188  135.3240  153.1661 N   0  3  1  0  0  0  0  0  0  0  0  0
  145.6449  135.7524  152.5417 C   0  0  0  0  0  0  0  0  0  0  0  0
  145.6478  137.2706  152.3015 C   0  0  0  0  0  0  0  0  0  0  0  0
  145.8823  137.9441  153.5312 O   0  0  0  0  0  0  0  0  0  0  0  0
  147.1511  137.6207  154.0911 C   0  0  1  0  0  0  0  0  0  0  0  0
  147.3390  138.4663  155.3592 C   0  0  0  0  0  0  0  0  0  0  0  0
  148.7411  138.4984  155.7581 N   0  0  0  0  0  0  0  0  0  0  0  0
  149.1637  139.7803  156.3179 C   0  0  0  0  0  0  0  0  0  0  0  0
  149.9335  140.6304  155.2908 C   0  0  2  0  0  0  0  0  0  0  0  0
  150.7884  139.7925  154.5368 O   0  0  0  0  0  0  0  0  0  0  0  0
  150.7038  141.8144  155.9112 C   0  0  0  0  0  0  0  0  0  0  0  0
  151.3608  141.4559  157.1549 N   0  0  0  0  0  0  0  0  0  0  0  0
  151.8902  140.2603  157.4773 C   0  0  0  0  0  0  0  0  0  0  0  0
  152.4469  140.1457  158.6796 N   0  0  0  0  0  0  0  0  0  0  0  0
  152.2605  141.4168  159.1959 C   0  0  0  0  0  0  0  0  0  0  0  0
  152.6266  141.9615  160.4461 C   0  0  0  0  0  0  0  0  0  0  0  0
  152.3324  143.3064  160.7650 C   0  0  0  0  0  0  0  0  0  0  0  0
  152.7474  143.8517  162.1200 C   0  0  0  0  0  0  0  0  0  0  0  0
  151.6601  144.1288  159.8255 C   0  0  0  0  0  0  0  0  0  0  0  0
  151.3372  145.5778  160.1446 C   0  0  0  0  0  0  0  0  0  0  0  0
  151.2838  143.5994  158.5735 C   0  0  0  0  0  0  0  0  0  0  0  0
  151.5844  142.2604  158.2669 C   0  0  0  0  0  0  0  0  0  0  0  0
  147.1791  136.1104  154.3977 C   0  0  0  0  0  0  0  0  0  0  0  0
  147.0096  132.0041  152.2373 H   0  0  0  0  0  0  0  0  0  0  0  0
  147.9801  133.2724  151.5115 H   0  0  0  0  0  0  0  0  0  0  0  0
  146.2206  133.3330  151.3967 H   0  0  0  0  0  0  0  0  0  0  0  0
  146.0812  133.5332  153.8995 H   0  0  0  0  0  0  0  0  0  0  0  0
  147.8238  133.6018  154.0172 H   0  0  0  0  0  0  0  0  0  0  0  0
  145.5010  135.2326  151.5936 H   0  0  0  0  0  0  0  0  0  0  0  0
  144.8101  135.4782  153.1888 H   0  0  0  0  0  0  0  0  0  0  0  0
  146.4057  137.5496  151.5677 H   0  0  0  0  0  0  0  0  0  0  0  0
  144.6850  137.5897  151.9020 H   0  0  0  0  0  0  0  0  0  0  0  0
  147.9437  137.8575  153.3778 H   0  0  0  0  0  0  0  0  0  0  0  0
  146.9637  139.4766  155.1907 H   0  0  0  0  0  0  0  0  0  0  0  0
  146.7459  138.0433  156.1710 H   0  0  0  0  0  0  0  0  0  0  0  0
  149.3285  138.2734  154.9608 H   0  0  0  0  0  0  0  0  0  0  0  0
  148.2967  140.3385  156.6739 H   0  0  0  0  0  0  0  0  0  0  0  0
  149.7977  139.6082  157.1885 H   0  0  0  0  0  0  0  0  0  0  0  0
  149.2042  141.0334  154.5868 H   0  0  0  0  0  0  0  0  0  0  0  0
  151.1706  139.1534  155.1190 H   0  0  0  0  0  0  0  0  0  0  0  0
  151.4612  142.1755  155.2143 H   0  0  0  0  0  0  0  0  0  0  0  0
  150.0365  142.6542  156.1068 H   0  0  0  0  0  0  0  0  0  0  0  0
  151.8631  139.4261  156.7913 H   0  0  0  0  0  0  0  0  0  0  0  0
  153.1391  141.3349  161.1612 H   0  0  0  0  0  0  0  0  0  0  0  0
  153.4729  144.6564  162.0005 H   0  0  0  0  0  0  0  0  0  0  0  0
  153.2043  143.0780  162.7377 H   0  0  0  0  0  0  0  0  0  0  0  0
  151.8831  144.2410  162.6582 H   0  0  0  0  0  0  0  0  0  0  0  0
  150.8502  146.0716  159.3033 H   0  0  0  0  0  0  0  0  0  0  0  0
  152.2482  146.1309  160.3741 H   0  0  0  0  0  0  0  0  0  0  0  0
  150.6679  145.6400  161.0028 H   0  0  0  0  0  0  0  0  0  0  0  0
  150.7680  144.2135  157.8501 H   0  0  0  0  0  0  0  0  0  0  0  0
  146.4307  135.8655  155.1534 H   0  0  0  0  0  0  0  0  0  0  0  0
  148.1512  135.8468  154.8134 H   0  0  0  0  0  0  0  0  0  0  0  0
  147.6489  135.5551  152.5073 H   0  0  0  0  0  0  0  0  0  0  0  0
  1  2  1  0  0  0  0
  1 26  1  0  0  0  0
  1 27  1  0  0  0  0
  1 28  1  0  0  0  0
  2  3  1  0  0  0  0
  2 29  1  0  0  0  0
  2 30  1  0  0  0  0
  3 25  1  0  0  0  0
  3  4  1  0  0  0  0
  3 56  1  0  0  0  0
  4  5  1  0  0  0  0
  4 31  1  0  0  0  0
  4 32  1  0  0  0  0
  5  6  1  0  0  0  0
  5 33  1  0  0  0  0
  5 34  1  0  0  0  0
  6  7  1  0  0  0  0
  7  8  1  0  0  0  0
  7 25  1  0  0  0  0
  7 35  1  0  0  0  0
  8  9  1  0  0  0  0
  8 36  1  0  0  0  0
  8 37  1  0  0  0  0
  9 10  1  0  0  0  0
  9 38  1  0  0  0  0
 10 11  1  0  0  0  0
 10 39  1  0  0  0  0
 10 40  1  0  0  0  0
 11 12  1  0  0  0  0
 11 13  1  0  0  0  0
 11 41  1  0  0  0  0
 12 42  1  0  0  0  0
 13 14  1  0  0  0  0
 13 43  1  0  0  0  0
 13 44  1  0  0  0  0
 14 24  1  0  0  0  0
 14 15  1  0  0  0  0
 15 16  2  0  0  0  0
 15 45  1  0  0  0  0
 16 17  1  0  0  0  0
 17 24  2  0  0  0  0
 17 18  1  0  0  0  0
 18 19  2  0  0  0  0
 18 46  1  0  0  0  0
 19 20  1  0  0  0  0
 19 21  1  0  0  0  0
 20 47  1  0  0  0  0
 20 48  1  0  0  0  0
 20 49  1  0  0  0  0
 21 22  1  0  0  0  0
 21 23  2  0  0  0  0
 22 50  1  0  0  0  0
 22 51  1  0  0  0  0
 22 52  1  0  0  0  0
 23 24  1  0  0  0  0
 23 53  1  0  0  0  0
 25 54  1  0  0  0  0
 25 55  1  0  0  0  0
M  CHG  1   3   1
M  END
> <s_m_source_file>
AV-unprocessed.smi

> <i_m_source_file_index>
1047

> <i_lp_mmshare_version>
43012

> <i_f3d_flags>
0

> <s_epik_input>
W0NIM11bQ0gyXU4xW0NIMl1bQ0gyXU9bQ0BIXShbQ0gyXTEpW0NIMl1bTkhdW0NIMl1bQ0BIXShbT0hdKVtDSDJdbihbY0hdbjIpYyhjMjMpW2NIXWMoW0NIM10pYyhbY0hdMylbQ0gzXQ==

> <s_epik_cmdline>
J2VwaWtfcHl0aG9uJywgJy1waCcsICc3LjAnLCAnLXRuJywgJzgnLCAnLW1hJywgJzIwMCcsICctbWV0YWxfYmluZGluZycsICctaW1hZScsICc8aW5maWxlLm1hZT4nLCAnLW9tYWUnLCAnPG91dGZpbGUubWFlPic=

> <r_epik_Ionization_Penalty>
1.19246

> <r_epik_Ionization_Penalty_Charging>
0.210041

> <r_epik_Ionization_Penalty_Neutral>
0.982415

> <r_epik_State_Penalty>
1.57595

> <r_epik_Charging_Adjusted_Penalty>
1.78599

> <i_epik_Tot_Q>
1

> <i_epik_Tot_abs_Q>
1

> <r_epik_Metal_State_Penalty>
1.46172

> <b_epik_Metal_Only>
0

> <s_lp_Force_Field>
OPLS_2005

> <r_lp_Energy>
30.4626

> <b_lp_Chiralities_Consistent>
1

> <s_lp_Variant>
AV-unprocessed.smi:1047-13

> <Gold.Version>
5.8.1

> <Gold.Id.Protein>
6NUR|6NUR_protein|mol2

> <Gold.PLP.Fitness>
50.3195

> <Gold.PLP.PLP>
-44.0578

> <Gold.PLP.part.hbond>
-2.0000

> <Gold.PLP.part.metal>
0.0000

> <Gold.PLP.part.buried>
-6.0785

> <Gold.PLP.part.nonpolar>
-34.6623

> <Gold.PLP.part.repulsive>
0.1809

> <Gold.PLP.ligand.clash>
0.0000

> <Gold.PLP.ligand.torsion>
1.4640

> <Gold.PLP.Chemscore.Hbond>
3.0000

> <Gold.PLP.Chemscore.CHOScore>
0.0000

> <Gold.PLP.Chemscore.Metal>
0.0000

> <Gold.Chemscore.Hbonds>
donor molecule, donor type, donor heavy atom, donor atom, acceptor molecule, acceptor atom, score
      L1  H     3    56       P1  7948  2.00
      P1  H  7989  7998       L1    12  1.00

> <Gold.PLP.Chemscore.Internal.Correction>
0.1897

> <Gold.Rescore>
     Score         DG    S(hbond)    S(metal)    S(lipo)     H(rot)  DE(clash)    DE(int)     intcor
     17.72     -19.15       1.72        0.00     125.00       2.62       0.09       1.34       ----

> <Gold.Chemscore.Fitness>
17.7248

> <Gold.Chemscore.DG>
-19.1475

> <Gold.Chemscore.ZeroCoef>
-5.4800

> <Gold.Chemscore.Hbond>
1.7222

> <Gold.Chemscore.Metal>
0.0000

> <Gold.Chemscore.Lipo>
124.9999

> <Gold.Chemscore.Internal_Hbond>
0.0000

> <Gold.Chemscore.DEClash>
0.0851

> <Gold.Chemscore.DEInternal>
1.3377

> <Gold.Chemscore.Rot>
2.6209

> <Gold.Chemscore.Internal.Correction>
   9.000000E+99

> <Gold.Chemscore.Hbonds>
donor molecule, donor type, donor heavy atom, donor atom, acceptor molecule, acceptor atom, score
      L1  H     3    56       P1  7948  0.98
      P1  H  7989  7998       L1    12  0.50

> <Gold.Chemscore.Hbond.Weighted>
-5.7521

> <Gold.Chemscore.Metal.Weighted>
-0.0000

> <Gold.Chemscore.Lipo.Weighted>
-14.6250

> <Gold.Chemscore.Internal_Hbond.Weighted>
0.0000

> <Gold.Chemscore.DEClash.Weighted>
0.0851

> <Gold.Chemscore.DEInternal.Weighted>
1.3377

> <Gold.Chemscore.Rot.Weighted>
6.7096

> <Gold.Chemscore.Internal.Correction.Weighted>
   9.000000E+99

> <Gold.Protein.RotatedTorsions>
[ 6907 6896 6895 6894 ] final -135.63 input  -60.11 | X-H torsion
[ 7974 7965 7964 7962 ] final -167.45 input  175.53 | X-H torsion
[ 8008 7997 7996 7995 ] final -154.96 input   59.86 | X-H torsion
[ 10167 10162 10161 10158 ] final -160.06 input  -65.29 | X-H torsion
[ 10718 10713 10712 10709 ] final   43.94 input   66.30 | X-H torsion
[ 10763 10752 10751 10750 ] final   43.48 input  -60.55 | X-H torsion
[ 11005 11000 10999 10996 ] final  110.33 input  -57.11 | X-H torsion

> <Gold.Protein.ActiveResidues>
 VAL166  LYS551  ARG553  GLY616  TRP617  ASP618  TYR619  PRO620  LYS621  CYS622 
 ASP623  PHE694  ASN695  SER759  ASP760  ASP761  ALA762  ILE779  LEU786  VAL792 
 PHE793  MET794  SER795  GLU796  ALA797  LYS798  CYS799  TRP800  GLU811  SER814 

> <Gold.Protein.RotatedAtoms>
  151.0002  133.6063  159.2695 H   0  0  0  0  0  0  0  0  0  0  0  0  # atno 6907 bound_to 6896
  151.3252  135.0827  159.9329 H   0  0  0  0  0  0  0  0  0  0  0  0  # atno 6908 bound_to 6896
  152.5271  133.9642  159.7785 H   0  0  0  0  0  0  0  0  0  0  0  0  # atno 6909 bound_to 6896
  144.7223  140.2516  143.6277 H   0  0  0  0  0  0  0  0  0  0  0  0  # atno 7974 bound_to 7965
  155.6944  140.0759  157.2435 H   0  0  0  0  0  0  0  0  0  0  0  0  # atno 8008 bound_to 7997
  154.4083  140.1658  156.2175 H   0  0  0  0  0  0  0  0  0  0  0  0  # atno 8009 bound_to 7997
  155.9423  140.3383  155.6341 H   0  0  0  0  0  0  0  0  0  0  0  0  # atno 8010 bound_to 7997
  139.6567  143.9985  152.2199 H   0  0  0  0  0  0  0  0  0  0  0  0  # atno 10167 bound_to 10162
  157.4214  130.7971  149.7519 H   0  0  0  0  0  0  0  0  0  0  0  0  # atno 10718 bound_to 10713
  152.9860  135.6100  154.3119 H   0  0  0  0  0  0  0  0  0  0  0  0  # atno 10763 bound_to 10752
  154.2834  135.2776  155.2689 H   0  0  0  0  0  0  0  0  0  0  0  0  # atno 10764 bound_to 10752
  154.5017  135.5865  153.6593 H   0  0  0  0  0  0  0  0  0  0  0  0  # atno 10765 bound_to 10752
  139.8879  134.9481  156.6262 H   0  0  0  0  0  0  0  0  0  0  0  0  # atno 11005 bound_to 11000
  145.8222  139.2049  143.1931 LP  0  0  0  0  0  0  0  0  0  0  0  0  # atno 17320 bound_to 7965
  146.0504  140.8075  142.9784 LP  0  0  0  0  0  0  0  0  0  0  0  0  # atno 17321 bound_to 7965
  139.9713  144.6491  150.7986 LP  0  0  0  0  0  0  0  0  0  0  0  0  # atno 17342 bound_to 10162
  140.7562  143.3062  151.2957 LP  0  0  0  0  0  0  0  0  0  0  0  0  # atno 17343 bound_to 10162
  155.9882  130.3961  150.3130 LP  0  0  0  0  0  0  0  0  0  0  0  0  # atno 17370 bound_to 10713
  157.1278  131.0264  151.2982 LP  0  0  0  0  0  0  0  0  0  0  0  0  # atno 17371 bound_to 10713
  140.7702  133.8745  155.8485 LP  0  0  0  0  0  0  0  0  0  0  0  0  # atno 17394 bound_to 11000
  140.9849  134.1356  157.4461 LP  0  0  0  0  0  0  0  0  0  0  0  0  # atno 17395 bound_to 11000

$$$$
