AV-unprocessed.smi:1006|AV-procd|sdf|4397|dock8
  -GOLD-   22720 2333D 1   1.00000     0.00000
 Structure written by MMmdl.
 47 49  0  0  0  0  0  0  0  0  3 V2000
  148.2702  133.1143  152.7063 C   0  0  0  0  0  0  0  0  0  0  0  0
  149.2547  133.4256  153.8137 C   0  0  0  0  0  0  0  0  0  0  0  0
  149.7697  132.4228  154.6605 C   0  0  0  0  0  0  0  0  0  0  0  0
  150.6747  132.8346  155.6541 C   0  0  0  0  0  0  0  0  0  0  0  0
  151.2354  131.9147  156.5364 N   0  0  0  0  0  0  0  0  0  0  0  0
  151.0313  134.1272  155.7901 N   0  0  0  0  0  0  0  0  0  0  0  0
  150.5032  135.0303  154.9531 C   0  0  0  0  0  0  0  0  0  0  0  0
  150.9548  136.7499  155.1084 S   0  0  0  0  0  0  0  0  0  0  0  0
  151.4720  136.8767  156.8496 C   0  0  0  0  0  0  0  0  0  0  0  0
  151.3156  138.3058  157.3951 C   0  0  1  0  0  0  0  0  0  0  0  0
  151.7991  138.3522  158.7241 O   0  0  0  0  0  0  0  0  0  0  0  0
  152.0614  139.3392  156.5284 C   0  0  0  0  0  0  0  0  0  0  0  0
  151.4938  140.6913  156.6387 N   0  0  0  0  0  0  0  0  0  0  0  0
  150.6584  141.3520  155.7915 C   0  0  0  0  0  0  0  0  0  0  0  0
  150.4133  142.5788  156.3285 N   0  3  0  0  0  0  0  0  0  0  0  0
  151.1016  142.7045  157.5367 C   0  0  0  0  0  0  0  0  0  0  0  0
  151.1651  143.7578  158.4412 C   0  0  0  0  0  0  0  0  0  0  0  0
  151.9606  143.5711  159.5939 C   0  0  0  0  0  0  0  0  0  0  0  0
  152.0510  144.7025  160.6040 C   0  0  0  0  0  0  0  0  0  0  0  0
  152.6599  142.3553  159.8089 C   0  0  0  0  0  0  0  0  0  0  0  0
  153.5086  142.1635  161.0545 C   0  0  0  0  0  0  0  0  0  0  0  0
  152.5840  141.2966  158.8756 C   0  0  0  0  0  0  0  0  0  0  0  0
  151.7966  141.4968  157.7438 C   0  0  0  0  0  0  0  0  0  0  0  0
  149.6352  134.7172  153.9801 N   0  3  0  0  0  0  0  0  0  0  0  0
  148.2365  132.0435  152.5023 H   0  0  0  0  0  0  0  0  0  0  0  0
  148.5527  133.6256  151.7854 H   0  0  0  0  0  0  0  0  0  0  0  0
  147.2688  133.4400  152.9887 H   0  0  0  0  0  0  0  0  0  0  0  0
  149.4818  131.3869  154.5506 H   0  0  0  0  0  0  0  0  0  0  0  0
  151.0112  130.9309  156.4905 H   0  0  0  0  0  0  0  0  0  0  0  0
  151.8816  132.2026  157.2573 H   0  0  0  0  0  0  0  0  0  0  0  0
  150.8916  136.1776  157.4533 H   0  0  0  0  0  0  0  0  0  0  0  0
  152.5167  136.5715  156.9178 H   0  0  0  0  0  0  0  0  0  0  0  0
  150.2560  138.5647  157.4160 H   0  0  0  0  0  0  0  0  0  0  0  0
  152.4886  137.7131  158.8174 H   0  0  0  0  0  0  0  0  0  0  0  0
  153.1239  139.3700  156.7709 H   0  0  0  0  0  0  0  0  0  0  0  0
  151.9986  139.0535  155.4776 H   0  0  0  0  0  0  0  0  0  0  0  0
  150.2605  140.9719  154.8616 H   0  0  0  0  0  0  0  0  0  0  0  0
  150.6281  144.6798  158.2717 H   0  0  0  0  0  0  0  0  0  0  0  0
  153.0857  145.0228  160.7298 H   0  0  0  0  0  0  0  0  0  0  0  0
  151.6664  144.3820  161.5727 H   0  0  0  0  0  0  0  0  0  0  0  0
  151.4712  145.5691  160.2852 H   0  0  0  0  0  0  0  0  0  0  0  0
  153.9723  141.1767  161.0740 H   0  0  0  0  0  0  0  0  0  0  0  0
  152.8983  142.2617  161.9525 H   0  0  0  0  0  0  0  0  0  0  0  0
  154.3054  142.9066  161.0933 H   0  0  0  0  0  0  0  0  0  0  0  0
  153.1147  140.3717  159.0438 H   0  0  0  0  0  0  0  0  0  0  0  0
  149.2592  135.4400  153.3660 H   0  0  0  0  0  0  0  0  0  0  0  0
  149.8179  143.2763  155.9005 H   0  0  0  0  0  0  0  0  0  0  0  0
  1  2  1  0  0  0  0
  1 25  1  0  0  0  0
  1 26  1  0  0  0  0
  1 27  1  0  0  0  0
  2 24  1  0  0  0  0
  2  3  2  0  0  0  0
  3  4  1  0  0  0  0
  3 28  1  0  0  0  0
  4  5  1  0  0  0  0
  4  6  2  0  0  0  0
  5 29  1  0  0  0  0
  5 30  1  0  0  0  0
  6  7  1  0  0  0  0
  7  8  1  0  0  0  0
  7 24  2  0  0  0  0
  8  9  1  0  0  0  0
  9 10  1  0  0  0  0
  9 31  1  0  0  0  0
  9 32  1  0  0  0  0
 10 11  1  0  0  0  0
 10 12  1  0  0  0  0
 10 33  1  0  0  0  0
 11 34  1  0  0  0  0
 12 13  1  0  0  0  0
 12 35  1  0  0  0  0
 12 36  1  0  0  0  0
 13 23  1  0  0  0  0
 13 14  1  0  0  0  0
 14 15  2  0  0  0  0
 14 37  1  0  0  0  0
 15 16  1  0  0  0  0
 15 47  1  0  0  0  0
 16 23  2  0  0  0  0
 16 17  1  0  0  0  0
 17 18  2  0  0  0  0
 17 38  1  0  0  0  0
 18 19  1  0  0  0  0
 18 20  1  0  0  0  0
 19 39  1  0  0  0  0
 19 40  1  0  0  0  0
 19 41  1  0  0  0  0
 20 21  1  0  0  0  0
 20 22  2  0  0  0  0
 21 42  1  0  0  0  0
 21 43  1  0  0  0  0
 21 44  1  0  0  0  0
 22 23  1  0  0  0  0
 22 45  1  0  0  0  0
 24 46  1  0  0  0  0
M  CHG  1  15   1
M  CHG  1  24   1
M  END
> <s_m_source_file>
AV-unprocessed.smi

> <i_m_source_file_index>
1006

> <i_lp_mmshare_version>
43012

> <i_f3d_flags>
0

> <s_epik_input>
W0NIM11jMVtjSF1jKFtOSDJdKW5jKG4xKVNbQ0gyXVtDQEhdKFtPSF0pW0NIMl1uKFtjSF1uMiljKGMyMylbY0hdYyhbQ0gzXSljKFtjSF0zKVtDSDNd

> <s_epik_cmdline>
J2VwaWtfcHl0aG9uJywgJy1waCcsICc3LjAnLCAnLXRuJywgJzgnLCAnLW1hJywgJzIwMCcsICctbWV0YWxfYmluZGluZycsICctaW1hZScsICc8aW5maWxlLm1hZT4nLCAnLW9tYWUnLCAnPG91dGZpbGUubWFlPic=

> <r_lp_tautomer_probability>
0.999762

> <r_epik_Ionization_Penalty>
1.50932

> <r_epik_Ionization_Penalty_Charging>
1.50929

> <r_epik_Ionization_Penalty_Neutral>
3.48853e-05

> <r_epik_State_Penalty>
1.56619

> <r_epik_Charging_Adjusted_Penalty>
3.07548

> <i_epik_Tot_Q>
2

> <i_epik_Tot_abs_Q>
2

> <r_epik_Metal_State_Penalty>
1.82892

> <b_epik_Metal_Only>
0

> <s_lp_Force_Field>
OPLS_2005

> <r_lp_Energy>
17.0634

> <b_lp_Chiralities_Consistent>
1

> <s_lp_Variant>
AV-unprocessed.smi:1006-8

> <Gold.Version>
5.8.1

> <Gold.Id.Protein>
6NUR|6NUR_protein|mol2

> <Gold.PLP.Fitness>
59.0826

> <Gold.PLP.PLP>
-49.0698

> <Gold.PLP.part.hbond>
-2.0000

> <Gold.PLP.part.metal>
0.0000

> <Gold.PLP.part.buried>
-6.0968

> <Gold.PLP.part.nonpolar>
-41.5089

> <Gold.PLP.part.repulsive>
0.2098

> <Gold.PLP.ligand.clash>
0.0000

> <Gold.PLP.ligand.torsion>
1.0206

> <Gold.PLP.Chemscore.Hbond>
4.0000

> <Gold.PLP.Chemscore.CHOScore>
0.0000

> <Gold.PLP.Chemscore.Metal>
0.0000

> <Gold.Chemscore.Hbonds>
donor molecule, donor type, donor heavy atom, donor atom, acceptor molecule, acceptor atom, score
      L1  H    15    47       P1  8028  2.00
      L1  H    24    46       P1  7948  2.00

> <Gold.PLP.Chemscore.Internal.Correction>
0.0540

> <Gold.Rescore>
     Score         DG    S(hbond)    S(metal)    S(lipo)     H(rot)  DE(clash)    DE(int)     intcor
     16.31     -17.56       1.74        0.00     118.43       2.96       0.13       1.13       ----

> <Gold.Chemscore.Fitness>
16.3077

> <Gold.Chemscore.DG>
-17.5593

> <Gold.Chemscore.ZeroCoef>
-5.4800

> <Gold.Chemscore.Hbond>
1.7367

> <Gold.Chemscore.Metal>
0.0000

> <Gold.Chemscore.Lipo>
118.4258

> <Gold.Chemscore.Internal_Hbond>
0.0000

> <Gold.Chemscore.DEClash>
0.1260

> <Gold.Chemscore.DEInternal>
1.1255

> <Gold.Chemscore.Rot>
2.9599

> <Gold.Chemscore.Internal.Correction>
   9.000000E+99

> <Gold.Chemscore.Hbonds>
donor molecule, donor type, donor heavy atom, donor atom, acceptor molecule, acceptor atom, score
      L1  H    15    47       P1  8028  1.00
      L1  H    24    46       P1  7948  0.29

> <Gold.Chemscore.Hbond.Weighted>
-5.8007

> <Gold.Chemscore.Metal.Weighted>
-0.0000

> <Gold.Chemscore.Lipo.Weighted>
-13.8558

> <Gold.Chemscore.Internal_Hbond.Weighted>
0.0000

> <Gold.Chemscore.DEClash.Weighted>
0.1260

> <Gold.Chemscore.DEInternal.Weighted>
1.1255

> <Gold.Chemscore.Rot.Weighted>
7.5772

> <Gold.Chemscore.Internal.Correction.Weighted>
   9.000000E+99

> <Gold.Protein.RotatedTorsions>
[ 6907 6896 6895 6894 ] final -101.58 input  -60.11 | X-H torsion
[ 7974 7965 7964 7962 ] final  -69.29 input  175.53 | X-H torsion
[ 8008 7997 7996 7995 ] final  -29.32 input   59.86 | X-H torsion
[ 10167 10162 10161 10158 ] final   16.30 input  -65.29 | X-H torsion
[ 10718 10713 10712 10709 ] final -113.24 input   66.30 | X-H torsion
[ 10763 10752 10751 10750 ] final  -51.43 input  -60.55 | X-H torsion
[ 11005 11000 10999 10996 ] final  -44.07 input  -57.11 | X-H torsion

> <Gold.Protein.ActiveResidues>
 VAL166  LYS551  ARG553  GLY616  TRP617  ASP618  TYR619  PRO620  LYS621  CYS622 
 ASP623  PHE694  ASN695  SER759  ASP760  ASP761  ALA762  ILE779  LEU786  VAL792 
 PHE793  MET794  SER795  GLU796  ALA797  LYS798  CYS799  TRP800  GLU811  SER814 

> <Gold.Protein.RotatedAtoms>
  150.7160  134.0713  159.3865 H   0  0  0  0  0  0  0  0  0  0  0  0  # atno 6907 bound_to 6896
  151.8695  135.0492  160.0487 H   0  0  0  0  0  0  0  0  0  0  0  0  # atno 6908 bound_to 6896
  152.2654  133.5299  159.5443 H   0  0  0  0  0  0  0  0  0  0  0  0  # atno 6909 bound_to 6896
  145.7057  140.9099  143.0707 H   0  0  0  0  0  0  0  0  0  0  0  0  # atno 7974 bound_to 7965
  154.4295  140.1821  156.1229 H   0  0  0  0  0  0  0  0  0  0  0  0  # atno 8008 bound_to 7997
  156.0128  140.3349  155.6933 H   0  0  0  0  0  0  0  0  0  0  0  0  # atno 8009 bound_to 7997
  155.6086  140.0647  157.2703 H   0  0  0  0  0  0  0  0  0  0  0  0  # atno 8010 bound_to 7997
  140.5807  143.8987  150.6787 H   0  0  0  0  0  0  0  0  0  0  0  0  # atno 10167 bound_to 10162
  156.0754  130.5962  150.8616 H   0  0  0  0  0  0  0  0  0  0  0  0  # atno 10718 bound_to 10713
  154.1264  135.6527  153.4913 H   0  0  0  0  0  0  0  0  0  0  0  0  # atno 10763 bound_to 10752
  153.0209  135.5282  154.7045 H   0  0  0  0  0  0  0  0  0  0  0  0  # atno 10764 bound_to 10752
  154.6267  135.2971  155.0234 H   0  0  0  0  0  0  0  0  0  0  0  0  # atno 10765 bound_to 10752
  141.0426  133.6774  156.2821 H   0  0  0  0  0  0  0  0  0  0  0  0  # atno 11005 bound_to 11000
  144.6956  139.9007  143.7458 LP  0  0  0  0  0  0  0  0  0  0  0  0  # atno 17320 bound_to 7965
  146.0758  139.3746  143.0495 LP  0  0  0  0  0  0  0  0  0  0  0  0  # atno 17321 bound_to 7965
  140.2485  143.3611  152.1426 LP  0  0  0  0  0  0  0  0  0  0  0  0  # atno 17342 bound_to 10162
  139.5168  144.6983  151.5568 LP  0  0  0  0  0  0  0  0  0  0  0  0  # atno 17343 bound_to 10162
  157.5847  131.0946  150.9215 LP  0  0  0  0  0  0  0  0  0  0  0  0  # atno 17370 bound_to 10713
  156.9403  130.5382  149.5280 LP  0  0  0  0  0  0  0  0  0  0  0  0  # atno 17371 bound_to 10713
  140.6206  134.5365  157.5547 LP  0  0  0  0  0  0  0  0  0  0  0  0  # atno 17394 bound_to 11000
  139.9287  134.8005  156.0993 LP  0  0  0  0  0  0  0  0  0  0  0  0  # atno 17395 bound_to 11000

$$$$
