AV-unprocessed.smi:500|AV-procd|sdf|2739|dock6
  -GOLD-   2262023193D 1   1.00000     0.00000
 Structure written by MMmdl.
 44 46  0  0  0  0  0  0  0  0  2 V2000
  153.6252  137.5018  162.6155 C   0  0  0  0  0  0  0  0  0  0  0  0
  154.2068  136.9446  161.3093 C   0  0  0  0  0  0  0  0  0  0  0  0
  153.1917  136.8050  160.3288 O   0  0  0  0  0  0  0  0  0  0  0  0
  152.5590  138.0211  159.9656 C   0  0  0  0  0  0  0  0  0  0  0  0
  153.3188  138.6622  158.7959 C   0  0  0  0  0  0  0  0  0  0  0  0
  152.6904  139.9125  158.3577 N   0  0  0  0  0  0  0  0  0  0  0  0
  152.0556  140.2428  157.1888 C   0  0  0  0  0  0  0  0  0  0  0  0
  151.8512  139.2904  156.0205 C   0  0  1  0  0  0  0  0  0  0  0  0
  151.1867  137.9875  156.4869 C   0  0  0  0  0  0  0  0  0  0  0  0
  151.0401  139.8737  154.9467 N   0  5  0  0  0  0  0  0  0  0  0  0
  149.8564  139.3583  154.5102 C   0  0  0  0  0  0  0  0  0  0  0  0
  149.5377  138.1859  154.2898 O   0  0  0  0  0  0  0  0  0  0  0  0
  148.8289  140.4077  154.3242 C   0  0  0  0  0  0  0  0  0  0  0  0
  148.7930  141.7310  154.6843 C   0  0  0  0  0  0  0  0  0  0  0  0
  147.5562  142.2521  154.2136 C   0  0  0  0  0  0  0  0  0  0  0  0
  146.9261  141.2144  153.5901 C   0  0  0  0  0  0  0  0  0  0  0  0
  147.6888  140.0891  153.6423 O   0  0  0  0  0  0  0  0  0  0  0  0
  151.5745  141.4912  157.1448 N   0  0  0  0  0  0  0  0  0  0  0  0
  151.9495  142.0235  158.3592 C   0  0  0  0  0  0  0  0  0  0  0  0
  151.7430  143.3131  158.8993 C   0  0  0  0  0  0  0  0  0  0  0  0
  152.2229  143.6332  160.1859 C   0  0  0  0  0  0  0  0  0  0  0  0
  152.9136  142.6696  160.9487 C   0  0  0  0  0  0  0  0  0  0  0  0
  153.1279  141.3791  160.4276 C   0  0  0  0  0  0  0  0  0  0  0  0
  152.6474  141.0646  159.1415 C   0  0  0  0  0  0  0  0  0  0  0  0
  154.4151  137.6785  163.3456 H   0  0  0  0  0  0  0  0  0  0  0  0
  152.9068  136.8176  163.0661 H   0  0  0  0  0  0  0  0  0  0  0  0
  153.1167  138.4501  162.4394 H   0  0  0  0  0  0  0  0  0  0  0  0
  154.9431  137.6496  160.9232 H   0  0  0  0  0  0  0  0  0  0  0  0
  154.7316  136.0026  161.4748 H   0  0  0  0  0  0  0  0  0  0  0  0
  151.5256  137.8208  159.6808 H   0  0  0  0  0  0  0  0  0  0  0  0
  152.5320  138.7157  160.8057 H   0  0  0  0  0  0  0  0  0  0  0  0
  154.3664  138.8181  159.0507 H   0  0  0  0  0  0  0  0  0  0  0  0
  153.3274  137.9744  157.9501 H   0  0  0  0  0  0  0  0  0  0  0  0
  152.8361  139.0175  155.6412 H   0  0  0  0  0  0  0  0  0  0  0  0
  151.7869  137.4989  157.2546 H   0  0  0  0  0  0  0  0  0  0  0  0
  151.0731  137.2839  155.6616 H   0  0  0  0  0  0  0  0  0  0  0  0
  150.1971  138.1719  156.9071 H   0  0  0  0  0  0  0  0  0  0  0  0
  149.5662  142.2599  155.2222 H   0  0  0  0  0  0  0  0  0  0  0  0
  147.1783  143.2585  154.3153 H   0  0  0  0  0  0  0  0  0  0  0  0
  145.9811  141.1074  153.0783 H   0  0  0  0  0  0  0  0  0  0  0  0
  151.2146  144.0564  158.3209 H   0  0  0  0  0  0  0  0  0  0  0  0
  152.0599  144.6219  160.5889 H   0  0  0  0  0  0  0  0  0  0  0  0
  153.2781  142.9215  161.9336 H   0  0  0  0  0  0  0  0  0  0  0  0
  153.6567  140.6394  161.0099 H   0  0  0  0  0  0  0  0  0  0  0  0
  1  2  1  0  0  0  0
  1 25  1  0  0  0  0
  1 26  1  0  0  0  0
  1 27  1  0  0  0  0
  2  3  1  0  0  0  0
  2 28  1  0  0  0  0
  2 29  1  0  0  0  0
  3  4  1  0  0  0  0
  4  5  1  0  0  0  0
  4 30  1  0  0  0  0
  4 31  1  0  0  0  0
  5  6  1  0  0  0  0
  5 32  1  0  0  0  0
  5 33  1  0  0  0  0
  6 24  1  0  0  0  0
  6  7  1  0  0  0  0
  7  8  1  0  0  0  0
  7 18  2  0  0  0  0
  8  9  1  0  0  0  0
  8 10  1  0  0  0  0
  8 34  1  0  0  0  0
  9 35  1  0  0  0  0
  9 36  1  0  0  0  0
  9 37  1  0  0  0  0
 10 11  1  0  0  0  0
 11 12  2  0  0  0  0
 11 13  1  0  0  0  0
 13 17  1  0  0  0  0
 13 14  2  0  0  0  0
 14 15  1  0  0  0  0
 14 38  1  0  0  0  0
 15 16  2  0  0  0  0
 15 39  1  0  0  0  0
 16 17  1  0  0  0  0
 16 40  1  0  0  0  0
 18 19  1  0  0  0  0
 19 24  2  0  0  0  0
 19 20  1  0  0  0  0
 20 21  2  0  0  0  0
 20 41  1  0  0  0  0
 21 22  1  0  0  0  0
 21 42  1  0  0  0  0
 22 23  2  0  0  0  0
 22 43  1  0  0  0  0
 23 24  1  0  0  0  0
 23 44  1  0  0  0  0
M  CHG  1  10  -1
M  END
> <s_m_source_file>
AV-unprocessed.smi

> <i_m_source_file_index>
500

> <i_lp_mmshare_version>
43012

> <i_f3d_flags>
0

> <s_epik_input>
W0NIM11bQ0gyXU9bQ0gyXVtDSDJdbihjKGMxMilbY0hdW2NIXVtjSF1bY0hdMiljKG4xKVtDQEhdKFtDSDNdKVtOSF1DKD1PKWMzW2NIXVtjSF1bY0hdbzM=

> <s_epik_cmdline>
J2VwaWtfcHl0aG9uJywgJy1waCcsICc3LjAnLCAnLXRuJywgJzgnLCAnLW1hJywgJzIwMCcsICctbWV0YWxfYmluZGluZycsICctaW1hZScsICc8aW5maWxlLm1hZT4nLCAnLW9tYWUnLCAnPG91dGZpbGUubWFlPic=

> <r_epik_Ionization_Penalty>
7.31223

> <r_epik_Ionization_Penalty_Charging>
6.43826

> <r_epik_Ionization_Penalty_Neutral>
0.873973

> <r_epik_State_Penalty>
6.5378

> <r_epik_Charging_Adjusted_Penalty>
12.9761

> <i_epik_Tot_Q>
-1

> <i_epik_Tot_abs_Q>
1

> <r_epik_Metal_State_Penalty>
2.55818

> <b_epik_Metal_Only>
1

> <s_lp_Force_Field>
OPLS_2005

> <r_lp_Energy>
16.2081

> <b_lp_Chiralities_Consistent>
1

> <s_lp_Variant>
AV-unprocessed.smi:500-6

> <Gold.Version>
5.8.1

> <Gold.Id.Protein>
6NUR|6NUR_protein|mol2

> <Gold.PLP.Fitness>
54.2164

> <Gold.PLP.PLP>
-46.5031

> <Gold.PLP.part.hbond>
-2.0000

> <Gold.PLP.part.metal>
0.0000

> <Gold.PLP.part.buried>
-2.9865

> <Gold.PLP.part.nonpolar>
-42.1045

> <Gold.PLP.part.repulsive>
1.2087

> <Gold.PLP.ligand.clash>
0.0438

> <Gold.PLP.ligand.torsion>
0.7243

> <Gold.PLP.Chemscore.Hbond>
2.0000

> <Gold.PLP.Chemscore.CHOScore>
1.0000

> <Gold.PLP.Chemscore.Metal>
0.0000

> <Gold.Chemscore.Hbonds>
donor molecule, donor type, donor heavy atom, donor atom, acceptor molecule, acceptor atom, score
      P1  H  6896  6908       L1     3  0.80
      P1  H  7989  7998       L1    10  1.00
      L1  C    16    40       P1 10175  1.00

> <Gold.PLP.Chemscore.Internal.Correction>
0.2057

> <Gold.Rescore>
     Score         DG    S(hbond)    S(metal)    S(lipo)     H(rot)  DE(clash)    DE(int)     intcor
     18.30     -20.97       1.77        0.00     121.99       1.84       0.27       2.41       ----

> <Gold.Chemscore.Fitness>
18.2996

> <Gold.Chemscore.DG>
-20.9743

> <Gold.Chemscore.ZeroCoef>
-5.4800

> <Gold.Chemscore.Hbond>
1.7747

> <Gold.Chemscore.Metal>
0.0000

> <Gold.Chemscore.Lipo>
121.9883

> <Gold.Chemscore.Internal_Hbond>
0.0000

> <Gold.Chemscore.DEClash>
0.2654

> <Gold.Chemscore.DEInternal>
2.4092

> <Gold.Chemscore.Rot>
1.8382

> <Gold.Chemscore.Internal.Correction>
   9.000000E+99

> <Gold.Chemscore.Hbonds>
donor molecule, donor type, donor heavy atom, donor atom, acceptor molecule, acceptor atom, score
      P1  H  6896  6908       L1     3  0.74
      P1  H  7989  7998       L1    10  0.45

> <Gold.Chemscore.Hbond.Weighted>
-5.9275

> <Gold.Chemscore.Metal.Weighted>
-0.0000

> <Gold.Chemscore.Lipo.Weighted>
-14.2726

> <Gold.Chemscore.Internal_Hbond.Weighted>
0.0000

> <Gold.Chemscore.DEClash.Weighted>
0.2654

> <Gold.Chemscore.DEInternal.Weighted>
2.4092

> <Gold.Chemscore.Rot.Weighted>
4.7059

> <Gold.Chemscore.Internal.Correction.Weighted>
   9.000000E+99

> <Gold.Protein.RotatedTorsions>
[ 6907 6896 6895 6894 ] final  -90.99 input  -60.11 | X-H torsion
[ 7974 7965 7964 7962 ] final  -93.14 input  175.53 | X-H torsion
[ 8008 7997 7996 7995 ] final  -15.22 input   59.86 | X-H torsion
[ 10167 10162 10161 10158 ] final   12.62 input  -65.29 | X-H torsion
[ 10718 10713 10712 10709 ] final  157.26 input   66.30 | X-H torsion
[ 10763 10752 10751 10750 ] final   92.93 input  -60.55 | X-H torsion
[ 11005 11000 10999 10996 ] final   85.83 input  -57.11 | X-H torsion

> <Gold.Protein.ActiveResidues>
 VAL166  LYS551  ARG553  GLY616  TRP617  ASP618  TYR619  PRO620  LYS621  CYS622 
 ASP623  PHE694  ASN695  SER759  ASP760  ASP761  ALA762  ILE779  LEU786  VAL792 
 PHE793  MET794  SER795  GLU796  ALA797  LYS798  CYS799  TRP800  GLU811  SER814 

> <Gold.Protein.RotatedAtoms>
  150.6887  134.2346  159.4447 H   0  0  0  0  0  0  0  0  0  0  0  0  # atno 6907 bound_to 6896
  152.0295  134.9774  160.0581 H   0  0  0  0  0  0  0  0  0  0  0  0  # atno 6908 bound_to 6896
  152.1319  133.4378  159.4762 H   0  0  0  0  0  0  0  0  0  0  0  0  # atno 6909 bound_to 6896
  145.3905  140.9527  143.2343 H   0  0  0  0  0  0  0  0  0  0  0  0  # atno 7974 bound_to 7965
  154.5148  140.2202  155.9087 H   0  0  0  0  0  0  0  0  0  0  0  0  # atno 8008 bound_to 7997
  156.1594  140.3145  155.8748 H   0  0  0  0  0  0  0  0  0  0  0  0  # atno 8009 bound_to 7997
  155.3781  140.0470  157.3035 H   0  0  0  0  0  0  0  0  0  0  0  0  # atno 8010 bound_to 7997
  140.6056  143.8515  150.7010 H   0  0  0  0  0  0  0  0  0  0  0  0  # atno 10167 bound_to 10162
  157.1938  131.0661  151.2064 H   0  0  0  0  0  0  0  0  0  0  0  0  # atno 10718 bound_to 10713
  153.2247  135.4343  155.0528 H   0  0  0  0  0  0  0  0  0  0  0  0  # atno 10763 bound_to 10752
  154.8267  135.3365  154.6876 H   0  0  0  0  0  0  0  0  0  0  0  0  # atno 10764 bound_to 10752
  153.7306  135.7011  153.5046 H   0  0  0  0  0  0  0  0  0  0  0  0  # atno 10765 bound_to 10752
  139.8961  134.8314  156.2637 H   0  0  0  0  0  0  0  0  0  0  0  0  # atno 11005 bound_to 11000
  144.8444  139.5421  143.6885 LP  0  0  0  0  0  0  0  0  0  0  0  0  # atno 17320 bound_to 7965
  146.2800  139.6852  142.9236 LP  0  0  0  0  0  0  0  0  0  0  0  0  # atno 17321 bound_to 7965
  140.2071  143.3913  152.1747 LP  0  0  0  0  0  0  0  0  0  0  0  0  # atno 17342 bound_to 10162
  139.5322  144.7172  151.5015 LP  0  0  0  0  0  0  0  0  0  0  0  0  # atno 17343 bound_to 10162
  157.3834  130.7243  149.6646 LP  0  0  0  0  0  0  0  0  0  0  0  0  # atno 17370 bound_to 10713
  155.9708  130.4166  150.4239 LP  0  0  0  0  0  0  0  0  0  0  0  0  # atno 17371 bound_to 10713
  141.0146  133.7076  156.1167 LP  0  0  0  0  0  0  0  0  0  0  0  0  # atno 17394 bound_to 11000
  140.7319  134.4245  157.5565 LP  0  0  0  0  0  0  0  0  0  0  0  0  # atno 17395 bound_to 11000

$$$$
