AV-unprocessed.smi:366|AV-procd|sdf|2430|dock7
  -GOLD-   2262022373D 1   1.00000     0.00000
 Structure written by MMmdl.
 50 51  0  0  0  0  0  0  0  0  1 V2000
  146.0362  142.5003  153.8735 C   0  0  0  0  0  0  0  0  0  0  0  0
  147.0939  141.4524  153.5433 C   0  0  0  0  0  0  0  0  0  0  0  0
  148.2817  141.6909  153.7584 O   0  0  0  0  0  0  0  0  0  0  0  0
  146.6517  140.2954  153.0248 N   0  0  0  0  0  0  0  0  0  0  0  0
  147.4917  139.1543  152.6547 C   0  0  1  0  0  0  0  0  0  0  0  0
  148.3341  138.7478  153.8790 C   0  0  0  0  0  0  0  0  0  0  0  0
  147.7888  138.3762  154.9198 O   0  0  0  0  0  0  0  0  0  0  0  0
  149.6651  138.8070  153.7303 N   0  0  0  0  0  0  0  0  0  0  0  0
  150.6260  138.4567  154.7653 C   0  0  0  0  0  0  0  0  0  0  0  0
  150.8359  139.5976  155.7396 C   0  0  0  0  0  0  0  0  0  0  0  0
  151.7740  139.4941  156.7846 C   0  0  0  0  0  0  0  0  0  0  0  0
  151.9268  140.5763  157.6721 C   0  0  0  0  0  0  0  0  0  0  0  0
  151.1315  141.7342  157.4944 C   0  0  0  0  0  0  0  0  0  0  0  0
  151.2660  142.8309  158.3736 N   0  0  0  0  0  0  0  0  0  0  0  0
  152.0123  142.6277  159.6142 C   0  0  0  0  0  0  0  0  0  0  0  0
  151.8084  143.8187  160.5655 C   0  0  0  0  0  0  0  0  0  0  0  0
  152.1629  145.0273  159.9023 O   0  0  0  0  0  0  0  0  0  0  0  0
  151.3465  145.2625  158.7600 C   0  0  0  0  0  0  0  0  0  0  0  0
  151.5306  144.1224  157.7435 C   0  0  0  0  0  0  0  0  0  0  0  0
  150.2317  141.8274  156.4831 N   0  0  0  0  0  0  0  0  0  0  0  0
  150.0889  140.7874  155.6349 C   0  0  0  0  0  0  0  0  0  0  0  0
  146.5756  137.9716  152.2220 C   0  0  0  0  0  0  0  0  0  0  0  0
  145.9249  138.1868  150.8393 C   0  0  0  0  0  0  0  0  0  0  0  0
  145.4704  137.6910  153.2593 C   0  0  0  0  0  0  0  0  0  0  0  0
  145.0848  142.2734  153.3904 H   0  0  0  0  0  0  0  0  0  0  0  0
  146.3612  143.4855  153.5386 H   0  0  0  0  0  0  0  0  0  0  0  0
  145.8733  142.5407  154.9505 H   0  0  0  0  0  0  0  0  0  0  0  0
  145.6570  140.1865  152.8914 H   0  0  0  0  0  0  0  0  0  0  0  0
  148.1453  139.4303  151.8242 H   0  0  0  0  0  0  0  0  0  0  0  0
  150.0351  139.1208  152.8447 H   0  0  0  0  0  0  0  0  0  0  0  0
  150.2809  137.5761  155.3098 H   0  0  0  0  0  0  0  0  0  0  0  0
  151.5791  138.1931  154.3040 H   0  0  0  0  0  0  0  0  0  0  0  0
  152.3700  138.6015  156.9056 H   0  0  0  0  0  0  0  0  0  0  0  0
  152.6574  140.5105  158.4641 H   0  0  0  0  0  0  0  0  0  0  0  0
  151.6835  141.7122  160.1079 H   0  0  0  0  0  0  0  0  0  0  0  0
  153.0721  142.5122  159.3828 H   0  0  0  0  0  0  0  0  0  0  0  0
  150.7743  143.8694  160.9102 H   0  0  0  0  0  0  0  0  0  0  0  0
  152.4334  143.7030  161.4507 H   0  0  0  0  0  0  0  0  0  0  0  0
  150.3008  145.3514  159.0588 H   0  0  0  0  0  0  0  0  0  0  0  0
  151.6303  146.2143  158.3115 H   0  0  0  0  0  0  0  0  0  0  0  0
  152.5528  144.1238  157.3628 H   0  0  0  0  0  0  0  0  0  0  0  0
  150.8761  144.3005  156.8918 H   0  0  0  0  0  0  0  0  0  0  0  0
  149.3553  140.9090  154.8515 H   0  0  0  0  0  0  0  0  0  0  0  0
  147.1844  137.0681  152.1541 H   0  0  0  0  0  0  0  0  0  0  0  0
  145.3388  139.1060  150.8179 H   0  0  0  0  0  0  0  0  0  0  0  0
  145.2559  137.3629  150.5888 H   0  0  0  0  0  0  0  0  0  0  0  0
  146.6636  138.2438  150.0398 H   0  0  0  0  0  0  0  0  0  0  0  0
  144.8392  138.5670  153.4102 H   0  0  0  0  0  0  0  0  0  0  0  0
  145.8810  137.4064  154.2281 H   0  0  0  0  0  0  0  0  0  0  0  0
  144.8273  136.8719  152.9362 H   0  0  0  0  0  0  0  0  0  0  0  0
  1  2  1  0  0  0  0
  1 25  1  0  0  0  0
  1 26  1  0  0  0  0
  1 27  1  0  0  0  0
  2  3  2  0  0  0  0
  2  4  1  0  0  0  0
  4  5  1  0  0  0  0
  4 28  1  0  0  0  0
  5  6  1  0  0  0  0
  5 22  1  0  0  0  0
  5 29  1  0  0  0  0
  6  7  2  0  0  0  0
  6  8  1  0  0  0  0
  8  9  1  0  0  0  0
  8 30  1  0  0  0  0
  9 10  1  0  0  0  0
  9 31  1  0  0  0  0
  9 32  1  0  0  0  0
 10 21  1  0  0  0  0
 10 11  2  0  0  0  0
 11 12  1  0  0  0  0
 11 33  1  0  0  0  0
 12 13  2  0  0  0  0
 12 34  1  0  0  0  0
 13 14  1  0  0  0  0
 13 20  1  0  0  0  0
 14 19  1  0  0  0  0
 14 15  1  0  0  0  0
 15 16  1  0  0  0  0
 15 35  1  0  0  0  0
 15 36  1  0  0  0  0
 16 17  1  0  0  0  0
 16 37  1  0  0  0  0
 16 38  1  0  0  0  0
 17 18  1  0  0  0  0
 18 19  1  0  0  0  0
 18 39  1  0  0  0  0
 18 40  1  0  0  0  0
 19 41  1  0  0  0  0
 19 42  1  0  0  0  0
 20 21  2  0  0  0  0
 21 43  1  0  0  0  0
 22 23  1  0  0  0  0
 22 24  1  0  0  0  0
 22 44  1  0  0  0  0
 23 45  1  0  0  0  0
 23 46  1  0  0  0  0
 23 47  1  0  0  0  0
 24 48  1  0  0  0  0
 24 49  1  0  0  0  0
 24 50  1  0  0  0  0
M  END
> <s_m_source_file>
AV-unprocessed.smi

> <i_m_source_file_index>
366

> <i_lp_mmshare_version>
43012

> <i_f3d_flags>
0

> <s_epik_input>
W0NIM11DKD1PKVtOSF1bQ0BASF0oW0NIXShbQ0gzXSlbQ0gzXSlDKD1PKVtOSF1bQ0gyXWMxW2NIXVtjSF1jKG5bY0hdMSlOMltDSDJdW0NIMl1PW0NIMl1bQ0gyXTI=

> <s_epik_cmdline>
J2VwaWtfcHl0aG9uJywgJy1waCcsICc3LjAnLCAnLXRuJywgJzgnLCAnLW1hJywgJzIwMCcsICctbWV0YWxfYmluZGluZycsICctaW1hZScsICc8aW5maWxlLm1hZT4nLCAnLW9tYWUnLCAnPG91dGZpbGUubWFlPic=

> <r_lp_tautomer_probability>
1

> <r_epik_Ionization_Penalty>
0.00485188

> <r_epik_Ionization_Penalty_Charging>
0

> <r_epik_Ionization_Penalty_Neutral>
0.00485188

> <r_epik_State_Penalty>
0.00351951

> <r_epik_Charging_Adjusted_Penalty>
0.00351951

> <i_epik_Tot_Q>
0

> <i_epik_Tot_abs_Q>
0

> <r_epik_Metal_State_Penalty>
-0

> <b_epik_Metal_Only>
0

> <s_lp_Force_Field>
OPLS_2005

> <r_lp_Energy>
20.5125

> <b_lp_Chiralities_Consistent>
1

> <s_lp_Variant>
AV-unprocessed.smi:366-2

> <Gold.Version>
5.8.1

> <Gold.Id.Protein>
6NUR|6NUR_protein|mol2

> <Gold.PLP.Fitness>
47.9813

> <Gold.PLP.PLP>
-41.5570

> <Gold.PLP.part.hbond>
-3.1874

> <Gold.PLP.part.metal>
0.0000

> <Gold.PLP.part.buried>
5.7242

> <Gold.PLP.part.nonpolar>
-44.6488

> <Gold.PLP.part.repulsive>
0.6141

> <Gold.PLP.ligand.clash>
0.0000

> <Gold.PLP.ligand.torsion>
0.5038

> <Gold.PLP.Chemscore.Hbond>
2.3227

> <Gold.PLP.Chemscore.CHOScore>
0.0000

> <Gold.PLP.Chemscore.Metal>
0.0000

> <Gold.Chemscore.Hbonds>
donor molecule, donor type, donor heavy atom, donor atom, acceptor molecule, acceptor atom, score
      L1  H     4    28       P1 10175  0.99
      L1  H     8    30       P1  7957  0.91
      P1  H  8011  8017       L1     3  0.34

> <Gold.PLP.Chemscore.Internal.Correction>
0.4638

> <Gold.Rescore>
     Score         DG    S(hbond)    S(metal)    S(lipo)     H(rot)  DE(clash)    DE(int)     intcor
     13.88     -20.66       2.10        0.00     117.47       2.18       4.86       1.92       ----

> <Gold.Chemscore.Fitness>
13.8835

> <Gold.Chemscore.DG>
-20.6634

> <Gold.Chemscore.ZeroCoef>
-5.4800

> <Gold.Chemscore.Hbond>
2.1028

> <Gold.Chemscore.Metal>
0.0000

> <Gold.Chemscore.Lipo>
117.4712

> <Gold.Chemscore.Internal_Hbond>
0.0000

> <Gold.Chemscore.DEClash>
4.8558

> <Gold.Chemscore.DEInternal>
1.9242

> <Gold.Chemscore.Rot>
2.1813

> <Gold.Chemscore.Internal.Correction>
   9.000000E+99

> <Gold.Chemscore.Hbonds>
donor molecule, donor type, donor heavy atom, donor atom, acceptor molecule, acceptor atom, score
      L1  H     4    28       P1 10175  0.88
      L1  H     8    30       P1  7957  0.76
      P1  H  8011  8017       L1     3  0.33

> <Gold.Chemscore.Hbond.Weighted>
-7.0235

> <Gold.Chemscore.Metal.Weighted>
-0.0000

> <Gold.Chemscore.Lipo.Weighted>
-13.7441

> <Gold.Chemscore.Internal_Hbond.Weighted>
0.0000

> <Gold.Chemscore.DEClash.Weighted>
4.8558

> <Gold.Chemscore.DEInternal.Weighted>
1.9242

> <Gold.Chemscore.Rot.Weighted>
5.5842

> <Gold.Chemscore.Internal.Correction.Weighted>
   9.000000E+99

> <Gold.Protein.RotatedTorsions>
[ 6907 6896 6895 6894 ] final -163.84 input  -60.11 | X-H torsion
[ 7974 7965 7964 7962 ] final -137.58 input  175.53 | X-H torsion
[ 8008 7997 7996 7995 ] final  113.16 input   59.86 | X-H torsion
[ 10167 10162 10161 10158 ] final -172.10 input  -65.29 | X-H torsion
[ 10718 10713 10712 10709 ] final  174.96 input   66.30 | X-H torsion
[ 10763 10752 10751 10750 ] final -115.43 input  -60.55 | X-H torsion
[ 11005 11000 10999 10996 ] final   48.74 input  -57.11 | X-H torsion

> <Gold.Protein.ActiveResidues>
 VAL166  LYS551  ARG553  GLY616  TRP617  ASP618  TYR619  PRO620  LYS621  CYS622 
 ASP623  PHE694  ASN695  SER759  ASP760  ASP761  ALA762  ILE779  LEU786  VAL792 
 PHE793  MET794  SER795  GLU796  ALA797  LYS798  CYS799  TRP800  GLU811  SER814 

> <Gold.Protein.RotatedAtoms>
  151.4024  133.3753  159.2733 H   0  0  0  0  0  0  0  0  0  0  0  0  # atno 6907 bound_to 6896
  150.9424  134.8833  159.7631 H   0  0  0  0  0  0  0  0  0  0  0  0  # atno 6908 bound_to 6896
  152.5077  134.3975  159.9457 H   0  0  0  0  0  0  0  0  0  0  0  0  # atno 6909 bound_to 6896
  144.8830  140.6534  143.5194 H   0  0  0  0  0  0  0  0  0  0  0  0  # atno 7974 bound_to 7965
  156.2240  140.2985  156.0021 H   0  0  0  0  0  0  0  0  0  0  0  0  # atno 8008 bound_to 7997
  155.2406  140.0422  157.2991 H   0  0  0  0  0  0  0  0  0  0  0  0  # atno 8009 bound_to 7997
  154.5885  140.2395  155.7961 H   0  0  0  0  0  0  0  0  0  0  0  0  # atno 8010 bound_to 7997
  139.5764  144.1523  152.1456 H   0  0  0  0  0  0  0  0  0  0  0  0  # atno 10167 bound_to 10162
  156.9419  131.0004  151.2967 H   0  0  0  0  0  0  0  0  0  0  0  0  # atno 10718 bound_to 10713
  154.8481  135.4382  154.1662 H   0  0  0  0  0  0  0  0  0  0  0  0  # atno 10763 bound_to 10752
  153.2786  135.6951  153.7414 H   0  0  0  0  0  0  0  0  0  0  0  0  # atno 10764 bound_to 10752
  153.6626  135.3432  155.3106 H   0  0  0  0  0  0  0  0  0  0  0  0  # atno 10765 bound_to 10752
  140.1164  134.4887  155.8634 H   0  0  0  0  0  0  0  0  0  0  0  0  # atno 11005 bound_to 11000
  145.3920  139.1615  143.4224 LP  0  0  0  0  0  0  0  0  0  0  0  0  # atno 17320 bound_to 7965
  146.3006  140.4010  142.8705 LP  0  0  0  0  0  0  0  0  0  0  0  0  # atno 17321 bound_to 7965
  140.1066  144.5493  150.6953 LP  0  0  0  0  0  0  0  0  0  0  0  0  # atno 17342 bound_to 10162
  140.7046  143.2459  151.4764 LP  0  0  0  0  0  0  0  0  0  0  0  0  # atno 17343 bound_to 10162
  157.5779  130.8356  149.8482 LP  0  0  0  0  0  0  0  0  0  0  0  0  # atno 17370 bound_to 10713
  156.0401  130.3741  150.1458 LP  0  0  0  0  0  0  0  0  0  0  0  0  # atno 17371 bound_to 10713
  141.2142  133.6745  156.6804 LP  0  0  0  0  0  0  0  0  0  0  0  0  # atno 17394 bound_to 11000
  140.3023  134.8154  157.4108 LP  0  0  0  0  0  0  0  0  0  0  0  0  # atno 17395 bound_to 11000

$$$$
