AV-unprocessed.smi:2911|AV-procd|sdf|11177|dock2
  -GOLD-   2272016 73D 1   1.00000     0.00000
 Structure written by MMmdl.
 41 42  0  0  0  0  0  0  0  0  1 V2000
  151.7170  129.8625  155.6133 C   0  0  0  0  0  0  0  0  0  0  0  0
  151.2221  131.1425  156.1949 C   0  0  0  0  0  0  0  0  0  0  0  0
  151.1855  131.3342  157.5078 N   0  0  0  0  0  0  0  0  0  0  0  0
  150.6685  132.6320  157.6306 O   0  0  0  0  0  0  0  0  0  0  0  0
  150.4768  133.0745  156.3645 C   0  0  0  0  0  0  0  0  0  0  0  0
  149.8897  134.4297  156.1546 C   0  0  0  0  0  0  0  0  0  0  0  0
  149.7256  134.7744  154.6659 C   0  0  0  0  0  0  0  0  0  0  0  0
  149.9802  136.1875  154.4108 N   0  0  0  0  0  0  0  0  0  0  0  0
  150.9421  136.9208  154.9967 C   0  0  0  0  0  0  0  0  0  0  0  0
  151.7378  136.4357  155.8013 O   0  0  0  0  0  0  0  0  0  0  0  0
  151.0220  138.1889  154.5193 N   0  0  0  0  0  0  0  0  0  0  0  0
  149.8065  138.9796  154.2557 C   0  0  0  0  0  0  0  0  0  0  0  0
  149.4662  139.8099  155.5086 C   0  0  0  0  0  0  0  0  0  0  0  0
  150.6468  140.7135  155.9247 C   0  0  1  0  0  0  0  0  0  0  0  0
  150.3604  141.4510  157.2399 C   0  0  0  0  0  0  0  0  0  0  0  0
  151.9648  139.9119  155.9953 C   0  0  0  0  0  0  0  0  0  0  0  0
  152.1813  139.0882  154.7090 C   0  0  1  0  0  0  0  0  0  0  0  0
  153.5639  138.4031  154.6702 C   0  0  0  0  0  0  0  0  0  0  0  0
  150.7884  132.1810  155.4289 N   0  0  0  0  0  0  0  0  0  0  0  0
  152.7822  129.9375  155.3946 H   0  0  0  0  0  0  0  0  0  0  0  0
  151.1880  129.6344  154.6876 H   0  0  0  0  0  0  0  0  0  0  0  0
  151.5624  129.0366  156.3086 H   0  0  0  0  0  0  0  0  0  0  0  0
  148.9259  134.4697  156.6632 H   0  0  0  0  0  0  0  0  0  0  0  0
  150.5306  135.1649  156.6426 H   0  0  0  0  0  0  0  0  0  0  0  0
  150.4311  134.1930  154.0719 H   0  0  0  0  0  0  0  0  0  0  0  0
  148.7275  134.5040  154.3168 H   0  0  0  0  0  0  0  0  0  0  0  0
  149.3897  136.6421  153.7295 H   0  0  0  0  0  0  0  0  0  0  0  0
  149.9743  139.6384  153.4025 H   0  0  0  0  0  0  0  0  0  0  0  0
  148.9456  138.3690  153.9816 H   0  0  0  0  0  0  0  0  0  0  0  0
  148.5804  140.4171  155.3197 H   0  0  0  0  0  0  0  0  0  0  0  0
  149.2092  139.1374  156.3284 H   0  0  0  0  0  0  0  0  0  0  0  0
  150.7673  141.4687  155.1465 H   0  0  0  0  0  0  0  0  0  0  0  0
  150.2289  140.7515  158.0661 H   0  0  0  0  0  0  0  0  0  0  0  0
  149.4534  142.0512  157.1637 H   0  0  0  0  0  0  0  0  0  0  0  0
  151.1793  142.1225  157.4994 H   0  0  0  0  0  0  0  0  0  0  0  0
  152.8014  140.5954  156.1451 H   0  0  0  0  0  0  0  0  0  0  0  0
  151.9510  139.2465  156.8599 H   0  0  0  0  0  0  0  0  0  0  0  0
  152.1851  139.7819  153.8666 H   0  0  0  0  0  0  0  0  0  0  0  0
  154.3552  139.1494  154.5983 H   0  0  0  0  0  0  0  0  0  0  0  0
  153.6574  137.7471  153.8042 H   0  0  0  0  0  0  0  0  0  0  0  0
  153.7675  137.8178  155.5665 H   0  0  0  0  0  0  0  0  0  0  0  0
  1  2  1  0  0  0  0
  1 20  1  0  0  0  0
  1 21  1  0  0  0  0
  1 22  1  0  0  0  0
  2 19  1  0  0  0  0
  2  3  2  0  0  0  0
  3  4  1  0  0  0  0
  4  5  1  0  0  0  0
  5  6  1  0  0  0  0
  5 19  2  0  0  0  0
  6  7  1  0  0  0  0
  6 23  1  0  0  0  0
  6 24  1  0  0  0  0
  7  8  1  0  0  0  0
  7 25  1  0  0  0  0
  7 26  1  0  0  0  0
  8  9  1  0  0  0  0
  8 27  1  0  0  0  0
  9 10  2  0  0  0  0
  9 11  1  0  0  0  0
 11 17  1  0  0  0  0
 11 12  1  0  0  0  0
 12 13  1  0  0  0  0
 12 28  1  0  0  0  0
 12 29  1  0  0  0  0
 13 14  1  0  0  0  0
 13 30  1  0  0  0  0
 13 31  1  0  0  0  0
 14 15  1  0  0  0  0
 14 16  1  0  0  0  0
 14 32  1  0  0  0  0
 15 33  1  0  0  0  0
 15 34  1  0  0  0  0
 15 35  1  0  0  0  0
 16 17  1  0  0  0  0
 16 36  1  0  0  0  0
 16 37  1  0  0  0  0
 17 18  1  0  0  0  0
 17 38  1  0  0  0  0
 18 39  1  0  0  0  0
 18 40  1  0  0  0  0
 18 41  1  0  0  0  0
M  END
> <s_m_source_file>
AV-unprocessed.smi

> <i_m_source_file_index>
2911

> <i_lp_mmshare_version>
43012

> <i_f3d_flags>
0

> <s_epik_input>
W0NIM11jMW5vYyhuMSlbQ0gyXVtDSDJdW05IXUMoPU8pTjJbQ0gyXVtDSDJdW0NAQEhdKFtDSDNdKVtDSDJdW0NASF0yW0NIM10=

> <s_epik_cmdline>
J2VwaWtfcHl0aG9uJywgJy1waCcsICc3LjAnLCAnLXRuJywgJzgnLCAnLW1hJywgJzIwMCcsICctbWV0YWxfYmluZGluZycsICctaW1hZScsICc8aW5maWxlLm1hZT4nLCAnLW9tYWUnLCAnPG91dGZpbGUubWFlPic=

> <r_lp_tautomer_probability>
1

> <r_epik_Ionization_Penalty>
6.61671e-05

> <r_epik_Ionization_Penalty_Charging>
0

> <r_epik_Ionization_Penalty_Neutral>
6.61671e-05

> <r_epik_State_Penalty>
-0

> <r_epik_Charging_Adjusted_Penalty>
0

> <i_epik_Tot_Q>
0

> <i_epik_Tot_abs_Q>
0

> <r_epik_Metal_State_Penalty>
-0

> <b_epik_Metal_Only>
0

> <s_lp_Force_Field>
OPLS_2005

> <r_lp_Energy>
29.1944

> <b_lp_Chiralities_Consistent>
1

> <s_lp_Variant>
AV-unprocessed.smi:2911-1

> <Gold.Version>
5.8.1

> <Gold.Id.Protein>
6NUR|6NUR_protein|mol2

> <Gold.PLP.Fitness>
39.3962

> <Gold.PLP.PLP>
-32.5302

> <Gold.PLP.part.hbond>
-3.6612

> <Gold.PLP.part.metal>
0.0000

> <Gold.PLP.part.buried>
-0.1523

> <Gold.PLP.part.nonpolar>
-29.4094

> <Gold.PLP.part.repulsive>
0.0943

> <Gold.PLP.ligand.clash>
0.0000

> <Gold.PLP.ligand.torsion>
0.7437

> <Gold.PLP.Chemscore.Hbond>
2.6400

> <Gold.PLP.Chemscore.CHOScore>
0.0000

> <Gold.PLP.Chemscore.Metal>
0.0000

> <Gold.Chemscore.Hbonds>
donor molecule, donor type, donor heavy atom, donor atom, acceptor molecule, acceptor atom, score
      L1  H     8    27       P1  7948  0.64
      P1  H  6896  6909       L1     4  1.00
      P1  H 10752 10765       L1    10  1.00

> <Gold.PLP.Chemscore.Internal.Correction>
0.4333

> <Gold.Rescore>
     Score         DG    S(hbond)    S(metal)    S(lipo)     H(rot)  DE(clash)    DE(int)     intcor
     13.43     -17.04       2.44        0.00      64.25       1.61       0.33       3.28       ----

> <Gold.Chemscore.Fitness>
13.4293

> <Gold.Chemscore.DG>
-17.0433

> <Gold.Chemscore.ZeroCoef>
-5.4800

> <Gold.Chemscore.Hbond>
2.4445

> <Gold.Chemscore.Metal>
0.0000

> <Gold.Chemscore.Lipo>
64.2507

> <Gold.Chemscore.Internal_Hbond>
0.0000

> <Gold.Chemscore.DEClash>
0.3339

> <Gold.Chemscore.DEInternal>
3.2800

> <Gold.Chemscore.Rot>
1.6088

> <Gold.Chemscore.Internal.Correction>
   9.000000E+99

> <Gold.Chemscore.Hbonds>
donor molecule, donor type, donor heavy atom, donor atom, acceptor molecule, acceptor atom, score
      L1  H     8    27       P1  7948  0.58
      P1  H  6896  6909       L1     4  0.91
      P1  H 10752 10765       L1    10  0.82

> <Gold.Chemscore.Hbond.Weighted>
-8.1646

> <Gold.Chemscore.Metal.Weighted>
-0.0000

> <Gold.Chemscore.Lipo.Weighted>
-7.5173

> <Gold.Chemscore.Internal_Hbond.Weighted>
0.0000

> <Gold.Chemscore.DEClash.Weighted>
0.3339

> <Gold.Chemscore.DEInternal.Weighted>
3.2800

> <Gold.Chemscore.Rot.Weighted>
4.1186

> <Gold.Chemscore.Internal.Correction.Weighted>
   9.000000E+99

> <Gold.Protein.RotatedTorsions>
[ 6907 6896 6895 6894 ] final  -24.53 input  -60.11 | X-H torsion
[ 7974 7965 7964 7962 ] final -126.76 input  175.53 | X-H torsion
[ 8008 7997 7996 7995 ] final   99.23 input   59.86 | X-H torsion
[ 10167 10162 10161 10158 ] final  -21.13 input  -65.29 | X-H torsion
[ 10718 10713 10712 10709 ] final -106.42 input   66.30 | X-H torsion
[ 10763 10752 10751 10750 ] final -156.70 input  -60.55 | X-H torsion
[ 11005 11000 10999 10996 ] final  103.74 input  -57.11 | X-H torsion

> <Gold.Protein.ActiveResidues>
 VAL166  LYS551  ARG553  GLY616  TRP617  ASP618  TYR619  PRO620  LYS621  CYS622 
 ASP623  PHE694  ASN695  SER759  ASP760  ASP761  ALA762  ILE779  LEU786  VAL792 
 PHE793  MET794  SER795  GLU796  ALA797  LYS798  CYS799  TRP800  GLU811  SER814 

> <Gold.Protein.RotatedAtoms>
  151.1882  135.0391  159.8821 H   0  0  0  0  0  0  0  0  0  0  0  0  # atno 6907 bound_to 6896
  152.5441  134.0986  159.8318 H   0  0  0  0  0  0  0  0  0  0  0  0  # atno 6908 bound_to 6896
  151.1111  133.5125  159.2638 H   0  0  0  0  0  0  0  0  0  0  0  0  # atno 6909 bound_to 6896
  144.9840  140.7667  143.4595 H   0  0  0  0  0  0  0  0  0  0  0  0  # atno 7974 bound_to 7965
  156.1084  140.3232  155.8039 H   0  0  0  0  0  0  0  0  0  0  0  0  # atno 8008 bound_to 7997
  155.4715  140.0547  157.2996 H   0  0  0  0  0  0  0  0  0  0  0  0  # atno 8009 bound_to 7997
  154.4743  140.2025  155.9930 H   0  0  0  0  0  0  0  0  0  0  0  0  # atno 8010 bound_to 7997
  140.7280  143.4657  151.0317 H   0  0  0  0  0  0  0  0  0  0  0  0  # atno 10167 bound_to 10162
  156.0389  130.5612  150.7678 H   0  0  0  0  0  0  0  0  0  0  0  0  # atno 10718 bound_to 10713
  154.7693  135.3140  154.8222 H   0  0  0  0  0  0  0  0  0  0  0  0  # atno 10763 bound_to 10752
  153.8962  135.6820  153.4762 H   0  0  0  0  0  0  0  0  0  0  0  0  # atno 10764 bound_to 10752
  153.1304  135.4783  154.9273 H   0  0  0  0  0  0  0  0  0  0  0  0  # atno 10765 bound_to 10752
  139.8786  134.9274  156.5255 H   0  0  0  0  0  0  0  0  0  0  0  0  # atno 11005 bound_to 11000
  145.2381  139.2085  143.5007 LP  0  0  0  0  0  0  0  0  0  0  0  0  # atno 17320 bound_to 7965
  146.3415  140.2271  142.8592 LP  0  0  0  0  0  0  0  0  0  0  0  0  # atno 17321 bound_to 7965
  139.8345  143.7646  152.3180 LP  0  0  0  0  0  0  0  0  0  0  0  0  # atno 17342 bound_to 10162
  139.7774  144.7456  151.0138 LP  0  0  0  0  0  0  0  0  0  0  0  0  # atno 17343 bound_to 10162
  157.5180  131.0930  151.0115 LP  0  0  0  0  0  0  0  0  0  0  0  0  # atno 17370 bound_to 10713
  157.0453  130.5765  149.5362 LP  0  0  0  0  0  0  0  0  0  0  0  0  # atno 17371 bound_to 10713
  140.8419  133.8198  155.9083 LP  0  0  0  0  0  0  0  0  0  0  0  0  # atno 17394 bound_to 11000
  140.9229  134.2119  157.4915 LP  0  0  0  0  0  0  0  0  0  0  0  0  # atno 17395 bound_to 11000

$$$$
