AV-unprocessed.smi:573|AV-procd|sdf|2971|dock4
  -GOLD-   2262023473D 1   1.00000     0.00000
 Structure written by MMmdl.
 44 46  0  0  0  0  0  0  0  0  1 V2000
  153.8016  138.7898  159.3132 C   0  0  0  0  0  0  0  0  0  0  0  0
  152.4481  138.1781  159.7074 C   0  0  2  0  0  0  0  0  0  0  0  0
  152.6183  136.8370  160.1175 O   0  0  0  0  0  0  0  0  0  0  0  0
  151.3609  138.2497  158.6176 C   0  0  0  0  0  0  0  0  0  0  0  0
  151.2806  139.5515  157.9773 N   0  0  0  0  0  0  0  0  0  0  0  0
  151.4669  140.8424  158.4575 C   0  0  0  0  0  0  0  0  0  0  0  0
  151.7872  141.1289  159.7181 N   0  0  0  0  0  0  0  0  0  0  0  0
  151.8544  142.5092  159.6962 C   0  0  0  0  0  0  0  0  0  0  0  0
  152.1515  143.4290  160.7274 C   0  0  0  0  0  0  0  0  0  0  0  0
  152.1594  144.8152  160.4672 C   0  0  0  0  0  0  0  0  0  0  0  0
  151.8693  145.3012  159.1759 C   0  0  0  0  0  0  0  0  0  0  0  0
  151.5713  144.4028  158.1333 C   0  0  0  0  0  0  0  0  0  0  0  0
  151.5674  143.0197  158.3964 C   0  0  0  0  0  0  0  0  0  0  0  0
  151.3247  141.8929  157.6160 N   0  0  0  0  0  0  0  0  0  0  0  0
  150.9887  141.8705  156.1993 C   0  0  0  0  0  0  0  0  0  0  0  0
  149.5968  141.2686  155.9465 C   0  0  2  0  0  0  0  0  0  0  0  0
  149.2073  141.3177  154.4570 C   0  0  0  0  0  0  0  0  0  0  0  0
  147.7904  140.7691  154.2539 C   0  0  0  0  0  0  0  0  0  0  0  0
  146.8154  141.4967  155.1860 C   0  0  0  0  0  0  0  0  0  0  0  0
  147.3232  141.4480  156.6360 C   0  0  0  0  0  0  0  0  0  0  0  0
  148.6354  141.9958  156.7094 O   0  0  0  0  0  0  0  0  0  0  0  0
  153.6832  139.8244  158.9902 H   0  0  0  0  0  0  0  0  0  0  0  0
  154.2737  138.2380  158.4998 H   0  0  0  0  0  0  0  0  0  0  0  0
  154.4927  138.7843  160.1565 H   0  0  0  0  0  0  0  0  0  0  0  0
  152.0767  138.7186  160.5785 H   0  0  0  0  0  0  0  0  0  0  0  0
  153.4107  136.7787  160.6287 H   0  0  0  0  0  0  0  0  0  0  0  0
  151.5319  137.4880  157.8564 H   0  0  0  0  0  0  0  0  0  0  0  0
  150.3889  138.0294  159.0606 H   0  0  0  0  0  0  0  0  0  0  0  0
  151.1157  139.4979  156.9828 H   0  0  0  0  0  0  0  0  0  0  0  0
  152.3727  143.0674  161.7206 H   0  0  0  0  0  0  0  0  0  0  0  0
  152.3880  145.5089  161.2629 H   0  0  0  0  0  0  0  0  0  0  0  0
  151.8750  146.3646  158.9863 H   0  0  0  0  0  0  0  0  0  0  0  0
  151.3462  144.7726  157.1440 H   0  0  0  0  0  0  0  0  0  0  0  0
  151.0335  142.8901  155.8151 H   0  0  0  0  0  0  0  0  0  0  0  0
  151.7538  141.3085  155.6626 H   0  0  0  0  0  0  0  0  0  0  0  0
  149.5997  140.2300  156.2828 H   0  0  0  0  0  0  0  0  0  0  0  0
  149.2545  142.3467  154.0976 H   0  0  0  0  0  0  0  0  0  0  0  0
  149.9177  140.7447  153.8605 H   0  0  0  0  0  0  0  0  0  0  0  0
  147.4821  140.8843  153.2147 H   0  0  0  0  0  0  0  0  0  0  0  0
  147.7764  139.7001  154.4697 H   0  0  0  0  0  0  0  0  0  0  0  0
  146.7141  142.5360  154.8714 H   0  0  0  0  0  0  0  0  0  0  0  0
  145.8230  141.0505  155.1176 H   0  0  0  0  0  0  0  0  0  0  0  0
  146.6644  142.0268  157.2836 H   0  0  0  0  0  0  0  0  0  0  0  0
  147.3232  140.4251  157.0154 H   0  0  0  0  0  0  0  0  0  0  0  0
  1  2  1  0  0  0  0
  1 22  1  0  0  0  0
  1 23  1  0  0  0  0
  1 24  1  0  0  0  0
  2  3  1  0  0  0  0
  2  4  1  0  0  0  0
  2 25  1  0  0  0  0
  3 26  1  0  0  0  0
  4  5  1  0  0  0  0
  4 27  1  0  0  0  0
  4 28  1  0  0  0  0
  5  6  1  0  0  0  0
  5 29  1  0  0  0  0
  6 14  1  0  0  0  0
  6  7  2  0  0  0  0
  7  8  1  0  0  0  0
  8 13  2  0  0  0  0
  8  9  1  0  0  0  0
  9 10  2  0  0  0  0
  9 30  1  0  0  0  0
 10 11  1  0  0  0  0
 10 31  1  0  0  0  0
 11 12  2  0  0  0  0
 11 32  1  0  0  0  0
 12 13  1  0  0  0  0
 12 33  1  0  0  0  0
 13 14  1  0  0  0  0
 14 15  1  0  0  0  0
 15 16  1  0  0  0  0
 15 34  1  0  0  0  0
 15 35  1  0  0  0  0
 16 21  1  0  0  0  0
 16 17  1  0  0  0  0
 16 36  1  0  0  0  0
 17 18  1  0  0  0  0
 17 37  1  0  0  0  0
 17 38  1  0  0  0  0
 18 19  1  0  0  0  0
 18 39  1  0  0  0  0
 18 40  1  0  0  0  0
 19 20  1  0  0  0  0
 19 41  1  0  0  0  0
 19 42  1  0  0  0  0
 20 21  1  0  0  0  0
 20 43  1  0  0  0  0
 20 44  1  0  0  0  0
M  END
> <s_m_source_file>
AV-unprocessed.smi

> <i_m_source_file_index>
573

> <i_lp_mmshare_version>
43012

> <i_f3d_flags>
0

> <s_epik_input>
W0NIM11bQ0BIXShbT0hdKVtDSDJdW05IXWMobjEpbihjKGMxMilbY0hdW2NIXVtjSF1bY0hdMilbQ0gyXVtDQEBIXTNbQ0gyXVtDSDJdW0NIMl1bQ0gyXU8z

> <s_epik_cmdline>
J2VwaWtfcHl0aG9uJywgJy1waCcsICc3LjAnLCAnLXRuJywgJzgnLCAnLW1hJywgJzIwMCcsICctbWV0YWxfYmluZGluZycsICctaW1hZScsICc8aW5maWxlLm1hZT4nLCAnLW9tYWUnLCAnPG91dGZpbGUubWFlPic=

> <r_epik_Ionization_Penalty>
1.30635

> <r_epik_Ionization_Penalty_Charging>
0

> <r_epik_Ionization_Penalty_Neutral>
1.30635

> <r_epik_State_Penalty>
1.38073

> <r_epik_Charging_Adjusted_Penalty>
1.38073

> <i_epik_Tot_Q>
0

> <i_epik_Tot_abs_Q>
0

> <r_epik_Metal_State_Penalty>
0.00547412

> <b_epik_Metal_Only>
0

> <s_lp_Force_Field>
OPLS_2005

> <r_lp_Energy>
12.415

> <b_lp_Chiralities_Consistent>
1

> <s_lp_Variant>
AV-unprocessed.smi:573-5

> <Gold.Version>
5.8.1

> <Gold.Id.Protein>
6NUR|6NUR_protein|mol2

> <Gold.PLP.Fitness>
45.0087

> <Gold.PLP.PLP>
-42.5291

> <Gold.PLP.part.hbond>
-1.0000

> <Gold.PLP.part.metal>
0.0000

> <Gold.PLP.part.buried>
-6.7754

> <Gold.PLP.part.nonpolar>
-34.7855

> <Gold.PLP.part.repulsive>
1.4041

> <Gold.PLP.ligand.clash>
0.0000

> <Gold.PLP.ligand.torsion>
0.2679

> <Gold.PLP.Chemscore.Hbond>
1.0000

> <Gold.PLP.Chemscore.CHOScore>
0.0000

> <Gold.PLP.Chemscore.Metal>
0.0000

> <Gold.Chemscore.Hbonds>
donor molecule, donor type, donor heavy atom, donor atom, acceptor molecule, acceptor atom, score
      P1  H  6896  6907       L1     3  1.00

> <Gold.PLP.Chemscore.Internal.Correction>
0.0154

> <Gold.Rescore>
     Score         DG    S(hbond)    S(metal)    S(lipo)     H(rot)  DE(clash)    DE(int)     intcor
     16.77     -17.12       0.98        0.00     115.66       2.02       0.11       0.24       ----

> <Gold.Chemscore.Fitness>
16.7659

> <Gold.Chemscore.DG>
-17.1158

> <Gold.Chemscore.ZeroCoef>
-5.4800

> <Gold.Chemscore.Hbond>
0.9823

> <Gold.Chemscore.Metal>
0.0000

> <Gold.Chemscore.Lipo>
115.6597

> <Gold.Chemscore.Internal_Hbond>
0.0000

> <Gold.Chemscore.DEClash>
0.1135

> <Gold.Chemscore.DEInternal>
0.2364

> <Gold.Chemscore.Rot>
2.0224

> <Gold.Chemscore.Internal.Correction>
   9.000000E+99

> <Gold.Chemscore.Hbonds>
donor molecule, donor type, donor heavy atom, donor atom, acceptor molecule, acceptor atom, score
      P1  H  6896  6907       L1     3  0.45

> <Gold.Chemscore.Hbond.Weighted>
-3.2809

> <Gold.Chemscore.Metal.Weighted>
-0.0000

> <Gold.Chemscore.Lipo.Weighted>
-13.5322

> <Gold.Chemscore.Internal_Hbond.Weighted>
0.0000

> <Gold.Chemscore.DEClash.Weighted>
0.1135

> <Gold.Chemscore.DEInternal.Weighted>
0.2364

> <Gold.Chemscore.Rot.Weighted>
5.1773

> <Gold.Chemscore.Internal.Correction.Weighted>
   9.000000E+99

> <Gold.Protein.RotatedTorsions>
[ 6907 6896 6895 6894 ] final   24.33 input  -60.11 | X-H torsion
[ 7974 7965 7964 7962 ] final  131.20 input  175.53 | X-H torsion
[ 8008 7997 7996 7995 ] final  -69.34 input   59.86 | X-H torsion
[ 10167 10162 10161 10158 ] final  -45.63 input  -65.29 | X-H torsion
[ 10718 10713 10712 10709 ] final   -8.89 input   66.30 | X-H torsion
[ 10763 10752 10751 10750 ] final  174.17 input  -60.55 | X-H torsion
[ 11005 11000 10999 10996 ] final  -65.20 input  -57.11 | X-H torsion

> <Gold.Protein.ActiveResidues>
 VAL166  LYS551  ARG553  GLY616  TRP617  ASP618  TYR619  PRO620  LYS621  CYS622 
 ASP623  PHE694  ASN695  SER759  ASP760  ASP761  ALA762  ILE779  LEU786  VAL792 
 PHE793  MET794  SER795  GLU796  ALA797  LYS798  CYS799  TRP800  GLU811  SER814 

> <Gold.Protein.RotatedAtoms>
  151.9558  135.0147  160.0544 H   0  0  0  0  0  0  0  0  0  0  0  0  # atno 6907 bound_to 6896
  152.1912  133.4770  159.5017 H   0  0  0  0  0  0  0  0  0  0  0  0  # atno 6908 bound_to 6896
  150.6935  134.1627  159.4225 H   0  0  0  0  0  0  0  0  0  0  0  0  # atno 6909 bound_to 6896
  145.0098  139.4231  143.5250 H   0  0  0  0  0  0  0  0  0  0  0  0  # atno 7974 bound_to 7965
  154.4932  140.0855  156.7639 H   0  0  0  0  0  0  0  0  0  0  0  0  # atno 8008 bound_to 7997
  155.4180  140.3444  155.4251 H   0  0  0  0  0  0  0  0  0  0  0  0  # atno 8009 bound_to 7997
  156.1358  140.1514  156.8984 H   0  0  0  0  0  0  0  0  0  0  0  0  # atno 8010 bound_to 7997
  140.6850  143.2870  151.3666 H   0  0  0  0  0  0  0  0  0  0  0  0  # atno 10167 bound_to 10162
  156.6960  130.5079  149.5930 H   0  0  0  0  0  0  0  0  0  0  0  0  # atno 10718 bound_to 10713
  154.4502  135.2764  155.1786 H   0  0  0  0  0  0  0  0  0  0  0  0  # atno 10763 bound_to 10752
  154.3617  135.6128  153.5697 H   0  0  0  0  0  0  0  0  0  0  0  0  # atno 10764 bound_to 10752
  152.9846  135.5836  154.4845 H   0  0  0  0  0  0  0  0  0  0  0  0  # atno 10765 bound_to 10752
  141.1447  133.6678  156.5950 H   0  0  0  0  0  0  0  0  0  0  0  0  # atno 11005 bound_to 11000
  146.3468  139.9535  142.8726 LP  0  0  0  0  0  0  0  0  0  0  0  0  # atno 17320 bound_to 7965
  145.2038  140.9866  143.4140 LP  0  0  0  0  0  0  0  0  0  0  0  0  # atno 17321 bound_to 7965
  139.6202  144.0923  152.2384 LP  0  0  0  0  0  0  0  0  0  0  0  0  # atno 17342 bound_to 10162
  140.0365  144.6041  150.7446 LP  0  0  0  0  0  0  0  0  0  0  0  0  # atno 17343 bound_to 10162
  156.1763  130.6470  151.0898 LP  0  0  0  0  0  0  0  0  0  0  0  0  # atno 17370 bound_to 10713
  157.6991  131.0783  150.6877 LP  0  0  0  0  0  0  0  0  0  0  0  0  # atno 17371 bound_to 10713
  140.3733  134.7586  157.4613 LP  0  0  0  0  0  0  0  0  0  0  0  0  # atno 17394 bound_to 11000
  140.0693  134.5884  155.8659 LP  0  0  0  0  0  0  0  0  0  0  0  0  # atno 17395 bound_to 11000

$$$$
