#       Name:                AV-unprocessed.smi:434
#       Creating user name   scv26
#       Creation time:       Thu Mar 26 22:51:53 2020


#       File generated by GOLD software.
#

@<TRIPOS>MOLECULE
AV-unprocessed.smi:434
    46    48     1
SMALL
NO_CHARGES


@<TRIPOS>ATOM
      1 ****        -1.7976   1.1693  -2.7514 C.3            1 S1                 0.0000
      2 ****        -2.4509   1.4175  -1.4289 C.2            1 S1                 0.0000
      3 ****        -3.7755   1.4704  -1.2886 N.2            1 S1                 0.0000
      4 ****        -3.9273   1.7214   0.0616 C.ar           1 S1                 0.0000
      5 ****        -5.0958   1.8863   0.8396 C.ar           1 S1                 0.0000
      6 ****        -5.0017   2.1383   2.2241 C.ar           1 S1                 0.0000
      7 ****        -3.7412   2.2289   2.8492 C.ar           1 S1                 0.0000
      8 ****        -2.5645   2.0674   2.0929 C.ar           1 S1                 0.0000
      9 ****        -2.6635   1.8155   0.7113 C.ar           1 S1                 0.0000
     10 ****        -1.7278   1.6067  -0.2978 N.pl3          1 S1                 0.0000
     11 ****        -0.2781   1.5983  -0.1503 C.3            1 S1                 0.0000
     12 ****         0.2892   0.1825   0.0770 C.3            1 S1                 0.0000
     13 ****        -0.2520  -0.3466   1.2718 O.3            1 S1                 0.0000
     14 ****         1.8211   0.1896   0.1987 C.3            1 S1                 0.0000
     15 ****         2.3136  -1.1032  -0.1117 O.3            1 S1                 0.0000
     16 ****         3.7235  -1.1925  -0.0065 C.3            1 S1                 0.0000
     17 ****         4.0874  -2.5935  -0.3641 C.2            1 S1                 0.0000
     18 ****         4.4478  -3.6895   0.3704 C.2            1 S1                 0.0000
     19 ****         4.6700  -4.7412  -0.5612 C.2            1 S1                 0.0000
     20 ****         4.4288  -4.2079  -1.7953 C.2            1 S1                 0.0000
     21 ****         4.0722  -2.8982  -1.6928 O.3            1 S1                 0.0000
     22 ****        -2.5487   0.9835  -3.5200 H              1 S1                 0.0000
     23 ****        -1.1434   0.2996  -2.6968 H              1 S1                 0.0000
     24 ****        -1.2094   2.0372  -3.0499 H              1 S1                 0.0000
     25 ****        -6.0661   1.8179   0.3705 H              1 S1                 0.0000
     26 ****        -5.9011   2.2622   2.8095 H              1 S1                 0.0000
     27 ****        -3.6779   2.4214   3.9104 H              1 S1                 0.0000
     28 ****        -1.5978   2.1330   2.5699 H              1 S1                 0.0000
     29 ****         0.1657   2.0460  -1.0399 H              1 S1                 0.0000
     30 ****        -0.0087   2.2517   0.6807 H              1 S1                 0.0000
     31 ****        -0.0050  -0.4584  -0.7546 H              1 S1                 0.0000
     32 ****        -1.1924  -0.3822   1.1845 H              1 S1                 0.0000
     33 ****         2.2452   0.8947  -0.5181 H              1 S1                 0.0000
     34 ****         2.1369   0.5113   1.1929 H              1 S1                 0.0000
     35 ****         4.2079  -0.4889  -0.6852 H              1 S1                 0.0000
     36 ****         4.0490  -0.9620   1.0088 H              1 S1                 0.0000
     37 ****         4.5382  -3.7294   1.4458 H              1 S1                 0.0000
     38 ****         4.9681  -5.7584  -0.3548 H              1 S1                 0.0000
     39 ****         4.4618  -4.5997  -2.8013 H              1 S1                 0.0000
     40 ****        -4.4827   1.3568  -1.9864 LP             1 S1                 0.0000
     41 ****        -0.0067   0.2413   2.0427 LP             1 S1                 0.0000
     42 ****         0.1076  -1.2667   1.4266 LP             1 S1                 0.0000
     43 ****         2.0480  -1.3300  -1.0487 LP             1 S1                 0.0000
     44 ****         1.9036  -1.7615   0.5196 LP             1 S1                 0.0000
     45 ****         4.7249  -2.3232  -2.1862 LP             1 S1                 0.0000
     46 ****         3.1557  -2.7597  -2.0682 LP             1 S1                 0.0000
@<TRIPOS>BOND
    1    1    2 1     
    2    1   22 1     
    3    1   23 1     
    4    1   24 1     
    5    2   10 1     
    6    2    3 2     
    7    3    4 1     
    8    4    9 ar    
    9    4    5 ar    
   10    5    6 ar    
   11    5   25 1     
   12    6    7 ar    
   13    6   26 1     
   14    7    8 ar    
   15    7   27 1     
   16    8    9 ar    
   17    8   28 1     
   18    9   10 1     
   19   10   11 1     
   20   11   12 1     
   21   11   29 1     
   22   11   30 1     
   23   12   13 1     
   24   12   14 1     
   25   12   31 1     
   26   13   32 1     
   27   14   15 1     
   28   14   33 1     
   29   14   34 1     
   30   15   16 1     
   31   16   17 1     
   32   16   35 1     
   33   16   36 1     
   34   17   21 1     
   35   17   18 2     
   36   18   19 1     
   37   18   37 1     
   38   19   20 2     
   39   19   38 1     
   40   20   21 1     
   41   20   39 1     
   42    3   40 1     
   43   13   41 1     
   44   13   42 1     
   45   15   43 1     
   46   15   44 1     
   47   21   45 1     
   48   21   46 1     
@<TRIPOS>SUBSTRUCTURE
      1 S1             1
@<TRIPOS>SET
LONE_PAIRS      STATIC     ATOMS    <user>   **** ""
7 40 41 42 43 44 45 46
DONOR_HYDROGENS      STATIC     ATOMS    <user>   **** ""
1 32
ATOM$BLUE        STATIC     ATOMS    COLORGROUP SYSTEM
7 40 41 42 43 44 45 46
ATOM$RED        STATIC     ATOMS    COLORGROUP SYSTEM
1 32
