AV-unprocessed.smi:865|AV-procd|sdf|3990|dock6
  -GOLD-   22720 1473D 1   1.00000     0.00000
 Structure written by MMmdl.
 36 36  0  0  0  0  0  0  0  0  1 V2000
  153.4119  141.9092  160.7352 C   0  0  0  0  0  0  0  0  0  0  0  0
  152.6202  143.0038  160.0039 C   0  0  0  0  0  0  0  0  0  0  0  0
  151.4698  142.4746  159.1083 C   0  0  0  0  0  0  0  0  0  0  0  0
  152.0050  141.5585  157.9778 C   0  0  0  0  0  0  0  0  0  0  0  0
  150.9434  141.0972  156.9676 C   0  0  0  0  0  0  0  0  0  0  0  0
  150.5687  143.6190  158.5641 C   0  0  2  0  0  0  0  0  0  0  0  0
  151.3229  144.4160  157.6706 O   0  0  0  0  0  0  0  0  0  0  0  0
  149.9824  144.5235  159.6720 C   0  0  0  0  0  0  0  0  0  0  0  0
  148.5404  144.6818  159.5234 N   0  0  0  0  0  0  0  0  0  0  0  0
  147.6332  144.4363  160.4810 C   0  0  0  0  0  0  0  0  0  0  0  0
  147.9166  143.9819  161.5889 O   0  0  0  0  0  0  0  0  0  0  0  0
  146.1811  144.7709  160.1429 C   0  0  0  0  0  0  0  0  0  0  0  0
  145.3019  143.6843  160.5314 N   0  0  0  0  0  0  0  0  0  0  0  0
  144.9734  143.2094  161.7348 C   0  0  0  0  0  0  0  0  0  0  0  0
  144.1139  142.2057  161.6457 N   0  0  0  0  0  0  0  0  0  0  0  0
  143.9192  142.0778  160.2805 N   0  0  0  0  0  0  0  0  0  0  0  0
  144.6212  142.9528  159.6141 N   0  0  0  0  0  0  0  0  0  0  0  0
  154.1336  142.3537  161.4209 H   0  0  0  0  0  0  0  0  0  0  0  0
  153.9715  141.2774  160.0466 H   0  0  0  0  0  0  0  0  0  0  0  0
  152.7520  141.2696  161.3217 H   0  0  0  0  0  0  0  0  0  0  0  0
  152.2187  143.6674  160.7685 H   0  0  0  0  0  0  0  0  0  0  0  0
  153.3048  143.6127  159.4127 H   0  0  0  0  0  0  0  0  0  0  0  0
  150.8352  141.8531  159.7419 H   0  0  0  0  0  0  0  0  0  0  0  0
  152.8220  142.0498  157.4487 H   0  0  0  0  0  0  0  0  0  0  0  0
  152.4367  140.6586  158.4129 H   0  0  0  0  0  0  0  0  0  0  0  0
  151.3619  140.3575  156.2848 H   0  0  0  0  0  0  0  0  0  0  0  0
  150.5730  141.9207  156.3580 H   0  0  0  0  0  0  0  0  0  0  0  0
  150.0927  140.6370  157.4707 H   0  0  0  0  0  0  0  0  0  0  0  0
  149.7377  143.1828  158.0105 H   0  0  0  0  0  0  0  0  0  0  0  0
  150.7344  144.7914  157.0337 H   0  0  0  0  0  0  0  0  0  0  0  0
  150.1325  144.0535  160.6442 H   0  0  0  0  0  0  0  0  0  0  0  0
  150.4875  145.4899  159.7212 H   0  0  0  0  0  0  0  0  0  0  0  0
  148.2117  145.0515  158.6429 H   0  0  0  0  0  0  0  0  0  0  0  0
  145.8765  145.6882  160.6494 H   0  0  0  0  0  0  0  0  0  0  0  0
  146.0748  144.9416  159.0708 H   0  0  0  0  0  0  0  0  0  0  0  0
  145.3563  143.5991  162.6663 H   0  0  0  0  0  0  0  0  0  0  0  0
  1  2  1  0  0  0  0
  1 18  1  0  0  0  0
  1 19  1  0  0  0  0
  1 20  1  0  0  0  0
  2  3  1  0  0  0  0
  2 21  1  0  0  0  0
  2 22  1  0  0  0  0
  3  4  1  0  0  0  0
  3  6  1  0  0  0  0
  3 23  1  0  0  0  0
  4  5  1  0  0  0  0
  4 24  1  0  0  0  0
  4 25  1  0  0  0  0
  5 26  1  0  0  0  0
  5 27  1  0  0  0  0
  5 28  1  0  0  0  0
  6  7  1  0  0  0  0
  6  8  1  0  0  0  0
  6 29  1  0  0  0  0
  7 30  1  0  0  0  0
  8  9  1  0  0  0  0
  8 31  1  0  0  0  0
  8 32  1  0  0  0  0
  9 10  1  0  0  0  0
  9 33  1  0  0  0  0
 10 11  2  0  0  0  0
 10 12  1  0  0  0  0
 12 13  1  0  0  0  0
 12 34  1  0  0  0  0
 12 35  1  0  0  0  0
 13 17  1  0  0  0  0
 13 14  1  0  0  0  0
 14 15  2  0  0  0  0
 14 36  1  0  0  0  0
 15 16  1  0  0  0  0
 16 17  2  0  0  0  0
M  END
> <s_m_source_file>
AV-unprocessed.smi

> <i_m_source_file_index>
865

> <i_lp_mmshare_version>
43012

> <i_f3d_flags>
0

> <s_epik_input>
W0NIM11bQ0gyXVtDSF0oW0NIMl1bQ0gzXSlbQ0BIXShbT0hdKVtDSDJdW05IXUMoPU8pW0NIMl1uMVtjSF1ubm4x

> <s_epik_cmdline>
J2VwaWtfcHl0aG9uJywgJy1waCcsICc3LjAnLCAnLXRuJywgJzgnLCAnLW1hJywgJzIwMCcsICctbWV0YWxfYmluZGluZycsICctaW1hZScsICc8aW5maWxlLm1hZT4nLCAnLW9tYWUnLCAnPG91dGZpbGUubWFlPic=

> <r_lp_tautomer_probability>
1

> <r_epik_Ionization_Penalty>
9.39891e-07

> <r_epik_Ionization_Penalty_Charging>
0

> <r_epik_Ionization_Penalty_Neutral>
9.39891e-07

> <r_epik_State_Penalty>
-0

> <r_epik_Charging_Adjusted_Penalty>
0

> <i_epik_Tot_Q>
0

> <i_epik_Tot_abs_Q>
0

> <r_epik_Metal_State_Penalty>
-0

> <b_epik_Metal_Only>
0

> <s_lp_Force_Field>
OPLS_2005

> <r_lp_Energy>
13.4574

> <b_lp_Chiralities_Consistent>
1

> <s_lp_Variant>
AV-unprocessed.smi:865-1

> <Gold.Version>
5.8.1

> <Gold.Id.Protein>
6NUR|6NUR_protein|mol2

> <Gold.PLP.Fitness>
41.4809

> <Gold.PLP.PLP>
-34.2469

> <Gold.PLP.part.hbond>
-4.3972

> <Gold.PLP.part.metal>
0.0000

> <Gold.PLP.part.buried>
-8.2681

> <Gold.PLP.part.nonpolar>
-22.6729

> <Gold.PLP.part.repulsive>
0.3610

> <Gold.PLP.ligand.clash>
0.0000

> <Gold.PLP.ligand.torsion>
0.9985

> <Gold.PLP.Chemscore.Hbond>
2.9760

> <Gold.PLP.Chemscore.CHOScore>
0.0000

> <Gold.PLP.Chemscore.Metal>
0.0000

> <Gold.Chemscore.Hbonds>
donor molecule, donor type, donor heavy atom, donor atom, acceptor molecule, acceptor atom, score
      L1  H     7    30       P1  8028  0.42
      L1  H     9    33       P1  8029  1.00
      P1  H  6933  6944       L1    11  1.00

> <Gold.PLP.Chemscore.Internal.Correction>
0.3031

> <Gold.Rescore>
     Score         DG    S(hbond)    S(metal)    S(lipo)     H(rot)  DE(clash)    DE(int)     intcor
     11.76     -12.66       2.81        0.00      64.38       3.80       0.00       0.90       ----

> <Gold.Chemscore.Fitness>
11.7648

> <Gold.Chemscore.DG>
-12.6621

> <Gold.Chemscore.ZeroCoef>
-5.4800

> <Gold.Chemscore.Hbond>
2.8051

> <Gold.Chemscore.Metal>
0.0000

> <Gold.Chemscore.Lipo>
64.3752

> <Gold.Chemscore.Internal_Hbond>
0.0000

> <Gold.Chemscore.DEClash>
0.0000

> <Gold.Chemscore.DEInternal>
0.8973

> <Gold.Chemscore.Rot>
3.7964

> <Gold.Chemscore.Internal.Correction>
   9.000000E+99

> <Gold.Chemscore.Hbonds>
donor molecule, donor type, donor heavy atom, donor atom, acceptor molecule, acceptor atom, score
      L1  H     7    30       P1  8028  0.28
      L1  H     9    33       P1  8029  1.00
      P1  H  6933  6944       L1    11  0.80

> <Gold.Chemscore.Hbond.Weighted>
-9.3690

> <Gold.Chemscore.Metal.Weighted>
-0.0000

> <Gold.Chemscore.Lipo.Weighted>
-7.5319

> <Gold.Chemscore.Internal_Hbond.Weighted>
0.0000

> <Gold.Chemscore.DEClash.Weighted>
0.0000

> <Gold.Chemscore.DEInternal.Weighted>
0.8973

> <Gold.Chemscore.Rot.Weighted>
9.7188

> <Gold.Chemscore.Internal.Correction.Weighted>
   9.000000E+99

> <Gold.Protein.RotatedTorsions>
[ 6907 6896 6895 6894 ] final   70.94 input  -60.11 | X-H torsion
[ 7974 7965 7964 7962 ] final  -97.36 input  175.53 | X-H torsion
[ 8008 7997 7996 7995 ] final -159.60 input   59.86 | X-H torsion
[ 10167 10162 10161 10158 ] final   35.54 input  -65.29 | X-H torsion
[ 10718 10713 10712 10709 ] final -176.48 input   66.30 | X-H torsion
[ 10763 10752 10751 10750 ] final  145.93 input  -60.55 | X-H torsion
[ 11005 11000 10999 10996 ] final  -22.62 input  -57.11 | X-H torsion

> <Gold.Protein.ActiveResidues>
 VAL166  LYS551  ARG553  GLY616  TRP617  ASP618  TYR619  PRO620  LYS621  CYS622 
 ASP623  PHE694  ASN695  SER759  ASP760  ASP761  ALA762  ILE779  LEU786  VAL792 
 PHE793  MET794  SER795  GLU796  ALA797  LYS798  CYS799  TRP800  GLU811  SER814 

> <Gold.Protein.RotatedAtoms>
  152.4780  134.4793  159.9660 H   0  0  0  0  0  0  0  0  0  0  0  0  # atno 6907 bound_to 6896
  151.4805  133.3541  159.2845 H   0  0  0  0  0  0  0  0  0  0  0  0  # atno 6908 bound_to 6896
  150.8832  134.8253  159.7301 H   0  0  0  0  0  0  0  0  0  0  0  0  # atno 6909 bound_to 6896
  145.3347  140.9448  143.2642 H   0  0  0  0  0  0  0  0  0  0  0  0  # atno 7974 bound_to 7965
  155.7650  140.0844  157.2136 H   0  0  0  0  0  0  0  0  0  0  0  0  # atno 8008 bound_to 7997
  154.4000  140.1536  156.2933 H   0  0  0  0  0  0  0  0  0  0  0  0  # atno 8009 bound_to 7997
  155.8802  140.3421  155.5885 H   0  0  0  0  0  0  0  0  0  0  0  0  # atno 8010 bound_to 7997
  140.4212  144.1457  150.6148 H   0  0  0  0  0  0  0  0  0  0  0  0  # atno 10167 bound_to 10162
  156.8153  130.9600  151.3114 H   0  0  0  0  0  0  0  0  0  0  0  0  # atno 10718 bound_to 10713
  154.0135  135.2912  155.3389 H   0  0  0  0  0  0  0  0  0  0  0  0  # atno 10763 bound_to 10752
  154.7089  135.5158  153.8639 H   0  0  0  0  0  0  0  0  0  0  0  0  # atno 10764 bound_to 10752
  153.0712  135.6648  154.0364 H   0  0  0  0  0  0  0  0  0  0  0  0  # atno 10765 bound_to 10752
  140.8674  133.7744  156.0146 H   0  0  0  0  0  0  0  0  0  0  0  0  # atno 11005 bound_to 11000
  144.8837  139.4869  143.6711 LP  0  0  0  0  0  0  0  0  0  0  0  0  # atno 17320 bound_to 7965
  146.3031  139.7492  142.9076 LP  0  0  0  0  0  0  0  0  0  0  0  0  # atno 17321 bound_to 7965
  140.4531  143.2478  151.9320 LP  0  0  0  0  0  0  0  0  0  0  0  0  # atno 17342 bound_to 10162
  139.4782  144.5542  151.8339 LP  0  0  0  0  0  0  0  0  0  0  0  0  # atno 17343 bound_to 10162
  157.6485  130.8864  149.9585 LP  0  0  0  0  0  0  0  0  0  0  0  0  # atno 17370 bound_to 10713
  156.1020  130.3655  150.0201 LP  0  0  0  0  0  0  0  0  0  0  0  0  # atno 17371 bound_to 10713
  140.8612  134.2838  157.5233 LP  0  0  0  0  0  0  0  0  0  0  0  0  # atno 17394 bound_to 11000
  139.8710  134.9519  156.4099 LP  0  0  0  0  0  0  0  0  0  0  0  0  # atno 17395 bound_to 11000

$$$$
