#       Name:                AV-unprocessed.smi:624
#       Creating user name   scv26
#       Creation time:       Fri Mar 27 00:02:01 2020


#       File generated by GOLD software.
#

@<TRIPOS>MOLECULE
AV-unprocessed.smi:624
    34    36     1
SMALL
NO_CHARGES


@<TRIPOS>ATOM
      1 ****        -0.6968   1.7710   0.2384 O.2            1 S1                 0.0000
      2 ****        -1.1883   0.6467   0.1439 C.2            1 S1                 0.0000
      3 ****        -2.5029   0.3748   0.1085 N.am           1 S1                 0.0000
      4 ****        -3.5840   1.2909   0.1378 C.2            1 S1                 0.0000
      5 ****        -4.8268   0.7973   0.0855 N.2            1 S1                 0.0000
      6 ****        -5.7874   1.8008   0.1186 N.2            1 S1                 0.0000
      7 ****        -5.2302   3.0134   0.1929 C.2            1 S1                 0.0000
      8 ****        -3.4764   3.0512   0.2317 S.3            1 S1                 0.0000
      9 ****        -0.4605  -0.4767   0.0610 N.am           1 S1                 0.0000
     10 ****         0.9972  -0.5489   0.0453 C.3            1 S1                 0.0000
     11 ****         1.5768  -0.3110  -1.3404 C.3            1 S1                 0.0000
     12 ****         3.0074   0.1369  -1.5304 C.3            1 S1                 0.0000
     13 ****         1.8717   1.0825  -1.8447 C.3            1 S1                 0.0000
     14 ****         1.4921  -1.8720   0.6014 C.3            1 S1                 0.0000
     15 ****         1.6163  -2.0953   2.0896 C.3            1 S1                 0.0000
     16 ****         2.8584  -2.0038   1.2322 C.3            1 S1                 0.0000
     17 ****        -2.7617  -0.5983   0.0395 H              1 S1                 0.0000
     18 ****        -5.8574   3.8921   0.2246 H              1 S1                 0.0000
     19 ****        -0.9542  -1.3547  -0.0085 H              1 S1                 0.0000
     20 ****         1.3813   0.2344   0.7024 H              1 S1                 0.0000
     21 ****         1.2077  -1.0128  -2.0862 H              1 S1                 0.0000
     22 ****         3.6004   0.3510  -0.6437 H              1 S1                 0.0000
     23 ****         3.5581  -0.2838  -2.3693 H              1 S1                 0.0000
     24 ****         1.6629   1.2905  -2.8919 H              1 S1                 0.0000
     25 ****         1.7161   1.9169  -1.1639 H              1 S1                 0.0000
     26 ****         1.1612  -2.7332   0.0232 H              1 S1                 0.0000
     27 ****         1.4005  -1.2567   2.7490 H              1 S1                 0.0000
     28 ****         1.3412  -3.0749   2.4750 H              1 S1                 0.0000
     29 ****         3.4108  -2.9223   1.0443 H              1 S1                 0.0000
     30 ****         3.4662  -1.1070   1.3328 H              1 S1                 0.0000
     31 ****        -1.2910   2.5733   0.2960 LP             1 S1                 0.0000
     32 ****         0.2968   1.8824   0.2577 LP             1 S1                 0.0000
     33 ****        -5.0390  -0.1783   0.0293 LP             1 S1                 0.0000
     34 ****        -6.7733   1.6362   0.0904 LP             1 S1                 0.0000
@<TRIPOS>BOND
    1    1    2 2     
    2    2    3 am    
    3    2    9 am    
    4    3    4 1     
    5    3   17 1     
    6    4    8 1     
    7    4    5 2     
    8    5    6 1     
    9    6    7 2     
   10    7    8 1     
   11    7   18 1     
   12    9   10 1     
   13    9   19 1     
   14   10   11 1     
   15   10   14 1     
   16   10   20 1     
   17   11   13 1     
   18   11   12 1     
   19   11   21 1     
   20   12   13 1     
   21   12   22 1     
   22   12   23 1     
   23   13   24 1     
   24   13   25 1     
   25   14   16 1     
   26   14   15 1     
   27   14   26 1     
   28   15   16 1     
   29   15   27 1     
   30   15   28 1     
   31   16   29 1     
   32   16   30 1     
   33    1   31 1     
   34    1   32 1     
   35    5   33 1     
   36    6   34 1     
@<TRIPOS>SUBSTRUCTURE
      1 S1             1
@<TRIPOS>SET
LONE_PAIRS      STATIC     ATOMS    <user>   **** ""
4 31 32 33 34
DONOR_HYDROGENS      STATIC     ATOMS    <user>   **** ""
2 17 19
ATOM$BLUE        STATIC     ATOMS    COLORGROUP SYSTEM
4 31 32 33 34
ATOM$RED        STATIC     ATOMS    COLORGROUP SYSTEM
2 17 19
