AV-unprocessed.smi:2807|AV-procd|sdf|10816|dock3
  -GOLD-   2272015253D 1   1.00000     0.00000
 Structure written by MMmdl.
 32 33  0  0  0  0  0  0  0  0  1 V2000
  151.8426  140.2184  155.2527 O   0  0  0  0  0  0  0  0  0  0  0  0
  150.9581  140.4090  156.0884 C   0  0  0  0  0  0  0  0  0  0  0  0
  149.6647  140.5659  155.7624 N   0  0  0  0  0  0  0  0  0  0  0  0
  149.1248  140.5565  154.4063 C   0  0  2  0  0  0  0  0  0  0  0  0
  148.2035  141.7721  154.1868 C   0  0  0  0  0  0  0  0  0  0  0  0
  146.9388  141.2308  153.5200 C   0  0  0  0  0  0  0  0  0  0  0  0
  146.8109  139.8071  154.0541 C   0  0  0  0  0  0  0  0  0  0  0  0
  148.2539  139.3023  154.1619 C   0  0  1  0  0  0  0  0  0  0  0  0
  148.6289  138.6895  152.9442 O   0  0  0  0  0  0  0  0  0  0  0  0
  151.3035  140.4830  157.5839 C   0  0  0  0  0  0  0  0  0  0  0  0
  150.2924  139.9654  158.2858 F   0  0  0  0  0  0  0  0  0  0  0  0
  152.3865  139.7378  157.8182 F   0  0  0  0  0  0  0  0  0  0  0  0
  151.5608  141.9284  158.0035 C   0  0  0  0  0  0  0  0  0  0  0  0
  152.1069  142.2294  159.2719 C   0  0  0  0  0  0  0  0  0  0  0  0
  152.3466  143.5772  159.6017 C   0  0  0  0  0  0  0  0  0  0  0  0
  152.0359  144.5729  158.6564 C   0  0  0  0  0  0  0  0  0  0  0  0
  151.4968  144.1749  157.4179 C   0  0  0  0  0  0  0  0  0  0  0  0
  151.2639  142.8857  157.0915 N   0  0  0  0  0  0  0  0  0  0  0  0
  149.0068  140.7193  156.5132 H   0  0  0  0  0  0  0  0  0  0  0  0
  149.9470  140.6010  153.6887 H   0  0  0  0  0  0  0  0  0  0  0  0
  147.9321  142.2269  155.1412 H   0  0  0  0  0  0  0  0  0  0  0  0
  148.6809  142.5473  153.5867 H   0  0  0  0  0  0  0  0  0  0  0  0
  146.0596  141.8403  153.7313 H   0  0  0  0  0  0  0  0  0  0  0  0
  147.0748  141.2063  152.4380 H   0  0  0  0  0  0  0  0  0  0  0  0
  146.3654  139.8385  155.0495 H   0  0  0  0  0  0  0  0  0  0  0  0
  146.1754  139.1751  153.4326 H   0  0  0  0  0  0  0  0  0  0  0  0
  148.3503  138.5585  154.9542 H   0  0  0  0  0  0  0  0  0  0  0  0
  149.1749  139.2911  152.4619 H   0  0  0  0  0  0  0  0  0  0  0  0
  152.3450  141.4461  159.9762 H   0  0  0  0  0  0  0  0  0  0  0  0
  152.7642  143.8422  160.5617 H   0  0  0  0  0  0  0  0  0  0  0  0
  152.2078  145.6165  158.8745 H   0  0  0  0  0  0  0  0  0  0  0  0
  151.2477  144.9111  156.6680 H   0  0  0  0  0  0  0  0  0  0  0  0
  1  2  2  0  0  0  0
  2  3  1  0  0  0  0
  2 10  1  0  0  0  0
  3  4  1  0  0  0  0
  3 19  1  0  0  0  0
  4  8  1  0  0  0  0
  4  5  1  0  0  0  0
  4 20  1  0  0  0  0
  5  6  1  0  0  0  0
  5 21  1  0  0  0  0
  5 22  1  0  0  0  0
  6  7  1  0  0  0  0
  6 23  1  0  0  0  0
  6 24  1  0  0  0  0
  7  8  1  0  0  0  0
  7 25  1  0  0  0  0
  7 26  1  0  0  0  0
  8  9  1  0  0  0  0
  8 27  1  0  0  0  0
  9 28  1  0  0  0  0
 10 11  1  0  0  0  0
 10 12  1  0  0  0  0
 10 13  1  0  0  0  0
 13 18  1  0  0  0  0
 13 14  2  0  0  0  0
 14 15  1  0  0  0  0
 14 29  1  0  0  0  0
 15 16  2  0  0  0  0
 15 30  1  0  0  0  0
 16 17  1  0  0  0  0
 16 31  1  0  0  0  0
 17 18  2  0  0  0  0
 17 32  1  0  0  0  0
M  END
> <s_m_source_file>
AV-unprocessed.smi

> <i_m_source_file_index>
2807

> <i_lp_mmshare_version>
43012

> <i_f3d_flags>
0

> <s_epik_input>
bjFbY0hdW2NIXVtjSF1bY0hdYzFDKEYpKEYpQyg9TylbTkhdW0NAQEhdMltDSDJdW0NIMl1bQ0gyXVtDQEhdMltPSF0=

> <s_epik_cmdline>
J2VwaWtfcHl0aG9uJywgJy1waCcsICc3LjAnLCAnLXRuJywgJzgnLCAnLW1hJywgJzIwMCcsICctbWV0YWxfYmluZGluZycsICctaW1hZScsICc8aW5maWxlLm1hZT4nLCAnLW9tYWUnLCAnPG91dGZpbGUubWFlPic=

> <r_lp_tautomer_probability>
1

> <r_epik_Ionization_Penalty>
4.08325e-05

> <r_epik_Ionization_Penalty_Charging>
0

> <r_epik_Ionization_Penalty_Neutral>
4.08325e-05

> <r_epik_State_Penalty>
-0

> <r_epik_Charging_Adjusted_Penalty>
0

> <i_epik_Tot_Q>
0

> <i_epik_Tot_abs_Q>
0

> <r_epik_Metal_State_Penalty>
0.034564

> <b_epik_Metal_Only>
0

> <s_lp_Force_Field>
OPLS_2005

> <r_lp_Energy>
23.2382

> <b_lp_Chiralities_Consistent>
1

> <s_lp_Variant>
AV-unprocessed.smi:2807-1

> <Gold.Version>
5.8.1

> <Gold.Id.Protein>
6NUR|6NUR_protein|mol2

> <Gold.PLP.Fitness>
43.8618

> <Gold.PLP.PLP>
-39.1312

> <Gold.PLP.part.hbond>
-2.6695

> <Gold.PLP.part.metal>
0.0000

> <Gold.PLP.part.buried>
-3.5209

> <Gold.PLP.part.nonpolar>
-33.3219

> <Gold.PLP.part.repulsive>
0.2098

> <Gold.PLP.ligand.clash>
0.0000

> <Gold.PLP.ligand.torsion>
1.4626

> <Gold.PLP.Chemscore.Hbond>
1.8480

> <Gold.PLP.Chemscore.CHOScore>
0.6975

> <Gold.PLP.Chemscore.Metal>
0.0000

> <Gold.Chemscore.Hbonds>
donor molecule, donor type, donor heavy atom, donor atom, acceptor molecule, acceptor atom, score
      L1  H     9    28       P1  7957  1.00
      P1  H  7989  7998       L1     1  0.83
      L1  C    17    32       P1  8028  0.74

> <Gold.PLP.Chemscore.Internal.Correction>
0.0194

> <Gold.Rescore>
     Score         DG    S(hbond)    S(metal)    S(lipo)     H(rot)  DE(clash)    DE(int)     intcor
     16.27     -17.65       1.89        0.00      94.81       2.05       0.09       1.29       ----

> <Gold.Chemscore.Fitness>
16.2666

> <Gold.Chemscore.DG>
-17.6482

> <Gold.Chemscore.ZeroCoef>
-5.4800

> <Gold.Chemscore.Hbond>
1.8900

> <Gold.Chemscore.Metal>
0.0000

> <Gold.Chemscore.Lipo>
94.8085

> <Gold.Chemscore.Internal_Hbond>
0.0000

> <Gold.Chemscore.DEClash>
0.0905

> <Gold.Chemscore.DEInternal>
1.2911

> <Gold.Chemscore.Rot>
2.0457

> <Gold.Chemscore.Internal.Correction>
   9.000000E+99

> <Gold.Chemscore.Hbonds>
donor molecule, donor type, donor heavy atom, donor atom, acceptor molecule, acceptor atom, score
      L1  H     9    28       P1  7957  0.92
      P1  H  7989  7998       L1     1  0.82

> <Gold.Chemscore.Hbond.Weighted>
-6.3127

> <Gold.Chemscore.Metal.Weighted>
-0.0000

> <Gold.Chemscore.Lipo.Weighted>
-11.0926

> <Gold.Chemscore.Internal_Hbond.Weighted>
0.0000

> <Gold.Chemscore.DEClash.Weighted>
0.0905

> <Gold.Chemscore.DEInternal.Weighted>
1.2911

> <Gold.Chemscore.Rot.Weighted>
5.2371

> <Gold.Chemscore.Internal.Correction.Weighted>
   9.000000E+99

> <Gold.Protein.RotatedTorsions>
[ 6907 6896 6895 6894 ] final  157.25 input  -60.11 | X-H torsion
[ 7974 7965 7964 7962 ] final -125.93 input  175.53 | X-H torsion
[ 8008 7997 7996 7995 ] final  -61.96 input   59.86 | X-H torsion
[ 10167 10162 10161 10158 ] final   47.11 input  -65.29 | X-H torsion
[ 10718 10713 10712 10709 ] final  146.24 input   66.30 | X-H torsion
[ 10763 10752 10751 10750 ] final  130.36 input  -60.55 | X-H torsion
[ 11005 11000 10999 10996 ] final  122.85 input  -57.11 | X-H torsion

> <Gold.Protein.ActiveResidues>
 VAL166  LYS551  ARG553  GLY616  TRP617  ASP618  TYR619  PRO620  LYS621  CYS622 
 ASP623  PHE694  ASN695  SER759  ASP760  ASP761  ALA762  ILE779  LEU786  VAL792 
 PHE793  MET794  SER795  GLU796  ALA797  LYS798  CYS799  TRP800  GLU811  SER814 

> <Gold.Protein.RotatedAtoms>
  152.0178  133.3886  159.4245 H   0  0  0  0  0  0  0  0  0  0  0  0  # atno 6907 bound_to 6896
  150.6893  134.3659  159.4980 H   0  0  0  0  0  0  0  0  0  0  0  0  # atno 6908 bound_to 6896
  152.1429  134.9048  160.0603 H   0  0  0  0  0  0  0  0  0  0  0  0  # atno 6909 bound_to 6896
  144.9925  140.7745  143.4545 H   0  0  0  0  0  0  0  0  0  0  0  0  # atno 7974 bound_to 7965
  154.4474  140.1006  156.6512 H   0  0  0  0  0  0  0  0  0  0  0  0  # atno 8008 bound_to 7997
  155.5396  140.3483  155.4425 H   0  0  0  0  0  0  0  0  0  0  0  0  # atno 8009 bound_to 7997
  156.0607  140.1325  156.9934 H   0  0  0  0  0  0  0  0  0  0  0  0  # atno 8010 bound_to 7997
  140.3070  144.2866  150.6207 H   0  0  0  0  0  0  0  0  0  0  0  0  # atno 10167 bound_to 10162
  157.3356  131.0927  151.1126 H   0  0  0  0  0  0  0  0  0  0  0  0  # atno 10718 bound_to 10713
  153.7568  135.3202  155.3330 H   0  0  0  0  0  0  0  0  0  0  0  0  # atno 10763 bound_to 10752
  154.8244  135.4580  154.0877 H   0  0  0  0  0  0  0  0  0  0  0  0  # atno 10764 bound_to 10752
  153.2096  135.6934  153.8213 H   0  0  0  0  0  0  0  0  0  0  0  0  # atno 10765 bound_to 10752
  139.9286  134.9641  156.8172 H   0  0  0  0  0  0  0  0  0  0  0  0  # atno 11005 bound_to 11000
  145.2266  139.2134  143.5065 LP  0  0  0  0  0  0  0  0  0  0  0  0  # atno 17320 bound_to 7965
  146.3434  140.2134  142.8590 LP  0  0  0  0  0  0  0  0  0  0  0  0  # atno 17321 bound_to 7965
  140.5601  143.2193  151.7779 LP  0  0  0  0  0  0  0  0  0  0  0  0  # atno 17342 bound_to 10162
  139.4902  144.4359  151.9819 LP  0  0  0  0  0  0  0  0  0  0  0  0  # atno 17343 bound_to 10162
  157.2358  130.6546  149.5869 LP  0  0  0  0  0  0  0  0  0  0  0  0  # atno 17370 bound_to 10713
  155.9701  130.4584  150.5998 LP  0  0  0  0  0  0  0  0  0  0  0  0  # atno 17371 bound_to 10713
  140.6264  133.9946  155.7641 LP  0  0  0  0  0  0  0  0  0  0  0  0  # atno 17394 bound_to 11000
  141.0861  133.9988  157.3311 LP  0  0  0  0  0  0  0  0  0  0  0  0  # atno 17395 bound_to 11000

$$$$
