AV-unprocessed.smi:1611|AV-procd|sdf|6475|dock2
  -GOLD-   22720 7133D 1   1.00000     0.00000
 Structure written by MMmdl.
 48 49  0  0  0  0  0  0  0  0  1 V2000
  152.8757  141.9532  159.8676 C   0  0  0  0  0  0  0  0  0  0  0  0
  152.0749  141.5692  158.6353 C   0  0  0  0  0  0  0  0  0  0  0  0
  151.6172  142.5875  157.7745 C   0  0  0  0  0  0  0  0  0  0  0  0
  150.8760  142.2677  156.6237 C   0  0  0  0  0  0  0  0  0  0  0  0
  150.5761  140.9247  156.3248 C   0  0  0  0  0  0  0  0  0  0  0  0
  149.7800  140.5967  155.0755 C   0  0  0  0  0  0  0  0  0  0  0  0
  151.0159  139.8969  157.1904 C   0  0  0  0  0  0  0  0  0  0  0  0
  150.7115  138.5923  156.8971 O   0  0  0  0  0  0  0  0  0  0  0  0
  151.4001  138.0894  155.7607 C   0  0  0  0  0  0  0  0  0  0  0  0
  150.6970  136.8116  155.2729 C   0  0  1  0  0  0  0  0  0  0  0  0
  151.3984  136.3651  154.1287 O   0  0  0  0  0  0  0  0  0  0  0  0
  150.7370  135.6916  156.3360 C   0  0  0  0  0  0  0  0  0  0  0  0
  150.4744  134.3703  155.7512 N   0  0  0  0  0  0  0  0  0  0  0  0
  151.3539  133.3879  156.1644 N   0  0  0  0  0  0  0  0  0  0  0  0
  151.2428  132.1679  155.7518 C   0  0  0  0  0  0  0  0  0  0  0  0
  152.2582  131.1842  156.2680 C   0  0  0  0  0  0  0  0  0  0  0  0
  150.1694  131.8111  154.8301 C   0  0  0  0  0  0  0  0  0  0  0  0
  150.0876  130.3591  154.3789 C   0  0  0  0  0  0  0  0  0  0  0  0
  149.3143  132.7850  154.4296 C   0  0  0  0  0  0  0  0  0  0  0  0
  148.2357  132.5309  153.5296 C   0  0  0  0  0  0  0  0  0  0  0  0
  147.3712  132.3349  152.7850 N   0  0  0  0  0  0  0  0  0  0  0  0
  149.4345  134.1696  154.8921 C   0  0  0  0  0  0  0  0  0  0  0  0
  148.6742  135.0749  154.5459 O   0  0  0  0  0  0  0  0  0  0  0  0
  151.7841  140.2137  158.3394 C   0  0  0  0  0  0  0  0  0  0  0  0
  152.2891  139.1026  159.2502 C   0  0  0  0  0  0  0  0  0  0  0  0
  152.8798  143.0332  160.0176 H   0  0  0  0  0  0  0  0  0  0  0  0
  153.9103  141.6250  159.7659 H   0  0  0  0  0  0  0  0  0  0  0  0
  152.4514  141.4956  160.7617 H   0  0  0  0  0  0  0  0  0  0  0  0
  151.8367  143.6229  157.9909 H   0  0  0  0  0  0  0  0  0  0  0  0
  150.5378  143.0595  155.9715 H   0  0  0  0  0  0  0  0  0  0  0  0
  150.1952  139.7253  154.5683 H   0  0  0  0  0  0  0  0  0  0  0  0
  149.7925  141.4294  154.3714 H   0  0  0  0  0  0  0  0  0  0  0  0
  148.7424  140.3845  155.3333 H   0  0  0  0  0  0  0  0  0  0  0  0
  151.4730  138.8296  154.9612 H   0  0  0  0  0  0  0  0  0  0  0  0
  152.4201  137.8578  156.0694 H   0  0  0  0  0  0  0  0  0  0  0  0
  149.6636  137.0425  155.0101 H   0  0  0  0  0  0  0  0  0  0  0  0
  150.9841  136.7271  153.3604 H   0  0  0  0  0  0  0  0  0  0  0  0
  151.6730  135.7166  156.8974 H   0  0  0  0  0  0  0  0  0  0  0  0
  149.9633  135.8768  157.0833 H   0  0  0  0  0  0  0  0  0  0  0  0
  152.8309  130.7533  155.4467 H   0  0  0  0  0  0  0  0  0  0  0  0
  151.7709  130.3700  156.8047 H   0  0  0  0  0  0  0  0  0  0  0  0
  152.9667  131.6516  156.9533 H   0  0  0  0  0  0  0  0  0  0  0  0
  149.2449  130.1805  153.7118 H   0  0  0  0  0  0  0  0  0  0  0  0
  149.9696  129.6968  155.2371 H   0  0  0  0  0  0  0  0  0  0  0  0
  150.9945  130.0732  153.8451 H   0  0  0  0  0  0  0  0  0  0  0  0
  152.2814  138.1321  158.7547 H   0  0  0  0  0  0  0  0  0  0  0  0
  151.6634  139.0338  160.1401 H   0  0  0  0  0  0  0  0  0  0  0  0
  153.3161  139.2868  159.5649 H   0  0  0  0  0  0  0  0  0  0  0  0
  1  2  1  0  0  0  0
  1 26  1  0  0  0  0
  1 27  1  0  0  0  0
  1 28  1  0  0  0  0
  2 24  1  0  0  0  0
  2  3  2  0  0  0  0
  3  4  1  0  0  0  0
  3 29  1  0  0  0  0
  4  5  2  0  0  0  0
  4 30  1  0  0  0  0
  5  6  1  0  0  0  0
  5  7  1  0  0  0  0
  6 31  1  0  0  0  0
  6 32  1  0  0  0  0
  6 33  1  0  0  0  0
  7  8  1  0  0  0  0
  7 24  2  0  0  0  0
  8  9  1  0  0  0  0
  9 10  1  0  0  0  0
  9 34  1  0  0  0  0
  9 35  1  0  0  0  0
 10 11  1  0  0  0  0
 10 12  1  0  0  0  0
 10 36  1  0  0  0  0
 11 37  1  0  0  0  0
 12 13  1  0  0  0  0
 12 38  1  0  0  0  0
 12 39  1  0  0  0  0
 13 22  1  0  0  0  0
 13 14  1  0  0  0  0
 14 15  2  0  0  0  0
 15 16  1  0  0  0  0
 15 17  1  0  0  0  0
 16 40  1  0  0  0  0
 16 41  1  0  0  0  0
 16 42  1  0  0  0  0
 17 18  1  0  0  0  0
 17 19  2  0  0  0  0
 18 43  1  0  0  0  0
 18 44  1  0  0  0  0
 18 45  1  0  0  0  0
 19 20  1  0  0  0  0
 19 22  1  0  0  0  0
 20 21  3  0  0  0  0
 22 23  2  0  0  0  0
 24 25  1  0  0  0  0
 25 46  1  0  0  0  0
 25 47  1  0  0  0  0
 25 48  1  0  0  0  0
M  END
> <s_m_source_file>
AV-unprocessed.smi

> <i_m_source_file_index>
1611

> <i_lp_mmshare_version>
43012

> <i_f3d_flags>
0

> <s_epik_input>
W0NIM11jMVtjSF1bY0hdYyhbQ0gzXSljKGMxW0NIM10pT1tDSDJdW0NASF0oW09IXSlbQ0gyXW4ybmMoW0NIM10pYyhbQ0gzXSljKEMjTiljMj1P

> <s_epik_cmdline>
J2VwaWtfcHl0aG9uJywgJy1waCcsICc3LjAnLCAnLXRuJywgJzgnLCAnLW1hJywgJzIwMCcsICctbWV0YWxfYmluZGluZycsICctaW1hZScsICc8aW5maWxlLm1hZT4nLCAnLW9tYWUnLCAnPG91dGZpbGUubWFlPic=

> <r_lp_tautomer_probability>
1

> <r_epik_Ionization_Penalty>
1.17331e-07

> <r_epik_Ionization_Penalty_Charging>
1.57223e-10

> <r_epik_Ionization_Penalty_Neutral>
1.17174e-07

> <r_epik_State_Penalty>
-0

> <r_epik_Charging_Adjusted_Penalty>
1.57223e-10

> <i_epik_Tot_Q>
0

> <i_epik_Tot_abs_Q>
0

> <r_epik_Metal_State_Penalty>
-0

> <b_epik_Metal_Only>
0

> <s_lp_Force_Field>
OPLS_2005

> <r_lp_Energy>
37.4128

> <b_lp_Chiralities_Consistent>
1

> <s_lp_Variant>
AV-unprocessed.smi:1611-2

> <Gold.Version>
5.8.1

> <Gold.Id.Protein>
6NUR|6NUR_protein|mol2

> <Gold.PLP.Fitness>
46.6533

> <Gold.PLP.PLP>
-42.8952

> <Gold.PLP.part.hbond>
-2.1860

> <Gold.PLP.part.metal>
0.0000

> <Gold.PLP.part.buried>
-5.5434

> <Gold.PLP.part.nonpolar>
-36.5214

> <Gold.PLP.part.repulsive>
1.9069

> <Gold.PLP.ligand.clash>
0.0000

> <Gold.PLP.ligand.torsion>
0.4654

> <Gold.PLP.Chemscore.Hbond>
1.5280

> <Gold.PLP.Chemscore.CHOScore>
0.0000

> <Gold.PLP.Chemscore.Metal>
0.0000

> <Gold.Chemscore.Hbonds>
donor molecule, donor type, donor heavy atom, donor atom, acceptor molecule, acceptor atom, score
      L1  H    11    37       P1  7949  0.50
      P1  H 10752 10765       L1    11  1.00

> <Gold.PLP.Chemscore.Internal.Correction>
0.1049

> <Gold.Rescore>
     Score         DG    S(hbond)    S(metal)    S(lipo)     H(rot)  DE(clash)    DE(int)     intcor
     13.43     -15.86       1.01        0.00     109.59       2.27       0.08       2.35       ----

> <Gold.Chemscore.Fitness>
13.4347

> <Gold.Chemscore.DG>
-15.8611

> <Gold.Chemscore.ZeroCoef>
-5.4800

> <Gold.Chemscore.Hbond>
1.0094

> <Gold.Chemscore.Metal>
0.0000

> <Gold.Chemscore.Lipo>
109.5937

> <Gold.Chemscore.Internal_Hbond>
0.0000

> <Gold.Chemscore.DEClash>
0.0775

> <Gold.Chemscore.DEInternal>
2.3490

> <Gold.Chemscore.Rot>
2.2706

> <Gold.Chemscore.Internal.Correction>
   9.000000E+99

> <Gold.Chemscore.Hbonds>
donor molecule, donor type, donor heavy atom, donor atom, acceptor molecule, acceptor atom, score
      L1  H    11    37       P1  7949  0.12
      P1  H 10752 10765       L1    11  0.98

> <Gold.Chemscore.Hbond.Weighted>
-3.3713

> <Gold.Chemscore.Metal.Weighted>
-0.0000

> <Gold.Chemscore.Lipo.Weighted>
-12.8225

> <Gold.Chemscore.Internal_Hbond.Weighted>
0.0000

> <Gold.Chemscore.DEClash.Weighted>
0.0775

> <Gold.Chemscore.DEInternal.Weighted>
2.3490

> <Gold.Chemscore.Rot.Weighted>
5.8127

> <Gold.Chemscore.Internal.Correction.Weighted>
   9.000000E+99

> <Gold.Protein.RotatedTorsions>
[ 6907 6896 6895 6894 ] final  -75.75 input  -60.11 | X-H torsion
[ 7974 7965 7964 7962 ] final  -64.25 input  175.53 | X-H torsion
[ 8008 7997 7996 7995 ] final    2.69 input   59.86 | X-H torsion
[ 10167 10162 10161 10158 ] final   11.88 input  -65.29 | X-H torsion
[ 10718 10713 10712 10709 ] final  -43.04 input   66.30 | X-H torsion
[ 10763 10752 10751 10750 ] final  161.73 input  -60.55 | X-H torsion
[ 11005 11000 10999 10996 ] final  -72.47 input  -57.11 | X-H torsion

> <Gold.Protein.ActiveResidues>
 VAL166  LYS551  ARG553  GLY616  TRP617  ASP618  TYR619  PRO620  LYS621  CYS622 
 ASP623  PHE694  ASN695  SER759  ASP760  ASP761  ALA762  ILE779  LEU786  VAL792 
 PHE793  MET794  SER795  GLU796  ALA797  LYS798  CYS799  TRP800  GLU811  SER814 

> <Gold.Protein.RotatedAtoms>
  150.7049  134.4674  159.5408 H   0  0  0  0  0  0  0  0  0  0  0  0  # atno 6907 bound_to 6896
  152.2337  134.8294  160.0479 H   0  0  0  0  0  0  0  0  0  0  0  0  # atno 6908 bound_to 6896
  151.9101  133.3524  159.3897 H   0  0  0  0  0  0  0  0  0  0  0  0  # atno 6909 bound_to 6896
  145.7691  140.8822  143.0390 H   0  0  0  0  0  0  0  0  0  0  0  0  # atno 7974 bound_to 7965
  154.6946  140.2660  155.6778 H   0  0  0  0  0  0  0  0  0  0  0  0  # atno 8008 bound_to 7997
  156.2744  140.2784  156.1460 H   0  0  0  0  0  0  0  0  0  0  0  0  # atno 8009 bound_to 7997
  155.0848  140.0373  157.2640 H   0  0  0  0  0  0  0  0  0  0  0  0  # atno 8010 bound_to 7997
  140.6104  143.8420  150.7059 H   0  0  0  0  0  0  0  0  0  0  0  0  # atno 10167 bound_to 10162
  156.2532  130.4190  149.8626 H   0  0  0  0  0  0  0  0  0  0  0  0  # atno 10718 bound_to 10713
  154.2675  135.2766  155.2752 H   0  0  0  0  0  0  0  0  0  0  0  0  # atno 10763 bound_to 10752
  154.5331  135.5724  153.6779 H   0  0  0  0  0  0  0  0  0  0  0  0  # atno 10764 bound_to 10752
  152.9951  135.6232  154.2828 H   0  0  0  0  0  0  0  0  0  0  0  0  # atno 10765 bound_to 10752
  141.1609  133.6848  156.7063 H   0  0  0  0  0  0  0  0  0  0  0  0  # atno 11005 bound_to 11000
  144.6816  139.9829  143.7483 LP  0  0  0  0  0  0  0  0  0  0  0  0  # atno 17320 bound_to 7965
  146.0188  139.3233  143.0825 LP  0  0  0  0  0  0  0  0  0  0  0  0  # atno 17321 bound_to 7965
  140.1987  143.3977  152.1808 LP  0  0  0  0  0  0  0  0  0  0  0  0  # atno 17342 bound_to 10162
  139.5357  144.7206  151.4903 LP  0  0  0  0  0  0  0  0  0  0  0  0  # atno 17343 bound_to 10162
  156.6167  130.8609  151.3466 LP  0  0  0  0  0  0  0  0  0  0  0  0  # atno 17370 bound_to 10713
  157.7222  130.9574  150.1487 LP  0  0  0  0  0  0  0  0  0  0  0  0  # atno 17371 bound_to 10713
  140.2921  134.8232  157.4025 LP  0  0  0  0  0  0  0  0  0  0  0  0  # atno 17394 bound_to 11000
  140.1338  134.5061  155.8085 LP  0  0  0  0  0  0  0  0  0  0  0  0  # atno 17395 bound_to 11000

$$$$
