AV-unprocessed.smi:968|AV-procd|sdf|4289|dock7
  -GOLD-   22720 2193D 1   1.00000     0.00000
 Structure written by MMmdl.
 20 20  0  0  0  0  0  0  0  0  1 V2000
  152.0864  144.6317  157.7172 C   0  0  0  0  0  0  0  0  0  0  0  0
  151.0382  143.6440  157.5105 N   0  0  0  0  0  0  0  0  0  0  0  0
  150.9914  142.4530  158.1240 C   0  0  0  0  0  0  0  0  0  0  0  0
  151.8468  142.0787  158.9281 O   0  0  0  0  0  0  0  0  0  0  0  0
  149.7953  141.5638  157.7602 C   0  0  0  0  0  0  0  0  0  0  0  0
  149.8077  141.1336  156.3716 N   0  0  0  0  0  0  0  0  0  0  0  0
  150.7574  140.5215  155.6599 C   0  0  0  0  0  0  0  0  0  0  0  0
  150.4130  140.2803  154.4020 N   0  0  0  0  0  0  0  0  0  0  0  0
  149.1527  140.8060  154.4095 C   0  0  0  0  0  0  0  0  0  0  0  0
  148.3519  140.7873  153.2555 N   0  0  0  0  0  0  0  0  0  0  0  0
  148.7398  141.3315  155.5621 N   0  0  0  0  0  0  0  0  0  0  0  0
  151.9206  145.4906  157.0672 H   0  0  0  0  0  0  0  0  0  0  0  0
  153.0676  144.2147  157.4865 H   0  0  0  0  0  0  0  0  0  0  0  0
  152.0905  144.9816  158.7502 H   0  0  0  0  0  0  0  0  0  0  0  0
  150.3005  143.8816  156.8632 H   0  0  0  0  0  0  0  0  0  0  0  0
  149.7838  140.6847  158.4067 H   0  0  0  0  0  0  0  0  0  0  0  0
  148.8698  142.1109  157.9431 H   0  0  0  0  0  0  0  0  0  0  0  0
  151.7173  140.2454  156.0709 H   0  0  0  0  0  0  0  0  0  0  0  0
  148.7007  140.3818  152.3992 H   0  0  0  0  0  0  0  0  0  0  0  0
  147.4338  141.2073  153.2653 H   0  0  0  0  0  0  0  0  0  0  0  0
  1  2  1  0  0  0  0
  1 12  1  0  0  0  0
  1 13  1  0  0  0  0
  1 14  1  0  0  0  0
  2  3  1  0  0  0  0
  2 15  1  0  0  0  0
  3  4  2  0  0  0  0
  3  5  1  0  0  0  0
  5  6  1  0  0  0  0
  5 16  1  0  0  0  0
  5 17  1  0  0  0  0
  6 11  1  0  0  0  0
  6  7  1  0  0  0  0
  7  8  2  0  0  0  0
  7 18  1  0  0  0  0
  8  9  1  0  0  0  0
  9 10  1  0  0  0  0
  9 11  2  0  0  0  0
 10 19  1  0  0  0  0
 10 20  1  0  0  0  0
M  END
> <s_m_source_file>
AV-unprocessed.smi

> <i_m_source_file_index>
968

> <i_lp_mmshare_version>
43012

> <i_f3d_flags>
0

> <s_epik_input>
W0NIM11bTkhdQyg9TylbQ0gyXW4xW2NIXW5jKG4xKVtOSDJd

> <s_epik_cmdline>
J2VwaWtfcHl0aG9uJywgJy1waCcsICc3LjAnLCAnLXRuJywgJzgnLCAnLW1hJywgJzIwMCcsICctbWV0YWxfYmluZGluZycsICctaW1hZScsICc8aW5maWxlLm1hZT4nLCAnLW9tYWUnLCAnPG91dGZpbGUubWFlPic=

> <r_lp_tautomer_probability>
1

> <r_epik_Ionization_Penalty>
0.000377128

> <r_epik_Ionization_Penalty_Charging>
0

> <r_epik_Ionization_Penalty_Neutral>
0.000377128

> <r_epik_State_Penalty>
-0

> <r_epik_Charging_Adjusted_Penalty>
0

> <i_epik_Tot_Q>
0

> <i_epik_Tot_abs_Q>
0

> <r_epik_Metal_State_Penalty>
-0

> <b_epik_Metal_Only>
0

> <s_lp_Force_Field>
OPLS_2005

> <r_lp_Energy>
2.7463

> <b_lp_Chiralities_Consistent>
1

> <s_lp_Variant>
AV-unprocessed.smi:968-1

> <Gold.Version>
5.8.1

> <Gold.Id.Protein>
6NUR|6NUR_protein|mol2

> <Gold.PLP.Fitness>
29.5340

> <Gold.PLP.PLP>
-20.6834

> <Gold.PLP.part.hbond>
-2.9934

> <Gold.PLP.part.metal>
0.0000

> <Gold.PLP.part.buried>
-4.7217

> <Gold.PLP.part.nonpolar>
-13.5410

> <Gold.PLP.part.repulsive>
0.3762

> <Gold.PLP.ligand.clash>
0.0000

> <Gold.PLP.ligand.torsion>
0.0747

> <Gold.PLP.Chemscore.Hbond>
3.0000

> <Gold.PLP.Chemscore.CHOScore>
0.0000

> <Gold.PLP.Chemscore.Metal>
0.0000

> <Gold.Chemscore.Hbonds>
donor molecule, donor type, donor heavy atom, donor atom, acceptor molecule, acceptor atom, score
      L1  H     2    15       P1  8028  1.00
      L1  H    10    19       P1  7957  1.00
      P1  H  7989  7998       L1     8  1.00

> <Gold.PLP.Chemscore.Internal.Correction>
0.0000

> <Gold.Rescore>
     Score         DG    S(hbond)    S(metal)    S(lipo)     H(rot)  DE(clash)    DE(int)     intcor
     12.49     -12.62       2.78        0.00      17.75       1.65       0.03       0.11       ----

> <Gold.Chemscore.Fitness>
12.4865

> <Gold.Chemscore.DG>
-12.6216

> <Gold.Chemscore.ZeroCoef>
-5.4800

> <Gold.Chemscore.Hbond>
2.7837

> <Gold.Chemscore.Metal>
0.0000

> <Gold.Chemscore.Lipo>
17.7501

> <Gold.Chemscore.Internal_Hbond>
0.0000

> <Gold.Chemscore.DEClash>
0.0270

> <Gold.Chemscore.DEInternal>
0.1081

> <Gold.Chemscore.Rot>
1.6534

> <Gold.Chemscore.Internal.Correction>
   9.000000E+99

> <Gold.Chemscore.Hbonds>
donor molecule, donor type, donor heavy atom, donor atom, acceptor molecule, acceptor atom, score
      L1  H     2    15       P1  8028  0.94
      L1  H    10    19       P1  7957  0.97
      P1  H  7989  7998       L1     8  0.53

> <Gold.Chemscore.Hbond.Weighted>
-9.2976

> <Gold.Chemscore.Metal.Weighted>
-0.0000

> <Gold.Chemscore.Lipo.Weighted>
-2.0768

> <Gold.Chemscore.Internal_Hbond.Weighted>
0.0000

> <Gold.Chemscore.DEClash.Weighted>
0.0270

> <Gold.Chemscore.DEInternal.Weighted>
0.1081

> <Gold.Chemscore.Rot.Weighted>
4.2327

> <Gold.Chemscore.Internal.Correction.Weighted>
   9.000000E+99

> <Gold.Protein.RotatedTorsions>
[ 6907 6896 6895 6894 ] final   46.17 input  -60.11 | X-H torsion
[ 7974 7965 7964 7962 ] final  -47.41 input  175.53 | X-H torsion
[ 8008 7997 7996 7995 ] final -103.43 input   59.86 | X-H torsion
[ 10167 10162 10161 10158 ] final   46.01 input  -65.29 | X-H torsion
[ 10718 10713 10712 10709 ] final -162.11 input   66.30 | X-H torsion
[ 10763 10752 10751 10750 ] final -103.79 input  -60.55 | X-H torsion
[ 11005 11000 10999 10996 ] final  -50.97 input  -57.11 | X-H torsion

> <Gold.Protein.ActiveResidues>
 VAL166  LYS551  ARG553  GLY616  TRP617  ASP618  TYR619  PRO620  LYS621  CYS622 
 ASP623  PHE694  ASN695  SER759  ASP760  ASP761  ALA762  ILE779  LEU786  VAL792 
 PHE793  MET794  SER795  GLU796  ALA797  LYS798  CYS799  TRP800  GLU811  SER814 

> <Gold.Protein.RotatedAtoms>
  152.2533  134.8110  160.0442 H   0  0  0  0  0  0  0  0  0  0  0  0  # atno 6907 bound_to 6896
  151.8783  133.3485  159.3766 H   0  0  0  0  0  0  0  0  0  0  0  0  # atno 6908 bound_to 6896
  150.7091  134.4971  159.5587 H   0  0  0  0  0  0  0  0  0  0  0  0  # atno 6909 bound_to 6896
  145.9619  140.7471  142.9453 H   0  0  0  0  0  0  0  0  0  0  0  0  # atno 7974 bound_to 7965
  154.8708  140.0423  157.1723 H   0  0  0  0  0  0  0  0  0  0  0  0  # atno 8008 bound_to 7997
  154.8741  140.2963  155.5443 H   0  0  0  0  0  0  0  0  0  0  0  0  # atno 8009 bound_to 7997
  156.2999  140.2423  156.3734 H   0  0  0  0  0  0  0  0  0  0  0  0  # atno 8010 bound_to 7997
  140.3183  144.2737  150.6187 H   0  0  0  0  0  0  0  0  0  0  0  0  # atno 10167 bound_to 10162
  156.6058  130.8830  151.2925 H   0  0  0  0  0  0  0  0  0  0  0  0  # atno 10718 bound_to 10713
  154.7832  135.4810  153.9890 H   0  0  0  0  0  0  0  0  0  0  0  0  # atno 10763 bound_to 10752
  153.1523  135.6793  153.8871 H   0  0  0  0  0  0  0  0  0  0  0  0  # atno 10764 bound_to 10752
  153.8511  135.3167  155.3410 H   0  0  0  0  0  0  0  0  0  0  0  0  # atno 10765 bound_to 10752
  141.0845  133.6645  156.3808 H   0  0  0  0  0  0  0  0  0  0  0  0  # atno 11005 bound_to 11000
  144.6817  140.2605  143.7319 LP  0  0  0  0  0  0  0  0  0  0  0  0  # atno 17320 bound_to 7965
  145.8028  139.1971  143.2038 LP  0  0  0  0  0  0  0  0  0  0  0  0  # atno 17321 bound_to 7965
  140.5507  143.2207  151.7932 LP  0  0  0  0  0  0  0  0  0  0  0  0  # atno 17342 bound_to 10162
  139.4879  144.4481  151.9687 LP  0  0  0  0  0  0  0  0  0  0  0  0  # atno 17343 bound_to 10162
  157.7267  130.9633  150.1669 LP  0  0  0  0  0  0  0  0  0  0  0  0  # atno 17370 bound_to 10713
  156.2431  130.3693  149.8315 LP  0  0  0  0  0  0  0  0  0  0  0  0  # atno 17371 bound_to 10713
  140.5394  134.6135  157.5375 LP  0  0  0  0  0  0  0  0  0  0  0  0  # atno 17394 bound_to 11000
  139.9662  134.7369  156.0134 LP  0  0  0  0  0  0  0  0  0  0  0  0  # atno 17395 bound_to 11000

$$$$
