#       Name:                AV-unprocessed.smi:104
#       Creating user name   scv26
#       Creation time:       Thu Mar 26 17:57:47 2020


#       File generated by GOLD software.
#

@<TRIPOS>MOLECULE
AV-unprocessed.smi:104
    58    60     1
SMALL
NO_CHARGES


@<TRIPOS>ATOM
      1 ****        -5.2677   1.3352   0.0548 C.3            1 S1                 0.0000
      2 ****        -4.6925  -0.0733  -0.0243 C.2            1 S1                 0.0000
      3 ****        -5.3987  -1.0653   0.1556 O.2            1 S1                 0.0000
      4 ****        -3.3796  -0.0779  -0.2994 O.3            1 S1                 0.0000
      5 ****        -2.6748  -1.3085  -0.3801 C.3            1 S1                 0.0000
      6 ****        -1.1573  -1.0936  -0.2455 C.3            1 S1                 0.0000
      7 ****        -0.6450  -0.1967  -1.2286 O.3            1 S1                 0.0000
      8 ****         0.4524   0.4892  -0.7015 C.3            1 S1                 0.0000
      9 ****         1.6303   0.3215  -1.6048 N.pl3          1 S1                 0.0000
     10 ****         2.5647   1.2582  -1.9830 C.2            1 S1                 0.0000
     11 ****         2.5136   3.0560  -1.3562 Br             1 S1                 0.0000
     12 ****         3.5144   0.8631  -2.7839 N.2            1 S1                 0.0000
     13 ****         3.2177  -0.4813  -2.9699 C.ar           1 S1                 0.0000
     14 ****         3.8214  -1.5298  -3.7093 C.ar           1 S1                 0.0000
     15 ****         4.9228  -1.3611  -4.4538 N.pl3          1 S1                 0.0000
     16 ****         3.2615  -2.7610  -3.6607 N.ar           1 S1                 0.0000
     17 ****         2.1634  -2.9577  -2.9242 C.ar           1 S1                 0.0000
     18 ****         1.4856  -2.0773  -2.1829 N.ar           1 S1                 0.0000
     19 ****         2.0480  -0.8343  -2.2342 C.ar           1 S1                 0.0000
     20 ****         0.7531  -0.1021   0.6757 C.3            1 S1                 0.0000
     21 ****         1.3166   0.8775   1.5383 O.3            1 S1                 0.0000
     22 ****         2.0591   0.5009   2.5912 C.2            1 S1                 0.0000
     23 ****         2.5624   1.6889   3.3998 C.3            1 S1                 0.0000
     24 ****         2.3226  -0.6568   2.9155 O.2            1 S1                 0.0000
     25 ****        -0.6240  -0.5885   1.1025 C.3            1 S1                 0.0000
     26 ****        -1.4227   0.4861   1.5940 O.3            1 S1                 0.0000
     27 ****        -1.7007   0.5970   2.9047 C.2            1 S1                 0.0000
     28 ****        -2.6082   1.7819   3.2077 C.3            1 S1                 0.0000
     29 ****        -1.2947  -0.1443   3.7995 O.2            1 S1                 0.0000
     30 ****        -4.4820   2.0644   0.2551 H              1 S1                 0.0000
     31 ****        -6.0056   1.3975   0.8549 H              1 S1                 0.0000
     32 ****        -5.7537   1.5971  -0.8851 H              1 S1                 0.0000
     33 ****        -3.0088  -1.9916   0.4026 H              1 S1                 0.0000
     34 ****        -2.9009  -1.7796  -1.3372 H              1 S1                 0.0000
     35 ****        -0.6802  -2.0564  -0.4327 H              1 S1                 0.0000
     36 ****         0.2312   1.5563  -0.6837 H              1 S1                 0.0000
     37 ****         5.3615  -0.4529  -4.5061 H              1 S1                 0.0000
     38 ****         5.3102  -2.1416  -4.9642 H              1 S1                 0.0000
     39 ****         1.7713  -3.9641  -2.9308 H              1 S1                 0.0000
     40 ****         1.4199  -0.9562   0.5427 H              1 S1                 0.0000
     41 ****         2.8899   2.4909   2.7377 H              1 S1                 0.0000
     42 ****         3.4036   1.3950   4.0281 H              1 S1                 0.0000
     43 ****         1.7677   2.0705   4.0410 H              1 S1                 0.0000
     44 ****        -0.5599  -1.4042   1.8239 H              1 S1                 0.0000
     45 ****        -2.7149   2.4245   2.3332 H              1 S1                 0.0000
     46 ****        -2.1948   2.3751   4.0235 H              1 S1                 0.0000
     47 ****        -3.5978   1.4315   3.5009 H              1 S1                 0.0000
     48 ****        -6.3718  -0.9562   0.3586 LP             1 S1                 0.0000
     49 ****        -4.9993  -1.9804   0.0988 LP             1 S1                 0.0000
     50 ****        -1.3557   0.4579  -1.4861 LP             1 S1                 0.0000
     51 ****        -0.3596  -0.7135  -2.0358 LP             1 S1                 0.0000
     52 ****         4.2686   1.3952  -3.1686 LP             1 S1                 0.0000
     53 ****         3.6666  -3.5187  -4.1724 LP             1 S1                 0.0000
     54 ****         0.6664  -2.3013  -1.6549 LP             1 S1                 0.0000
     55 ****         1.9720  -1.4202   2.3729 LP             1 S1                 0.0000
     56 ****         2.8873  -0.8341   3.7215 LP             1 S1                 0.0000
     57 ****        -0.6986  -0.9160   3.5775 LP             1 S1                 0.0000
     58 ****        -1.5609   0.0250   4.7484 LP             1 S1                 0.0000
@<TRIPOS>BOND
    1    1    2 1     
    2    1   30 1     
    3    1   31 1     
    4    1   32 1     
    5    2    3 2     
    6    2    4 1     
    7    4    5 1     
    8    5    6 1     
    9    5   33 1     
   10    5   34 1     
   11    6   25 1     
   12    6    7 1     
   13    6   35 1     
   14    7    8 1     
   15    8    9 1     
   16    8   20 1     
   17    8   36 1     
   18    9   19 1     
   19    9   10 1     
   20   10   11 1     
   21   10   12 2     
   22   12   13 1     
   23   13   19 ar    
   24   13   14 ar    
   25   14   15 1     
   26   14   16 ar    
   27   15   37 1     
   28   15   38 1     
   29   16   17 ar    
   30   17   18 ar    
   31   17   39 1     
   32   18   19 ar    
   33   20   21 1     
   34   20   25 1     
   35   20   40 1     
   36   21   22 1     
   37   22   23 1     
   38   22   24 2     
   39   23   41 1     
   40   23   42 1     
   41   23   43 1     
   42   25   26 1     
   43   25   44 1     
   44   26   27 1     
   45   27   28 1     
   46   27   29 2     
   47   28   45 1     
   48   28   46 1     
   49   28   47 1     
   50    3   48 1     
   51    3   49 1     
   52    7   50 1     
   53    7   51 1     
   54   12   52 1     
   55   16   53 1     
   56   18   54 1     
   57   24   55 1     
   58   24   56 1     
   59   29   57 1     
   60   29   58 1     
@<TRIPOS>SUBSTRUCTURE
      1 S1             1
@<TRIPOS>SET
LONE_PAIRS      STATIC     ATOMS    <user>   **** ""
11 48 49 50 51 52 53 54 55 56 57 58
DONOR_HYDROGENS      STATIC     ATOMS    <user>   **** ""
2 37 38
ATOM$BLUE        STATIC     ATOMS    COLORGROUP SYSTEM
11 48 49 50 51 52 53 54 55 56 57 58
ATOM$RED        STATIC     ATOMS    COLORGROUP SYSTEM
2 37 38
