#       Name:                AV-unprocessed.smi:490
#       Creating user name   scv26
#       Creation time:       Thu Mar 26 23:14:04 2020


#       File generated by GOLD software.
#

@<TRIPOS>MOLECULE
AV-unprocessed.smi:490
    56    58     1
SMALL
NO_CHARGES


@<TRIPOS>ATOM
      1 ****        -5.4959   0.9362   1.7612 C.3            1 S1                 0.0000
      2 ****        -4.7302   0.8520   0.4520 C.ar           1 S1                 0.0000
      3 ****        -5.4476   0.8807  -0.7611 C.ar           1 S1                 0.0000
      4 ****        -4.7707   0.8065  -1.9908 C.ar           1 S1                 0.0000
      5 ****        -3.3676   0.6909  -2.0207 C.ar           1 S1                 0.0000
      6 ****        -2.6492   0.6132  -3.3549 C.3            1 S1                 0.0000
      7 ****        -2.6400   0.6439  -0.8095 C.ar           1 S1                 0.0000
      8 ****        -1.2752   0.5190  -0.8537 O.3            1 S1                 0.0000
      9 ****        -0.8227  -0.8211  -0.7217 C.3            1 S1                 0.0000
     10 ****         0.7117  -0.8328  -0.7451 C.3            1 S1                 0.0000
     11 ****         1.1502  -2.1739  -0.8318 O.3            1 S1                 0.0000
     12 ****         1.3226  -0.1545   0.4982 C.3            1 S1                 0.0000
     13 ****         2.7772  -0.0982   0.4500 N.pl3          1 S1                 0.0000
     14 ****         3.5556   0.8592  -0.1145 C.2            1 S1                 0.0000
     15 ****         2.9535   2.0589  -0.7904 C.3            1 S1                 0.0000
     16 ****         3.8785   2.8207  -1.5399 O.3            1 S1                 0.0000
     17 ****         4.8727   0.6652  -0.0122 N.2            1 S1                 0.0000
     18 ****         4.9544  -0.5273   0.6794 C.ar           1 S1                 0.0000
     19 ****         6.0811  -1.2701   1.0987 C.ar           1 S1                 0.0000
     20 ****         5.9164  -2.4790   1.8061 C.ar           1 S1                 0.0000
     21 ****         4.6254  -2.9611   2.1040 C.ar           1 S1                 0.0000
     22 ****         3.4893  -2.2369   1.6942 C.ar           1 S1                 0.0000
     23 ****         3.6592  -1.0310   0.9876 C.ar           1 S1                 0.0000
     24 ****        -3.3168   0.7461   0.4323 C.ar           1 S1                 0.0000
     25 ****        -2.5302   0.7417   1.7363 C.3            1 S1                 0.0000
     26 ****        -6.5712   0.8563   1.5984 H              1 S1                 0.0000
     27 ****        -5.3013   1.8883   2.2549 H              1 S1                 0.0000
     28 ****        -5.2015   0.1290   2.4323 H              1 S1                 0.0000
     29 ****        -6.5245   0.9644  -0.7550 H              1 S1                 0.0000
     30 ****        -5.3351   0.8363  -2.9113 H              1 S1                 0.0000
     31 ****        -1.7917   1.2864  -3.3697 H              1 S1                 0.0000
     32 ****        -3.3089   0.8923  -4.1768 H              1 S1                 0.0000
     33 ****        -2.2938  -0.4014  -3.5343 H              1 S1                 0.0000
     34 ****        -1.1939  -1.2726   0.1999 H              1 S1                 0.0000
     35 ****        -1.2129  -1.4141  -1.5505 H              1 S1                 0.0000
     36 ****         1.0513  -0.3251  -1.6481 H              1 S1                 0.0000
     37 ****         0.8651  -2.6346  -0.0577 H              1 S1                 0.0000
     38 ****         0.9387   0.8603   0.6053 H              1 S1                 0.0000
     39 ****         1.0237  -0.6836   1.4038 H              1 S1                 0.0000
     40 ****         2.1573   1.7398  -1.4620 H              1 S1                 0.0000
     41 ****         2.5032   2.7013  -0.0333 H              1 S1                 0.0000
     42 ****         3.4208   3.5485  -1.9314 H              1 S1                 0.0000
     43 ****         7.0740  -0.9086   0.8752 H              1 S1                 0.0000
     44 ****         6.7848  -3.0388   2.1211 H              1 S1                 0.0000
     45 ****         4.5080  -3.8879   2.6463 H              1 S1                 0.0000
     46 ****         2.4996  -2.6057   1.9180 H              1 S1                 0.0000
     47 ****        -1.4746   0.9607   1.5798 H              1 S1                 0.0000
     48 ****        -2.6068  -0.2338   2.2167 H              1 S1                 0.0000
     49 ****        -2.9099   1.4958   2.4252 H              1 S1                 0.0000
     50 ****        -0.8839   1.0597  -0.1091 LP             1 S1                 0.0000
     51 ****        -0.9532   0.8766  -1.7303 LP             1 S1                 0.0000
     52 ****         2.1481  -2.1990  -0.8905 LP             1 S1                 0.0000
     53 ****         0.7575  -2.6050  -1.6442 LP             1 S1                 0.0000
     54 ****         4.2820   2.2515  -2.2563 LP             1 S1                 0.0000
     55 ****         4.6009   3.1611  -0.9381 LP             1 S1                 0.0000
     56 ****         5.6161   1.2410  -0.3523 LP             1 S1                 0.0000
@<TRIPOS>BOND
    1    1    2 1     
    2    1   26 1     
    3    1   27 1     
    4    1   28 1     
    5    2   24 ar    
    6    2    3 ar    
    7    3    4 ar    
    8    3   29 1     
    9    4    5 ar    
   10    4   30 1     
   11    5    6 1     
   12    5    7 ar    
   13    6   31 1     
   14    6   32 1     
   15    6   33 1     
   16    7    8 1     
   17    7   24 ar    
   18    8    9 1     
   19    9   10 1     
   20    9   34 1     
   21    9   35 1     
   22   10   11 1     
   23   10   12 1     
   24   10   36 1     
   25   11   37 1     
   26   12   13 1     
   27   12   38 1     
   28   12   39 1     
   29   13   23 1     
   30   13   14 1     
   31   14   15 1     
   32   14   17 2     
   33   15   16 1     
   34   15   40 1     
   35   15   41 1     
   36   16   42 1     
   37   17   18 1     
   38   18   23 ar    
   39   18   19 ar    
   40   19   20 ar    
   41   19   43 1     
   42   20   21 ar    
   43   20   44 1     
   44   21   22 ar    
   45   21   45 1     
   46   22   23 ar    
   47   22   46 1     
   48   24   25 1     
   49   25   47 1     
   50   25   48 1     
   51   25   49 1     
   52    8   50 1     
   53    8   51 1     
   54   11   52 1     
   55   11   53 1     
   56   16   54 1     
   57   16   55 1     
   58   17   56 1     
@<TRIPOS>SUBSTRUCTURE
      1 S1             1
@<TRIPOS>SET
LONE_PAIRS      STATIC     ATOMS    <user>   **** ""
7 50 51 52 53 54 55 56
DONOR_HYDROGENS      STATIC     ATOMS    <user>   **** ""
2 37 42
ATOM$BLUE        STATIC     ATOMS    COLORGROUP SYSTEM
7 50 51 52 53 54 55 56
ATOM$RED        STATIC     ATOMS    COLORGROUP SYSTEM
2 37 42
