AV-unprocessed.smi:1413|AV-procd|sdf|5751|dock2
  -GOLD-   22720 5383D 1   1.00000     0.00000
 Structure written by MMmdl.
 53 55  0  0  0  0  0  0  0  0  1 V2000
  151.2266  144.5825  158.6296 C   0  0  0  0  0  0  0  0  0  0  0  0
  152.0671  143.3134  158.4555 C   0  0  2  0  0  0  0  0  0  0  0  0
  151.2717  142.1835  157.7743 C   0  0  0  0  0  0  0  0  0  0  0  0
  152.0591  140.9546  157.7376 N   0  0  0  0  0  0  0  0  0  0  0  0
  151.5536  139.9350  156.9028 C   0  0  0  0  0  0  0  0  0  0  0  0
  151.2773  140.2037  155.5415 C   0  0  0  0  0  0  0  0  0  0  0  0
  150.7755  139.1735  154.7231 C   0  0  0  0  0  0  0  0  0  0  0  0
  150.5682  137.8929  155.2852 C   0  0  0  0  0  0  0  0  0  0  0  0
  150.0489  136.7821  154.5680 N   0  0  0  0  0  0  0  0  0  0  0  0
  149.9684  135.5011  154.9655 C   0  0  0  0  0  0  0  0  0  0  0  0
  150.3349  135.0739  156.0601 O   0  0  0  0  0  0  0  0  0  0  0  0
  149.4137  134.7356  154.0145 N   0  0  0  0  0  0  0  0  0  0  0  0
  149.1277  133.3043  154.1166 C   0  0  1  0  0  0  0  0  0  0  0  0
  148.2755  132.8720  152.9147 C   0  0  0  0  0  0  0  0  0  0  0  0
  150.4292  132.4820  154.2213 C   0  0  2  0  0  0  0  0  0  0  0  0
  150.2636  130.9567  154.1453 C   0  0  0  0  0  0  0  0  0  0  0  0
  151.2933  130.4165  155.1288 C   0  0  0  0  0  0  0  0  0  0  0  0
  152.0320  131.6599  155.6184 C   0  0  0  0  0  0  0  0  0  0  0  0
  151.0783  132.6977  155.4672 O   0  0  0  0  0  0  0  0  0  0  0  0
  150.8594  137.7247  156.6532 C   0  0  0  0  0  0  0  0  0  0  0  0
  151.3448  138.7078  157.4396 N   0  0  0  0  0  0  0  0  0  0  0  0
  152.5897  140.5697  159.0436 C   0  0  0  0  0  0  0  0  0  0  0  0
  153.3527  141.7456  159.6813 C   0  0  2  0  0  0  0  0  0  0  0  0
  153.8291  141.4215  161.1009 C   0  0  0  0  0  0  0  0  0  0  0  0
  152.4921  142.8795  159.7450 O   0  0  0  0  0  0  0  0  0  0  0  0
  150.8843  144.9613  157.6663 H   0  0  0  0  0  0  0  0  0  0  0  0
  151.8061  145.3712  159.1101 H   0  0  0  0  0  0  0  0  0  0  0  0
  150.3479  144.3917  159.2463 H   0  0  0  0  0  0  0  0  0  0  0  0
  152.9442  143.5586  157.8539 H   0  0  0  0  0  0  0  0  0  0  0  0
  150.3488  141.9901  158.3227 H   0  0  0  0  0  0  0  0  0  0  0  0
  150.9833  142.5034  156.7738 H   0  0  0  0  0  0  0  0  0  0  0  0
  151.4540  141.1800  155.1153 H   0  0  0  0  0  0  0  0  0  0  0  0
  150.5505  139.3872  153.6897 H   0  0  0  0  0  0  0  0  0  0  0  0
  149.6244  136.9993  153.6782 H   0  0  0  0  0  0  0  0  0  0  0  0
  149.1546  135.1801  153.1460 H   0  0  0  0  0  0  0  0  0  0  0  0
  148.5375  133.1041  155.0124 H   0  0  0  0  0  0  0  0  0  0  0  0
  148.0174  131.8146  152.9776 H   0  0  0  0  0  0  0  0  0  0  0  0
  148.8039  133.0299  151.9738 H   0  0  0  0  0  0  0  0  0  0  0  0
  147.3428  133.4354  152.8710 H   0  0  0  0  0  0  0  0  0  0  0  0
  151.1165  132.7918  153.4314 H   0  0  0  0  0  0  0  0  0  0  0  0
  149.2670  130.6313  154.4424 H   0  0  0  0  0  0  0  0  0  0  0  0
  150.4347  130.5945  153.1312 H   0  0  0  0  0  0  0  0  0  0  0  0
  150.7862  129.9296  155.9628 H   0  0  0  0  0  0  0  0  0  0  0  0
  151.9686  129.6899  154.6762 H   0  0  0  0  0  0  0  0  0  0  0  0
  152.3698  131.5707  156.6509 H   0  0  0  0  0  0  0  0  0  0  0  0
  152.8993  131.8690  154.9901 H   0  0  0  0  0  0  0  0  0  0  0  0
  150.7063  136.7690  157.1331 H   0  0  0  0  0  0  0  0  0  0  0  0
  151.7670  140.2596  159.6896 H   0  0  0  0  0  0  0  0  0  0  0  0
  153.2612  139.7166  158.9374 H   0  0  0  0  0  0  0  0  0  0  0  0
  154.2243  141.9919  159.0719 H   0  0  0  0  0  0  0  0  0  0  0  0
  154.5010  140.5629  161.1021 H   0  0  0  0  0  0  0  0  0  0  0  0
  152.9891  141.1905  161.7565 H   0  0  0  0  0  0  0  0  0  0  0  0
  154.3673  142.2654  161.5333 H   0  0  0  0  0  0  0  0  0  0  0  0
  1  2  1  0  0  0  0
  1 26  1  0  0  0  0
  1 27  1  0  0  0  0
  1 28  1  0  0  0  0
  2 25  1  0  0  0  0
  2  3  1  0  0  0  0
  2 29  1  0  0  0  0
  3  4  1  0  0  0  0
  3 30  1  0  0  0  0
  3 31  1  0  0  0  0
  4  5  1  0  0  0  0
  4 22  1  0  0  0  0
  5 21  1  0  0  0  0
  5  6  2  0  0  0  0
  6  7  1  0  0  0  0
  6 32  1  0  0  0  0
  7  8  2  0  0  0  0
  7 33  1  0  0  0  0
  8  9  1  0  0  0  0
  8 20  1  0  0  0  0
  9 10  1  0  0  0  0
  9 34  1  0  0  0  0
 10 11  2  0  0  0  0
 10 12  1  0  0  0  0
 12 13  1  0  0  0  0
 12 35  1  0  0  0  0
 13 14  1  0  0  0  0
 13 15  1  0  0  0  0
 13 36  1  0  0  0  0
 14 37  1  0  0  0  0
 14 38  1  0  0  0  0
 14 39  1  0  0  0  0
 15 19  1  0  0  0  0
 15 16  1  0  0  0  0
 15 40  1  0  0  0  0
 16 17  1  0  0  0  0
 16 41  1  0  0  0  0
 16 42  1  0  0  0  0
 17 18  1  0  0  0  0
 17 43  1  0  0  0  0
 17 44  1  0  0  0  0
 18 19  1  0  0  0  0
 18 45  1  0  0  0  0
 18 46  1  0  0  0  0
 20 21  2  0  0  0  0
 20 47  1  0  0  0  0
 22 23  1  0  0  0  0
 22 48  1  0  0  0  0
 22 49  1  0  0  0  0
 23 24  1  0  0  0  0
 23 25  1  0  0  0  0
 23 50  1  0  0  0  0
 24 51  1  0  0  0  0
 24 52  1  0  0  0  0
 24 53  1  0  0  0  0
M  END
> <s_m_source_file>
AV-unprocessed.smi

> <i_m_source_file_index>
1413

> <i_lp_mmshare_version>
43012

> <i_f3d_flags>
0

> <s_epik_input>
W0NIM11bQ0BASF0xW0NIMl1OKFtDSDJdW0NASF0oTzEpW0NIM10pYzJbY0hdW2NIXWMoW2NIXW4yKVtOSF1DKD1PKVtOSF1bQ0BIXShbQ0gzXSlbQ0BASF0zW0NIMl1bQ0gyXVtDSDJdTzM=

> <s_epik_cmdline>
J2VwaWtfcHl0aG9uJywgJy1waCcsICc3LjAnLCAnLXRuJywgJzgnLCAnLW1hJywgJzIwMCcsICctbWV0YWxfYmluZGluZycsICctaW1hZScsICc8aW5maWxlLm1hZT4nLCAnLW9tYWUnLCAnPG91dGZpbGUubWFlPic=

> <r_lp_tautomer_probability>
1

> <r_epik_Ionization_Penalty>
0.00271172

> <r_epik_Ionization_Penalty_Charging>
0

> <r_epik_Ionization_Penalty_Neutral>
0.00271172

> <r_epik_State_Penalty>
0.00186503

> <r_epik_Charging_Adjusted_Penalty>
0.00186503

> <i_epik_Tot_Q>
0

> <i_epik_Tot_abs_Q>
0

> <r_epik_Metal_State_Penalty>
-0

> <b_epik_Metal_Only>
0

> <s_lp_Force_Field>
OPLS_2005

> <r_lp_Energy>
35.2684

> <b_lp_Chiralities_Consistent>
1

> <s_lp_Variant>
AV-unprocessed.smi:1413-4

> <Gold.Version>
5.8.1

> <Gold.Id.Protein>
6NUR|6NUR_protein|mol2

> <Gold.PLP.Fitness>
51.2908

> <Gold.PLP.PLP>
-45.9759

> <Gold.PLP.part.hbond>
-2.0000

> <Gold.PLP.part.metal>
0.0000

> <Gold.PLP.part.buried>
-4.9725

> <Gold.PLP.part.nonpolar>
-38.5125

> <Gold.PLP.part.repulsive>
0.0747

> <Gold.PLP.ligand.clash>
0.0000

> <Gold.PLP.ligand.torsion>
0.3575

> <Gold.PLP.Chemscore.Hbond>
1.8892

> <Gold.PLP.Chemscore.CHOScore>
0.0000

> <Gold.PLP.Chemscore.Metal>
0.0000

> <Gold.Chemscore.Hbonds>
donor molecule, donor type, donor heavy atom, donor atom, acceptor molecule, acceptor atom, score
      L1  H     9    34       P1  7948  0.86
      L1  H    12    35       P1  7948  0.85

> <Gold.PLP.Chemscore.Internal.Correction>
0.3623

> <Gold.Rescore>
     Score         DG    S(hbond)    S(metal)    S(lipo)     H(rot)  DE(clash)    DE(int)     intcor
     17.00     -20.58       1.68        0.00     110.49       1.35       0.05       3.52       ----

> <Gold.Chemscore.Fitness>
17.0014

> <Gold.Chemscore.DG>
-20.5773

> <Gold.Chemscore.ZeroCoef>
-5.4800

> <Gold.Chemscore.Hbond>
1.6821

> <Gold.Chemscore.Metal>
0.0000

> <Gold.Chemscore.Lipo>
110.4928

> <Gold.Chemscore.Internal_Hbond>
0.0000

> <Gold.Chemscore.DEClash>
0.0525

> <Gold.Chemscore.DEInternal>
3.5233

> <Gold.Chemscore.Rot>
1.3471

> <Gold.Chemscore.Internal.Correction>
   9.000000E+99

> <Gold.Chemscore.Hbonds>
donor molecule, donor type, donor heavy atom, donor atom, acceptor molecule, acceptor atom, score
      L1  H     9    34       P1  7948  0.62
      L1  H    12    35       P1  7948  0.15

> <Gold.Chemscore.Hbond.Weighted>
-5.6181

> <Gold.Chemscore.Metal.Weighted>
-0.0000

> <Gold.Chemscore.Lipo.Weighted>
-12.9277

> <Gold.Chemscore.Internal_Hbond.Weighted>
0.0000

> <Gold.Chemscore.DEClash.Weighted>
0.0525

> <Gold.Chemscore.DEInternal.Weighted>
3.5233

> <Gold.Chemscore.Rot.Weighted>
3.4485

> <Gold.Chemscore.Internal.Correction.Weighted>
   9.000000E+99

> <Gold.Protein.RotatedTorsions>
[ 6907 6896 6895 6894 ] final  140.94 input  -60.11 | X-H torsion
[ 7974 7965 7964 7962 ] final  133.90 input  175.53 | X-H torsion
[ 8008 7997 7996 7995 ] final   30.55 input   59.86 | X-H torsion
[ 10167 10162 10161 10158 ] final   69.76 input  -65.29 | X-H torsion
[ 10718 10713 10712 10709 ] final  -33.14 input   66.30 | X-H torsion
[ 10763 10752 10751 10750 ] final   79.99 input  -60.55 | X-H torsion
[ 11005 11000 10999 10996 ] final  -80.26 input  -57.11 | X-H torsion

> <Gold.Protein.ActiveResidues>
 VAL166  LYS551  ARG553  GLY616  TRP617  ASP618  TYR619  PRO620  LYS621  CYS622 
 ASP623  PHE694  ASN695  SER759  ASP760  ASP761  ALA762  ILE779  LEU786  VAL792 
 PHE793  MET794  SER795  GLU796  ALA797  LYS798  CYS799  TRP800  GLU811  SER814 

> <Gold.Protein.RotatedAtoms>
  152.2370  133.5104  159.5247 H   0  0  0  0  0  0  0  0  0  0  0  0  # atno 6907 bound_to 6896
  150.7053  134.1140  159.4019 H   0  0  0  0  0  0  0  0  0  0  0  0  # atno 6908 bound_to 6896
  151.9061  135.0358  160.0561 H   0  0  0  0  0  0  0  0  0  0  0  0  # atno 6909 bound_to 6896
  144.9819  139.4496  143.5382 H   0  0  0  0  0  0  0  0  0  0  0  0  # atno 7974 bound_to 7965
  155.0923  140.3221  155.4570 H   0  0  0  0  0  0  0  0  0  0  0  0  # atno 8008 bound_to 7997
  156.2739  140.2076  156.5996 H   0  0  0  0  0  0  0  0  0  0  0  0  # atno 8009 bound_to 7997
  154.6894  140.0518  157.0335 H   0  0  0  0  0  0  0  0  0  0  0  0  # atno 8010 bound_to 7997
  140.0643  144.5206  150.7272 H   0  0  0  0  0  0  0  0  0  0  0  0  # atno 10167 bound_to 10162
  156.3663  130.4332  149.7582 H   0  0  0  0  0  0  0  0  0  0  0  0  # atno 10718 bound_to 10713
  153.0997  135.4819  154.8843 H   0  0  0  0  0  0  0  0  0  0  0  0  # atno 10763 bound_to 10752
  154.7364  135.3072  154.8806 H   0  0  0  0  0  0  0  0  0  0  0  0  # atno 10764 bound_to 10752
  153.9426  135.6832  153.4797 H   0  0  0  0  0  0  0  0  0  0  0  0  # atno 10765 bound_to 10752
  141.1668  133.7142  156.8246 H   0  0  0  0  0  0  0  0  0  0  0  0  # atno 11005 bound_to 11000
  146.3410  139.9096  142.8782 LP  0  0  0  0  0  0  0  0  0  0  0  0  # atno 17320 bound_to 7965
  145.2409  141.0009  143.3936 LP  0  0  0  0  0  0  0  0  0  0  0  0  # atno 17321 bound_to 7965
  140.7156  143.2542  151.4443 LP  0  0  0  0  0  0  0  0  0  0  0  0  # atno 17342 bound_to 10162
  139.5874  144.1574  152.2046 LP  0  0  0  0  0  0  0  0  0  0  0  0  # atno 17343 bound_to 10162
  156.4727  130.8004  151.3021 LP  0  0  0  0  0  0  0  0  0  0  0  0  # atno 17370 bound_to 10713
  157.7479  131.0031  150.3024 LP  0  0  0  0  0  0  0  0  0  0  0  0  # atno 17371 bound_to 10713
  140.2095  134.8838  157.3258 LP  0  0  0  0  0  0  0  0  0  0  0  0  # atno 17394 bound_to 11000
  140.2102  134.4148  155.7617 LP  0  0  0  0  0  0  0  0  0  0  0  0  # atno 17395 bound_to 11000

$$$$
