AV-unprocessed.smi:1760|AV-procd|sdf|7090|dock2
  -GOLD-   22720 8303D 1   1.00000     0.00000
 Structure written by MMmdl.
 44 46  0  0  0  0  0  0  0  0  2 V2000
  145.9275  135.4129  155.9168 O   0  0  0  0  0  0  0  0  0  0  0  0
  145.2179  134.4108  155.8338 C   0  0  0  0  0  0  0  0  0  0  0  0
  144.6765  133.7414  156.8681 N   0  0  0  0  0  0  0  0  0  0  0  0
  144.7938  133.9869  158.2467 C   0  0  0  0  0  0  0  0  0  0  0  0
  145.9269  134.4053  158.8690 C   0  0  0  0  0  0  0  0  0  0  0  0
  145.9800  134.6330  160.3036 C   0  0  0  0  0  0  0  0  0  0  0  0
  147.2274  135.1848  160.9763 C   0  0  0  0  0  0  0  0  0  0  0  0
  148.2032  135.3923  160.0911 F   0  0  0  0  0  0  0  0  0  0  0  0
  146.9475  136.3467  161.5649 F   0  0  0  0  0  0  0  0  0  0  0  0
  147.6795  134.3457  161.9083 F   0  0  0  0  0  0  0  0  0  0  0  0
  144.8430  134.4123  160.9889 C   0  0  0  0  0  0  0  0  0  0  0  0
  143.6813  133.9583  160.3606 N   0  0  0  0  0  0  0  0  0  0  0  0
  143.5759  133.7283  159.0326 C   0  0  0  0  0  0  0  0  0  0  0  0
  142.5147  133.3301  158.5533 O   0  0  0  0  0  0  0  0  0  0  0  0
  144.8615  133.8529  154.6674 N   0  0  0  0  0  0  0  0  0  0  0  0
  145.2328  134.3348  153.3393 C   0  0  2  0  0  0  0  0  0  0  0  0
  143.9679  134.6144  152.5108 C   0  0  0  0  0  0  0  0  0  0  0  0
  144.3258  135.0205  151.0686 C   0  0  0  0  0  0  0  0  0  0  0  0
  145.1868  134.0105  150.4009 N   0  3  2  0  0  0  0  0  0  0  0  0
  144.4523  132.7883  149.9971 C   0  0  0  0  0  0  0  0  0  0  0  0
  145.0282  132.1106  148.7757 C   0  0  0  0  0  0  0  0  0  0  0  0
  143.7523  132.9151  148.6642 C   0  0  0  0  0  0  0  0  0  0  0  0
  146.4205  133.7261  151.1786 C   0  0  0  0  0  0  0  0  0  0  0  0
  146.1088  133.2927  152.6239 C   0  0  0  0  0  0  0  0  0  0  0  0
  142.8746  133.7984  160.9469 H   0  0  0  0  0  0  0  0  0  0  0  0
  144.0603  132.9768  156.6331 H   0  0  0  0  0  0  0  0  0  0  0  0
  146.8382  134.5643  158.3164 H   0  0  0  0  0  0  0  0  0  0  0  0
  144.7329  134.5694  162.0518 H   0  0  0  0  0  0  0  0  0  0  0  0
  144.2736  133.0328  154.7017 H   0  0  0  0  0  0  0  0  0  0  0  0
  145.8009  135.2640  153.4138 H   0  0  0  0  0  0  0  0  0  0  0  0
  143.3268  133.7320  152.4976 H   0  0  0  0  0  0  0  0  0  0  0  0
  143.3844  135.4077  152.9797 H   0  0  0  0  0  0  0  0  0  0  0  0
  143.4205  135.1846  150.4832 H   0  0  0  0  0  0  0  0  0  0  0  0
  144.8591  135.9719  151.0816 H   0  0  0  0  0  0  0  0  0  0  0  0
  144.0086  132.1949  150.7939 H   0  0  0  0  0  0  0  0  0  0  0  0
  145.9273  132.5303  148.3279 H   0  0  0  0  0  0  0  0  0  0  0  0
  144.9411  131.0277  148.7149 H   0  0  0  0  0  0  0  0  0  0  0  0
  142.8247  132.3623  148.5301 H   0  0  0  0  0  0  0  0  0  0  0  0
  143.8042  133.8689  148.1420 H   0  0  0  0  0  0  0  0  0  0  0  0
  147.0133  132.9640  150.6717 H   0  0  0  0  0  0  0  0  0  0  0  0
  147.0320  134.6293  151.1947 H   0  0  0  0  0  0  0  0  0  0  0  0
  147.0409  133.1516  153.1722 H   0  0  0  0  0  0  0  0  0  0  0  0
  145.6086  132.3234  152.6190 H   0  0  0  0  0  0  0  0  0  0  0  0
  145.4930  134.4325  149.5357 H   0  0  0  0  0  0  0  0  0  0  0  0
  1  2  2  0  0  0  0
  2  3  1  0  0  0  0
  2 15  1  0  0  0  0
  3  4  1  0  0  0  0
  3 26  1  0  0  0  0
  4 13  1  0  0  0  0
  4  5  2  0  0  0  0
  5  6  1  0  0  0  0
  5 27  1  0  0  0  0
  6  7  1  0  0  0  0
  6 11  2  0  0  0  0
  7  8  1  0  0  0  0
  7  9  1  0  0  0  0
  7 10  1  0  0  0  0
 11 12  1  0  0  0  0
 11 28  1  0  0  0  0
 12 25  1  0  0  0  0
 12 13  1  0  0  0  0
 13 14  2  0  0  0  0
 15 16  1  0  0  0  0
 15 29  1  0  0  0  0
 16 24  1  0  0  0  0
 16 17  1  0  0  0  0
 16 30  1  0  0  0  0
 17 18  1  0  0  0  0
 17 31  1  0  0  0  0
 17 32  1  0  0  0  0
 18 19  1  0  0  0  0
 18 33  1  0  0  0  0
 18 34  1  0  0  0  0
 19 20  1  0  0  0  0
 19 23  1  0  0  0  0
 19 44  1  0  0  0  0
 20 22  1  0  0  0  0
 20 21  1  0  0  0  0
 20 35  1  0  0  0  0
 21 22  1  0  0  0  0
 21 36  1  0  0  0  0
 21 37  1  0  0  0  0
 22 38  1  0  0  0  0
 22 39  1  0  0  0  0
 23 24  1  0  0  0  0
 23 40  1  0  0  0  0
 23 41  1  0  0  0  0
 24 42  1  0  0  0  0
 24 43  1  0  0  0  0
M  CHG  1  19   1
M  END
> <s_m_source_file>
AV-unprocessed.smi

> <i_m_source_file_index>
1760

> <i_lp_mmshare_version>
43012

> <i_f3d_flags>
0

> <s_epik_input>
W0NIMl0xW0NIMl1bQ0hdMU4oW0NIMl1bQ0gyXTIpW0NIMl1bQ0gyXVtDSF0yW05IXUMoPU8pW05IXWMzW2NIXWMoQyhGKShGKUYpW2NIXVtuSF1jMz1P

> <s_epik_cmdline>
J2VwaWtfcHl0aG9uJywgJy1waCcsICc3LjAnLCAnLXRuJywgJzgnLCAnLW1hJywgJzIwMCcsICctbWV0YWxfYmluZGluZycsICctaW1hZScsICc8aW5maWxlLm1hZT4nLCAnLW9tYWUnLCAnPG91dGZpbGUubWFlPic=

> <r_lp_tautomer_probability>
0.999

> <r_epik_Ionization_Penalty>
0.131122

> <r_epik_Ionization_Penalty_Charging>
0.131104

> <r_epik_Ionization_Penalty_Neutral>
1.84439e-05

> <r_epik_State_Penalty>
0.116042

> <r_epik_Charging_Adjusted_Penalty>
0.247146

> <i_epik_Tot_Q>
1

> <i_epik_Tot_abs_Q>
1

> <r_epik_Metal_State_Penalty>
0.492282

> <b_epik_Metal_Only>
0

> <s_lp_Force_Field>
OPLS_2005

> <r_lp_Energy>
39.2626

> <b_lp_Chiralities_Consistent>
1

> <s_lp_Variant>
AV-unprocessed.smi:1760-2

> <Gold.Version>
5.8.1

> <Gold.Id.Protein>
6NUR|6NUR_protein|mol2

> <Gold.PLP.Fitness>
38.6763

> <Gold.PLP.PLP>
-30.3973

> <Gold.PLP.part.hbond>
-2.9970

> <Gold.PLP.part.metal>
0.0000

> <Gold.PLP.part.buried>
-2.2234

> <Gold.PLP.part.nonpolar>
-24.7080

> <Gold.PLP.part.repulsive>
0.1085

> <Gold.PLP.ligand.clash>
0.0000

> <Gold.PLP.ligand.torsion>
0.9386

> <Gold.PLP.Chemscore.Hbond>
2.9500

> <Gold.PLP.Chemscore.CHOScore>
0.0000

> <Gold.PLP.Chemscore.Metal>
0.0000

> <Gold.Chemscore.Hbonds>
donor molecule, donor type, donor heavy atom, donor atom, acceptor molecule, acceptor atom, score
      L1  H    15    29       P1 10957  0.98
      L1  H    19    44       P1  7921  0.98
      P1  H 11000 11005       L1    14  1.00

> <Gold.PLP.Chemscore.Internal.Correction>
1.3061

> <Gold.Rescore>
     Score         DG    S(hbond)    S(metal)    S(lipo)     H(rot)  DE(clash)    DE(int)     intcor
     20.60     -22.39       3.42        0.00      75.06       1.29       0.79       1.01       ----

> <Gold.Chemscore.Fitness>
20.5998

> <Gold.Chemscore.DG>
-22.3943

> <Gold.Chemscore.ZeroCoef>
-5.4800

> <Gold.Chemscore.Hbond>
3.4217

> <Gold.Chemscore.Metal>
0.0000

> <Gold.Chemscore.Lipo>
75.0573

> <Gold.Chemscore.Internal_Hbond>
0.0000

> <Gold.Chemscore.DEClash>
0.7866

> <Gold.Chemscore.DEInternal>
1.0079

> <Gold.Chemscore.Rot>
1.2875

> <Gold.Chemscore.Internal.Correction>
   9.000000E+99

> <Gold.Chemscore.Hbonds>
donor molecule, donor type, donor heavy atom, donor atom, acceptor molecule, acceptor atom, score
      L1  H    15    29       P1 10957  0.91
      L1  H    19    44       P1  7921  0.85
      P1  H 11000 11005       L1    14  0.93

> <Gold.Chemscore.Hbond.Weighted>
-11.4286

> <Gold.Chemscore.Metal.Weighted>
-0.0000

> <Gold.Chemscore.Lipo.Weighted>
-8.7817

> <Gold.Chemscore.Internal_Hbond.Weighted>
0.0000

> <Gold.Chemscore.DEClash.Weighted>
0.7866

> <Gold.Chemscore.DEInternal.Weighted>
1.0079

> <Gold.Chemscore.Rot.Weighted>
3.2960

> <Gold.Chemscore.Internal.Correction.Weighted>
   9.000000E+99

> <Gold.Protein.RotatedTorsions>
[ 6907 6896 6895 6894 ] final  -24.92 input  -60.11 | X-H torsion
[ 7974 7965 7964 7962 ] final  -29.54 input  175.53 | X-H torsion
[ 8008 7997 7996 7995 ] final  137.67 input   59.86 | X-H torsion
[ 10167 10162 10161 10158 ] final -115.27 input  -65.29 | X-H torsion
[ 10718 10713 10712 10709 ] final  -62.68 input   66.30 | X-H torsion
[ 10763 10752 10751 10750 ] final   64.39 input  -60.55 | X-H torsion
[ 11005 11000 10999 10996 ] final -128.86 input  -57.11 | X-H torsion

> <Gold.Protein.ActiveResidues>
 VAL166  LYS551  ARG553  GLY616  TRP617  ASP618  TYR619  PRO620  LYS621  CYS622 
 ASP623  PHE694  ASN695  SER759  ASP760  ASP761  ALA762  ILE779  LEU786  VAL792 
 PHE793  MET794  SER795  GLU796  ALA797  LYS798  CYS799  TRP800  GLU811  SER814 

> <Gold.Protein.RotatedAtoms>
  151.1826  135.0367  159.8798 H   0  0  0  0  0  0  0  0  0  0  0  0  # atno 6907 bound_to 6896
  152.5444  134.1046  159.8342 H   0  0  0  0  0  0  0  0  0  0  0  0  # atno 6908 bound_to 6896
  151.1165  133.5088  159.2636 H   0  0  0  0  0  0  0  0  0  0  0  0  # atno 6909 bound_to 6896
  146.1209  140.5425  142.8736 H   0  0  0  0  0  0  0  0  0  0  0  0  # atno 7974 bound_to 7965
  156.3001  140.2413  156.3948 H   0  0  0  0  0  0  0  0  0  0  0  0  # atno 8008 bound_to 7997
  154.8581  140.0421  157.1667 H   0  0  0  0  0  0  0  0  0  0  0  0  # atno 8009 bound_to 7997
  154.8926  140.2965  155.5366 H   0  0  0  0  0  0  0  0  0  0  0  0  # atno 8010 bound_to 7997
  140.0919  143.4692  152.1865 H   0  0  0  0  0  0  0  0  0  0  0  0  # atno 10167 bound_to 10162
  156.0839  130.4212  150.1169 H   0  0  0  0  0  0  0  0  0  0  0  0  # atno 10718 bound_to 10713
  153.0054  135.5395  154.6502 H   0  0  0  0  0  0  0  0  0  0  0  0  # atno 10763 bound_to 10752
  154.5736  135.2844  155.0805 H   0  0  0  0  0  0  0  0  0  0  0  0  # atno 10764 bound_to 10752
  154.1961  135.6492  153.5126 H   0  0  0  0  0  0  0  0  0  0  0  0  # atno 10765 bound_to 10752
  140.9481  134.1103  157.4088 H   0  0  0  0  0  0  0  0  0  0  0  0  # atno 11005 bound_to 11000
  144.7596  140.5390  143.6745 LP  0  0  0  0  0  0  0  0  0  0  0  0  # atno 17320 bound_to 7965
  145.5468  139.1476  143.3416 LP  0  0  0  0  0  0  0  0  0  0  0  0  # atno 17321 bound_to 7965
  139.5720  144.7467  151.3866 LP  0  0  0  0  0  0  0  0  0  0  0  0  # atno 17342 bound_to 10162
  140.7024  143.7599  150.7425 LP  0  0  0  0  0  0  0  0  0  0  0  0  # atno 17343 bound_to 10162
  156.9195  130.9678  151.3551 LP  0  0  0  0  0  0  0  0  0  0  0  0  # atno 17370 bound_to 10713
  157.5967  130.8482  149.8739 LP  0  0  0  0  0  0  0  0  0  0  0  0  # atno 17371 bound_to 10713
  139.8839  135.0057  156.6333 LP  0  0  0  0  0  0  0  0  0  0  0  0  # atno 17394 bound_to 11000
  140.7641  133.8793  155.8441 LP  0  0  0  0  0  0  0  0  0  0  0  0  # atno 17395 bound_to 11000

$$$$
