AV-unprocessed.smi:1448|AV-procd|sdf|5894|dock6
  -GOLD-   22720 5573D 1   1.00000     0.00000
 Structure written by MMmdl.
 49 50  0  0  0  0  0  0  0  0  2 V2000
  143.2382  132.3985  149.1342 C   0  0  0  0  0  0  0  0  0  0  0  0
  144.3008  132.9429  150.0428 C   0  0  0  0  0  0  0  0  0  0  0  0
  144.4872  134.2908  150.4668 C   0  0  0  0  0  0  0  0  0  0  0  0
  145.5893  134.2035  151.2728 C   0  0  0  0  0  0  0  0  0  0  0  0
  146.2265  135.1884  151.9602 N   0  0  0  0  0  0  0  0  0  0  0  0
  145.6946  136.1497  152.7347 C   0  0  0  0  0  0  0  0  0  0  0  0
  144.4954  136.2958  152.9695 O   0  0  0  0  0  0  0  0  0  0  0  0
  146.6444  136.9616  153.2212 N   0  0  0  0  0  0  0  0  0  0  0  0
  146.4256  138.1099  154.1022 C   0  0  0  0  0  0  0  0  0  0  0  0
  147.7366  138.8861  154.4537 C   0  0  0  0  0  0  0  0  0  0  0  0
  148.9108  137.9689  154.1949 N   0  3  0  0  0  0  0  0  0  0  0  0
  149.0165  136.7613  155.0534 C   0  0  0  0  0  0  0  0  0  0  0  0
  150.2333  138.6407  154.0940 C   0  0  0  0  0  0  0  0  0  0  0  0
  147.8422  140.1771  153.5854 C   0  0  0  0  0  0  0  0  0  0  0  0
  146.7641  141.2347  153.8952 C   0  0  0  0  0  0  0  0  0  0  0  0
  146.7364  141.6064  155.3836 C   0  0  0  0  0  0  0  0  0  0  0  0
  146.5809  140.3606  156.2649 C   0  0  0  0  0  0  0  0  0  0  0  0
  147.6829  139.3317  155.9540 C   0  0  0  0  0  0  0  0  0  0  0  0
  146.0088  132.8924  151.3123 N   0  0  0  0  0  0  0  0  0  0  0  0
  147.1247  132.3034  152.0266 C   0  0  0  0  0  0  0  0  0  0  0  0
  145.2097  132.1168  150.5484 N   0  0  0  0  0  0  0  0  0  0  0  0
  142.5420  133.1798  148.8291 H   0  0  0  0  0  0  0  0  0  0  0  0
  142.6616  131.6159  149.6282 H   0  0  0  0  0  0  0  0  0  0  0  0
  143.6749  131.9725  148.2306 H   0  0  0  0  0  0  0  0  0  0  0  0
  143.8975  135.1581  150.2115 H   0  0  0  0  0  0  0  0  0  0  0  0
  147.2305  135.2021  151.8568 H   0  0  0  0  0  0  0  0  0  0  0  0
  147.6034  136.7621  152.9753 H   0  0  0  0  0  0  0  0  0  0  0  0
  145.6740  138.7727  153.6737 H   0  0  0  0  0  0  0  0  0  0  0  0
  145.9475  137.7182  154.9975 H   0  0  0  0  0  0  0  0  0  0  0  0
  149.0484  137.0261  156.1107 H   0  0  0  0  0  0  0  0  0  0  0  0
  149.9242  136.2020  154.8235 H   0  0  0  0  0  0  0  0  0  0  0  0
  148.1890  136.0730  154.8839 H   0  0  0  0  0  0  0  0  0  0  0  0
  150.5989  138.9496  155.0739 H   0  0  0  0  0  0  0  0  0  0  0  0
  150.2131  139.5161  153.4476 H   0  0  0  0  0  0  0  0  0  0  0  0
  150.9690  137.9560  153.6707 H   0  0  0  0  0  0  0  0  0  0  0  0
  148.8205  140.6362  153.7326 H   0  0  0  0  0  0  0  0  0  0  0  0
  147.7781  139.9370  152.5241 H   0  0  0  0  0  0  0  0  0  0  0  0
  146.9512  142.1298  153.3012 H   0  0  0  0  0  0  0  0  0  0  0  0
  145.7825  140.8747  153.5873 H   0  0  0  0  0  0  0  0  0  0  0  0
  147.6596  142.1251  155.6453 H   0  0  0  0  0  0  0  0  0  0  0  0
  145.9237  142.3069  155.5784 H   0  0  0  0  0  0  0  0  0  0  0  0
  146.6394  140.6513  157.3143 H   0  0  0  0  0  0  0  0  0  0  0  0
  145.5908  139.9252  156.1334 H   0  0  0  0  0  0  0  0  0  0  0  0
  147.5776  138.4696  156.6133 H   0  0  0  0  0  0  0  0  0  0  0  0
  148.6152  139.8166  156.2421 H   0  0  0  0  0  0  0  0  0  0  0  0
  148.0456  132.8226  151.7607 H   0  0  0  0  0  0  0  0  0  0  0  0
  147.2296  131.2477  151.7730 H   0  0  0  0  0  0  0  0  0  0  0  0
  146.9606  132.3948  153.1005 H   0  0  0  0  0  0  0  0  0  0  0  0
  148.7389  137.6028  153.2692 H   0  0  0  0  0  0  0  0  0  0  0  0
  1  2  1  0  0  0  0
  1 22  1  0  0  0  0
  1 23  1  0  0  0  0
  1 24  1  0  0  0  0
  2 21  2  0  0  0  0
  2  3  1  0  0  0  0
  3  4  2  0  0  0  0
  3 25  1  0  0  0  0
  4  5  1  0  0  0  0
  4 19  1  0  0  0  0
  5  6  1  0  0  0  0
  5 26  1  0  0  0  0
  6  7  2  0  0  0  0
  6  8  1  0  0  0  0
  8  9  1  0  0  0  0
  8 27  1  0  0  0  0
  9 10  1  0  0  0  0
  9 28  1  0  0  0  0
  9 29  1  0  0  0  0
 10 18  1  0  0  0  0
 10 11  1  0  0  0  0
 10 14  1  0  0  0  0
 11 12  1  0  0  0  0
 11 13  1  0  0  0  0
 11 49  1  0  0  0  0
 12 30  1  0  0  0  0
 12 31  1  0  0  0  0
 12 32  1  0  0  0  0
 13 33  1  0  0  0  0
 13 34  1  0  0  0  0
 13 35  1  0  0  0  0
 14 15  1  0  0  0  0
 14 36  1  0  0  0  0
 14 37  1  0  0  0  0
 15 16  1  0  0  0  0
 15 38  1  0  0  0  0
 15 39  1  0  0  0  0
 16 17  1  0  0  0  0
 16 40  1  0  0  0  0
 16 41  1  0  0  0  0
 17 18  1  0  0  0  0
 17 42  1  0  0  0  0
 17 43  1  0  0  0  0
 18 44  1  0  0  0  0
 18 45  1  0  0  0  0
 19 20  1  0  0  0  0
 19 21  1  0  0  0  0
 20 46  1  0  0  0  0
 20 47  1  0  0  0  0
 20 48  1  0  0  0  0
M  CHG  1  11   1
M  END
> <s_m_source_file>
AV-unprocessed.smi

> <i_m_source_file_index>
1448

> <i_lp_mmshare_version>
43012

> <i_f3d_flags>
0

> <s_epik_input>
W0NIM11jMVtjSF1jKG4objEpW0NIM10pW05IXUMoPU8pW05IXVtDSDJdQzIoTihbQ0gzXSlbQ0gzXSlbQ0gyXVtDSDJdW0NIMl1bQ0gyXVtDSDJdMg==

> <s_epik_cmdline>
J2VwaWtfcHl0aG9uJywgJy1waCcsICc3LjAnLCAnLXRuJywgJzgnLCAnLW1hJywgJzIwMCcsICctbWV0YWxfYmluZGluZycsICctaW1hZScsICc8aW5maWxlLm1hZT4nLCAnLW9tYWUnLCAnPG91dGZpbGUubWFlPic=

> <r_lp_tautomer_probability>
1

> <r_epik_Ionization_Penalty>
0.00238996

> <r_epik_Ionization_Penalty_Charging>
0.00230992

> <r_epik_Ionization_Penalty_Neutral>
8.00361e-05

> <r_epik_State_Penalty>
0.00159337

> <r_epik_Charging_Adjusted_Penalty>
0.00390329

> <i_epik_Tot_Q>
1

> <i_epik_Tot_abs_Q>
1

> <r_epik_Metal_State_Penalty>
-0

> <b_epik_Metal_Only>
0

> <s_lp_Force_Field>
OPLS_2005

> <r_lp_Energy>
34.408

> <b_lp_Chiralities_Consistent>
1

> <s_lp_Variant>
AV-unprocessed.smi:1448-1

> <Gold.Version>
5.8.1

> <Gold.Id.Protein>
6NUR|6NUR_protein|mol2

> <Gold.PLP.Fitness>
39.4666

> <Gold.PLP.PLP>
-30.2790

> <Gold.PLP.part.hbond>
-3.0000

> <Gold.PLP.part.metal>
0.0000

> <Gold.PLP.part.buried>
1.5650

> <Gold.PLP.part.nonpolar>
-28.8154

> <Gold.PLP.part.repulsive>
0.3955

> <Gold.PLP.ligand.clash>
0.0000

> <Gold.PLP.ligand.torsion>
1.4834

> <Gold.PLP.Chemscore.Hbond>
4.0000

> <Gold.PLP.Chemscore.CHOScore>
0.0000

> <Gold.PLP.Chemscore.Metal>
0.0000

> <Gold.Chemscore.Hbonds>
donor molecule, donor type, donor heavy atom, donor atom, acceptor molecule, acceptor atom, score
      L1  H     5    26       P1  7948  1.00
      L1  H     8    27       P1  7948  1.00
      L1  H    11    49       P1  7948  2.00

> <Gold.PLP.Chemscore.Internal.Correction>
0.1544

> <Gold.Rescore>
     Score         DG    S(hbond)    S(metal)    S(lipo)     H(rot)  DE(clash)    DE(int)     intcor
     16.37     -20.03       2.86        0.00      75.03       1.47       2.24       1.42       ----

> <Gold.Chemscore.Fitness>
16.3695

> <Gold.Chemscore.DG>
-20.0300

> <Gold.Chemscore.ZeroCoef>
-5.4800

> <Gold.Chemscore.Hbond>
2.8566

> <Gold.Chemscore.Metal>
0.0000

> <Gold.Chemscore.Lipo>
75.0327

> <Gold.Chemscore.Internal_Hbond>
0.0000

> <Gold.Chemscore.DEClash>
2.2392

> <Gold.Chemscore.DEInternal>
1.4213

> <Gold.Chemscore.Rot>
1.4727

> <Gold.Chemscore.Internal.Correction>
   9.000000E+99

> <Gold.Chemscore.Hbonds>
donor molecule, donor type, donor heavy atom, donor atom, acceptor molecule, acceptor atom, score
      L1  H     5    26       P1  7948  0.92
      L1  H     8    27       P1  7948  0.98
      L1  H    11    49       P1  7948  0.95

> <Gold.Chemscore.Hbond.Weighted>
-9.5412

> <Gold.Chemscore.Metal.Weighted>
-0.0000

> <Gold.Chemscore.Lipo.Weighted>
-8.7788

> <Gold.Chemscore.Internal_Hbond.Weighted>
0.0000

> <Gold.Chemscore.DEClash.Weighted>
2.2392

> <Gold.Chemscore.DEInternal.Weighted>
1.4213

> <Gold.Chemscore.Rot.Weighted>
3.7700

> <Gold.Chemscore.Internal.Correction.Weighted>
   9.000000E+99

> <Gold.Protein.RotatedTorsions>
[ 6907 6896 6895 6894 ] final  -54.81 input  -60.11 | X-H torsion
[ 7974 7965 7964 7962 ] final -124.78 input  175.53 | X-H torsion
[ 8008 7997 7996 7995 ] final  156.66 input   59.86 | X-H torsion
[ 10167 10162 10161 10158 ] final  -46.05 input  -65.29 | X-H torsion
[ 10718 10713 10712 10709 ] final  156.91 input   66.30 | X-H torsion
[ 10763 10752 10751 10750 ] final  -83.50 input  -60.55 | X-H torsion
[ 11005 11000 10999 10996 ] final  117.44 input  -57.11 | X-H torsion

> <Gold.Protein.ActiveResidues>
 VAL166  LYS551  ARG553  GLY616  TRP617  ASP618  TYR619  PRO620  LYS621  CYS622 
 ASP623  PHE694  ASN695  SER759  ASP760  ASP761  ALA762  ILE779  LEU786  VAL792 
 PHE793  MET794  SER795  GLU796  ALA797  LYS798  CYS799  TRP800  GLU811  SER814 

> <Gold.Protein.RotatedAtoms>
  150.8306  134.7557  159.6849 H   0  0  0  0  0  0  0  0  0  0  0  0  # atno 6907 bound_to 6896
  152.4411  134.5586  159.9897 H   0  0  0  0  0  0  0  0  0  0  0  0  # atno 6908 bound_to 6896
  151.5748  133.3347  159.3032 H   0  0  0  0  0  0  0  0  0  0  0  0  # atno 6909 bound_to 6896
  145.0045  140.7850  143.4476 H   0  0  0  0  0  0  0  0  0  0  0  0  # atno 7974 bound_to 7965
  156.2409  140.1906  156.6990 H   0  0  0  0  0  0  0  0  0  0  0  0  # atno 8008 bound_to 7997
  154.6196  140.0610  156.9624 H   0  0  0  0  0  0  0  0  0  0  0  0  # atno 8009 bound_to 7997
  155.1883  140.3282  155.4365 H   0  0  0  0  0  0  0  0  0  0  0  0  # atno 8010 bound_to 7997
  140.6833  143.2850  151.3726 H   0  0  0  0  0  0  0  0  0  0  0  0  # atno 10167 bound_to 10162
  157.1985  131.0671  151.2038 H   0  0  0  0  0  0  0  0  0  0  0  0  # atno 10718 bound_to 10713
  154.5885  135.5553  153.7255 H   0  0  0  0  0  0  0  0  0  0  0  0  # atno 10763 bound_to 10752
  153.0108  135.6337  154.1882 H   0  0  0  0  0  0  0  0  0  0  0  0  # atno 10764 bound_to 10752
  154.1823  135.2886  155.3028 H   0  0  0  0  0  0  0  0  0  0  0  0  # atno 10765 bound_to 10752
  139.9074  134.9610  156.7351 H   0  0  0  0  0  0  0  0  0  0  0  0  # atno 11005 bound_to 11000
  145.2107  139.2206  143.5144 LP  0  0  0  0  0  0  0  0  0  0  0  0  # atno 17320 bound_to 7965
  146.3458  140.1945  142.8589 LP  0  0  0  0  0  0  0  0  0  0  0  0  # atno 17321 bound_to 7965
  139.6172  144.0979  152.2357 LP  0  0  0  0  0  0  0  0  0  0  0  0  # atno 17342 bound_to 10162
  140.0412  144.6006  150.7410 LP  0  0  0  0  0  0  0  0  0  0  0  0  # atno 17343 bound_to 10162
  157.3790  130.7221  149.6617 LP  0  0  0  0  0  0  0  0  0  0  0  0  # atno 17370 bound_to 10713
  155.9703  130.4178  150.4295 LP  0  0  0  0  0  0  0  0  0  0  0  0  # atno 17371 bound_to 10713
  140.6894  133.9403  155.7957 LP  0  0  0  0  0  0  0  0  0  0  0  0  # atno 17394 bound_to 11000
  141.0452  134.0564  157.3852 LP  0  0  0  0  0  0  0  0  0  0  0  0  # atno 17395 bound_to 11000

$$$$
