AV-unprocessed.smi:229|AV-procd|sdf|1761|dock4
  -GOLD-   2262020293D 1   1.00000     0.00000
 Structure written by MMmdl.
 58 62  0  0  0  0  0  0  0  0  1 V2000
  151.6648  144.0977  161.2781 C   0  0  0  0  0  0  0  0  0  0  0  0
  152.5133  144.2613  160.0109 C   0  0  0  0  0  0  0  0  0  0  0  0
  153.1406  142.9420  159.5367 C   0  0  2  0  0  0  0  0  0  0  0  0
  152.1389  142.0811  158.7478 C   0  0  0  0  0  0  0  0  0  0  0  0
  152.7463  140.7984  158.4124 N   0  0  0  0  0  0  0  0  0  0  0  0
  152.1381  140.0216  157.4822 C   0  0  0  0  0  0  0  0  0  0  0  0
  152.4298  138.6955  157.4050 N   0  0  0  0  0  0  0  0  0  0  0  0
  151.8401  137.9278  156.4835 C   0  0  0  0  0  0  0  0  0  0  0  0
  150.9408  138.2734  155.5602 N   0  0  0  0  0  0  0  0  0  0  0  0
  150.6374  139.6004  155.6398 C   0  0  0  0  0  0  0  0  0  0  0  0
  151.1853  140.5381  156.5597 C   0  0  0  0  0  0  0  0  0  0  0  0
  150.6287  141.7937  156.3430 N   0  0  0  0  0  0  0  0  0  0  0  0
  149.8029  141.6097  155.3491 C   0  0  0  0  0  0  0  0  0  0  0  0
  149.7412  140.3204  154.8707 N   0  0  0  0  0  0  0  0  0  0  0  0
  148.9095  139.8321  153.7844 C   0  0  0  0  0  0  0  0  0  0  0  0
  147.4205  139.7209  154.1798 C   0  0  1  0  0  0  0  0  0  0  0  0
  147.2873  138.6525  155.0984 O   0  0  0  0  0  0  0  0  0  0  0  0
  146.8756  140.9953  154.8556 C   0  0  1  0  0  0  0  0  0  0  0  0
  146.7617  142.2118  153.9357 C   0  0  0  0  0  0  0  0  0  0  0  0
  145.7159  143.0733  154.6214 C   0  0  0  0  0  0  0  0  0  0  0  0
  144.9502  142.0834  155.5026 C   0  0  0  0  0  0  0  0  0  0  0  0
  145.5151  140.8096  155.2195 O   0  0  0  0  0  0  0  0  0  0  0  0
  153.2423  140.0789  159.5796 C   0  0  0  0  0  0  0  0  0  0  0  0
  154.2096  140.9613  160.3990 C   0  0  2  0  0  0  0  0  0  0  0  0
  155.5739  141.1554  159.7280 C   0  0  0  0  0  0  0  0  0  0  0  0
  156.4888  140.2056  160.4874 C   0  0  0  0  0  0  0  0  0  0  0  0
  155.9988  140.3132  161.8106 O   0  0  0  0  0  0  0  0  0  0  0  0
  154.5802  140.2876  161.7346 C   0  0  0  0  0  0  0  0  0  0  0  0
  153.5803  142.2143  160.6851 O   0  0  0  0  0  0  0  0  0  0  0  0
  151.2531  145.0558  161.5956 H   0  0  0  0  0  0  0  0  0  0  0  0
  152.2591  143.7013  162.1019 H   0  0  0  0  0  0  0  0  0  0  0  0
  150.8292  143.4177  161.1098 H   0  0  0  0  0  0  0  0  0  0  0  0
  151.9010  144.6856  159.2142 H   0  0  0  0  0  0  0  0  0  0  0  0
  153.3037  144.9857  160.2099 H   0  0  0  0  0  0  0  0  0  0  0  0
  153.9920  143.1740  158.8953 H   0  0  0  0  0  0  0  0  0  0  0  0
  151.2368  141.9128  159.3382 H   0  0  0  0  0  0  0  0  0  0  0  0
  151.8414  142.6041  157.8376 H   0  0  0  0  0  0  0  0  0  0  0  0
  152.1308  136.8876  156.4871 H   0  0  0  0  0  0  0  0  0  0  0  0
  149.2071  142.4131  154.9400 H   0  0  0  0  0  0  0  0  0  0  0  0
  149.0259  140.4986  152.9284 H   0  0  0  0  0  0  0  0  0  0  0  0
  149.3011  138.8615  153.4788 H   0  0  0  0  0  0  0  0  0  0  0  0
  146.8263  139.4967  153.2929 H   0  0  0  0  0  0  0  0  0  0  0  0
  146.5378  138.1349  154.8474 H   0  0  0  0  0  0  0  0  0  0  0  0
  147.4640  141.2559  155.7379 H   0  0  0  0  0  0  0  0  0  0  0  0
  147.7105  142.7312  153.7979 H   0  0  0  0  0  0  0  0  0  0  0  0
  146.3965  141.9066  152.9540 H   0  0  0  0  0  0  0  0  0  0  0  0
  146.1862  143.8407  155.2375 H   0  0  0  0  0  0  0  0  0  0  0  0
  145.0693  143.5707  153.8976 H   0  0  0  0  0  0  0  0  0  0  0  0
  145.0932  142.3177  156.5583 H   0  0  0  0  0  0  0  0  0  0  0  0
  143.8797  142.0832  155.2959 H   0  0  0  0  0  0  0  0  0  0  0  0
  152.3860  139.8006  160.1958 H   0  0  0  0  0  0  0  0  0  0  0  0
  153.7377  139.1499  159.2982 H   0  0  0  0  0  0  0  0  0  0  0  0
  155.5669  140.9638  158.6544 H   0  0  0  0  0  0  0  0  0  0  0  0
  155.9275  142.1760  159.8810 H   0  0  0  0  0  0  0  0  0  0  0  0
  156.3773  139.1803  160.1302 H   0  0  0  0  0  0  0  0  0  0  0  0
  157.5399  140.4860  160.4204 H   0  0  0  0  0  0  0  0  0  0  0  0
  154.1388  140.7868  162.5977 H   0  0  0  0  0  0  0  0  0  0  0  0
  154.2547  139.2464  161.7559 H   0  0  0  0  0  0  0  0  0  0  0  0
  1  2  1  0  0  0  0
  1 30  1  0  0  0  0
  1 31  1  0  0  0  0
  1 32  1  0  0  0  0
  2  3  1  0  0  0  0
  2 33  1  0  0  0  0
  2 34  1  0  0  0  0
  3 29  1  0  0  0  0
  3  4  1  0  0  0  0
  3 35  1  0  0  0  0
  4  5  1  0  0  0  0
  4 36  1  0  0  0  0
  4 37  1  0  0  0  0
  5  6  1  0  0  0  0
  5 23  1  0  0  0  0
  6 11  1  0  0  0  0
  6  7  2  0  0  0  0
  7  8  1  0  0  0  0
  8  9  2  0  0  0  0
  8 38  1  0  0  0  0
  9 10  1  0  0  0  0
 10 14  1  0  0  0  0
 10 11  2  0  0  0  0
 11 12  1  0  0  0  0
 12 13  2  0  0  0  0
 13 14  1  0  0  0  0
 13 39  1  0  0  0  0
 14 15  1  0  0  0  0
 15 16  1  0  0  0  0
 15 40  1  0  0  0  0
 15 41  1  0  0  0  0
 16 17  1  0  0  0  0
 16 18  1  0  0  0  0
 16 42  1  0  0  0  0
 17 43  1  0  0  0  0
 18 22  1  0  0  0  0
 18 19  1  0  0  0  0
 18 44  1  0  0  0  0
 19 20  1  0  0  0  0
 19 45  1  0  0  0  0
 19 46  1  0  0  0  0
 20 21  1  0  0  0  0
 20 47  1  0  0  0  0
 20 48  1  0  0  0  0
 21 22  1  0  0  0  0
 21 49  1  0  0  0  0
 21 50  1  0  0  0  0
 23 24  1  0  0  0  0
 23 51  1  0  0  0  0
 23 52  1  0  0  0  0
 24 28  1  0  0  0  0
 24 25  1  0  0  0  0
 24 29  1  0  0  0  0
 25 26  1  0  0  0  0
 25 53  1  0  0  0  0
 25 54  1  0  0  0  0
 26 27  1  0  0  0  0
 26 55  1  0  0  0  0
 26 56  1  0  0  0  0
 27 28  1  0  0  0  0
 28 57  1  0  0  0  0
 28 58  1  0  0  0  0
M  END
> <s_m_source_file>
AV-unprocessed.smi

> <i_m_source_file_index>
229

> <i_lp_mmshare_version>
43012

> <i_f3d_flags>
0

> <s_epik_input>
W0NIMl0xT1tDSDJdW0NIMl1bQ0BdMTJbQ0gyXU4oW0NIMl1bQ0BIXShPMilbQ0gyXVtDSDNdKWMobltjSF1uMyljKGMzNCluW2NIXW40W0NIMl1bQ0BIXShbT0hdKVtDQEBIXTVbQ0gyXVtDSDJdW0NIMl1PNQ==

> <s_epik_cmdline>
J2VwaWtfcHl0aG9uJywgJy1waCcsICc3LjAnLCAnLXRuJywgJzgnLCAnLW1hJywgJzIwMCcsICctbWV0YWxfYmluZGluZycsICctaW1hZScsICc8aW5maWxlLm1hZT4nLCAnLW9tYWUnLCAnPG91dGZpbGUubWFlPic=

> <r_lp_tautomer_probability>
1

> <r_epik_Ionization_Penalty>
0.00318402

> <r_epik_Ionization_Penalty_Charging>
0

> <r_epik_Ionization_Penalty_Neutral>
0.00318402

> <r_epik_State_Penalty>
0.00215642

> <r_epik_Charging_Adjusted_Penalty>
0.00215642

> <i_epik_Tot_Q>
0

> <i_epik_Tot_abs_Q>
0

> <r_epik_Metal_State_Penalty>
-0

> <b_epik_Metal_Only>
0

> <s_lp_Force_Field>
OPLS_2005

> <r_lp_Energy>
54.7562

> <b_lp_Chiralities_Consistent>
1

> <s_lp_Variant>
AV-unprocessed.smi:229-15

> <Gold.Version>
5.8.1

> <Gold.Id.Protein>
6NUR|6NUR_protein|mol2

> <Gold.PLP.Fitness>
48.6115

> <Gold.PLP.PLP>
-47.2800

> <Gold.PLP.part.hbond>
-1.2683

> <Gold.PLP.part.metal>
0.0000

> <Gold.PLP.part.buried>
-2.2221

> <Gold.PLP.part.nonpolar>
-42.5055

> <Gold.PLP.part.repulsive>
0.2540

> <Gold.PLP.ligand.clash>
0.0000

> <Gold.PLP.ligand.torsion>
1.0350

> <Gold.PLP.Chemscore.Hbond>
0.0000

> <Gold.PLP.Chemscore.CHOScore>
1.0000

> <Gold.PLP.Chemscore.Metal>
0.0000

> <Gold.Chemscore.Hbonds>
donor molecule, donor type, donor heavy atom, donor atom, acceptor molecule, acceptor atom, score
      L1  C    13    39       P1  8028  1.00

> <Gold.PLP.Chemscore.Internal.Correction>
0.4015

> <Gold.Rescore>
     Score         DG    S(hbond)    S(metal)    S(lipo)     H(rot)  DE(clash)    DE(int)     intcor
      9.88     -13.76       0.00        0.00     124.60       2.46       1.45       2.43       ----

> <Gold.Chemscore.Fitness>
9.8835

> <Gold.Chemscore.DG>
-13.7624

> <Gold.Chemscore.ZeroCoef>
-5.4800

> <Gold.Chemscore.Hbond>
0.0000

> <Gold.Chemscore.Metal>
0.0000

> <Gold.Chemscore.Lipo>
124.5959

> <Gold.Chemscore.Internal_Hbond>
0.0000

> <Gold.Chemscore.DEClash>
1.4464

> <Gold.Chemscore.DEInternal>
2.4325

> <Gold.Chemscore.Rot>
2.4591

> <Gold.Chemscore.Internal.Correction>
   9.000000E+99

> <Gold.Chemscore.Hbond.Weighted>
-0.0000

> <Gold.Chemscore.Metal.Weighted>
-0.0000

> <Gold.Chemscore.Lipo.Weighted>
-14.5777

> <Gold.Chemscore.Internal_Hbond.Weighted>
0.0000

> <Gold.Chemscore.DEClash.Weighted>
1.4464

> <Gold.Chemscore.DEInternal.Weighted>
2.4325

> <Gold.Chemscore.Rot.Weighted>
6.2953

> <Gold.Chemscore.Internal.Correction.Weighted>
   9.000000E+99

> <Gold.Protein.RotatedTorsions>
[ 6907 6896 6895 6894 ] final  -15.02 input  -60.11 | X-H torsion
[ 7974 7965 7964 7962 ] final  177.07 input  175.53 | X-H torsion
[ 8008 7997 7996 7995 ] final -102.14 input   59.86 | X-H torsion
[ 10167 10162 10161 10158 ] final   47.36 input  -65.29 | X-H torsion
[ 10718 10713 10712 10709 ] final  151.87 input   66.30 | X-H torsion
[ 10763 10752 10751 10750 ] final -140.68 input  -60.55 | X-H torsion
[ 11005 11000 10999 10996 ] final   38.81 input  -57.11 | X-H torsion

> <Gold.Protein.ActiveResidues>
 VAL166  LYS551  ARG553  GLY616  TRP617  ASP618  TYR619  PRO620  LYS621  CYS622 
 ASP623  PHE694  ASN695  SER759  ASP760  ASP761  ALA762  ILE779  LEU786  VAL792 
 PHE793  MET794  SER795  GLU796  ALA797  LYS798  CYS799  TRP800  GLU811  SER814 

> <Gold.Protein.RotatedAtoms>
  151.3304  135.0840  159.9336 H   0  0  0  0  0  0  0  0  0  0  0  0  # atno 6907 bound_to 6896
  152.5236  133.9548  159.7699 H   0  0  0  0  0  0  0  0  0  0  0  0  # atno 6908 bound_to 6896
  150.9886  133.6120  159.2741 H   0  0  0  0  0  0  0  0  0  0  0  0  # atno 6909 bound_to 6896
  144.7174  140.0191  143.6440 H   0  0  0  0  0  0  0  0  0  0  0  0  # atno 7974 bound_to 7965
  154.8525  140.0430  157.1613 H   0  0  0  0  0  0  0  0  0  0  0  0  # atno 8008 bound_to 7997
  154.8927  140.2989  155.5341 H   0  0  0  0  0  0  0  0  0  0  0  0  # atno 8009 bound_to 7997
  156.2996  140.2390  156.3945 H   0  0  0  0  0  0  0  0  0  0  0  0  # atno 8010 bound_to 7997
  140.3044  144.2895  150.6212 H   0  0  0  0  0  0  0  0  0  0  0  0  # atno 10167 bound_to 10162
  157.2651  131.0806  151.1638 H   0  0  0  0  0  0  0  0  0  0  0  0  # atno 10718 bound_to 10713
  154.8570  135.3546  154.5746 H   0  0  0  0  0  0  0  0  0  0  0  0  # atno 10763 bound_to 10752
  153.6359  135.7000  153.5263 H   0  0  0  0  0  0  0  0  0  0  0  0  # atno 10764 bound_to 10752
  153.3011  135.4206  155.1213 H   0  0  0  0  0  0  0  0  0  0  0  0  # atno 10765 bound_to 10752
  140.2089  134.3779  155.8058 H   0  0  0  0  0  0  0  0  0  0  0  0  # atno 11005 bound_to 11000
  146.0195  139.3239  143.0821 LP  0  0  0  0  0  0  0  0  0  0  0  0  # atno 17320 bound_to 7965
  145.8585  140.9489  143.0712 LP  0  0  0  0  0  0  0  0  0  0  0  0  # atno 17321 bound_to 7965
  140.5623  143.2190  151.7744 LP  0  0  0  0  0  0  0  0  0  0  0  0  # atno 17342 bound_to 10162
  139.4907  144.4332  151.9848 LP  0  0  0  0  0  0  0  0  0  0  0  0  # atno 17343 bound_to 10162
  157.3133  130.6900  149.6227 LP  0  0  0  0  0  0  0  0  0  0  0  0  # atno 17370 bound_to 10713
  155.9663  130.4357  150.5103 LP  0  0  0  0  0  0  0  0  0  0  0  0  # atno 17371 bound_to 10713
  141.2226  133.7133  156.8385 LP  0  0  0  0  0  0  0  0  0  0  0  0  # atno 17394 bound_to 11000
  140.1972  134.8923  157.3128 LP  0  0  0  0  0  0  0  0  0  0  0  0  # atno 17395 bound_to 11000

$$$$
