AV-unprocessed.smi:72|AV-procd|sdf|676|dock6
  -GOLD-   2262016583D 1   1.00000     0.00000
 Structure written by MMmdl.
 29 30  0  0  0  0  0  0  0  0  1 V2000
  147.5705  142.9365  158.0500 N   0  0  0  0  0  0  0  0  0  0  0  0
  147.9711  141.9385  157.3464 C   0  0  0  0  0  0  0  0  0  0  0  0
  147.9070  140.5930  157.7377 N   0  0  0  0  0  0  0  0  0  0  0  0
  148.3350  139.6837  156.9175 C   0  0  0  0  0  0  0  0  0  0  0  0
  148.8617  140.0113  155.5980 N   0  0  0  0  0  0  0  0  0  0  0  0
  149.3766  138.9575  154.6306 C   0  0  1  0  0  0  0  0  0  0  0  0
  150.7095  139.2240  154.2985 O   0  0  0  0  0  0  0  0  0  0  0  0
  151.5757  138.4145  155.0886 C   0  0  2  0  0  0  0  0  0  0  0  0
  152.9885  138.3510  154.4830 C   0  0  0  0  0  0  0  0  0  0  0  0
  153.6493  139.5828  154.6785 O   0  0  0  0  0  0  0  0  0  0  0  0
  150.8095  137.0894  155.1371 C   0  0  2  0  0  0  0  0  0  0  0  0
  151.0273  136.3478  153.9475 O   0  0  0  0  0  0  0  0  0  0  0  0
  149.3610  137.5564  155.2817 C   0  0  2  0  0  0  0  0  0  0  0  0
  148.4423  136.6646  154.6781 O   0  0  0  0  0  0  0  0  0  0  0  0
  148.9680  141.3694  155.2071 C   0  0  0  0  0  0  0  0  0  0  0  0
  149.4440  141.7082  154.1236 O   0  0  0  0  0  0  0  0  0  0  0  0
  148.5094  142.2748  156.0978 N   0  0  0  0  0  0  0  0  0  0  0  0
  148.7515  139.0529  153.7407 H   0  0  0  0  0  0  0  0  0  0  0  0
  151.6243  138.8142  156.1033 H   0  0  0  0  0  0  0  0  0  0  0  0
  151.1184  136.4733  155.9822 H   0  0  0  0  0  0  0  0  0  0  0  0
  149.1227  137.6518  156.3423 H   0  0  0  0  0  0  0  0  0  0  0  0
  147.7233  143.8035  157.5561 H   0  0  0  0  0  0  0  0  0  0  0  0
  148.3245  138.6244  157.1736 H   0  0  0  0  0  0  0  0  0  0  0  0
  153.5767  137.5809  154.9830 H   0  0  0  0  0  0  0  0  0  0  0  0
  152.9593  138.1032  153.4215 H   0  0  0  0  0  0  0  0  0  0  0  0
  153.1391  140.2638  154.2672 H   0  0  0  0  0  0  0  0  0  0  0  0
  150.1898  136.1973  153.5359 H   0  0  0  0  0  0  0  0  0  0  0  0
  148.7063  136.5275  153.7805 H   0  0  0  0  0  0  0  0  0  0  0  0
  148.5658  143.2495  155.8410 H   0  0  0  0  0  0  0  0  0  0  0  0
  1  2  2  0  0  0  0
  1 22  1  0  0  0  0
  2 17  1  0  0  0  0
  2  3  1  0  0  0  0
  3  4  2  0  0  0  0
  4  5  1  0  0  0  0
  4 23  1  0  0  0  0
  5  6  1  0  0  0  0
  5 15  1  0  0  0  0
  6 18  1  0  0  0  0
  6 13  1  0  0  0  0
  6  7  1  0  0  0  0
  7  8  1  0  0  0  0
  8 19  1  0  0  0  0
  8  9  1  0  0  0  0
  8 11  1  0  0  0  0
  9 10  1  0  0  0  0
  9 24  1  0  0  0  0
  9 25  1  0  0  0  0
 10 26  1  0  0  0  0
 11 20  1  0  0  0  0
 11 12  1  0  0  0  0
 11 13  1  0  0  0  0
 12 27  1  0  0  0  0
 13 21  1  0  0  0  0
 13 14  1  0  0  0  0
 14 28  1  0  0  0  0
 15 16  2  0  0  0  0
 15 17  1  0  0  0  0
 17 29  1  0  0  0  0
M  END
> <s_m_source_file>
AV-unprocessed.smi

> <i_m_source_file_index>
72

> <i_lp_mmshare_version>
43012

> <i_f3d_flags>
0

> <s_epik_input>
W05IMl1jMW5bY0hdbihjKD1PKW4xKVtDQEBIXTJPW0NASF0oW0NIMl1bT0hdKVtDQEBIXShbT0hdKVtDQEhdMltPSF0=

> <s_epik_cmdline>
J2VwaWtfcHl0aG9uJywgJy1waCcsICc3LjAnLCAnLXRuJywgJzgnLCAnLW1hJywgJzIwMCcsICctbWV0YWxfYmluZGluZycsICctaW1hZScsICc8aW5maWxlLm1hZT4nLCAnLW9tYWUnLCAnPG91dGZpbGUubWFlPic=

> <r_lp_tautomer_probability>
7.17554e-07

> <r_epik_Ionization_Penalty>
0.0066451

> <r_epik_Ionization_Penalty_Charging>
0.00663793

> <r_epik_Ionization_Penalty_Neutral>
7.17052e-06

> <r_epik_State_Penalty>
0.419231

> <r_epik_Charging_Adjusted_Penalty>
0.425868

> <i_epik_Tot_Q>
0

> <i_epik_Tot_abs_Q>
0

> <r_epik_Metal_State_Penalty>
1.44144

> <b_epik_Metal_Only>
0

> <s_epik_Chemistry_Notes>
This compound contains an acetal/aminal-like group ( X-CH(R)-Y where X, Y are N, S, or O) that may be acid/base labile, releasing an aldehyde.

> <s_lp_Force_Field>
OPLS_2005

> <r_lp_Energy>
42.8821

> <b_lp_Chiralities_Consistent>
1

> <s_lp_Variant>
AV-unprocessed.smi:72-14

> <Gold.Version>
5.8.1

> <Gold.Id.Protein>
6NUR|6NUR_protein|mol2

> <Gold.PLP.Fitness>
40.4988

> <Gold.PLP.PLP>
-22.4943

> <Gold.PLP.part.hbond>
-10.7789

> <Gold.PLP.part.metal>
0.0000

> <Gold.PLP.part.buried>
0.2477

> <Gold.PLP.part.nonpolar>
-12.5879

> <Gold.PLP.part.repulsive>
0.4405

> <Gold.PLP.ligand.clash>
0.0000

> <Gold.PLP.ligand.torsion>
0.1099

> <Gold.PLP.Chemscore.Hbond>
6.0675

> <Gold.PLP.Chemscore.CHOScore>
0.0000

> <Gold.PLP.Chemscore.Metal>
0.0000

> <Gold.Chemscore.Hbonds>
donor molecule, donor type, donor heavy atom, donor atom, acceptor molecule, acceptor atom, score
      L1  H     1    22       P1  8029  0.14
      L1  H    12    27       P1  7948  0.45
      L1  H    14    28       P1  7948  1.00
      L1  H    17    29       P1  8028  0.94
      P1  H  7989  7998       L1     7  0.98
      P1  H  7997  8010       L1    10  1.00
      P1  H  8011  8017       L1    16  0.54
      P1  H 10752 10765       L1    12  0.91

> <Gold.PLP.Chemscore.Internal.Correction>
0.0219

> <Gold.Rescore>
     Score         DG    S(hbond)    S(metal)    S(lipo)     H(rot)  DE(clash)    DE(int)     intcor
     13.42     -15.13       5.11        0.00      25.35       4.06       0.32       1.39       ----

> <Gold.Chemscore.Fitness>
13.4191

> <Gold.Chemscore.DG>
-15.1273

> <Gold.Chemscore.ZeroCoef>
-5.4800

> <Gold.Chemscore.Hbond>
5.1122

> <Gold.Chemscore.Metal>
0.0000

> <Gold.Chemscore.Lipo>
25.3529

> <Gold.Chemscore.Internal_Hbond>
0.0000

> <Gold.Chemscore.DEClash>
0.3193

> <Gold.Chemscore.DEInternal>
1.3889

> <Gold.Chemscore.Rot>
4.0600

> <Gold.Chemscore.Internal.Correction>
   9.000000E+99

> <Gold.Chemscore.Hbonds>
donor molecule, donor type, donor heavy atom, donor atom, acceptor molecule, acceptor atom, score
      L1  H    12    27       P1  7948  0.01
      L1  H    14    28       P1  7948  0.99
      L1  H    17    29       P1  8028  0.89
      P1  H  7989  7998       L1     7  0.80
      P1  H  7997  8010       L1    10  0.67
      P1  H  8011  8017       L1    16  0.53
      P1  H 10752 10765       L1    12  0.40

> <Gold.Chemscore.Hbond.Weighted>
-17.0746

> <Gold.Chemscore.Metal.Weighted>
-0.0000

> <Gold.Chemscore.Lipo.Weighted>
-2.9663

> <Gold.Chemscore.Internal_Hbond.Weighted>
0.0000

> <Gold.Chemscore.DEClash.Weighted>
0.3193

> <Gold.Chemscore.DEInternal.Weighted>
1.3889

> <Gold.Chemscore.Rot.Weighted>
10.3936

> <Gold.Chemscore.Internal.Correction.Weighted>
   9.000000E+99

> <Gold.Protein.RotatedTorsions>
[ 6907 6896 6895 6894 ] final   27.47 input  -60.11 | X-H torsion
[ 7974 7965 7964 7962 ] final -139.43 input  175.53 | X-H torsion
[ 8008 7997 7996 7995 ] final  105.83 input   59.86 | X-H torsion
[ 10167 10162 10161 10158 ] final  -32.34 input  -65.29 | X-H torsion
[ 10718 10713 10712 10709 ] final  -17.15 input   66.30 | X-H torsion
[ 10763 10752 10751 10750 ] final  151.44 input  -60.55 | X-H torsion
[ 11005 11000 10999 10996 ] final -176.01 input  -57.11 | X-H torsion

> <Gold.Protein.ActiveResidues>
 VAL166  LYS551  ARG553  GLY616  TRP617  ASP618  TYR619  PRO620  LYS621  CYS622 
 ASP623  PHE694  ASN695  SER759  ASP760  ASP761  ALA762  ILE779  LEU786  VAL792 
 PHE793  MET794  SER795  GLU796  ALA797  LYS798  CYS799  TRP800  GLU811  SER814 

> <Gold.Protein.RotatedAtoms>
  152.0027  134.9919  160.0565 H   0  0  0  0  0  0  0  0  0  0  0  0  # atno 6907 bound_to 6896
  152.1503  133.4513  159.4819 H   0  0  0  0  0  0  0  0  0  0  0  0  # atno 6908 bound_to 6896
  150.6875  134.2114  159.4404 H   0  0  0  0  0  0  0  0  0  0  0  0  # atno 6909 bound_to 6896
  144.8677  140.6319  143.5287 H   0  0  0  0  0  0  0  0  0  0  0  0  # atno 7974 bound_to 7965
  156.1692  140.3123  155.8944 H   0  0  0  0  0  0  0  0  0  0  0  0  # atno 8008 bound_to 7997
  155.3621  140.0477  157.3063 H   0  0  0  0  0  0  0  0  0  0  0  0  # atno 8009 bound_to 7997
  154.5224  140.2203  155.8962 H   0  0  0  0  0  0  0  0  0  0  0  0  # atno 8010 bound_to 7997
  140.7223  143.3702  151.1793 H   0  0  0  0  0  0  0  0  0  0  0  0  # atno 10167 bound_to 10162
  156.5776  130.4766  149.6334 H   0  0  0  0  0  0  0  0  0  0  0  0  # atno 10718 bound_to 10713
  154.1038  135.2844  155.3245 H   0  0  0  0  0  0  0  0  0  0  0  0  # atno 10763 bound_to 10752
  154.6537  135.5360  153.7936 H   0  0  0  0  0  0  0  0  0  0  0  0  # atno 10764 bound_to 10752
  153.0369  135.6516  154.1200 H   0  0  0  0  0  0  0  0  0  0  0  0  # atno 10765 bound_to 10752
  140.4568  134.6291  157.4825 H   0  0  0  0  0  0  0  0  0  0  0  0  # atno 11005 bound_to 11000
  145.4190  139.1567  143.4085 LP  0  0  0  0  0  0  0  0  0  0  0  0  # atno 17320 bound_to 7965
  146.2908  140.4299  142.8740 LP  0  0  0  0  0  0  0  0  0  0  0  0  # atno 17321 bound_to 7965
  139.7272  143.9130  152.3007 LP  0  0  0  0  0  0  0  0  0  0  0  0  # atno 17342 bound_to 10162
  139.8906  144.6967  150.8774 LP  0  0  0  0  0  0  0  0  0  0  0  0  # atno 17343 bound_to 10162
  156.2659  130.6989  151.1772 LP  0  0  0  0  0  0  0  0  0  0  0  0  # atno 17370 bound_to 10713
  157.7334  131.0591  150.5579 LP  0  0  0  0  0  0  0  0  0  0  0  0  # atno 17371 bound_to 10713
  139.9971  134.6895  155.9592 LP  0  0  0  0  0  0  0  0  0  0  0  0  # atno 17394 bound_to 11000
  141.1639  133.6537  156.4413 LP  0  0  0  0  0  0  0  0  0  0  0  0  # atno 17395 bound_to 11000

$$$$
