AV-unprocessed.smi:101|AV-procd|sdf|942|dock4
  -GOLD-   2262017463D 1   1.00000     0.00000
 Structure written by MMmdl.
 43 45  0  0  0  0  0  0  0  0  2 V2000
  151.9921  145.0084  158.8925 C   0  0  0  0  0  0  0  0  0  0  0  0
  151.7942  143.5328  158.5930 C   0  0  0  0  0  0  0  0  0  0  0  0
  151.2582  143.0986  157.4309 C   0  0  0  0  0  0  0  0  0  0  0  0
  151.0822  141.7524  157.1619 N   0  0  0  0  0  0  0  0  0  0  0  0
  150.4940  141.2939  155.8463 C   0  0  1  0  0  0  0  0  0  0  0  0
  151.2938  140.2742  155.3186 O   0  0  0  0  0  0  0  0  0  0  0  0
  150.5064  139.1225  155.0365 C   0  0  1  0  0  0  0  0  0  0  0  0
  151.3684  137.8652  155.2076 C   0  0  0  0  0  0  0  0  0  0  0  0
  150.5318  136.7248  155.3101 O   0  0  0  0  0  0  0  0  0  0  0  0
  151.0276  135.5622  155.7746 C   0  0  0  0  0  0  0  0  0  0  0  0
  151.9478  135.4905  156.5917 O   0  0  0  0  0  0  0  0  0  0  0  0
  150.3458  134.3691  155.1951 C   0  0  0  0  0  0  0  0  0  0  0  0
  150.7744  133.0748  155.5719 C   0  0  0  0  0  0  0  0  0  0  0  0
  150.1495  131.9294  155.0412 C   0  0  0  0  0  0  0  0  0  0  0  0
  149.0868  132.0644  154.1290 C   0  0  0  0  0  0  0  0  0  0  0  0
  148.6499  133.3465  153.7474 C   0  0  0  0  0  0  0  0  0  0  0  0
  149.2746  134.4931  154.2758 C   0  0  0  0  0  0  0  0  0  0  0  0
  149.3364  139.2275  156.0147 C   0  0  2  0  0  0  0  0  0  0  0  0
  148.1959  138.4923  155.6134 O   0  0  0  0  0  0  0  0  0  0  0  0
  149.0825  140.7283  156.0675 C   0  0  2  0  0  0  0  0  0  0  0  0
  148.1996  141.1745  155.0541 O   0  0  0  0  0  0  0  0  0  0  0  0
  151.5060  140.7857  158.1104 C   0  0  0  0  0  0  0  0  0  0  0  0
  151.3822  139.5957  157.8190 O   0  0  0  0  0  0  0  0  0  0  0  0
  152.0384  141.2145  159.2901 N   0  5  0  0  0  0  0  0  0  0  0  0
  152.2013  142.5353  159.5901 C   0  0  0  0  0  0  0  0  0  0  0  0
  152.6785  142.9086  160.6613 O   0  0  0  0  0  0  0  0  0  0  0  0
  151.6457  145.6303  158.0670 H   0  0  0  0  0  0  0  0  0  0  0  0
  153.0476  145.2246  159.0590 H   0  0  0  0  0  0  0  0  0  0  0  0
  151.4365  145.2936  159.7862 H   0  0  0  0  0  0  0  0  0  0  0  0
  150.9673  143.8298  156.6920 H   0  0  0  0  0  0  0  0  0  0  0  0
  150.5338  142.1561  155.1786 H   0  0  0  0  0  0  0  0  0  0  0  0
  150.1522  139.2098  154.0078 H   0  0  0  0  0  0  0  0  0  0  0  0
  152.0255  137.7466  154.3453 H   0  0  0  0  0  0  0  0  0  0  0  0
  152.0017  137.9570  156.0913 H   0  0  0  0  0  0  0  0  0  0  0  0
  151.5879  132.9460  156.2713 H   0  0  0  0  0  0  0  0  0  0  0  0
  150.4863  130.9464  155.3358 H   0  0  0  0  0  0  0  0  0  0  0  0
  148.6071  131.1860  153.7229 H   0  0  0  0  0  0  0  0  0  0  0  0
  147.8340  133.4516  153.0478 H   0  0  0  0  0  0  0  0  0  0  0  0
  148.9139  135.4620  153.9625 H   0  0  0  0  0  0  0  0  0  0  0  0
  149.6530  138.8826  157.0002 H   0  0  0  0  0  0  0  0  0  0  0  0
  147.4935  139.1043  155.4532 H   0  0  0  0  0  0  0  0  0  0  0  0
  148.6777  141.0366  157.0329 H   0  0  0  0  0  0  0  0  0  0  0  0
  148.0801  142.1068  155.1566 H   0  0  0  0  0  0  0  0  0  0  0  0
  1  2  1  0  0  0  0
  1 27  1  0  0  0  0
  1 28  1  0  0  0  0
  1 29  1  0  0  0  0
  2 25  1  0  0  0  0
  2  3  2  0  0  0  0
  3  4  1  0  0  0  0
  3 30  1  0  0  0  0
  4  5  1  0  0  0  0
  4 22  1  0  0  0  0
  5 20  1  0  0  0  0
  5  6  1  0  0  0  0
  5 31  1  0  0  0  0
  6  7  1  0  0  0  0
  7  8  1  0  0  0  0
  7 18  1  0  0  0  0
  7 32  1  0  0  0  0
  8  9  1  0  0  0  0
  8 33  1  0  0  0  0
  8 34  1  0  0  0  0
  9 10  1  0  0  0  0
 10 11  2  0  0  0  0
 10 12  1  0  0  0  0
 12 17  1  0  0  0  0
 12 13  2  0  0  0  0
 13 14  1  0  0  0  0
 13 35  1  0  0  0  0
 14 15  2  0  0  0  0
 14 36  1  0  0  0  0
 15 16  1  0  0  0  0
 15 37  1  0  0  0  0
 16 17  2  0  0  0  0
 16 38  1  0  0  0  0
 17 39  1  0  0  0  0
 18 19  1  0  0  0  0
 18 20  1  0  0  0  0
 18 40  1  0  0  0  0
 19 41  1  0  0  0  0
 20 21  1  0  0  0  0
 20 42  1  0  0  0  0
 21 43  1  0  0  0  0
 22 23  2  0  0  0  0
 22 24  1  0  0  0  0
 24 25  1  0  0  0  0
 25 26  2  0  0  0  0
M  CHG  1  24  -1
M  END
> <s_m_source_file>
AV-unprocessed.smi

> <i_m_source_file_index>
101

> <i_lp_mmshare_version>
43012

> <i_f3d_flags>
0

> <s_epik_input>
Tz1jMVtuSF1jKD1PKW4oW2NIXWMxW0NIM10pW0NAQEhdMk9bQ0BIXShbQ0BASF0oW09IXSlbQ0BIXTJbT0hdKVtDSDJdT0MoPU8pYzNbY0hdW2NIXVtjSF1bY0hdW2NIXTM=

> <s_epik_cmdline>
J2VwaWtfcHl0aG9uJywgJy1waCcsICc3LjAnLCAnLXRuJywgJzgnLCAnLW1hJywgJzIwMCcsICctbWV0YWxfYmluZGluZycsICctaW1hZScsICc8aW5maWxlLm1hZT4nLCAnLW9tYWUnLCAnPG91dGZpbGUubWFlPic=

> <r_lp_tautomer_probability>
0.999537

> <r_epik_Ionization_Penalty>
3.21006

> <r_epik_Ionization_Penalty_Charging>
5.75142e-08

> <r_epik_Ionization_Penalty_Neutral>
3.21006

> <r_epik_State_Penalty>
3.20925

> <r_epik_Charging_Adjusted_Penalty>
3.20925

> <i_epik_Tot_Q>
-1

> <i_epik_Tot_abs_Q>
1

> <r_epik_Metal_State_Penalty>
0.119957

> <b_epik_Metal_Only>
1

> <s_epik_Chemistry_Notes>
This compound has an ester and may undergo hydrolysis at high or low pH. This compound contains an acetal/aminal-like group ( X-CH(R)-Y where X, Y are N, S, or O) that may be acid/base labile, releasing an aldehyde.

> <s_lp_Force_Field>
OPLS_2005

> <r_lp_Energy>
44.5591

> <b_lp_Chiralities_Consistent>
1

> <s_lp_Variant>
AV-unprocessed.smi:101-30

> <Gold.Version>
5.8.1

> <Gold.Id.Protein>
6NUR|6NUR_protein|mol2

> <Gold.PLP.Fitness>
52.8440

> <Gold.PLP.PLP>
-45.4260

> <Gold.PLP.part.hbond>
-2.0000

> <Gold.PLP.part.metal>
0.0000

> <Gold.PLP.part.buried>
-6.3144

> <Gold.PLP.part.nonpolar>
-37.6961

> <Gold.PLP.part.repulsive>
0.1512

> <Gold.PLP.ligand.clash>
0.0000

> <Gold.PLP.ligand.torsion>
0.8181

> <Gold.PLP.Chemscore.Hbond>
2.0000

> <Gold.PLP.Chemscore.CHOScore>
1.0000

> <Gold.PLP.Chemscore.Metal>
0.0000

> <Gold.Chemscore.Hbonds>
donor molecule, donor type, donor heavy atom, donor atom, acceptor molecule, acceptor atom, score
      P1  H  7989  7998       L1     6  1.00
      P1  H 10752 10765       L1    11  0.90
      L1  C     3    30       P1  8028  1.00

> <Gold.PLP.Chemscore.Internal.Correction>
0.0541

> <Gold.Rescore>
     Score         DG    S(hbond)    S(metal)    S(lipo)     H(rot)  DE(clash)    DE(int)     intcor
      6.49     -12.88       1.74        0.00      84.93       3.27       0.04       6.36       ----

> <Gold.Chemscore.Fitness>
6.4877

> <Gold.Chemscore.DG>
-12.8803

> <Gold.Chemscore.ZeroCoef>
-5.4800

> <Gold.Chemscore.Hbond>
1.7436

> <Gold.Chemscore.Metal>
0.0000

> <Gold.Chemscore.Lipo>
84.9271

> <Gold.Chemscore.Internal_Hbond>
0.0000

> <Gold.Chemscore.DEClash>
0.0351

> <Gold.Chemscore.DEInternal>
6.3575

> <Gold.Chemscore.Rot>
3.2656

> <Gold.Chemscore.Internal.Correction>
   9.000000E+99

> <Gold.Chemscore.Hbonds>
donor molecule, donor type, donor heavy atom, donor atom, acceptor molecule, acceptor atom, score
      P1  H  7989  7998       L1     6  0.10
      P1  H 10752 10765       L1    11  0.17

> <Gold.Chemscore.Hbond.Weighted>
-5.8237

> <Gold.Chemscore.Metal.Weighted>
-0.0000

> <Gold.Chemscore.Lipo.Weighted>
-9.9365

> <Gold.Chemscore.Internal_Hbond.Weighted>
0.0000

> <Gold.Chemscore.DEClash.Weighted>
0.0351

> <Gold.Chemscore.DEInternal.Weighted>
6.3575

> <Gold.Chemscore.Rot.Weighted>
8.3598

> <Gold.Chemscore.Internal.Correction.Weighted>
   9.000000E+99

> <Gold.Protein.RotatedTorsions>
[ 6907 6896 6895 6894 ] final  107.85 input  -60.11 | X-H torsion
[ 7974 7965 7964 7962 ] final  -99.80 input  175.53 | X-H torsion
[ 8008 7997 7996 7995 ] final  -64.94 input   59.86 | X-H torsion
[ 10167 10162 10161 10158 ] final   65.39 input  -65.29 | X-H torsion
[ 10718 10713 10712 10709 ] final  151.20 input   66.30 | X-H torsion
[ 10763 10752 10751 10750 ] final -125.99 input  -60.55 | X-H torsion
[ 11005 11000 10999 10996 ] final  103.78 input  -57.11 | X-H torsion

> <Gold.Protein.ActiveResidues>
 VAL166  LYS551  ARG553  GLY616  TRP617  ASP618  TYR619  PRO620  LYS621  CYS622 
 ASP623  PHE694  ASN695  SER759  ASP760  ASP761  ALA762  ILE779  LEU786  VAL792 
 PHE793  MET794  SER795  GLU796  ALA797  LYS798  CYS799  TRP800  GLU811  SER814 

> <Gold.Protein.RotatedAtoms>
  152.5137  133.9174  159.7517 H   0  0  0  0  0  0  0  0  0  0  0  0  # atno 6907 bound_to 6896
  150.9554  133.6495  159.2771 H   0  0  0  0  0  0  0  0  0  0  0  0  # atno 6908 bound_to 6896
  151.3759  135.0936  159.9533 H   0  0  0  0  0  0  0  0  0  0  0  0  # atno 6909 bound_to 6896
  145.3029  140.9381  143.2813 H   0  0  0  0  0  0  0  0  0  0  0  0  # atno 7974 bound_to 7965
  154.4641  140.0943  156.6974 H   0  0  0  0  0  0  0  0  0  0  0  0  # atno 8008 bound_to 7997
  155.4908  140.3470  155.4336 H   0  0  0  0  0  0  0  0  0  0  0  0  # atno 8009 bound_to 7997
  156.0925  140.1401  156.9562 H   0  0  0  0  0  0  0  0  0  0  0  0  # atno 8010 bound_to 7997
  140.1118  144.4811  150.6973 H   0  0  0  0  0  0  0  0  0  0  0  0  # atno 10167 bound_to 10162
  157.2738  131.0822  151.1581 H   0  0  0  0  0  0  0  0  0  0  0  0  # atno 10718 bound_to 10713
  154.8741  135.4011  154.3357 H   0  0  0  0  0  0  0  0  0  0  0  0  # atno 10763 bound_to 10752
  153.4164  135.7022  153.6329 H   0  0  0  0  0  0  0  0  0  0  0  0  # atno 10764 bound_to 10752
  153.5010  135.3727  155.2510 H   0  0  0  0  0  0  0  0  0  0  0  0  # atno 10765 bound_to 10752
  139.8786  134.9276  156.5262 H   0  0  0  0  0  0  0  0  0  0  0  0  # atno 11005 bound_to 11000
  144.9079  139.4566  143.6601 LP  0  0  0  0  0  0  0  0  0  0  0  0  # atno 17320 bound_to 7965
  146.3145  139.7870  142.8994 LP  0  0  0  0  0  0  0  0  0  0  0  0  # atno 17321 bound_to 7965
  140.6921  143.2382  151.5101 LP  0  0  0  0  0  0  0  0  0  0  0  0  # atno 17342 bound_to 10162
  139.5615  144.2144  152.1699 LP  0  0  0  0  0  0  0  0  0  0  0  0  # atno 17343 bound_to 10162
  157.3042  130.6858  149.6180 LP  0  0  0  0  0  0  0  0  0  0  0  0  # atno 17370 bound_to 10713
  155.9663  130.4383  150.5211 LP  0  0  0  0  0  0  0  0  0  0  0  0  # atno 17371 bound_to 10713
  140.8414  133.8202  155.9079 LP  0  0  0  0  0  0  0  0  0  0  0  0  # atno 17394 bound_to 11000
  140.9233  134.2114  157.4912 LP  0  0  0  0  0  0  0  0  0  0  0  0  # atno 17395 bound_to 11000

$$$$
