#       Name:                AV-unprocessed.smi:258
#       Creating user name   scv26
#       Creation time:       Thu Mar 26 21:13:20 2020


#       File generated by GOLD software.
#

@<TRIPOS>MOLECULE
AV-unprocessed.smi:258
    69    72     1
SMALL
NO_CHARGES


@<TRIPOS>ATOM
      1 ****        -7.9452   2.4996  -0.9799 O.3            1 S1                 0.0000
      2 ****        -7.3377   2.0114  -2.1571 C.3            1 S1                 0.0000
      3 ****        -6.7090   0.6373  -1.8962 C.3            1 S1                 0.0000
      4 ****        -5.4231   0.8215  -1.3218 O.3            1 S1                 0.0000
      5 ****        -4.7147  -0.3824  -1.0573 C.3            1 S1                 0.0000
      6 ****        -5.2167  -1.0476   0.2401 C.3            1 S1                 0.0000
      7 ****        -4.3377  -2.2568   0.5924 C.3            1 S1                 0.0000
      8 ****        -2.8581  -1.8531   0.6872 C.3            1 S1                 0.0000
      9 ****        -2.4241  -1.1753  -0.5327 N.3            1 S1                 0.0000
     10 ****        -1.0943  -1.0883  -0.7957 C.ar           1 S1                 0.0000
     11 ****        -0.7298  -0.9021  -2.0915 N.ar           1 S1                 0.0000
     12 ****         0.5591  -0.8085  -2.4292 C.ar           1 S1                 0.0000
     13 ****         1.6334  -0.8691  -1.6418 N.ar           1 S1                 0.0000
     14 ****         1.2790  -1.0520  -0.3382 C.ar           1 S1                 0.0000
     15 ****        -0.0465  -1.1760   0.1712 C.ar           1 S1                 0.0000
     16 ****         0.0029  -1.3453   1.5519 N.2            1 S1                 0.0000
     17 ****         1.2756  -1.3264   1.8379 C.2            1 S1                 0.0000
     18 ****         2.1123  -1.1446   0.7617 N.pl3          1 S1                 0.0000
     19 ****         3.5620  -1.0685   0.7866 C.3            1 S1                 0.0000
     20 ****         4.1132   0.3686   0.6053 C.3            1 S1                 0.0000
     21 ****         3.5829   1.3559   1.6777 C.3            1 S1                 0.0000
     22 ****         2.2768   1.8014   1.3754 O.3            1 S1                 0.0000
     23 ****         5.6606   0.3228   0.5096 C.3            1 S1                 0.0000
     24 ****         6.3417   1.5796  -0.0011 C.3            1 S1                 0.0000
     25 ****         7.7947   1.3157   0.3836 C.3            1 S1                 0.0000
     26 ****         7.7482   0.5408   1.5793 O.3            1 S1                 0.0000
     27 ****         6.4236   0.0695   1.8129 C.3            1 S1                 0.0000
     28 ****        -3.2252  -0.0160  -0.9304 C.3            1 S1                 0.0000
     29 ****        -8.3261   3.3437  -1.1667 H              1 S1                 0.0000
     30 ****        -8.1149   1.9238  -2.9169 H              1 S1                 0.0000
     31 ****        -6.5996   2.7222  -2.5301 H              1 S1                 0.0000
     32 ****        -7.3589   0.0263  -1.2694 H              1 S1                 0.0000
     33 ****        -6.5921   0.1147  -2.8466 H              1 S1                 0.0000
     34 ****        -4.8264  -1.0735  -1.8951 H              1 S1                 0.0000
     35 ****        -5.1920  -0.3263   1.0580 H              1 S1                 0.0000
     36 ****        -6.2526  -1.3701   0.1386 H              1 S1                 0.0000
     37 ****        -4.6649  -2.6965   1.5347 H              1 S1                 0.0000
     38 ****        -4.4570  -3.0290  -0.1686 H              1 S1                 0.0000
     39 ****        -2.7125  -1.1874   1.5387 H              1 S1                 0.0000
     40 ****        -2.2524  -2.7437   0.8590 H              1 S1                 0.0000
     41 ****         0.7577  -0.6626  -3.4808 H              1 S1                 0.0000
     42 ****         1.6401  -1.4324   2.8492 H              1 S1                 0.0000
     43 ****         3.9124  -1.4905   1.7292 H              1 S1                 0.0000
     44 ****         3.9398  -1.7209  -0.0017 H              1 S1                 0.0000
     45 ****         3.7699   0.7270  -0.3665 H              1 S1                 0.0000
     46 ****         3.5852   0.8941   2.6653 H              1 S1                 0.0000
     47 ****         4.2049   2.2459   1.7485 H              1 S1                 0.0000
     48 ****         1.9995   2.4026   2.0498 H              1 S1                 0.0000
     49 ****         5.9301  -0.4726  -0.1876 H              1 S1                 0.0000
     50 ****         6.2108   1.7301  -1.0730 H              1 S1                 0.0000
     51 ****         5.9867   2.4725   0.5111 H              1 S1                 0.0000
     52 ****         8.2912   0.7288  -0.3901 H              1 S1                 0.0000
     53 ****         8.3623   2.2356   0.5257 H              1 S1                 0.0000
     54 ****         6.0077   0.6414   2.6420 H              1 S1                 0.0000
     55 ****         6.4240  -0.9827   2.0972 H              1 S1                 0.0000
     56 ****        -2.8813   0.4036  -1.8762 H              1 S1                 0.0000
     57 ****        -3.0973   0.7642  -0.1787 H              1 S1                 0.0000
     58 ****        -7.2582   2.5917  -0.2591 LP             1 S1                 0.0000
     59 ****        -8.6590   1.8662  -0.6811 LP             1 S1                 0.0000
     60 ****        -5.5347   1.3137  -0.4585 LP             1 S1                 0.0000
     61 ****        -4.8763   1.3731  -1.9517 LP             1 S1                 0.0000
     62 ****        -2.6670  -1.8812  -1.1980 LP             1 S1                 0.0000
     63 ****        -1.4332  -0.8345  -2.7990 LP             1 S1                 0.0000
     64 ****         2.5764  -0.7906  -1.9654 LP             1 S1                 0.0000
     65 ****        -0.7648  -1.4565   2.1830 LP             1 S1                 0.0000
     66 ****         1.6534   1.0202   1.3435 LP             1 S1                 0.0000
     67 ****         2.2757   2.2652   0.4895 LP             1 S1                 0.0000
     68 ****         8.0375   1.1073   2.3509 LP             1 S1                 0.0000
     69 ****         8.3654  -0.2409   1.4899 LP             1 S1                 0.0000
@<TRIPOS>BOND
    1    1    2 1     
    2    1   29 1     
    3    2    3 1     
    4    2   30 1     
    5    2   31 1     
    6    3    4 1     
    7    3   32 1     
    8    3   33 1     
    9    4    5 1     
   10    5   28 1     
   11    5    6 1     
   12    5   34 1     
   13    6    7 1     
   14    6   35 1     
   15    6   36 1     
   16    7    8 1     
   17    7   37 1     
   18    7   38 1     
   19    8    9 1     
   20    8   39 1     
   21    8   40 1     
   22    9   10 1     
   23    9   28 1     
   24   10   15 ar    
   25   10   11 ar    
   26   11   12 ar    
   27   12   13 ar    
   28   12   41 1     
   29   13   14 ar    
   30   14   18 1     
   31   14   15 ar    
   32   15   16 1     
   33   16   17 2     
   34   17   18 1     
   35   17   42 1     
   36   18   19 1     
   37   19   20 1     
   38   19   43 1     
   39   19   44 1     
   40   20   21 1     
   41   20   23 1     
   42   20   45 1     
   43   21   22 1     
   44   21   46 1     
   45   21   47 1     
   46   22   48 1     
   47   23   27 1     
   48   23   24 1     
   49   23   49 1     
   50   24   25 1     
   51   24   50 1     
   52   24   51 1     
   53   25   26 1     
   54   25   52 1     
   55   25   53 1     
   56   26   27 1     
   57   27   54 1     
   58   27   55 1     
   59   28   56 1     
   60   28   57 1     
   61    1   58 1     
   62    1   59 1     
   63    4   60 1     
   64    4   61 1     
   65    9   62 1     
   66   11   63 1     
   67   13   64 1     
   68   16   65 1     
   69   22   66 1     
   70   22   67 1     
   71   26   68 1     
   72   26   69 1     
@<TRIPOS>SUBSTRUCTURE
      1 S1             1
@<TRIPOS>SET
LONE_PAIRS      STATIC     ATOMS    <user>   **** ""
12 58 59 60 61 62 63 64 65 66 67 68 69
DONOR_HYDROGENS      STATIC     ATOMS    <user>   **** ""
2 29 48
ATOM$BLUE        STATIC     ATOMS    COLORGROUP SYSTEM
12 58 59 60 61 62 63 64 65 66 67 68 69
ATOM$RED        STATIC     ATOMS    COLORGROUP SYSTEM
2 29 48
