AV-unprocessed.smi:325|AV-procd|sdf|2342|dock6
  -GOLD-   2262022253D 1   1.00000     0.00000
 Structure written by MMmdl.
 46 47  0  0  0  0  0  0  0  0  1 V2000
  152.6219  137.5234  158.6071 C   0  0  0  0  0  0  0  0  0  0  0  0
  152.1819  138.6865  157.7355 C   0  0  0  0  0  0  0  0  0  0  0  0
  152.3348  139.9312  158.3183 N   0  0  0  0  0  0  0  0  0  0  0  0
  151.9513  141.0645  157.6114 C   0  0  0  0  0  0  0  0  0  0  0  0
  152.1379  142.2647  158.2970 N   0  0  0  0  0  0  0  0  0  0  0  0
  152.1291  142.2763  159.7603 C   0  0  0  0  0  0  0  0  0  0  0  0
  152.8222  143.5334  160.3125 C   0  0  0  0  0  0  0  0  0  0  0  0
  152.2057  144.6951  159.7737 O   0  0  0  0  0  0  0  0  0  0  0  0
  152.3217  144.7355  158.3577 C   0  0  0  0  0  0  0  0  0  0  0  0
  151.6150  143.5147  157.7452 C   0  0  0  0  0  0  0  0  0  0  0  0
  151.4698  141.0161  156.4026 N   0  0  0  0  0  0  0  0  0  0  0  0
  151.3050  139.7847  155.7513 C   0  0  0  0  0  0  0  0  0  0  0  0
  150.8598  139.7398  154.6055 O   0  0  0  0  0  0  0  0  0  0  0  0
  151.6867  138.5581  156.4817 C   0  0  0  0  0  0  0  0  0  0  0  0
  151.4868  137.2087  155.7973 C   0  0  0  0  0  0  0  0  0  0  0  0
  149.9985  136.8956  155.5519 C   0  0  0  0  0  0  0  0  0  0  0  0
  149.6899  135.3954  155.5709 C   0  0  0  0  0  0  0  0  0  0  0  0
  149.9452  134.7147  156.5649 O   0  0  0  0  0  0  0  0  0  0  0  0
  149.1330  134.8922  154.4577 N   0  0  0  0  0  0  0  0  0  0  0  0
  148.7456  133.4981  154.2599 C   0  0  0  0  0  0  0  0  0  0  0  0
  149.8913  132.5557  154.6629 C   0  0  0  0  0  0  0  0  0  0  0  0
  148.3276  133.2871  152.7984 C   0  0  0  0  0  0  0  0  0  0  0  0
  152.7181  139.9725  159.2515 H   0  0  0  0  0  0  0  0  0  0  0  0
  153.3664  136.9194  158.0880 H   0  0  0  0  0  0  0  0  0  0  0  0
  151.7701  136.8884  158.8515 H   0  0  0  0  0  0  0  0  0  0  0  0
  153.0631  137.8666  159.5439 H   0  0  0  0  0  0  0  0  0  0  0  0
  152.6220  141.3922  160.1661 H   0  0  0  0  0  0  0  0  0  0  0  0
  151.0945  142.2430  160.1042 H   0  0  0  0  0  0  0  0  0  0  0  0
  152.7392  143.5607  161.3992 H   0  0  0  0  0  0  0  0  0  0  0  0
  153.8871  143.5269  160.0740 H   0  0  0  0  0  0  0  0  0  0  0  0
  151.8660  145.6552  157.9907 H   0  0  0  0  0  0  0  0  0  0  0  0
  153.3730  144.7629  158.0665 H   0  0  0  0  0  0  0  0  0  0  0  0
  150.5430  143.5680  157.9407 H   0  0  0  0  0  0  0  0  0  0  0  0
  151.7427  143.5330  156.6619 H   0  0  0  0  0  0  0  0  0  0  0  0
  151.9480  136.4277  156.4042 H   0  0  0  0  0  0  0  0  0  0  0  0
  152.0261  137.1889  154.8503 H   0  0  0  0  0  0  0  0  0  0  0  0
  149.3836  137.3785  156.3123 H   0  0  0  0  0  0  0  0  0  0  0  0
  149.6927  137.3132  154.5913 H   0  0  0  0  0  0  0  0  0  0  0  0
  148.9564  135.5254  153.6913 H   0  0  0  0  0  0  0  0  0  0  0  0
  147.8793  133.2802  154.8870 H   0  0  0  0  0  0  0  0  0  0  0  0
  149.6086  131.5126  154.5191 H   0  0  0  0  0  0  0  0  0  0  0  0
  150.1562  132.6799  155.7134 H   0  0  0  0  0  0  0  0  0  0  0  0
  150.7868  132.7419  154.0690 H   0  0  0  0  0  0  0  0  0  0  0  0
  147.9952  132.2623  152.6310 H   0  0  0  0  0  0  0  0  0  0  0  0
  149.1551  133.4835  152.1153 H   0  0  0  0  0  0  0  0  0  0  0  0
  147.5043  133.9482  152.5248 H   0  0  0  0  0  0  0  0  0  0  0  0
  1 24  1  0  0  0  0
  1 25  1  0  0  0  0
  1 26  1  0  0  0  0
  1  2  1  0  0  0  0
  2 14  2  0  0  0  0
  2  3  1  0  0  0  0
  3 23  1  0  0  0  0
  3  4  1  0  0  0  0
  4  5  1  0  0  0  0
  4 11  2  0  0  0  0
  5 10  1  0  0  0  0
  5  6  1  0  0  0  0
  6  7  1  0  0  0  0
  6 27  1  0  0  0  0
  6 28  1  0  0  0  0
  7  8  1  0  0  0  0
  7 29  1  0  0  0  0
  7 30  1  0  0  0  0
  8  9  1  0  0  0  0
  9 10  1  0  0  0  0
  9 31  1  0  0  0  0
  9 32  1  0  0  0  0
 10 33  1  0  0  0  0
 10 34  1  0  0  0  0
 11 12  1  0  0  0  0
 12 13  2  0  0  0  0
 12 14  1  0  0  0  0
 14 15  1  0  0  0  0
 15 16  1  0  0  0  0
 15 35  1  0  0  0  0
 15 36  1  0  0  0  0
 16 17  1  0  0  0  0
 16 37  1  0  0  0  0
 16 38  1  0  0  0  0
 17 18  2  0  0  0  0
 17 19  1  0  0  0  0
 19 20  1  0  0  0  0
 19 39  1  0  0  0  0
 20 21  1  0  0  0  0
 20 22  1  0  0  0  0
 20 40  1  0  0  0  0
 21 41  1  0  0  0  0
 21 42  1  0  0  0  0
 21 43  1  0  0  0  0
 22 44  1  0  0  0  0
 22 45  1  0  0  0  0
 22 46  1  0  0  0  0
M  END
> <s_m_source_file>
AV-unprocessed.smi

> <i_m_source_file_index>
325

> <i_lp_mmshare_version>
43012

> <i_f3d_flags>
0

> <s_epik_input>
W0NIMl0xW0NIMl1PW0NIMl1bQ0gyXU4xYyhuYzJbQ0gzXSlbbkhdYyg9TyljMltDSDJdW0NIMl1DKD1PKVtOSF1bQ0hdKFtDSDNdKVtDSDNd

> <s_epik_cmdline>
J2VwaWtfcHl0aG9uJywgJy1waCcsICc3LjAnLCAnLXRuJywgJzgnLCAnLW1hJywgJzIwMCcsICctbWV0YWxfYmluZGluZycsICctaW1hZScsICc8aW5maWxlLm1hZT4nLCAnLW9tYWUnLCAnPG91dGZpbGUubWFlPic=

> <r_lp_tautomer_probability>
0.108306

> <r_epik_Ionization_Penalty>
0.0738532

> <r_epik_Ionization_Penalty_Charging>
0.0614224

> <r_epik_Ionization_Penalty_Neutral>
0.0124309

> <r_epik_State_Penalty>
1.70966

> <r_epik_Charging_Adjusted_Penalty>
1.77108

> <i_epik_Tot_Q>
0

> <i_epik_Tot_abs_Q>
0

> <r_epik_Metal_State_Penalty>
2.67951

> <b_epik_Metal_Only>
0

> <s_lp_Force_Field>
OPLS_2005

> <r_lp_Energy>
25.9906

> <b_lp_Chiralities_Consistent>
1

> <s_lp_Variant>
AV-unprocessed.smi:325-2

> <Gold.Version>
5.8.1

> <Gold.Id.Protein>
6NUR|6NUR_protein|mol2

> <Gold.PLP.Fitness>
44.2478

> <Gold.PLP.PLP>
-38.8441

> <Gold.PLP.part.hbond>
-2.0000

> <Gold.PLP.part.metal>
0.0000

> <Gold.PLP.part.buried>
-6.1939

> <Gold.PLP.part.nonpolar>
-29.8267

> <Gold.PLP.part.repulsive>
0.2624

> <Gold.PLP.ligand.clash>
0.0000

> <Gold.PLP.ligand.torsion>
0.4667

> <Gold.PLP.Chemscore.Hbond>
2.0000

> <Gold.PLP.Chemscore.CHOScore>
0.0000

> <Gold.PLP.Chemscore.Metal>
0.0000

> <Gold.Chemscore.Hbonds>
donor molecule, donor type, donor heavy atom, donor atom, acceptor molecule, acceptor atom, score
      L1  H    19    39       P1  7948  1.00
      P1  H  7989  7998       L1    13  1.00

> <Gold.PLP.Chemscore.Internal.Correction>
0.3371

> <Gold.Rescore>
     Score         DG    S(hbond)    S(metal)    S(lipo)     H(rot)  DE(clash)    DE(int)     intcor
     15.35     -17.22       1.77        0.00      87.06       1.71       0.06       1.81       ----

> <Gold.Chemscore.Fitness>
15.3546

> <Gold.Chemscore.DG>
-17.2183

> <Gold.Chemscore.ZeroCoef>
-5.4800

> <Gold.Chemscore.Hbond>
1.7737

> <Gold.Chemscore.Metal>
0.0000

> <Gold.Chemscore.Lipo>
87.0630

> <Gold.Chemscore.Internal_Hbond>
0.0000

> <Gold.Chemscore.DEClash>
0.0555

> <Gold.Chemscore.DEInternal>
1.8081

> <Gold.Chemscore.Rot>
1.7080

> <Gold.Chemscore.Internal.Correction>
   9.000000E+99

> <Gold.Chemscore.Hbonds>
donor molecule, donor type, donor heavy atom, donor atom, acceptor molecule, acceptor atom, score
      L1  H    19    39       P1  7948  0.81
      P1  H  7989  7998       L1    13  0.88

> <Gold.Chemscore.Hbond.Weighted>
-5.9243

> <Gold.Chemscore.Metal.Weighted>
-0.0000

> <Gold.Chemscore.Lipo.Weighted>
-10.1864

> <Gold.Chemscore.Internal_Hbond.Weighted>
0.0000

> <Gold.Chemscore.DEClash.Weighted>
0.0555

> <Gold.Chemscore.DEInternal.Weighted>
1.8081

> <Gold.Chemscore.Rot.Weighted>
4.3724

> <Gold.Chemscore.Internal.Correction.Weighted>
   9.000000E+99

> <Gold.Protein.RotatedTorsions>
[ 6907 6896 6895 6894 ] final  -99.45 input  -60.11 | X-H torsion
[ 7974 7965 7964 7962 ] final   63.38 input  175.53 | X-H torsion
[ 8008 7997 7996 7995 ] final -111.73 input   59.86 | X-H torsion
[ 10167 10162 10161 10158 ] final -141.69 input  -65.29 | X-H torsion
[ 10718 10713 10712 10709 ] final  -67.96 input   66.30 | X-H torsion
[ 10763 10752 10751 10750 ] final  -66.26 input  -60.55 | X-H torsion
[ 11005 11000 10999 10996 ] final  -12.01 input  -57.11 | X-H torsion

> <Gold.Protein.ActiveResidues>
 VAL166  LYS551  ARG553  GLY616  TRP617  ASP618  TYR619  PRO620  LYS621  CYS622 
 ASP623  PHE694  ASN695  SER759  ASP760  ASP761  ALA762  ILE779  LEU786  VAL792 
 PHE793  MET794  SER795  GLU796  ALA797  LYS798  CYS799  TRP800  GLU811  SER814 

> <Gold.Protein.RotatedAtoms>
  150.7080  134.1039  159.3975 H   0  0  0  0  0  0  0  0  0  0  0  0  # atno 6907 bound_to 6896
  151.9026  135.0370  160.0517 H   0  0  0  0  0  0  0  0  0  0  0  0  # atno 6908 bound_to 6896
  152.2402  133.5094  159.5302 H   0  0  0  0  0  0  0  0  0  0  0  0  # atno 6909 bound_to 6896
  145.8624  139.3324  143.0811 H   0  0  0  0  0  0  0  0  0  0  0  0  # atno 7974 bound_to 7965
  154.9943  140.0395  157.2333 H   0  0  0  0  0  0  0  0  0  0  0  0  # atno 8008 bound_to 7997
  154.7601  140.2783  155.6199 H   0  0  0  0  0  0  0  0  0  0  0  0  # atno 8009 bound_to 7997
  156.2902  140.2630  156.2377 H   0  0  0  0  0  0  0  0  0  0  0  0  # atno 8010 bound_to 7997
  139.8161  143.7637  152.2665 H   0  0  0  0  0  0  0  0  0  0  0  0  # atno 10167 bound_to 10162
  156.0530  130.4287  150.1931 H   0  0  0  0  0  0  0  0  0  0  0  0  # atno 10718 bound_to 10713
  154.3572  135.6124  153.5672 H   0  0  0  0  0  0  0  0  0  0  0  0  # atno 10763 bound_to 10752
  152.9795  135.5806  154.4675 H   0  0  0  0  0  0  0  0  0  0  0  0  # atno 10764 bound_to 10752
  154.4407  135.2850  155.1827 H   0  0  0  0  0  0  0  0  0  0  0  0  # atno 10765 bound_to 10752
  140.7613  133.8513  155.9127 H   0  0  0  0  0  0  0  0  0  0  0  0  # atno 11005 bound_to 11000
  145.9232  140.9101  143.0394 LP  0  0  0  0  0  0  0  0  0  0  0  0  # atno 17320 bound_to 7965
  144.6726  140.1317  143.7443 LP  0  0  0  0  0  0  0  0  0  0  0  0  # atno 17321 bound_to 7965
  139.7801  144.7447  151.0101 LP  0  0  0  0  0  0  0  0  0  0  0  0  # atno 17342 bound_to 10162
  140.7815  143.4551  151.0357 LP  0  0  0  0  0  0  0  0  0  0  0  0  # atno 17343 bound_to 10162
  157.0012  130.9923  151.3390 LP  0  0  0  0  0  0  0  0  0  0  0  0  # atno 17370 bound_to 10713
  157.5474  130.8159  149.8102 LP  0  0  0  0  0  0  0  0  0  0  0  0  # atno 17371 bound_to 10713
  140.9661  134.1593  157.4615 LP  0  0  0  0  0  0  0  0  0  0  0  0  # atno 17394 bound_to 11000
  139.8770  134.9962  156.5782 LP  0  0  0  0  0  0  0  0  0  0  0  0  # atno 17395 bound_to 11000

$$$$
