AV-unprocessed.smi:3052|AV-procd|sdf|11636|dock5
  -GOLD-   2272017 33D 1   1.00000     0.00000
 Structure written by MMmdl.
 41 43  0  0  0  0  0  0  0  0  1 V2000
  149.5850  131.1537  154.3965 C   0  0  0  0  0  0  0  0  0  0  0  0
  150.0024  132.4639  155.0044 C   0  0  0  0  0  0  0  0  0  0  0  0
  150.9238  132.4683  155.9563 N   0  0  0  0  0  0  0  0  0  0  0  0
  151.1599  133.8127  156.2822 O   0  0  0  0  0  0  0  0  0  0  0  0
  150.3601  134.6001  155.5163 C   0  0  0  0  0  0  0  0  0  0  0  0
  150.4865  136.0757  155.7110 C   0  0  0  0  0  0  0  0  0  0  0  0
  149.5421  137.0318  155.0265 C   0  0  0  0  0  0  0  0  0  0  0  0
  150.9988  136.9859  154.6199 C   0  0  0  0  0  0  0  0  0  0  0  0
  149.6015  133.8004  154.7122 C   0  0  0  0  0  0  0  0  0  0  0  0
  148.6781  134.2690  153.7452 N   0  0  0  0  0  0  0  0  0  0  0  0
  147.4628  133.7643  153.4862 C   0  0  0  0  0  0  0  0  0  0  0  0
  146.9799  132.7821  154.0480 O   0  0  0  0  0  0  0  0  0  0  0  0
  146.8315  134.4884  152.5474 N   0  0  0  0  0  0  0  0  0  0  0  0
  145.4922  134.2848  151.9814 C   0  0  2  0  0  0  0  0  0  0  0  0
  145.4033  135.3051  150.8200 C   0  0  0  0  0  0  0  0  0  0  0  0
  144.4368  134.6546  153.0590 C   0  0  0  0  0  0  0  0  0  0  0  0
  144.5536  133.8546  154.2190 O   0  0  0  0  0  0  0  0  0  0  0  0
  145.2738  132.8337  151.5181 C   0  0  0  0  0  0  0  0  0  0  0  0
  145.7397  132.3002  150.1836 C   0  0  0  0  0  0  0  0  0  0  0  0
  144.2568  132.4159  150.4798 C   0  0  0  0  0  0  0  0  0  0  0  0
  149.3233  131.2712  153.3451 H   0  0  0  0  0  0  0  0  0  0  0  0
  148.7195  130.7406  154.9145 H   0  0  0  0  0  0  0  0  0  0  0  0
  150.3856  130.4152  154.4503 H   0  0  0  0  0  0  0  0  0  0  0  0
  150.7795  136.3101  156.7324 H   0  0  0  0  0  0  0  0  0  0  0  0
  148.8152  136.6148  154.3322 H   0  0  0  0  0  0  0  0  0  0  0  0
  149.2037  137.8961  155.5940 H   0  0  0  0  0  0  0  0  0  0  0  0
  151.6303  137.8202  154.9177 H   0  0  0  0  0  0  0  0  0  0  0  0
  151.2260  136.5534  153.6477 H   0  0  0  0  0  0  0  0  0  0  0  0
  148.9097  135.1442  153.2991 H   0  0  0  0  0  0  0  0  0  0  0  0
  147.3386  135.2766  152.1725 H   0  0  0  0  0  0  0  0  0  0  0  0
  144.4389  135.2845  150.3136 H   0  0  0  0  0  0  0  0  0  0  0  0
  146.1742  135.1380  150.0679 H   0  0  0  0  0  0  0  0  0  0  0  0
  145.5386  136.3238  151.1863 H   0  0  0  0  0  0  0  0  0  0  0  0
  144.5306  135.6972  153.3636 H   0  0  0  0  0  0  0  0  0  0  0  0
  143.4268  134.5324  152.6651 H   0  0  0  0  0  0  0  0  0  0  0  0
  144.0084  133.0901  154.1131 H   0  0  0  0  0  0  0  0  0  0  0  0
  145.3635  132.1246  152.3386 H   0  0  0  0  0  0  0  0  0  0  0  0
  146.1604  132.9921  149.4583 H   0  0  0  0  0  0  0  0  0  0  0  0
  146.1726  131.3021  150.1722 H   0  0  0  0  0  0  0  0  0  0  0  0
  143.7103  131.4931  150.6631 H   0  0  0  0  0  0  0  0  0  0  0  0
  143.6996  133.1793  149.9432 H   0  0  0  0  0  0  0  0  0  0  0  0
  1  2  1  0  0  0  0
  1 21  1  0  0  0  0
  1 22  1  0  0  0  0
  1 23  1  0  0  0  0
  2  9  1  0  0  0  0
  2  3  2  0  0  0  0
  3  4  1  0  0  0  0
  4  5  1  0  0  0  0
  5  6  1  0  0  0  0
  5  9  2  0  0  0  0
  6  8  1  0  0  0  0
  6  7  1  0  0  0  0
  6 24  1  0  0  0  0
  7  8  1  0  0  0  0
  7 25  1  0  0  0  0
  7 26  1  0  0  0  0
  8 27  1  0  0  0  0
  8 28  1  0  0  0  0
  9 10  1  0  0  0  0
 10 11  1  0  0  0  0
 10 29  1  0  0  0  0
 11 12  2  0  0  0  0
 11 13  1  0  0  0  0
 13 14  1  0  0  0  0
 13 30  1  0  0  0  0
 14 15  1  0  0  0  0
 14 16  1  0  0  0  0
 14 18  1  0  0  0  0
 15 31  1  0  0  0  0
 15 32  1  0  0  0  0
 15 33  1  0  0  0  0
 16 17  1  0  0  0  0
 16 34  1  0  0  0  0
 16 35  1  0  0  0  0
 17 36  1  0  0  0  0
 18 20  1  0  0  0  0
 18 19  1  0  0  0  0
 18 37  1  0  0  0  0
 19 20  1  0  0  0  0
 19 38  1  0  0  0  0
 19 39  1  0  0  0  0
 20 40  1  0  0  0  0
 20 41  1  0  0  0  0
M  END
> <s_m_source_file>
AV-unprocessed.smi

> <i_m_source_file_index>
3052

> <i_lp_mmshare_version>
43012

> <i_f3d_flags>
0

> <s_epik_input>
W0NIM11jMW5vYyhbQ0hdMltDSDJdW0NIMl0yKWMxW05IXUMoPU8pW05IXVtDQEBdKFtDSDNdKShbQ0gyXVtPSF0pW0NIXTNbQ0gyXVtDSDJdMw==

> <s_epik_cmdline>
J2VwaWtfcHl0aG9uJywgJy1waCcsICc3LjAnLCAnLXRuJywgJzgnLCAnLW1hJywgJzIwMCcsICctbWV0YWxfYmluZGluZycsICctaW1hZScsICc8aW5maWxlLm1hZT4nLCAnLW9tYWUnLCAnPG91dGZpbGUubWFlPic=

> <r_lp_tautomer_probability>
1

> <r_epik_Ionization_Penalty>
3.5887e-05

> <r_epik_Ionization_Penalty_Charging>
0

> <r_epik_Ionization_Penalty_Neutral>
3.5887e-05

> <r_epik_State_Penalty>
-0

> <r_epik_Charging_Adjusted_Penalty>
0

> <i_epik_Tot_Q>
0

> <i_epik_Tot_abs_Q>
0

> <r_epik_Metal_State_Penalty>
-0

> <b_epik_Metal_Only>
0

> <s_lp_Force_Field>
OPLS_2005

> <r_lp_Energy>
28.1978

> <b_lp_Chiralities_Consistent>
1

> <s_lp_Variant>
AV-unprocessed.smi:3052-2

> <Gold.Version>
5.8.1

> <Gold.Id.Protein>
6NUR|6NUR_protein|mol2

> <Gold.PLP.Fitness>
41.7471

> <Gold.PLP.PLP>
-33.3140

> <Gold.PLP.part.hbond>
-3.0000

> <Gold.PLP.part.metal>
0.0000

> <Gold.PLP.part.buried>
-5.2525

> <Gold.PLP.part.nonpolar>
-25.2641

> <Gold.PLP.part.repulsive>
0.0711

> <Gold.PLP.ligand.clash>
0.0000

> <Gold.PLP.ligand.torsion>
1.2786

> <Gold.PLP.Chemscore.Hbond>
2.9840

> <Gold.PLP.Chemscore.CHOScore>
0.0000

> <Gold.PLP.Chemscore.Metal>
0.0000

> <Gold.Chemscore.Hbonds>
donor molecule, donor type, donor heavy atom, donor atom, acceptor molecule, acceptor atom, score
      L1  H    10    29       P1  7948  1.00
      L1  H    13    30       P1  7948  1.00
      L1  H    17    36       P1 10957  1.00

> <Gold.PLP.Chemscore.Internal.Correction>
2.0383

> <Gold.Rescore>
     Score         DG    S(hbond)    S(metal)    S(lipo)     H(rot)  DE(clash)    DE(int)     intcor
     14.54     -16.92       2.51        0.00      73.31       2.16       0.01       2.37       ----

> <Gold.Chemscore.Fitness>
14.5445

> <Gold.Chemscore.DG>
-16.9215

> <Gold.Chemscore.ZeroCoef>
-5.4800

> <Gold.Chemscore.Hbond>
2.5109

> <Gold.Chemscore.Metal>
0.0000

> <Gold.Chemscore.Lipo>
73.3074

> <Gold.Chemscore.Internal_Hbond>
0.0000

> <Gold.Chemscore.DEClash>
0.0060

> <Gold.Chemscore.DEInternal>
2.3710

> <Gold.Chemscore.Rot>
2.1569

> <Gold.Chemscore.Internal.Correction>
   9.000000E+99

> <Gold.Chemscore.Hbonds>
donor molecule, donor type, donor heavy atom, donor atom, acceptor molecule, acceptor atom, score
      L1  H    10    29       P1  7948  0.43
      L1  H    13    30       P1  7948  0.95
      L1  H    17    36       P1 10957  0.93

> <Gold.Chemscore.Hbond.Weighted>
-8.3863

> <Gold.Chemscore.Metal.Weighted>
-0.0000

> <Gold.Chemscore.Lipo.Weighted>
-8.5770

> <Gold.Chemscore.Internal_Hbond.Weighted>
0.0000

> <Gold.Chemscore.DEClash.Weighted>
0.0060

> <Gold.Chemscore.DEInternal.Weighted>
2.3710

> <Gold.Chemscore.Rot.Weighted>
5.5218

> <Gold.Chemscore.Internal.Correction.Weighted>
   9.000000E+99

> <Gold.Protein.RotatedTorsions>
[ 6907 6896 6895 6894 ] final   72.56 input  -60.11 | X-H torsion
[ 7974 7965 7964 7962 ] final  143.58 input  175.53 | X-H torsion
[ 8008 7997 7996 7995 ] final   -5.06 input   59.86 | X-H torsion
[ 10167 10162 10161 10158 ] final   -7.13 input  -65.29 | X-H torsion
[ 10718 10713 10712 10709 ] final  -25.48 input   66.30 | X-H torsion
[ 10763 10752 10751 10750 ] final  104.79 input  -60.55 | X-H torsion
[ 11005 11000 10999 10996 ] final  150.63 input  -57.11 | X-H torsion

> <Gold.Protein.ActiveResidues>
 VAL166  LYS551  ARG553  GLY616  TRP617  ASP618  TYR619  PRO620  LYS621  CYS622 
 ASP623  PHE694  ASN695  SER759  ASP760  ASP761  ALA762  ILE779  LEU786  VAL792 
 PHE793  MET794  SER795  GLU796  ALA797  LYS798  CYS799  TRP800  GLU811  SER814 

> <Gold.Protein.RotatedAtoms>
  152.4874  134.4554  159.9587 H   0  0  0  0  0  0  0  0  0  0  0  0  # atno 6907 bound_to 6896
  151.4547  133.3602  159.2808 H   0  0  0  0  0  0  0  0  0  0  0  0  # atno 6908 bound_to 6896
  150.8997  134.8433  159.7412 H   0  0  0  0  0  0  0  0  0  0  0  0  # atno 6909 bound_to 6896
  144.8909  139.5560  143.5799 H   0  0  0  0  0  0  0  0  0  0  0  0  # atno 7974 bound_to 7965
  154.6078  140.2468  155.7708 H   0  0  0  0  0  0  0  0  0  0  0  0  # atno 8008 bound_to 7997
  156.2352  140.2953  156.0244 H   0  0  0  0  0  0  0  0  0  0  0  0  # atno 8009 bound_to 7997
  155.2102  140.0397  157.2922 H   0  0  0  0  0  0  0  0  0  0  0  0  # atno 8010 bound_to 7997
  140.7019  143.6115  150.8699 H   0  0  0  0  0  0  0  0  0  0  0  0  # atno 10167 bound_to 10162
  156.4639  130.4510  149.6911 H   0  0  0  0  0  0  0  0  0  0  0  0  # atno 10718 bound_to 10713
  153.3707  135.3931  155.1786 H   0  0  0  0  0  0  0  0  0  0  0  0  # atno 10763 bound_to 10752
  154.8694  135.3702  154.4981 H   0  0  0  0  0  0  0  0  0  0  0  0  # atno 10764 bound_to 10752
  153.5449  135.7084  153.5679 H   0  0  0  0  0  0  0  0  0  0  0  0  # atno 10765 bound_to 10752
  140.1148  134.8901  157.1988 H   0  0  0  0  0  0  0  0  0  0  0  0  # atno 11005 bound_to 11000
  146.3053  139.7559  142.9061 LP  0  0  0  0  0  0  0  0  0  0  0  0  # atno 17320 bound_to 7965
  145.3785  141.0354  143.3191 LP  0  0  0  0  0  0  0  0  0  0  0  0  # atno 17321 bound_to 7965
  139.9838  143.5922  152.2934 LP  0  0  0  0  0  0  0  0  0  0  0  0  # atno 17342 bound_to 10162
  139.6552  144.7662  151.2069 LP  0  0  0  0  0  0  0  0  0  0  0  0  # atno 17343 bound_to 10162
  156.3688  130.7520  151.2501 LP  0  0  0  0  0  0  0  0  0  0  0  0  # atno 17370 bound_to 10713
  157.7496  131.0329  150.4247 LP  0  0  0  0  0  0  0  0  0  0  0  0  # atno 17371 bound_to 10713
  140.3043  134.3096  155.7282 LP  0  0  0  0  0  0  0  0  0  0  0  0  # atno 17394 bound_to 11000
  141.2138  133.7611  156.9685 LP  0  0  0  0  0  0  0  0  0  0  0  0  # atno 17395 bound_to 11000

$$$$
