AV-unprocessed.smi:334|AV-procd|sdf|2369|dock8
  -GOLD-   2262022283D 1   1.00000     0.00000
 Structure written by MMmdl.
 44 46  0  0  0  0  0  0  0  0  3 V2000
  151.1620  140.4323  157.5837 C   0  0  0  0  0  0  0  0  0  0  0  0
  151.1820  141.8955  157.1121 C   0  0  1  0  0  0  0  0  0  0  0  0
  150.0663  142.0977  156.1893 N   0  0  0  0  0  0  0  0  0  0  0  0
  149.7878  141.3482  155.1111 C   0  0  0  0  0  0  0  0  0  0  0  0
  150.4365  140.3522  154.7887 O   0  0  0  0  0  0  0  0  0  0  0  0
  148.5815  141.7967  154.2749 C   0  0  0  0  0  0  0  0  0  0  0  0
  147.3207  141.7896  155.0362 N   0  0  0  0  0  0  0  0  0  0  0  0
  147.2322  140.9021  156.1272 C   0  0  0  0  0  0  0  0  0  0  0  0
  146.1239  140.8116  156.8884 C   0  0  0  0  0  0  0  0  0  0  0  0
  146.0493  139.8934  158.0037 N   0  3  0  0  0  0  0  0  0  0  0  0
  147.0612  139.2814  158.3306 O   0  0  0  0  0  0  0  0  0  0  0  0
  144.9795  139.7524  158.5889 O   0  5  0  0  0  0  0  0  0  0  0  0
  145.0021  141.6659  156.5503 C   0  0  0  0  0  0  0  0  0  0  0  0
  145.0793  142.5150  155.5069 C   0  0  0  0  0  0  0  0  0  0  0  0
  146.2865  142.6126  154.6802 C   0  0  0  0  0  0  0  0  0  0  0  0
  146.3635  143.3871  153.7261 O   0  0  0  0  0  0  0  0  0  0  0  0
  151.0872  142.8946  158.2927 C   0  0  1  0  0  0  0  0  0  0  0  0
  152.1488  142.6493  159.3932 C   0  0  0  0  0  0  0  0  0  0  0  0
  152.8337  144.0197  159.5390 C   0  0  2  0  0  0  0  0  0  0  0  0
  151.8569  145.0161  160.1888 C   0  0  0  0  0  0  0  0  0  0  0  0
  150.8459  145.2814  159.0581 C   0  0  0  0  0  0  0  0  0  0  0  0
  151.3599  144.3765  157.9218 C   0  0  1  0  0  0  0  0  0  0  0  0
  152.8695  144.5012  158.0947 C   0  0  0  0  0  0  0  0  0  0  0  0
  152.0077  140.2072  158.2331 H   0  0  0  0  0  0  0  0  0  0  0  0
  151.2144  139.7480  156.7363 H   0  0  0  0  0  0  0  0  0  0  0  0
  150.2500  140.2062  158.1374 H   0  0  0  0  0  0  0  0  0  0  0  0
  152.1277  142.0597  156.5935 H   0  0  0  0  0  0  0  0  0  0  0  0
  149.4716  142.8931  156.3718 H   0  0  0  0  0  0  0  0  0  0  0  0
  148.7943  142.7919  153.8821 H   0  0  0  0  0  0  0  0  0  0  0  0
  148.4845  141.1574  153.3950 H   0  0  0  0  0  0  0  0  0  0  0  0
  148.1172  140.3049  156.2931 H   0  0  0  0  0  0  0  0  0  0  0  0
  144.0913  141.6300  157.1298 H   0  0  0  0  0  0  0  0  0  0  0  0
  144.2306  143.1405  155.2714 H   0  0  0  0  0  0  0  0  0  0  0  0
  150.0870  142.8125  158.7219 H   0  0  0  0  0  0  0  0  0  0  0  0
  151.7049  142.3054  160.3278 H   0  0  0  0  0  0  0  0  0  0  0  0
  152.8828  141.9042  159.0840 H   0  0  0  0  0  0  0  0  0  0  0  0
  153.8045  143.9728  160.0333 H   0  0  0  0  0  0  0  0  0  0  0  0
  151.3849  144.6072  161.0829 H   0  0  0  0  0  0  0  0  0  0  0  0
  152.3686  145.9374  160.4702 H   0  0  0  0  0  0  0  0  0  0  0  0
  149.8215  145.0470  159.3497 H   0  0  0  0  0  0  0  0  0  0  0  0
  150.8741  146.3301  158.7593 H   0  0  0  0  0  0  0  0  0  0  0  0
  150.9875  144.6824  156.9445 H   0  0  0  0  0  0  0  0  0  0  0  0
  153.2339  145.5246  157.9888 H   0  0  0  0  0  0  0  0  0  0  0  0
  153.4406  143.8491  157.4321 H   0  0  0  0  0  0  0  0  0  0  0  0
  1  2  1  0  0  0  0
  1 24  1  0  0  0  0
  1 25  1  0  0  0  0
  1 26  1  0  0  0  0
  2  3  1  0  0  0  0
  2 17  1  0  0  0  0
  2 27  1  0  0  0  0
  3  4  1  0  0  0  0
  3 28  1  0  0  0  0
  4  5  2  0  0  0  0
  4  6  1  0  0  0  0
  6  7  1  0  0  0  0
  6 29  1  0  0  0  0
  6 30  1  0  0  0  0
  7 15  1  0  0  0  0
  7  8  1  0  0  0  0
  8  9  2  0  0  0  0
  8 31  1  0  0  0  0
  9 10  1  0  0  0  0
  9 13  1  0  0  0  0
 10 11  2  0  0  0  0
 10 12  1  0  0  0  0
 13 14  2  0  0  0  0
 13 32  1  0  0  0  0
 14 15  1  0  0  0  0
 14 33  1  0  0  0  0
 15 16  2  0  0  0  0
 17 22  1  0  0  0  0
 17 18  1  0  0  0  0
 17 34  1  0  0  0  0
 18 19  1  0  0  0  0
 18 35  1  0  0  0  0
 18 36  1  0  0  0  0
 19 23  1  0  0  0  0
 19 20  1  0  0  0  0
 19 37  1  0  0  0  0
 20 21  1  0  0  0  0
 20 38  1  0  0  0  0
 20 39  1  0  0  0  0
 21 22  1  0  0  0  0
 21 40  1  0  0  0  0
 21 41  1  0  0  0  0
 22 23  1  0  0  0  0
 22 42  1  0  0  0  0
 23 43  1  0  0  0  0
 23 44  1  0  0  0  0
M  CHG  1  10   1
M  CHG  1  12  -1
M  END
> <s_m_source_file>
AV-unprocessed.smi

> <i_m_source_file_index>
334

> <i_lp_mmshare_version>
43012

> <i_f3d_flags>
0

> <s_epik_input>
W0NIMl0xW0NIMl1bQ0BIXShbQ0gyXTIpW0NAQEhdKFtDSDJdW0NAQEhdMTIpW0NASF0oW0NIM10pW05IXUMoPU8pW0NIMl1uM1tjSF1jKFtOK10oPU8pW08tXSlbY0hdW2NIXWMzPU8=

> <s_epik_cmdline>
J2VwaWtfcHl0aG9uJywgJy1waCcsICc3LjAnLCAnLXRuJywgJzgnLCAnLW1hJywgJzIwMCcsICctbWV0YWxfYmluZGluZycsICctaW1hZScsICc8aW5maWxlLm1hZT4nLCAnLW9tYWUnLCAnPG91dGZpbGUubWFlPic=

> <r_lp_tautomer_probability>
1

> <r_epik_Ionization_Penalty>
2.17081e-08

> <r_epik_Ionization_Penalty_Charging>
8.1195e-11

> <r_epik_Ionization_Penalty_Neutral>
2.16269e-08

> <r_epik_State_Penalty>
-0

> <r_epik_Charging_Adjusted_Penalty>
8.1195e-11

> <i_epik_Tot_Q>
0

> <i_epik_Tot_abs_Q>
2

> <r_epik_Metal_State_Penalty>
-0

> <b_epik_Metal_Only>
0

> <s_lp_Force_Field>
OPLS_2005

> <r_lp_Energy>
62.1709

> <b_lp_Chiralities_Consistent>
1

> <s_lp_Variant>
AV-unprocessed.smi:334-8

> <Gold.Version>
5.8.1

> <Gold.Id.Protein>
6NUR|6NUR_protein|mol2

> <Gold.PLP.Fitness>
50.8571

> <Gold.PLP.PLP>
-46.3203

> <Gold.PLP.part.hbond>
-3.8357

> <Gold.PLP.part.metal>
0.0000

> <Gold.PLP.part.buried>
-4.2067

> <Gold.PLP.part.nonpolar>
-39.3921

> <Gold.PLP.part.repulsive>
0.3964

> <Gold.PLP.ligand.clash>
0.0000

> <Gold.PLP.ligand.torsion>
0.4997

> <Gold.PLP.Chemscore.Hbond>
1.8320

> <Gold.PLP.Chemscore.CHOScore>
0.0000

> <Gold.PLP.Chemscore.Metal>
0.0000

> <Gold.Chemscore.Hbonds>
donor molecule, donor type, donor heavy atom, donor atom, acceptor molecule, acceptor atom, score
      L1  H     3    28       P1  8028  0.84
      P1  H  7989  7998       L1     5  1.00

> <Gold.PLP.Chemscore.Internal.Correction>
0.0401

> <Gold.Rescore>
     Score         DG    S(hbond)    S(metal)    S(lipo)     H(rot)  DE(clash)    DE(int)     intcor
     17.42     -19.14       1.55        0.00     110.64       1.75       0.05       1.67       ----

> <Gold.Chemscore.Fitness>
17.4212

> <Gold.Chemscore.DG>
-19.1440

> <Gold.Chemscore.ZeroCoef>
-5.4800

> <Gold.Chemscore.Hbond>
1.5546

> <Gold.Chemscore.Metal>
0.0000

> <Gold.Chemscore.Lipo>
110.6394

> <Gold.Chemscore.Internal_Hbond>
0.0000

> <Gold.Chemscore.DEClash>
0.0495

> <Gold.Chemscore.DEInternal>
1.6733

> <Gold.Chemscore.Rot>
1.7474

> <Gold.Chemscore.Internal.Correction>
   9.000000E+99

> <Gold.Chemscore.Hbonds>
donor molecule, donor type, donor heavy atom, donor atom, acceptor molecule, acceptor atom, score
      L1  H     3    28       P1  8028  0.79
      P1  H  7989  7998       L1     5  0.59

> <Gold.Chemscore.Hbond.Weighted>
-5.1925

> <Gold.Chemscore.Metal.Weighted>
-0.0000

> <Gold.Chemscore.Lipo.Weighted>
-12.9448

> <Gold.Chemscore.Internal_Hbond.Weighted>
0.0000

> <Gold.Chemscore.DEClash.Weighted>
0.0495

> <Gold.Chemscore.DEInternal.Weighted>
1.6733

> <Gold.Chemscore.Rot.Weighted>
4.4733

> <Gold.Chemscore.Internal.Correction.Weighted>
   9.000000E+99

> <Gold.Protein.RotatedTorsions>
[ 6907 6896 6895 6894 ] final    9.43 input  -60.11 | X-H torsion
[ 7974 7965 7964 7962 ] final   -2.71 input  175.53 | X-H torsion
[ 8008 7997 7996 7995 ] final   -4.49 input   59.86 | X-H torsion
[ 10167 10162 10161 10158 ] final  106.39 input  -65.29 | X-H torsion
[ 10718 10713 10712 10709 ] final -167.98 input   66.30 | X-H torsion
[ 10763 10752 10751 10750 ] final  -89.67 input  -60.55 | X-H torsion
[ 11005 11000 10999 10996 ] final   86.13 input  -57.11 | X-H torsion

> <Gold.Protein.ActiveResidues>
 VAL166  LYS551  ARG553  GLY616  TRP617  ASP618  TYR619  PRO620  LYS621  CYS622 
 ASP623  PHE694  ASN695  SER759  ASP760  ASP761  ALA762  ILE779  LEU786  VAL792 
 PHE793  MET794  SER795  GLU796  ALA797  LYS798  CYS799  TRP800  GLU811  SER814 

> <Gold.Protein.RotatedAtoms>
  151.7220  135.0892  160.0285 H   0  0  0  0  0  0  0  0  0  0  0  0  # atno 6907 bound_to 6896
  152.3596  133.6275  159.6013 H   0  0  0  0  0  0  0  0  0  0  0  0  # atno 6908 bound_to 6896
  150.7595  133.9362  159.3483 H   0  0  0  0  0  0  0  0  0  0  0  0  # atno 6909 bound_to 6896
  146.2400  140.1611  142.8333 H   0  0  0  0  0  0  0  0  0  0  0  0  # atno 7974 bound_to 7965
  154.6137  140.2482  155.7636 H   0  0  0  0  0  0  0  0  0  0  0  0  # atno 8008 bound_to 7997
  156.2386  140.2941  156.0331 H   0  0  0  0  0  0  0  0  0  0  0  0  # atno 8009 bound_to 7997
  155.2009  140.0394  157.2907 H   0  0  0  0  0  0  0  0  0  0  0  0  # atno 8010 bound_to 7997
  139.7013  144.7094  151.1181 H   0  0  0  0  0  0  0  0  0  0  0  0  # atno 10167 bound_to 10162
  156.6902  130.9156  151.3068 H   0  0  0  0  0  0  0  0  0  0  0  0  # atno 10718 bound_to 10713
  154.6577  135.5332  153.7979 H   0  0  0  0  0  0  0  0  0  0  0  0  # atno 10763 bound_to 10752
  153.0423  135.6498  154.0920 H   0  0  0  0  0  0  0  0  0  0  0  0  # atno 10764 bound_to 10752
  154.0831  135.2945  155.3266 H   0  0  0  0  0  0  0  0  0  0  0  0  # atno 10765 bound_to 10752
  139.8953  134.8334  156.2678 H   0  0  0  0  0  0  0  0  0  0  0  0  # atno 11005 bound_to 11000
  145.0088  140.8696  143.5237 LP  0  0  0  0  0  0  0  0  0  0  0  0  # atno 17320 bound_to 7965
  145.1642  139.2441  143.5376 LP  0  0  0  0  0  0  0  0  0  0  0  0  # atno 17321 bound_to 7965
  140.7710  143.5420  150.9302 LP  0  0  0  0  0  0  0  0  0  0  0  0  # atno 17342 bound_to 10162
  139.9102  143.6729  152.3116 LP  0  0  0  0  0  0  0  0  0  0  0  0  # atno 17343 bound_to 10162
  157.7011  130.9334  150.0790 LP  0  0  0  0  0  0  0  0  0  0  0  0  # atno 17370 bound_to 10713
  156.1803  130.3650  149.9044 LP  0  0  0  0  0  0  0  0  0  0  0  0  # atno 17371 bound_to 10713
  141.0121  133.7090  156.1128 LP  0  0  0  0  0  0  0  0  0  0  0  0  # atno 17394 bound_to 11000
  140.7353  134.4209  157.5561 LP  0  0  0  0  0  0  0  0  0  0  0  0  # atno 17395 bound_to 11000

$$$$
