AV-unprocessed.smi:3182|AV-procd|sdf|12151|dock2
  -GOLD-   2272017593D 1   1.00000     0.00000
 Structure written by MMmdl.
 38 39  0  0  0  0  0  0  0  0  2 V2000
  151.2848  139.1627  155.1249 C   0  0  0  0  0  0  0  0  0  0  0  0
  150.6395  140.2131  154.4147 O   0  0  0  0  0  0  0  0  0  0  0  0
  149.2156  140.3443  154.5143 C   0  0  0  0  0  0  0  0  0  0  0  0
  148.9982  140.6765  156.0114 C   0  0  0  0  0  0  0  0  0  0  0  0
  149.4362  142.0211  156.3586 N   0  0  0  0  0  0  0  0  0  0  0  0
  150.4248  142.2235  157.3295 C   0  0  0  0  0  0  0  0  0  0  0  0
  151.0700  141.1834  158.0409 C   0  0  0  0  0  0  0  0  0  0  0  0
  152.0533  141.5075  158.9984 C   0  0  0  0  0  0  0  0  0  0  0  0
  152.3746  142.8600  159.2305 C   0  0  0  0  0  0  0  0  0  0  0  0
  151.7036  143.8593  158.4958 C   0  0  0  0  0  0  0  0  0  0  0  0
  151.9911  145.3337  158.6838 C   0  0  0  0  0  0  0  0  0  0  0  0
  150.7680  143.5055  157.5864 N   0  3  0  0  0  0  0  0  0  0  0  0
  148.7399  141.5261  153.6377 C   0  0  0  0  0  0  0  0  0  0  0  0
  147.2036  141.6462  153.6230 C   0  0  0  0  0  0  0  0  0  0  0  0
  146.6165  140.4193  153.2029 O   0  0  0  0  0  0  0  0  0  0  0  0
  146.9185  139.3252  154.0620 C   0  0  0  0  0  0  0  0  0  0  0  0
  148.4371  139.0772  154.0717 C   0  0  0  0  0  0  0  0  0  0  0  0
  152.3373  139.1421  154.8427 H   0  0  0  0  0  0  0  0  0  0  0  0
  150.8697  138.1818  154.8991 H   0  0  0  0  0  0  0  0  0  0  0  0
  151.2475  139.3253  156.2021 H   0  0  0  0  0  0  0  0  0  0  0  0
  147.9396  140.5812  156.2569 H   0  0  0  0  0  0  0  0  0  0  0  0
  149.5309  139.9708  156.6472 H   0  0  0  0  0  0  0  0  0  0  0  0
  148.9998  142.8092  155.9022 H   0  0  0  0  0  0  0  0  0  0  0  0
  150.8266  140.1455  157.8683 H   0  0  0  0  0  0  0  0  0  0  0  0
  152.5557  140.7259  159.5494 H   0  0  0  0  0  0  0  0  0  0  0  0
  153.1251  143.1229  159.9618 H   0  0  0  0  0  0  0  0  0  0  0  0
  152.7676  145.4900  159.4331 H   0  0  0  0  0  0  0  0  0  0  0  0
  151.0924  145.8575  159.0107 H   0  0  0  0  0  0  0  0  0  0  0  0
  152.3283  145.7772  157.7465 H   0  0  0  0  0  0  0  0  0  0  0  0
  149.1867  142.4604  153.9797 H   0  0  0  0  0  0  0  0  0  0  0  0
  149.0675  141.3940  152.6074 H   0  0  0  0  0  0  0  0  0  0  0  0
  146.8136  141.9328  154.6001 H   0  0  0  0  0  0  0  0  0  0  0  0
  146.9012  142.4296  152.9280 H   0  0  0  0  0  0  0  0  0  0  0  0
  146.5345  139.5125  155.0654 H   0  0  0  0  0  0  0  0  0  0  0  0
  146.4011  138.4404  153.6908 H   0  0  0  0  0  0  0  0  0  0  0  0
  148.7155  138.7946  153.0567 H   0  0  0  0  0  0  0  0  0  0  0  0
  148.6796  138.2214  154.7016 H   0  0  0  0  0  0  0  0  0  0  0  0
  150.2970  144.2471  157.0677 H   0  0  0  0  0  0  0  0  0  0  0  0
  1  2  1  0  0  0  0
  1 18  1  0  0  0  0
  1 19  1  0  0  0  0
  1 20  1  0  0  0  0
  2  3  1  0  0  0  0
  3 17  1  0  0  0  0
  3  4  1  0  0  0  0
  3 13  1  0  0  0  0
  4  5  1  0  0  0  0
  4 21  1  0  0  0  0
  4 22  1  0  0  0  0
  5  6  1  0  0  0  0
  5 23  1  0  0  0  0
  6 12  1  0  0  0  0
  6  7  2  0  0  0  0
  7  8  1  0  0  0  0
  7 24  1  0  0  0  0
  8  9  2  0  0  0  0
  8 25  1  0  0  0  0
  9 10  1  0  0  0  0
  9 26  1  0  0  0  0
 10 11  1  0  0  0  0
 10 12  2  0  0  0  0
 11 27  1  0  0  0  0
 11 28  1  0  0  0  0
 11 29  1  0  0  0  0
 12 38  1  0  0  0  0
 13 14  1  0  0  0  0
 13 30  1  0  0  0  0
 13 31  1  0  0  0  0
 14 15  1  0  0  0  0
 14 32  1  0  0  0  0
 14 33  1  0  0  0  0
 15 16  1  0  0  0  0
 16 17  1  0  0  0  0
 16 34  1  0  0  0  0
 16 35  1  0  0  0  0
 17 36  1  0  0  0  0
 17 37  1  0  0  0  0
M  CHG  1  12   1
M  END
> <s_m_source_file>
AV-unprocessed.smi

> <i_m_source_file_index>
3182

> <i_lp_mmshare_version>
43012

> <i_f3d_flags>
0

> <s_epik_input>
W0NIMl0xW0NIMl1PW0NIMl1bQ0gyXUMxKE9bQ0gzXSlbQ0gyXVtOSF1jMltjSF1bY0hdW2NIXWMobjIpW0NIM10=

> <s_epik_cmdline>
J2VwaWtfcHl0aG9uJywgJy1waCcsICc3LjAnLCAnLXRuJywgJzgnLCAnLW1hJywgJzIwMCcsICctbWV0YWxfYmluZGluZycsICctaW1hZScsICc8aW5maWxlLm1hZT4nLCAnLW9tYWUnLCAnPG91dGZpbGUubWFlPic=

> <r_lp_tautomer_probability>
0.999994

> <r_epik_Ionization_Penalty>
0.0828477

> <r_epik_Ionization_Penalty_Charging>
0.0828471

> <r_epik_Ionization_Penalty_Neutral>
5.27923e-07

> <r_epik_State_Penalty>
0.0735379

> <r_epik_Charging_Adjusted_Penalty>
0.156385

> <i_epik_Tot_Q>
1

> <i_epik_Tot_abs_Q>
1

> <r_epik_Metal_State_Penalty>
2.89813

> <b_epik_Metal_Only>
0

> <s_lp_Force_Field>
OPLS_2005

> <r_lp_Energy>
24.7415

> <b_lp_Chiralities_Consistent>
1

> <s_lp_Variant>
AV-unprocessed.smi:3182-1

> <Gold.Version>
5.8.1

> <Gold.Id.Protein>
6NUR|6NUR_protein|mol2

> <Gold.PLP.Fitness>
47.4157

> <Gold.PLP.PLP>
-33.1328

> <Gold.PLP.part.hbond>
-2.9961

> <Gold.PLP.part.metal>
0.0000

> <Gold.PLP.part.buried>
-3.5739

> <Gold.PLP.part.nonpolar>
-28.7065

> <Gold.PLP.part.repulsive>
1.5755

> <Gold.PLP.ligand.clash>
0.0000

> <Gold.PLP.ligand.torsion>
0.1429

> <Gold.PLP.Chemscore.Hbond>
4.8539

> <Gold.PLP.Chemscore.CHOScore>
0.0000

> <Gold.PLP.Chemscore.Metal>
0.0000

> <Gold.Chemscore.Hbonds>
donor molecule, donor type, donor heavy atom, donor atom, acceptor molecule, acceptor atom, score
      L1  H     5    23       P1  8028  1.98
      L1  H    12    38       P1  8028  1.92
      P1  H  7989  7998       L1     2  0.93

> <Gold.PLP.Chemscore.Internal.Correction>
0.0069

> <Gold.Rescore>
     Score         DG    S(hbond)    S(metal)    S(lipo)     H(rot)  DE(clash)    DE(int)     intcor
     20.03     -21.22       2.54        0.00      92.40       1.38       1.02       0.18       ----

> <Gold.Chemscore.Fitness>
20.0267

> <Gold.Chemscore.DG>
-21.2181

> <Gold.Chemscore.ZeroCoef>
-5.4800

> <Gold.Chemscore.Hbond>
2.5365

> <Gold.Chemscore.Metal>
0.0000

> <Gold.Chemscore.Lipo>
92.3991

> <Gold.Chemscore.Internal_Hbond>
0.0000

> <Gold.Chemscore.DEClash>
1.0161

> <Gold.Chemscore.DEInternal>
0.1753

> <Gold.Chemscore.Rot>
1.3845

> <Gold.Chemscore.Internal.Correction>
   9.000000E+99

> <Gold.Chemscore.Hbonds>
donor molecule, donor type, donor heavy atom, donor atom, acceptor molecule, acceptor atom, score
      L1  H     5    23       P1  8028  0.93
      L1  H    12    38       P1  8028  0.77
      P1  H  7989  7998       L1     2  0.66

> <Gold.Chemscore.Hbond.Weighted>
-8.4719

> <Gold.Chemscore.Metal.Weighted>
-0.0000

> <Gold.Chemscore.Lipo.Weighted>
-10.8107

> <Gold.Chemscore.Internal_Hbond.Weighted>
0.0000

> <Gold.Chemscore.DEClash.Weighted>
1.0161

> <Gold.Chemscore.DEInternal.Weighted>
0.1753

> <Gold.Chemscore.Rot.Weighted>
3.5444

> <Gold.Chemscore.Internal.Correction.Weighted>
   9.000000E+99

> <Gold.Protein.RotatedTorsions>
[ 6907 6896 6895 6894 ] final  103.15 input  -60.11 | X-H torsion
[ 7974 7965 7964 7962 ] final  153.68 input  175.53 | X-H torsion
[ 8008 7997 7996 7995 ] final   -0.41 input   59.86 | X-H torsion
[ 10167 10162 10161 10158 ] final -122.68 input  -65.29 | X-H torsion
[ 10718 10713 10712 10709 ] final  158.43 input   66.30 | X-H torsion
[ 10763 10752 10751 10750 ] final -120.41 input  -60.55 | X-H torsion
[ 11005 11000 10999 10996 ] final  -75.59 input  -57.11 | X-H torsion

> <Gold.Protein.ActiveResidues>
 VAL166  LYS551  ARG553  GLY616  TRP617  ASP618  TYR619  PRO620  LYS621  CYS622 
 ASP623  PHE694  ASN695  SER759  ASP760  ASP761  ALA762  ILE779  LEU786  VAL792 
 PHE793  MET794  SER795  GLU796  ALA797  LYS798  CYS799  TRP800  GLU811  SER814 

> <Gold.Protein.RotatedAtoms>
  152.5304  133.9869  159.7832 H   0  0  0  0  0  0  0  0  0  0  0  0  # atno 6907 bound_to 6896
  151.0112  133.5955  159.2689 H   0  0  0  0  0  0  0  0  0  0  0  0  # atno 6908 bound_to 6896
  151.3029  135.0780  159.9298 H   0  0  0  0  0  0  0  0  0  0  0  0  # atno 6909 bound_to 6896
  144.8138  139.6833  143.6130 H   0  0  0  0  0  0  0  0  0  0  0  0  # atno 7974 bound_to 7965
  154.6584  140.2585  155.7136 H   0  0  0  0  0  0  0  0  0  0  0  0  # atno 8008 bound_to 7997
  156.2607  140.2853  156.0968 H   0  0  0  0  0  0  0  0  0  0  0  0  # atno 8009 bound_to 7997
  155.1345  140.0379  157.2773 H   0  0  0  0  0  0  0  0  0  0  0  0  # atno 8010 bound_to 7997
  140.0117  143.5435  152.2260 H   0  0  0  0  0  0  0  0  0  0  0  0  # atno 10167 bound_to 10162
  157.1779  131.0625  151.2147 H   0  0  0  0  0  0  0  0  0  0  0  0  # atno 10718 bound_to 10713
  154.8643  135.4204  154.2454 H   0  0  0  0  0  0  0  0  0  0  0  0  # atno 10763 bound_to 10752
  153.3411  135.6993  153.6872 H   0  0  0  0  0  0  0  0  0  0  0  0  # atno 10764 bound_to 10752
  153.5850  135.3565  155.2862 H   0  0  0  0  0  0  0  0  0  0  0  0  # atno 10765 bound_to 10752
  141.1647  133.6952  156.7539 H   0  0  0  0  0  0  0  0  0  0  0  0  # atno 11005 bound_to 11000
  146.2440  139.6059  142.9472 LP  0  0  0  0  0  0  0  0  0  0  0  0  # atno 17320 bound_to 7965
  145.5261  141.0429  143.2408 LP  0  0  0  0  0  0  0  0  0  0  0  0  # atno 17321 bound_to 7965
  139.6201  144.7627  151.2760 LP  0  0  0  0  0  0  0  0  0  0  0  0  # atno 17342 bound_to 10162
  140.7379  143.6665  150.8119 LP  0  0  0  0  0  0  0  0  0  0  0  0  # atno 17343 bound_to 10162
  157.3980  130.7318  149.6746 LP  0  0  0  0  0  0  0  0  0  0  0  0  # atno 17370 bound_to 10713
  155.9728  130.4128  150.4051 LP  0  0  0  0  0  0  0  0  0  0  0  0  # atno 17371 bound_to 10713
  140.2583  134.8486  157.3734 LP  0  0  0  0  0  0  0  0  0  0  0  0  # atno 17394 bound_to 11000
  140.1635  134.4698  155.7878 LP  0  0  0  0  0  0  0  0  0  0  0  0  # atno 17395 bound_to 11000

$$$$
