AV-unprocessed.smi:3188|AV-procd|sdf|12185|dock3
  -GOLD-   2272018 23D 1   1.00000     0.00000
 Structure written by MMmdl.
 40 41  0  0  0  0  0  0  0  0  2 V2000
  151.3366  144.4311  159.2746 C   0  0  0  0  0  0  0  0  0  0  0  0
  152.1899  143.1750  159.3515 C   0  0  0  0  0  0  0  0  0  0  0  0
  153.4193  143.2388  159.8978 C   0  0  0  0  0  0  0  0  0  0  0  0
  154.3275  142.0477  160.0966 C   0  0  0  0  0  0  0  0  0  0  0  0
  153.5305  140.7414  160.0830 C   0  0  0  0  0  0  0  0  0  0  0  0
  152.5964  140.6666  158.8645 C   0  0  1  0  0  0  0  0  0  0  0  0
  151.8930  139.2957  158.8437 C   0  0  0  0  0  0  0  0  0  0  0  0
  151.5897  141.8577  158.8150 C   0  0  2  0  0  0  0  0  0  0  0  0
  151.0058  141.9998  157.3841 C   0  0  0  0  0  0  0  0  0  0  0  0
  149.5436  142.2049  157.3810 N   0  3  0  0  0  0  0  0  0  0  0  0
  148.7586  141.0057  157.0264 C   0  0  0  0  0  0  0  0  0  0  0  0
  148.7108  140.7961  155.5047 C   0  0  0  0  0  0  0  0  0  0  0  0
  149.7290  139.8628  155.0573 N   0  0  0  0  0  0  0  0  0  0  0  0
  149.5628  138.6148  154.4938 C   0  0  0  0  0  0  0  0  0  0  0  0
  150.8433  138.1812  154.3005 C   0  0  0  0  0  0  0  0  0  0  0  0
  151.7210  139.1666  154.7490 N   0  0  0  0  0  0  0  0  0  0  0  0
  151.0401  140.1740  155.1957 N   0  0  0  0  0  0  0  0  0  0  0  0
  150.3444  144.2471  159.6871 H   0  0  0  0  0  0  0  0  0  0  0  0
  151.2358  144.7733  158.2447 H   0  0  0  0  0  0  0  0  0  0  0  0
  151.7812  145.2487  159.8433 H   0  0  0  0  0  0  0  0  0  0  0  0
  153.8081  144.1867  160.2415 H   0  0  0  0  0  0  0  0  0  0  0  0
  155.0845  142.0502  159.3118 H   0  0  0  0  0  0  0  0  0  0  0  0
  154.8503  142.1506  161.0478 H   0  0  0  0  0  0  0  0  0  0  0  0
  154.2215  139.8974  160.0883 H   0  0  0  0  0  0  0  0  0  0  0  0
  152.9422  140.6640  160.9988 H   0  0  0  0  0  0  0  0  0  0  0  0
  153.2313  140.7248  157.9788 H   0  0  0  0  0  0  0  0  0  0  0  0
  151.2272  139.1801  159.6995 H   0  0  0  0  0  0  0  0  0  0  0  0
  152.6207  138.4844  158.8840 H   0  0  0  0  0  0  0  0  0  0  0  0
  151.3024  139.1430  157.9419 H   0  0  0  0  0  0  0  0  0  0  0  0
  150.7711  141.6158  159.4949 H   0  0  0  0  0  0  0  0  0  0  0  0
  151.4948  142.8297  156.8721 H   0  0  0  0  0  0  0  0  0  0  0  0
  151.2011  141.1121  156.7849 H   0  0  0  0  0  0  0  0  0  0  0  0
  149.2550  142.5301  158.2927 H   0  0  0  0  0  0  0  0  0  0  0  0
  149.1949  140.1273  157.5044 H   0  0  0  0  0  0  0  0  0  0  0  0
  147.7474  141.1151  157.4199 H   0  0  0  0  0  0  0  0  0  0  0  0
  147.7370  140.4001  155.2144 H   0  0  0  0  0  0  0  0  0  0  0  0
  148.8320  141.7451  154.9793 H   0  0  0  0  0  0  0  0  0  0  0  0
  148.6003  138.1669  154.2939 H   0  0  0  0  0  0  0  0  0  0  0  0
  151.2031  137.2520  153.8835 H   0  0  0  0  0  0  0  0  0  0  0  0
  149.3355  142.9245  156.7029 H   0  0  0  0  0  0  0  0  0  0  0  0
  1  2  1  0  0  0  0
  1 18  1  0  0  0  0
  1 19  1  0  0  0  0
  1 20  1  0  0  0  0
  2  8  1  0  0  0  0
  2  3  2  0  0  0  0
  3  4  1  0  0  0  0
  3 21  1  0  0  0  0
  4  5  1  0  0  0  0
  4 22  1  0  0  0  0
  4 23  1  0  0  0  0
  5  6  1  0  0  0  0
  5 24  1  0  0  0  0
  5 25  1  0  0  0  0
  6  7  1  0  0  0  0
  6  8  1  0  0  0  0
  6 26  1  0  0  0  0
  7 27  1  0  0  0  0
  7 28  1  0  0  0  0
  7 29  1  0  0  0  0
  8  9  1  0  0  0  0
  8 30  1  0  0  0  0
  9 10  1  0  0  0  0
  9 31  1  0  0  0  0
  9 32  1  0  0  0  0
 10 11  1  0  0  0  0
 10 33  1  0  0  0  0
 10 40  1  0  0  0  0
 11 12  1  0  0  0  0
 11 34  1  0  0  0  0
 11 35  1  0  0  0  0
 12 13  1  0  0  0  0
 12 36  1  0  0  0  0
 12 37  1  0  0  0  0
 13 17  1  0  0  0  0
 13 14  1  0  0  0  0
 14 15  2  0  0  0  0
 14 38  1  0  0  0  0
 15 16  1  0  0  0  0
 15 39  1  0  0  0  0
 16 17  2  0  0  0  0
M  CHG  1  10   1
M  END
> <s_m_source_file>
AV-unprocessed.smi

> <i_m_source_file_index>
3188

> <i_lp_mmshare_version>
43012

> <i_f3d_flags>
0

> <s_epik_input>
W0NIM11DMT1bQ0hdW0NIMl1bQ0gyXVtDQEBIXShbQ0gzXSlbQ0BIXTFbQ0gyXVtOSF1bQ0gyXVtDSDJdbjJbY0hdW2NIXW5uMg==

> <s_epik_cmdline>
J2VwaWtfcHl0aG9uJywgJy1waCcsICc3LjAnLCAnLXRuJywgJzgnLCAnLW1hJywgJzIwMCcsICctbWV0YWxfYmluZGluZycsICctaW1hZScsICc8aW5maWxlLm1hZT4nLCAnLW9tYWUnLCAnPG91dGZpbGUubWFlPic=

> <r_lp_tautomer_probability>
1

> <r_epik_Ionization_Penalty>
0.007268

> <r_epik_Ionization_Penalty_Charging>
0.00726786

> <r_epik_Ionization_Penalty_Neutral>
1.34882e-07

> <r_epik_State_Penalty>
0.00542069

> <r_epik_Charging_Adjusted_Penalty>
0.0126886

> <i_epik_Tot_Q>
1

> <i_epik_Tot_abs_Q>
1

> <r_epik_Metal_State_Penalty>
-0

> <b_epik_Metal_Only>
0

> <s_lp_Force_Field>
OPLS_2005

> <r_lp_Energy>
14.3192

> <b_lp_Chiralities_Consistent>
1

> <s_lp_Variant>
AV-unprocessed.smi:3188-3

> <Gold.Version>
5.8.1

> <Gold.Id.Protein>
6NUR|6NUR_protein|mol2

> <Gold.PLP.Fitness>
48.4283

> <Gold.PLP.PLP>
-39.6021

> <Gold.PLP.part.hbond>
-3.0000

> <Gold.PLP.part.metal>
0.0000

> <Gold.PLP.part.buried>
-5.1326

> <Gold.PLP.part.nonpolar>
-32.3369

> <Gold.PLP.part.repulsive>
0.1471

> <Gold.PLP.ligand.clash>
0.0000

> <Gold.PLP.ligand.torsion>
1.2579

> <Gold.PLP.Chemscore.Hbond>
2.4280

> <Gold.PLP.Chemscore.CHOScore>
1.3284

> <Gold.PLP.Chemscore.Metal>
0.0000

> <Gold.Chemscore.Hbonds>
donor molecule, donor type, donor heavy atom, donor atom, acceptor molecule, acceptor atom, score
      L1  H    10    40       P1  8028  1.53
      L1  C    15    39       P1  7949  0.56

> <Gold.PLP.Chemscore.Internal.Correction>
0.0728

> <Gold.Rescore>
     Score         DG    S(hbond)    S(metal)    S(lipo)     H(rot)  DE(clash)    DE(int)     intcor
     16.99     -18.53       1.49        0.00     108.04       1.78       0.02       1.52       ----

> <Gold.Chemscore.Fitness>
16.9919

> <Gold.Chemscore.DG>
-18.5270

> <Gold.Chemscore.ZeroCoef>
-5.4800

> <Gold.Chemscore.Hbond>
1.4866

> <Gold.Chemscore.Metal>
0.0000

> <Gold.Chemscore.Lipo>
108.0414

> <Gold.Chemscore.Internal_Hbond>
0.0000

> <Gold.Chemscore.DEClash>
0.0174

> <Gold.Chemscore.DEInternal>
1.5177

> <Gold.Chemscore.Rot>
1.7809

> <Gold.Chemscore.Internal.Correction>
   9.000000E+99

> <Gold.Chemscore.Hbonds>
donor molecule, donor type, donor heavy atom, donor atom, acceptor molecule, acceptor atom, score
      L1  H    10    40       P1  8028  0.77

> <Gold.Chemscore.Hbond.Weighted>
-4.9652

> <Gold.Chemscore.Metal.Weighted>
-0.0000

> <Gold.Chemscore.Lipo.Weighted>
-12.6408

> <Gold.Chemscore.Internal_Hbond.Weighted>
0.0000

> <Gold.Chemscore.DEClash.Weighted>
0.0174

> <Gold.Chemscore.DEInternal.Weighted>
1.5177

> <Gold.Chemscore.Rot.Weighted>
4.5590

> <Gold.Chemscore.Internal.Correction.Weighted>
   9.000000E+99

> <Gold.Protein.RotatedTorsions>
[ 6907 6896 6895 6894 ] final -131.29 input  -60.11 | X-H torsion
[ 7974 7965 7964 7962 ] final -156.12 input  175.53 | X-H torsion
[ 8008 7997 7996 7995 ] final   80.06 input   59.86 | X-H torsion
[ 10167 10162 10161 10158 ] final  106.74 input  -65.29 | X-H torsion
[ 10718 10713 10712 10709 ] final -135.36 input   66.30 | X-H torsion
[ 10763 10752 10751 10750 ] final   14.77 input  -60.55 | X-H torsion
[ 11005 11000 10999 10996 ] final  -46.85 input  -57.11 | X-H torsion

> <Gold.Protein.ActiveResidues>
 VAL166  LYS551  ARG553  GLY616  TRP617  ASP618  TYR619  PRO620  LYS621  CYS622 
 ASP623  PHE694  ASN695  SER759  ASP760  ASP761  ALA762  ILE779  LEU786  VAL792 
 PHE793  MET794  SER795  GLU796  ALA797  LYS798  CYS799  TRP800  GLU811  SER814 

> <Gold.Protein.RotatedAtoms>
  150.9493  133.6567  159.2774 H   0  0  0  0  0  0  0  0  0  0  0  0  # atno 6907 bound_to 6896
  151.3928  135.0957  159.9541 H   0  0  0  0  0  0  0  0  0  0  0  0  # atno 6908 bound_to 6896
  152.5103  133.9004  159.7493 H   0  0  0  0  0  0  0  0  0  0  0  0  # atno 6909 bound_to 6896
  144.7608  140.4154  143.5978 H   0  0  0  0  0  0  0  0  0  0  0  0  # atno 7974 bound_to 7965
  155.8783  140.3445  155.5869 H   0  0  0  0  0  0  0  0  0  0  0  0  # atno 8008 bound_to 7997
  155.7749  140.0850  157.2108 H   0  0  0  0  0  0  0  0  0  0  0  0  # atno 8009 bound_to 7997
  154.4022  140.1511  156.2972 H   0  0  0  0  0  0  0  0  0  0  0  0  # atno 8010 bound_to 7997
  139.6984  144.7098  151.1227 H   0  0  0  0  0  0  0  0  0  0  0  0  # atno 10167 bound_to 10162
  156.2653  130.7234  151.1182 H   0  0  0  0  0  0  0  0  0  0  0  0  # atno 10718 bound_to 10713
  153.1590  135.6792  153.8770 H   0  0  0  0  0  0  0  0  0  0  0  0  # atno 10763 bound_to 10752
  153.8172  135.3135  155.3408 H   0  0  0  0  0  0  0  0  0  0  0  0  # atno 10764 bound_to 10752
  154.7918  135.4830  154.0159 H   0  0  0  0  0  0  0  0  0  0  0  0  # atno 10765 bound_to 10752
  141.0604  133.6711  156.3213 H   0  0  0  0  0  0  0  0  0  0  0  0  # atno 11005 bound_to 11000
  145.6627  139.1584  143.2799 LP  0  0  0  0  0  0  0  0  0  0  0  0  # atno 17320 bound_to 7965
  146.1668  140.6706  142.9252 LP  0  0  0  0  0  0  0  0  0  0  0  0  # atno 17321 bound_to 7965
  140.7703  143.5459  150.9260 LP  0  0  0  0  0  0  0  0  0  0  0  0  # atno 17342 bound_to 10162
  139.9139  143.6687  152.3110 LP  0  0  0  0  0  0  0  0  0  0  0  0  # atno 17343 bound_to 10162
  157.7265  131.0646  150.5906 LP  0  0  0  0  0  0  0  0  0  0  0  0  # atno 17370 bound_to 10713
  156.5998  130.4351  149.5902 LP  0  0  0  0  0  0  0  0  0  0  0  0  # atno 17371 bound_to 10713
  140.5879  134.5680  157.5493 LP  0  0  0  0  0  0  0  0  0  0  0  0  # atno 17394 bound_to 11000
  139.9428  134.7756  156.0637 LP  0  0  0  0  0  0  0  0  0  0  0  0  # atno 17395 bound_to 11000

$$$$
