#       Name:                AV-unprocessed.smi:109
#       Creating user name   scv26
#       Creation time:       Thu Mar 26 18:08:43 2020


#       File generated by GOLD software.
#

@<TRIPOS>MOLECULE
AV-unprocessed.smi:109
    71    74     1
SMALL
NO_CHARGES


@<TRIPOS>ATOM
      1 ****        -5.1046   0.7290   3.1636 O.3            1 S1                 0.0000
      2 ****        -3.8367   0.8511   2.5565 C.3            1 S1                 0.0000
      3 ****        -3.9994   1.0880   1.0465 C.3            1 S1                 0.0000
      4 ****        -2.6478   1.2504   0.3164 C.3            1 S1                 0.0000
      5 ****        -1.9151  -0.0150   0.3481 N.pl3          1 S1                 0.0000
      6 ****        -0.5647  -0.0555   0.3281 C.ar           1 S1                 0.0000
      7 ****         0.1784   1.0817   0.3206 N.ar           1 S1                 0.0000
      8 ****         1.5124   1.0084   0.3141 C.ar           1 S1                 0.0000
      9 ****         2.2873  -0.0780   0.3177 N.ar           1 S1                 0.0000
     10 ****         1.5462  -1.2244   0.3223 C.ar           1 S1                 0.0000
     11 ****         0.1253  -1.2949   0.3267 C.ar           1 S1                 0.0000
     12 ****        -0.2813  -2.6225   0.3350 N.2            1 S1                 0.0000
     13 ****         0.8379  -3.2953   0.3406 C.2            1 S1                 0.0000
     14 ****         1.9854  -2.5340   0.3405 N.pl3          1 S1                 0.0000
     15 ****         3.3996  -3.0251   0.3674 C.3            1 S1                 0.0000
     16 ****         4.2073  -2.1580  -0.3642 O.3            1 S1                 0.0000
     17 ****         5.4904  -2.0253   0.2468 C.3            1 S1                 0.0000
     18 ****         5.7230  -0.5309   0.5261 C.3            1 S1                 0.0000
     19 ****         7.0640  -0.3043   0.9061 O.3            1 S1                 0.0000
     20 ****         5.4578  -2.8891   1.5217 C.3            1 S1                 0.0000
     21 ****         6.0951  -4.1258   1.2641 O.3            1 S1                 0.0000
     22 ****         3.9775  -3.1072   1.7856 C.3            1 S1                 0.0000
     23 ****         3.4656  -2.1226   2.6659 O.3            1 S1                 0.0000
     24 ****        -2.7692   1.7785  -1.1395 C.3            1 S1                 0.0000
     25 ****        -3.2185   3.2543  -1.2058 C.3            1 S1                 0.0000
     26 ****        -3.2258   3.7739  -2.6528 C.3            1 S1                 0.0000
     27 ****        -4.1115   2.8980  -3.5525 C.3            1 S1                 0.0000
     28 ****        -3.6763   1.4256  -3.4934 C.3            1 S1                 0.0000
     29 ****        -3.6651   0.9048  -2.0468 C.3            1 S1                 0.0000
     30 ****         3.3747  -3.9951  -0.1311 H              1 S1                 0.0000
     31 ****         6.2461  -2.3794  -0.4565 H              1 S1                 0.0000
     32 ****         5.9673  -2.4219   2.3657 H              1 S1                 0.0000
     33 ****         3.7621  -4.0867   2.2147 H              1 S1                 0.0000
     34 ****        -4.9808   0.5834   4.0892 H              1 S1                 0.0000
     35 ****        -3.3005   1.6796   3.0201 H              1 S1                 0.0000
     36 ****        -3.2659  -0.0572   2.7516 H              1 S1                 0.0000
     37 ****        -4.5663   0.2658   0.6079 H              1 S1                 0.0000
     38 ****        -4.6060   1.9825   0.9110 H              1 S1                 0.0000
     39 ****        -2.0813   1.9888   0.8846 H              1 S1                 0.0000
     40 ****        -2.4854  -0.8485   0.3449 H              1 S1                 0.0000
     41 ****         2.0332   1.9545   0.3082 H              1 S1                 0.0000
     42 ****         0.8578  -4.3754   0.3539 H              1 S1                 0.0000
     43 ****         5.5217   0.0541  -0.3718 H              1 S1                 0.0000
     44 ****         5.0532  -0.1651   1.3046 H              1 S1                 0.0000
     45 ****         7.1797   0.6210   1.0598 H              1 S1                 0.0000
     46 ****         7.0048  -3.9576   1.0706 H              1 S1                 0.0000
     47 ****         2.5252  -2.2108   2.6973 H              1 S1                 0.0000
     48 ****        -1.7665   1.7545  -1.5691 H              1 S1                 0.0000
     49 ****        -4.2179   3.3704  -0.7872 H              1 S1                 0.0000
     50 ****        -2.5561   3.8737  -0.6002 H              1 S1                 0.0000
     51 ****        -3.5785   4.8054  -2.6753 H              1 S1                 0.0000
     52 ****        -2.2073   3.7871  -3.0429 H              1 S1                 0.0000
     53 ****        -5.1518   2.9848  -3.2362 H              1 S1                 0.0000
     54 ****        -4.0695   3.2582  -4.5807 H              1 S1                 0.0000
     55 ****        -4.3443   0.8159  -4.1025 H              1 S1                 0.0000
     56 ****        -2.6808   1.3208  -3.9268 H              1 S1                 0.0000
     57 ****        -3.3183  -0.1289  -2.0399 H              1 S1                 0.0000
     58 ****        -4.6870   0.8914  -1.6673 H              1 S1                 0.0000
     59 ****        -5.5973  -0.0438   2.7634 LP             1 S1                 0.0000
     60 ****        -5.6291   1.5684   3.0212 LP             1 S1                 0.0000
     61 ****        -0.2732   1.9739   0.3199 LP             1 S1                 0.0000
     62 ****         3.2871  -0.0552   0.3171 LP             1 S1                 0.0000
     63 ****        -1.2150  -2.9806   0.3363 LP             1 S1                 0.0000
     64 ****         3.7699  -1.2598  -0.4070 LP             1 S1                 0.0000
     65 ****         4.3206  -2.5180  -1.2903 LP             1 S1                 0.0000
     66 ****         7.6771  -0.6041   0.1751 LP             1 S1                 0.0000
     67 ****         7.2683  -0.8133   1.7422 LP             1 S1                 0.0000
     68 ****         5.6606  -4.5734   0.4825 LP             1 S1                 0.0000
     69 ****         6.0243  -4.7163   2.0680 LP             1 S1                 0.0000
     70 ****         3.7085  -1.2118   2.3320 LP             1 S1                 0.0000
     71 ****         3.8481  -2.2554   3.5803 LP             1 S1                 0.0000
@<TRIPOS>BOND
    1    1    2 1     
    2    1   34 1     
    3    2    3 1     
    4    2   35 1     
    5    2   36 1     
    6    3    4 1     
    7    3   37 1     
    8    3   38 1     
    9    4    5 1     
   10    4   24 1     
   11    4   39 1     
   12    5    6 1     
   13    5   40 1     
   14    6   11 ar    
   15    6    7 ar    
   16    7    8 ar    
   17    8    9 ar    
   18    8   41 1     
   19    9   10 ar    
   20   10   14 1     
   21   10   11 ar    
   22   11   12 1     
   23   12   13 2     
   24   13   14 1     
   25   13   42 1     
   26   14   15 1     
   27   15   30 1     
   28   15   22 1     
   29   15   16 1     
   30   16   17 1     
   31   17   31 1     
   32   17   18 1     
   33   17   20 1     
   34   18   19 1     
   35   18   43 1     
   36   18   44 1     
   37   19   45 1     
   38   20   32 1     
   39   20   21 1     
   40   20   22 1     
   41   21   46 1     
   42   22   33 1     
   43   22   23 1     
   44   23   47 1     
   45   24   29 1     
   46   24   25 1     
   47   24   48 1     
   48   25   26 1     
   49   25   49 1     
   50   25   50 1     
   51   26   27 1     
   52   26   51 1     
   53   26   52 1     
   54   27   28 1     
   55   27   53 1     
   56   27   54 1     
   57   28   29 1     
   58   28   55 1     
   59   28   56 1     
   60   29   57 1     
   61   29   58 1     
   62    1   59 1     
   63    1   60 1     
   64    7   61 1     
   65    9   62 1     
   66   12   63 1     
   67   16   64 1     
   68   16   65 1     
   69   19   66 1     
   70   19   67 1     
   71   21   68 1     
   72   21   69 1     
   73   23   70 1     
   74   23   71 1     
@<TRIPOS>SUBSTRUCTURE
      1 S1             1
@<TRIPOS>SET
LONE_PAIRS      STATIC     ATOMS    <user>   **** ""
13 59 60 61 62 63 64 65 66 67 68 69 70 71
DONOR_HYDROGENS      STATIC     ATOMS    <user>   **** ""
5 34 40 45 46 47
ATOM$BLUE        STATIC     ATOMS    COLORGROUP SYSTEM
13 59 60 61 62 63 64 65 66 67 68 69 70 71
ATOM$RED        STATIC     ATOMS    COLORGROUP SYSTEM
5 34 40 45 46 47
