#       Name:                AV-unprocessed.smi:1180
#       Creating user name   scv26
#       Creation time:       Fri Mar 27 03:55:39 2020


#       File generated by GOLD software.
#

@<TRIPOS>MOLECULE
AV-unprocessed.smi:1180
    45    46     1
SMALL
NO_CHARGES


@<TRIPOS>ATOM
      1 ****        -5.9776   0.1398   1.3026 C.3            1 S1                 0.0000
      2 ****        -4.4657   0.0965   1.3574 C.2            1 S1                 0.0000
      3 ****        -3.8739   1.3486   1.3603 N.pl3          1 S1                 0.0000
      4 ****        -2.4930   1.4134   1.4208 C.2            1 S1                 0.0000
      5 ****        -1.9322   2.8248   1.4328 C.3            1 S1                 0.0000
      6 ****        -1.7389   0.2854   1.4699 C.2            1 S1                 0.0000
      7 ****        -0.2135   0.3021   1.5412 C.3            1 S1                 0.0000
      8 ****         0.5026   0.3022   0.1904 C.2            1 S1                 0.0000
      9 ****         0.6916   1.3605  -0.4082 O.2            1 S1                 0.0000
     10 ****         0.8921  -0.8941  -0.2762 N.am           1 S1                 0.0000
     11 ****         1.5771  -1.1305  -1.5428 C.3            1 S1                 0.0000
     12 ****         3.1052  -1.2071  -1.3652 C.3            1 S1                 0.0000
     13 ****         3.8542  -1.5175  -2.6449 C.3            1 S1                 0.0000
     14 ****         5.2750  -1.0860  -2.2936 C.3            1 S1                 0.0000
     15 ****         5.1391  -0.0168  -1.3618 O.3            1 S1                 0.0000
     16 ****         3.7814   0.1002  -0.9476 C.3            1 S1                 0.0000
     17 ****        -2.4292  -1.0261   1.4488 C.2            1 S1                 0.0000
     18 ****        -1.8001  -2.0835   1.4697 O.2            1 S1                 0.0000
     19 ****        -3.8325  -1.0362   1.3975 N.2            1 S1                 0.0000
     20 ****        -4.3972   2.2118   1.3300 H              1 S1                 0.0000
     21 ****        -6.3975  -0.8669   1.3079 H              1 S1                 0.0000
     22 ****        -6.3110   0.6429   0.3945 H              1 S1                 0.0000
     23 ****        -6.3741   0.6791   2.1636 H              1 S1                 0.0000
     24 ****        -1.2704   2.9813   0.5813 H              1 S1                 0.0000
     25 ****        -1.3677   3.0042   2.3479 H              1 S1                 0.0000
     26 ****        -2.7250   3.5720   1.3795 H              1 S1                 0.0000
     27 ****         0.1436  -0.5342   2.1443 H              1 S1                 0.0000
     28 ****         0.1118   1.1867   2.0883 H              1 S1                 0.0000
     29 ****         0.6913  -1.7068   0.2886 H              1 S1                 0.0000
     30 ****         1.2110  -2.0772  -1.9405 H              1 S1                 0.0000
     31 ****         1.3103  -0.3689  -2.2778 H              1 S1                 0.0000
     32 ****         3.3464  -1.9770  -0.6300 H              1 S1                 0.0000
     33 ****         3.7901  -2.5660  -2.9370 H              1 S1                 0.0000
     34 ****         3.4729  -0.9103  -3.4672 H              1 S1                 0.0000
     35 ****         5.8112  -1.9018  -1.8073 H              1 S1                 0.0000
     36 ****         5.8458  -0.7809  -3.1709 H              1 S1                 0.0000
     37 ****         3.3365   0.9488  -1.4691 H              1 S1                 0.0000
     38 ****         3.7085   0.2861   0.1242 H              1 S1                 0.0000
     39 ****         0.3767   2.2226  -0.0113 LP             1 S1                 0.0000
     40 ****         1.1602   1.3585  -1.2917 LP             1 S1                 0.0000
     41 ****         5.4282   0.8375  -1.7939 LP             1 S1                 0.0000
     42 ****         5.7141  -0.1980  -0.5640 LP             1 S1                 0.0000
     43 ****        -0.8007  -2.0701   1.5016 LP             1 S1                 0.0000
     44 ****        -2.2882  -2.9561   1.4547 LP             1 S1                 0.0000
     45 ****        -4.3352  -1.9006   1.3919 LP             1 S1                 0.0000
@<TRIPOS>BOND
    1    1   21 1     
    2    1   22 1     
    3    1   23 1     
    4    1    2 1     
    5    2    3 1     
    6    2   19 2     
    7    3    4 1     
    8    3   20 1     
    9    4    6 2     
   10    4    5 1     
   11    5   24 1     
   12    5   25 1     
   13    5   26 1     
   14    6   17 1     
   15    6    7 1     
   16    7    8 1     
   17    7   27 1     
   18    7   28 1     
   19    8    9 2     
   20    8   10 am    
   21   10   11 1     
   22   10   29 1     
   23   11   12 1     
   24   11   30 1     
   25   11   31 1     
   26   12   16 1     
   27   12   13 1     
   28   12   32 1     
   29   13   14 1     
   30   13   33 1     
   31   13   34 1     
   32   14   15 1     
   33   14   35 1     
   34   14   36 1     
   35   15   16 1     
   36   16   37 1     
   37   16   38 1     
   38   17   18 2     
   39   17   19 1     
   40    9   39 1     
   41    9   40 1     
   42   15   41 1     
   43   15   42 1     
   44   18   43 1     
   45   18   44 1     
   46   19   45 1     
@<TRIPOS>SUBSTRUCTURE
      1 S1             1
@<TRIPOS>SET
LONE_PAIRS      STATIC     ATOMS    <user>   **** ""
7 39 40 41 42 43 44 45
DONOR_HYDROGENS      STATIC     ATOMS    <user>   **** ""
2 20 29
ATOM$BLUE        STATIC     ATOMS    COLORGROUP SYSTEM
7 39 40 41 42 43 44 45
ATOM$RED        STATIC     ATOMS    COLORGROUP SYSTEM
2 20 29
