AV-unprocessed.smi:207|AV-procd|sdf|1602|dock8
  -GOLD-   2262019513D 1   1.00000     0.00000
 Structure written by MMmdl.
 55 58  0  0  0  0  0  0  0  0  1 V2000
  143.3838  134.7514  152.5061 C   0  0  0  0  0  0  0  0  0  0  0  0
  144.6685  134.0221  152.0624 C   0  0  0  0  0  0  0  0  0  0  0  0
  145.2266  134.7953  150.8373 C   0  0  0  0  0  0  0  0  0  0  0  0
  145.6702  134.1856  153.2370 C   0  0  0  0  0  0  0  0  0  0  0  0
  146.9216  133.4687  152.9870 N   0  0  0  0  0  0  0  0  0  0  0  0
  147.9820  133.7403  153.7893 C   0  0  0  0  0  0  0  0  0  0  0  0
  148.8756  132.7605  154.0922 N   0  0  0  0  0  0  0  0  0  0  0  0
  149.9301  133.0244  154.8690 C   0  0  0  0  0  0  0  0  0  0  0  0
  150.2742  134.1781  155.4439 N   0  0  0  0  0  0  0  0  0  0  0  0
  149.3762  135.1628  155.1563 C   0  0  0  0  0  0  0  0  0  0  0  0
  148.2153  135.0314  154.3421 C   0  0  0  0  0  0  0  0  0  0  0  0
  147.5428  136.2458  154.2795 N   0  0  0  0  0  0  0  0  0  0  0  0
  148.2696  137.0507  155.0049 C   0  0  0  0  0  0  0  0  0  0  0  0
  149.3841  136.4810  155.5795 N   0  0  0  0  0  0  0  0  0  0  0  0
  150.3574  137.1484  156.4322 C   0  0  0  0  0  0  0  0  0  0  0  0
  151.1734  138.2525  155.7262 C   0  0  0  0  0  0  0  0  0  0  0  0
  150.2447  139.3089  155.1011 C   0  0  0  0  0  0  0  0  0  0  0  0
  150.9743  140.4229  154.6272 O   0  0  0  0  0  0  0  0  0  0  0  0
  152.3478  138.8367  156.5256 C   0  0  0  0  0  0  0  0  0  0  0  0
  153.2666  138.6303  155.4327 O   0  0  0  0  0  0  0  0  0  0  0  0
  152.2996  137.7627  154.8049 C   0  0  0  0  0  0  0  0  0  0  0  0
  146.7198  132.0519  152.7065 C   0  0  0  0  0  0  0  0  0  0  0  0
  145.7107  131.8776  151.5624 C   0  0  0  0  0  0  0  0  0  0  0  0
  144.4416  132.5677  151.8198 N   0  0  0  0  0  0  0  0  0  0  0  0
  143.4415  132.2288  150.7950 C   0  0  0  0  0  0  0  0  0  0  0  0
  143.8605  132.5418  149.3479 C   0  0  0  0  0  0  0  0  0  0  0  0
  142.7954  132.2338  148.4752 O   0  0  0  0  0  0  0  0  0  0  0  0
  143.6007  135.7636  152.8503 H   0  0  0  0  0  0  0  0  0  0  0  0
  142.8911  134.2303  153.3278 H   0  0  0  0  0  0  0  0  0  0  0  0
  142.6716  134.8529  151.6875 H   0  0  0  0  0  0  0  0  0  0  0  0
  145.4152  135.8387  151.0923 H   0  0  0  0  0  0  0  0  0  0  0  0
  144.5322  134.8043  149.9982 H   0  0  0  0  0  0  0  0  0  0  0  0
  146.1719  134.3921  150.4764 H   0  0  0  0  0  0  0  0  0  0  0  0
  145.8826  135.2434  153.4005 H   0  0  0  0  0  0  0  0  0  0  0  0
  145.2266  133.8062  154.1592 H   0  0  0  0  0  0  0  0  0  0  0  0
  150.5923  132.1921  155.0568 H   0  0  0  0  0  0  0  0  0  0  0  0
  148.0053  138.0884  155.1473 H   0  0  0  0  0  0  0  0  0  0  0  0
  149.8218  137.5575  157.2898 H   0  0  0  0  0  0  0  0  0  0  0  0
  151.0242  136.3896  156.8439 H   0  0  0  0  0  0  0  0  0  0  0  0
  149.6501  138.8948  154.2864 H   0  0  0  0  0  0  0  0  0  0  0  0
  149.5285  139.6723  155.8391 H   0  0  0  0  0  0  0  0  0  0  0  0
  150.9701  141.0918  155.2944 H   0  0  0  0  0  0  0  0  0  0  0  0
  152.2300  139.8892  156.7865 H   0  0  0  0  0  0  0  0  0  0  0  0
  152.6337  138.2489  157.3989 H   0  0  0  0  0  0  0  0  0  0  0  0
  152.5543  136.7097  154.9375 H   0  0  0  0  0  0  0  0  0  0  0  0
  152.1482  137.9961  153.7502 H   0  0  0  0  0  0  0  0  0  0  0  0
  147.6546  131.5597  152.4409 H   0  0  0  0  0  0  0  0  0  0  0  0
  146.3496  131.5623  153.6085 H   0  0  0  0  0  0  0  0  0  0  0  0
  146.1454  132.2129  150.6208 H   0  0  0  0  0  0  0  0  0  0  0  0
  145.5275  130.8093  151.4414 H   0  0  0  0  0  0  0  0  0  0  0  0
  143.1290  131.1895  150.8799 H   0  0  0  0  0  0  0  0  0  0  0  0
  142.5339  132.8065  150.9763 H   0  0  0  0  0  0  0  0  0  0  0  0
  144.1033  133.5998  149.2448 H   0  0  0  0  0  0  0  0  0  0  0  0
  144.7340  131.9794  149.0278 H   0  0  0  0  0  0  0  0  0  0  0  0
  142.0607  132.7878  148.6907 H   0  0  0  0  0  0  0  0  0  0  0  0
  1  2  1  0  0  0  0
  1 28  1  0  0  0  0
  1 29  1  0  0  0  0
  1 30  1  0  0  0  0
  2 24  1  0  0  0  0
  2  3  1  0  0  0  0
  2  4  1  0  0  0  0
  3 31  1  0  0  0  0
  3 32  1  0  0  0  0
  3 33  1  0  0  0  0
  4  5  1  0  0  0  0
  4 34  1  0  0  0  0
  4 35  1  0  0  0  0
  5  6  1  0  0  0  0
  5 22  1  0  0  0  0
  6 11  1  0  0  0  0
  6  7  2  0  0  0  0
  7  8  1  0  0  0  0
  8  9  2  0  0  0  0
  8 36  1  0  0  0  0
  9 10  1  0  0  0  0
 10 14  1  0  0  0  0
 10 11  2  0  0  0  0
 11 12  1  0  0  0  0
 12 13  2  0  0  0  0
 13 14  1  0  0  0  0
 13 37  1  0  0  0  0
 14 15  1  0  0  0  0
 15 16  1  0  0  0  0
 15 38  1  0  0  0  0
 15 39  1  0  0  0  0
 16 21  1  0  0  0  0
 16 17  1  0  0  0  0
 16 19  1  0  0  0  0
 17 18  1  0  0  0  0
 17 40  1  0  0  0  0
 17 41  1  0  0  0  0
 18 42  1  0  0  0  0
 19 20  1  0  0  0  0
 19 43  1  0  0  0  0
 19 44  1  0  0  0  0
 20 21  1  0  0  0  0
 21 45  1  0  0  0  0
 21 46  1  0  0  0  0
 22 23  1  0  0  0  0
 22 47  1  0  0  0  0
 22 48  1  0  0  0  0
 23 24  1  0  0  0  0
 23 49  1  0  0  0  0
 23 50  1  0  0  0  0
 24 25  1  0  0  0  0
 25 26  1  0  0  0  0
 25 51  1  0  0  0  0
 25 52  1  0  0  0  0
 26 27  1  0  0  0  0
 26 53  1  0  0  0  0
 26 54  1  0  0  0  0
 27 55  1  0  0  0  0
M  END
> <s_m_source_file>
AV-unprocessed.smi

> <i_m_source_file_index>
207

> <i_lp_mmshare_version>
43012

> <i_f3d_flags>
0

> <s_epik_input>
W09IXVtDSDJdW0NIMl1OMVtDSDJdW0NIMl1OKFtDSDJdQzEoW0NIM10pW0NIM10pYyhuW2NIXW4yKWMoYzIzKW5bY0hdbjNbQ0gyXUM0KFtDSDJdW09IXSlbQ0gyXU9bQ0gyXTQ=

> <s_epik_cmdline>
J2VwaWtfcHl0aG9uJywgJy1waCcsICc3LjAnLCAnLXRuJywgJzgnLCAnLW1hJywgJzIwMCcsICctbWV0YWxfYmluZGluZycsICctaW1hZScsICc8aW5maWxlLm1hZT4nLCAnLW9tYWUnLCAnPG91dGZpbGUubWFlPic=

> <r_lp_tautomer_probability>
1

> <r_epik_Ionization_Penalty>
0.411763

> <r_epik_Ionization_Penalty_Charging>
0

> <r_epik_Ionization_Penalty_Neutral>
0.411763

> <r_epik_State_Penalty>
0.407012

> <r_epik_Charging_Adjusted_Penalty>
0.407012

> <i_epik_Tot_Q>
0

> <i_epik_Tot_abs_Q>
0

> <r_epik_Metal_State_Penalty>
0.401279

> <b_epik_Metal_Only>
0

> <s_lp_Force_Field>
OPLS_2005

> <r_lp_Energy>
76.2772

> <b_lp_Chiralities_Consistent>
1

> <s_lp_Variant>
AV-unprocessed.smi:207-1

> <Gold.Version>
5.8.1

> <Gold.Id.Protein>
6NUR|6NUR_protein|mol2

> <Gold.PLP.Fitness>
46.7352

> <Gold.PLP.PLP>
-37.8735

> <Gold.PLP.part.hbond>
-5.0909

> <Gold.PLP.part.metal>
0.0000

> <Gold.PLP.part.buried>
-6.1884

> <Gold.PLP.part.nonpolar>
-27.9246

> <Gold.PLP.part.repulsive>
1.7539

> <Gold.PLP.ligand.clash>
0.0000

> <Gold.PLP.ligand.torsion>
0.7583

> <Gold.PLP.Chemscore.Hbond>
3.2205

> <Gold.PLP.Chemscore.CHOScore>
0.0000

> <Gold.PLP.Chemscore.Metal>
0.0000

> <Gold.Chemscore.Hbonds>
donor molecule, donor type, donor heavy atom, donor atom, acceptor molecule, acceptor atom, score
      L1  H    27    55       P1 10186  0.81
      P1  H  7989  7998       L1    18  0.62
      P1  H  7997  8010       L1    20  0.55
      P1  H 10785 10796       L1    27  0.33

> <Gold.PLP.Chemscore.Internal.Correction>
0.7167

> <Gold.Rescore>
     Score         DG    S(hbond)    S(metal)    S(lipo)     H(rot)  DE(clash)    DE(int)     intcor
      8.61     -14.27       2.85        0.00      75.69       3.74       0.64       5.02       ----

> <Gold.Chemscore.Fitness>
8.6091

> <Gold.Chemscore.DG>
-14.2677

> <Gold.Chemscore.ZeroCoef>
-5.4800

> <Gold.Chemscore.Hbond>
2.8486

> <Gold.Chemscore.Metal>
0.0000

> <Gold.Chemscore.Lipo>
75.6913

> <Gold.Chemscore.Internal_Hbond>
0.0000

> <Gold.Chemscore.DEClash>
0.6360

> <Gold.Chemscore.DEInternal>
5.0226

> <Gold.Chemscore.Rot>
3.7432

> <Gold.Chemscore.Internal.Correction>
   9.000000E+99

> <Gold.Chemscore.Hbonds>
donor molecule, donor type, donor heavy atom, donor atom, acceptor molecule, acceptor atom, score
      L1  H    27    55       P1 10186  0.80
      P1  H  7989  7998       L1    18  0.46
      P1  H  7997  8010       L1    20  0.03
      P1  H 10785 10796       L1    27  0.01

> <Gold.Chemscore.Hbond.Weighted>
-9.5143

> <Gold.Chemscore.Metal.Weighted>
-0.0000

> <Gold.Chemscore.Lipo.Weighted>
-8.8559

> <Gold.Chemscore.Internal_Hbond.Weighted>
0.0000

> <Gold.Chemscore.DEClash.Weighted>
0.6360

> <Gold.Chemscore.DEInternal.Weighted>
5.0226

> <Gold.Chemscore.Rot.Weighted>
9.5825

> <Gold.Chemscore.Internal.Correction.Weighted>
   9.000000E+99

> <Gold.Protein.RotatedTorsions>
[ 6907 6896 6895 6894 ] final   71.53 input  -60.11 | X-H torsion
[ 7974 7965 7964 7962 ] final  110.21 input  175.53 | X-H torsion
[ 8008 7997 7996 7995 ] final   94.21 input   59.86 | X-H torsion
[ 10167 10162 10161 10158 ] final   61.69 input  -65.29 | X-H torsion
[ 10718 10713 10712 10709 ] final -180.00 input   66.30 | X-H torsion
[ 10763 10752 10751 10750 ] final   68.24 input  -60.55 | X-H torsion
[ 11005 11000 10999 10996 ] final  -12.85 input  -57.11 | X-H torsion

> <Gold.Protein.ActiveResidues>
 VAL166  LYS551  ARG553  GLY616  TRP617  ASP618  TYR619  PRO620  LYS621  CYS622 
 ASP623  PHE694  ASN695  SER759  ASP760  ASP761  ALA762  ILE779  LEU786  VAL792 
 PHE793  MET794  SER795  GLU796  ALA797  LYS798  CYS799  TRP800  GLU811  SER814 

> <Gold.Protein.RotatedAtoms>
  152.4815  134.4707  159.9634 H   0  0  0  0  0  0  0  0  0  0  0  0  # atno 6907 bound_to 6896
  151.4712  133.3562  159.2831 H   0  0  0  0  0  0  0  0  0  0  0  0  # atno 6908 bound_to 6896
  150.8891  134.8318  159.7341 H   0  0  0  0  0  0  0  0  0  0  0  0  # atno 6909 bound_to 6896
  145.2579  139.2714  143.4032 H   0  0  0  0  0  0  0  0  0  0  0  0  # atno 7974 bound_to 7965
  156.0554  140.3303  155.7399 H   0  0  0  0  0  0  0  0  0  0  0  0  # atno 8008 bound_to 7997
  155.5537  140.0612  157.2862 H   0  0  0  0  0  0  0  0  0  0  0  0  # atno 8009 bound_to 7997
  154.4455  140.1889  156.0701 H   0  0  0  0  0  0  0  0  0  0  0  0  # atno 8010 bound_to 7997
  140.1520  144.4453  150.6754 H   0  0  0  0  0  0  0  0  0  0  0  0  # atno 10167 bound_to 10162
  156.8674  130.9772  151.3077 H   0  0  0  0  0  0  0  0  0  0  0  0  # atno 10718 bound_to 10713
  153.0226  135.5254  154.7104 H   0  0  0  0  0  0  0  0  0  0  0  0  # atno 10763 bound_to 10752
  154.6188  135.2886  155.0351 H   0  0  0  0  0  0  0  0  0  0  0  0  # atno 10764 bound_to 10752
  154.1346  135.6587  153.4981 H   0  0  0  0  0  0  0  0  0  0  0  0  # atno 10765 bound_to 10752
  140.7700  133.8446  155.9199 H   0  0  0  0  0  0  0  0  0  0  0  0  # atno 11005 bound_to 11000
  146.3284  140.2988  142.8619 LP  0  0  0  0  0  0  0  0  0  0  0  0  # atno 17320 bound_to 7965
  144.9444  140.8113  143.5610 LP  0  0  0  0  0  0  0  0  0  0  0  0  # atno 17321 bound_to 7965
  140.6696  143.2281  151.5657 LP  0  0  0  0  0  0  0  0  0  0  0  0  # atno 17342 bound_to 10162
  139.5421  144.2619  152.1371 LP  0  0  0  0  0  0  0  0  0  0  0  0  # atno 17343 bound_to 10162
  157.6215  130.8659  149.9117 LP  0  0  0  0  0  0  0  0  0  0  0  0  # atno 17370 bound_to 10713
  156.0744  130.3681  150.0707 LP  0  0  0  0  0  0  0  0  0  0  0  0  # atno 17371 bound_to 10713
  140.9582  134.1690  157.4675 LP  0  0  0  0  0  0  0  0  0  0  0  0  # atno 17394 bound_to 11000
  139.8757  134.9935  156.5647 LP  0  0  0  0  0  0  0  0  0  0  0  0  # atno 17395 bound_to 11000

$$$$
