AV-unprocessed.smi:2766|AV-procd|sdf|10645|dock2
  -GOLD-   2272015 93D 1   1.00000     0.00000
 Structure written by MMmdl.
 32 33  0  0  0  0  0  0  0  0  1 V2000
  146.0664  142.8935  154.1045 C   0  0  0  0  0  0  0  0  0  0  0  0
  146.7709  142.3061  155.1840 O   0  0  0  0  0  0  0  0  0  0  0  0
  147.9134  141.5807  154.7594 C   0  0  0  0  0  0  0  0  0  0  0  0
  148.8624  141.3856  155.9532 C   0  0  1  0  0  0  0  0  0  0  0  0
  148.4160  140.2700  156.6986 O   0  0  0  0  0  0  0  0  0  0  0  0
  150.3183  141.1500  155.4957 C   0  0  0  0  0  0  0  0  0  0  0  0
  151.2509  140.9913  156.6055 N   0  0  0  0  0  0  0  0  0  0  0  0
  151.9993  139.9036  156.9287 C   0  0  0  0  0  0  0  0  0  0  0  0
  151.9344  138.6179  156.1500 C   0  0  0  0  0  0  0  0  0  0  0  0
  152.7110  137.6855  156.7042 F   0  0  0  0  0  0  0  0  0  0  0  0
  150.6864  138.1498  156.1285 F   0  0  0  0  0  0  0  0  0  0  0  0
  152.3470  138.7922  154.8956 F   0  0  0  0  0  0  0  0  0  0  0  0
  152.7699  140.0373  158.0111 N   0  0  0  0  0  0  0  0  0  0  0  0
  152.4943  141.3231  158.4296 C   0  0  0  0  0  0  0  0  0  0  0  0
  152.9957  142.0573  159.5282 C   0  0  0  0  0  0  0  0  0  0  0  0
  152.5534  143.3747  159.7678 C   0  0  0  0  0  0  0  0  0  0  0  0
  151.6049  143.9749  158.9147 C   0  0  0  0  0  0  0  0  0  0  0  0
  151.0936  143.2605  157.8141 C   0  0  0  0  0  0  0  0  0  0  0  0
  151.5409  141.9464  157.5766 C   0  0  0  0  0  0  0  0  0  0  0  0
  148.8228  142.2662  156.5941 H   0  0  0  0  0  0  0  0  0  0  0  0
  145.2036  143.4401  154.4848 H   0  0  0  0  0  0  0  0  0  0  0  0
  145.7041  142.1336  153.4111 H   0  0  0  0  0  0  0  0  0  0  0  0
  146.6955  143.5967  153.5571 H   0  0  0  0  0  0  0  0  0  0  0  0
  147.6365  140.6227  154.3151 H   0  0  0  0  0  0  0  0  0  0  0  0
  148.4142  142.1625  153.9837 H   0  0  0  0  0  0  0  0  0  0  0  0
  147.6775  139.8855  156.2524 H   0  0  0  0  0  0  0  0  0  0  0  0
  150.3758  140.2598  154.8678 H   0  0  0  0  0  0  0  0  0  0  0  0
  150.6536  141.9761  154.8697 H   0  0  0  0  0  0  0  0  0  0  0  0
  153.7206  141.6049  160.1886 H   0  0  0  0  0  0  0  0  0  0  0  0
  152.9427  143.9266  160.6108 H   0  0  0  0  0  0  0  0  0  0  0  0
  151.2704  144.9842  159.1053 H   0  0  0  0  0  0  0  0  0  0  0  0
  150.3680  143.7189  157.1589 H   0  0  0  0  0  0  0  0  0  0  0  0
  1  2  1  0  0  0  0
  1 21  1  0  0  0  0
  1 22  1  0  0  0  0
  1 23  1  0  0  0  0
  2  3  1  0  0  0  0
  3  4  1  0  0  0  0
  3 24  1  0  0  0  0
  3 25  1  0  0  0  0
  4 20  1  0  0  0  0
  4  5  1  0  0  0  0
  4  6  1  0  0  0  0
  5 26  1  0  0  0  0
  6  7  1  0  0  0  0
  6 27  1  0  0  0  0
  6 28  1  0  0  0  0
  7 19  1  0  0  0  0
  7  8  1  0  0  0  0
  8  9  1  0  0  0  0
  8 13  2  0  0  0  0
  9 10  1  0  0  0  0
  9 11  1  0  0  0  0
  9 12  1  0  0  0  0
 13 14  1  0  0  0  0
 14 19  2  0  0  0  0
 14 15  1  0  0  0  0
 15 16  2  0  0  0  0
 15 29  1  0  0  0  0
 16 17  1  0  0  0  0
 16 30  1  0  0  0  0
 17 18  2  0  0  0  0
 17 31  1  0  0  0  0
 18 19  1  0  0  0  0
 18 32  1  0  0  0  0
M  END
> <s_m_source_file>
AV-unprocessed.smi

> <i_m_source_file_index>
2766

> <i_lp_mmshare_version>
43012

> <i_f3d_flags>
0

> <s_epik_input>
W0NIM11PW0NIMl1bQ0BASF0oW09IXSlbQ0gyXW4oYyhuMSlDKEYpKEYpRiljKGMxMilbY0hdW2NIXVtjSF1bY0hdMg==

> <s_epik_cmdline>
J2VwaWtfcHl0aG9uJywgJy1waCcsICc3LjAnLCAnLXRuJywgJzgnLCAnLW1hJywgJzIwMCcsICctbWV0YWxfYmluZGluZycsICctaW1hZScsICc8aW5maWxlLm1hZT4nLCAnLW9tYWUnLCAnPG91dGZpbGUubWFlPic=

> <r_epik_Ionization_Penalty>
0.00044827

> <r_epik_Ionization_Penalty_Charging>
0

> <r_epik_Ionization_Penalty_Neutral>
0.00044827

> <r_epik_State_Penalty>
0.000276591

> <r_epik_Charging_Adjusted_Penalty>
0.000276591

> <i_epik_Tot_Q>
0

> <i_epik_Tot_abs_Q>
0

> <r_epik_Metal_State_Penalty>
-0

> <b_epik_Metal_Only>
0

> <s_lp_Force_Field>
OPLS_2005

> <r_lp_Energy>
13.5685

> <b_lp_Chiralities_Consistent>
1

> <s_lp_Variant>
AV-unprocessed.smi:2766-1

> <Gold.Version>
5.8.1

> <Gold.Id.Protein>
6NUR|6NUR_protein|mol2

> <Gold.PLP.Fitness>
40.1968

> <Gold.PLP.PLP>
-37.8776

> <Gold.PLP.part.hbond>
-1.0000

> <Gold.PLP.part.metal>
0.0000

> <Gold.PLP.part.buried>
-3.5764

> <Gold.PLP.part.nonpolar>
-33.1851

> <Gold.PLP.part.repulsive>
0.1606

> <Gold.PLP.ligand.clash>
0.0000

> <Gold.PLP.ligand.torsion>
0.3530

> <Gold.PLP.Chemscore.Hbond>
1.0000

> <Gold.PLP.Chemscore.CHOScore>
0.0000

> <Gold.PLP.Chemscore.Metal>
0.0000

> <Gold.Chemscore.Hbonds>
donor molecule, donor type, donor heavy atom, donor atom, acceptor molecule, acceptor atom, score
      P1  H  7997  8009       L1    13  0.75

> <Gold.PLP.Chemscore.Internal.Correction>
0.0253

> <Gold.Rescore>
     Score         DG    S(hbond)    S(metal)    S(lipo)     H(rot)  DE(clash)    DE(int)     intcor
     11.10     -11.74       0.44        0.00      91.64       2.32       0.27       0.37       ----

> <Gold.Chemscore.Fitness>
11.0962

> <Gold.Chemscore.DG>
-11.7378

> <Gold.Chemscore.ZeroCoef>
-5.4800

> <Gold.Chemscore.Hbond>
0.4389

> <Gold.Chemscore.Metal>
0.0000

> <Gold.Chemscore.Lipo>
91.6381

> <Gold.Chemscore.Internal_Hbond>
0.0000

> <Gold.Chemscore.DEClash>
0.2695

> <Gold.Chemscore.DEInternal>
0.3721

> <Gold.Chemscore.Rot>
2.3164

> <Gold.Chemscore.Internal.Correction>
   9.000000E+99

> <Gold.Chemscore.Hbonds>
donor molecule, donor type, donor heavy atom, donor atom, acceptor molecule, acceptor atom, score
      P1  H  7997  8009       L1    13  0.07

> <Gold.Chemscore.Hbond.Weighted>
-1.4660

> <Gold.Chemscore.Metal.Weighted>
-0.0000

> <Gold.Chemscore.Lipo.Weighted>
-10.7217

> <Gold.Chemscore.Internal_Hbond.Weighted>
0.0000

> <Gold.Chemscore.DEClash.Weighted>
0.2695

> <Gold.Chemscore.DEInternal.Weighted>
0.3721

> <Gold.Chemscore.Rot.Weighted>
5.9299

> <Gold.Chemscore.Internal.Correction.Weighted>
   9.000000E+99

> <Gold.Protein.RotatedTorsions>
[ 6907 6896 6895 6894 ] final   31.98 input  -60.11 | X-H torsion
[ 7974 7965 7964 7962 ] final   47.67 input  175.53 | X-H torsion
[ 8008 7997 7996 7995 ] final  156.92 input   59.86 | X-H torsion
[ 10167 10162 10161 10158 ] final  143.43 input  -65.29 | X-H torsion
[ 10718 10713 10712 10709 ] final  -21.57 input   66.30 | X-H torsion
[ 10763 10752 10751 10750 ] final    1.17 input  -60.55 | X-H torsion
[ 11005 11000 10999 10996 ] final   89.62 input  -57.11 | X-H torsion

> <Gold.Protein.ActiveResidues>
 VAL166  LYS551  ARG553  GLY616  TRP617  ASP618  TYR619  PRO620  LYS621  CYS622 
 ASP623  PHE694  ASN695  SER759  ASP760  ASP761  ALA762  ILE779  LEU786  VAL792 
 PHE793  MET794  SER795  GLU796  ALA797  LYS798  CYS799  TRP800  GLU811  SER814 

> <Gold.Protein.RotatedAtoms>
  152.0680  134.9552  160.0574 H   0  0  0  0  0  0  0  0  0  0  0  0  # atno 6907 bound_to 6896
  152.0889  133.4185  159.4543 H   0  0  0  0  0  0  0  0  0  0  0  0  # atno 6908 bound_to 6896
  150.6836  134.2814  159.4672 H   0  0  0  0  0  0  0  0  0  0  0  0  # atno 6909 bound_to 6896
  146.0276  139.4725  142.9858 H   0  0  0  0  0  0  0  0  0  0  0  0  # atno 7974 bound_to 7965
  156.2394  140.1899  156.7030 H   0  0  0  0  0  0  0  0  0  0  0  0  # atno 8008 bound_to 7997
  154.6168  140.0614  156.9591 H   0  0  0  0  0  0  0  0  0  0  0  0  # atno 8009 bound_to 7997
  155.1926  140.3285  155.4358 H   0  0  0  0  0  0  0  0  0  0  0  0  # atno 8010 bound_to 7997
  139.4970  144.6041  151.6417 H   0  0  0  0  0  0  0  0  0  0  0  0  # atno 10167 bound_to 10162
  156.5163  130.4622  149.6621 H   0  0  0  0  0  0  0  0  0  0  0  0  # atno 10718 bound_to 10713
  153.3114  135.6963  153.7112 H   0  0  0  0  0  0  0  0  0  0  0  0  # atno 10763 bound_to 10752
  153.5987  135.3466  155.2938 H   0  0  0  0  0  0  0  0  0  0  0  0  # atno 10764 bound_to 10752
  154.8576  135.4335  154.2254 H   0  0  0  0  0  0  0  0  0  0  0  0  # atno 10765 bound_to 10752
  139.8871  134.8563  156.3169 H   0  0  0  0  0  0  0  0  0  0  0  0  # atno 11005 bound_to 11000
  145.7093  141.0111  143.1462 LP  0  0  0  0  0  0  0  0  0  0  0  0  # atno 17320 bound_to 7965
  144.7016  139.8737  143.7442 LP  0  0  0  0  0  0  0  0  0  0  0  0  # atno 17321 bound_to 7965
  140.5698  144.0128  150.6211 LP  0  0  0  0  0  0  0  0  0  0  0  0  # atno 17342 bound_to 10162
  140.3242  143.3118  152.0753 LP  0  0  0  0  0  0  0  0  0  0  0  0  # atno 17343 bound_to 10162
  156.3192  130.7271  151.2179 LP  0  0  0  0  0  0  0  0  0  0  0  0  # atno 17370 bound_to 10713
  157.7443  131.0460  150.4873 LP  0  0  0  0  0  0  0  0  0  0  0  0  # atno 17371 bound_to 10713
  140.9813  133.7266  156.0676 LP  0  0  0  0  0  0  0  0  0  0  0  0  # atno 17394 bound_to 11000
  140.7746  134.3794  157.5500 LP  0  0  0  0  0  0  0  0  0  0  0  0  # atno 17395 bound_to 11000

$$$$
