AV-unprocessed.smi:1285|AV-procd|sdf|5370|dock4
  -GOLD-   22720 4513D 1   1.00000     0.00000
 Structure written by MMmdl.
 46 47  0  0  0  0  0  0  0  0  1 V2000
  148.5714  135.3054  156.5162 C   0  0  0  0  0  0  0  0  0  0  0  0
  149.8464  135.6981  157.2854 C   0  0  0  0  0  0  0  0  0  0  0  0
  149.9644  137.2070  157.6717 C   0  0  2  0  0  0  0  0  0  0  0  0
  151.2880  137.3509  158.4703 C   0  0  0  0  0  0  0  0  0  0  0  0
  148.7686  137.5663  158.6129 C   0  0  0  0  0  0  0  0  0  0  0  0
  148.7291  136.7878  159.8509 N   0  0  0  0  0  0  0  0  0  0  0  0
  147.6951  136.7228  160.7054 C   0  0  0  0  0  0  0  0  0  0  0  0
  146.6428  137.3408  160.5401 O   0  0  0  0  0  0  0  0  0  0  0  0
  147.8842  135.8196  161.9332 C   0  0  1  0  0  0  0  0  0  0  0  0
  147.7385  136.5940  163.2592 C   0  0  0  0  0  0  0  0  0  0  0  0
  146.9853  134.6744  161.8542 N   0  0  0  0  0  0  0  0  0  0  0  0
  145.6538  134.6241  161.9379 C   0  0  0  0  0  0  0  0  0  0  0  0
  145.1549  133.3975  161.8767 N   0  0  0  0  0  0  0  0  0  0  0  0
  146.3151  132.6857  161.7608 C   0  0  0  0  0  0  0  0  0  0  0  0
  147.4403  133.4003  161.7537 N   0  0  0  0  0  0  0  0  0  0  0  0
  149.9965  138.0708  156.4572 N   0  0  0  0  0  0  0  0  0  0  0  0
  150.9504  137.6578  155.4203 C   0  0  0  0  0  0  0  0  0  0  0  0
  150.8204  138.5085  154.1455 C   0  0  0  0  0  0  0  0  0  0  0  0
  150.9934  139.8835  154.4661 O   0  0  0  0  0  0  0  0  0  0  0  0
  150.0506  140.3401  155.4285 C   0  0  0  0  0  0  0  0  0  0  0  0
  150.1778  139.5048  156.7136 C   0  0  0  0  0  0  0  0  0  0  0  0
  148.5711  134.2370  156.2998 H   0  0  0  0  0  0  0  0  0  0  0  0
  148.4967  135.8275  155.5628 H   0  0  0  0  0  0  0  0  0  0  0  0
  147.6688  135.5200  157.0885 H   0  0  0  0  0  0  0  0  0  0  0  0
  149.9259  135.0729  158.1747 H   0  0  0  0  0  0  0  0  0  0  0  0
  150.6981  135.4035  156.6713 H   0  0  0  0  0  0  0  0  0  0  0  0
  151.4041  136.5651  159.2173 H   0  0  0  0  0  0  0  0  0  0  0  0
  151.3383  138.2970  159.0095 H   0  0  0  0  0  0  0  0  0  0  0  0
  152.1603  137.3026  157.8179 H   0  0  0  0  0  0  0  0  0  0  0  0
  148.7626  138.6297  158.8520 H   0  0  0  0  0  0  0  0  0  0  0  0
  147.8208  137.3744  158.1110 H   0  0  0  0  0  0  0  0  0  0  0  0
  149.5553  136.2508  160.0709 H   0  0  0  0  0  0  0  0  0  0  0  0
  148.9025  135.4278  161.9021 H   0  0  0  0  0  0  0  0  0  0  0  0
  148.4514  137.4177  163.3124 H   0  0  0  0  0  0  0  0  0  0  0  0
  147.9302  135.9422  164.1119 H   0  0  0  0  0  0  0  0  0  0  0  0
  146.7402  137.0153  163.3839 H   0  0  0  0  0  0  0  0  0  0  0  0
  145.0364  135.5032  162.0507 H   0  0  0  0  0  0  0  0  0  0  0  0
  146.3313  131.6084  161.6865 H   0  0  0  0  0  0  0  0  0  0  0  0
  151.9724  137.7399  155.7898 H   0  0  0  0  0  0  0  0  0  0  0  0
  150.7978  136.6169  155.1407 H   0  0  0  0  0  0  0  0  0  0  0  0
  151.5756  138.2153  153.4162 H   0  0  0  0  0  0  0  0  0  0  0  0
  149.8467  138.3557  153.6773 H   0  0  0  0  0  0  0  0  0  0  0  0
  150.2404  141.3924  155.6403 H   0  0  0  0  0  0  0  0  0  0  0  0
  149.0403  140.2720  155.0216 H   0  0  0  0  0  0  0  0  0  0  0  0
  149.4399  139.8723  157.4242 H   0  0  0  0  0  0  0  0  0  0  0  0
  151.1588  139.6895  157.1514 H   0  0  0  0  0  0  0  0  0  0  0  0
  1  2  1  0  0  0  0
  1 22  1  0  0  0  0
  1 23  1  0  0  0  0
  1 24  1  0  0  0  0
  2  3  1  0  0  0  0
  2 25  1  0  0  0  0
  2 26  1  0  0  0  0
  3  4  1  0  0  0  0
  3  5  1  0  0  0  0
  3 16  1  0  0  0  0
  4 27  1  0  0  0  0
  4 28  1  0  0  0  0
  4 29  1  0  0  0  0
  5  6  1  0  0  0  0
  5 30  1  0  0  0  0
  5 31  1  0  0  0  0
  6  7  1  0  0  0  0
  6 32  1  0  0  0  0
  7  8  2  0  0  0  0
  7  9  1  0  0  0  0
  9 10  1  0  0  0  0
  9 11  1  0  0  0  0
  9 33  1  0  0  0  0
 10 34  1  0  0  0  0
 10 35  1  0  0  0  0
 10 36  1  0  0  0  0
 11 15  1  0  0  0  0
 11 12  1  0  0  0  0
 12 13  2  0  0  0  0
 12 37  1  0  0  0  0
 13 14  1  0  0  0  0
 14 15  2  0  0  0  0
 14 38  1  0  0  0  0
 16 21  1  0  0  0  0
 16 17  1  0  0  0  0
 17 18  1  0  0  0  0
 17 39  1  0  0  0  0
 17 40  1  0  0  0  0
 18 19  1  0  0  0  0
 18 41  1  0  0  0  0
 18 42  1  0  0  0  0
 19 20  1  0  0  0  0
 20 21  1  0  0  0  0
 20 43  1  0  0  0  0
 20 44  1  0  0  0  0
 21 45  1  0  0  0  0
 21 46  1  0  0  0  0
M  END
> <s_m_source_file>
AV-unprocessed.smi

> <i_m_source_file_index>
1285

> <i_lp_mmshare_version>
43012

> <i_f3d_flags>
0

> <s_epik_input>
W0NIMl0xW0NIMl1PW0NIMl1bQ0gyXU4xW0NAQF0oW0NIM10pKFtDSDJdW0NIM10pW0NIMl1bTkhdQyg9TylbQ0BIXShbQ0gzXSluMltjSF1uW2NIXW4y

> <s_epik_cmdline>
J2VwaWtfcHl0aG9uJywgJy1waCcsICc3LjAnLCAnLXRuJywgJzgnLCAnLW1hJywgJzIwMCcsICctbWV0YWxfYmluZGluZycsICctaW1hZScsICc8aW5maWxlLm1hZT4nLCAnLW9tYWUnLCAnPG91dGZpbGUubWFlPic=

> <r_lp_tautomer_probability>
1

> <r_epik_Ionization_Penalty>
0.285697

> <r_epik_Ionization_Penalty_Charging>
0

> <r_epik_Ionization_Penalty_Neutral>
0.285697

> <r_epik_State_Penalty>
0.278478

> <r_epik_Charging_Adjusted_Penalty>
0.278478

> <i_epik_Tot_Q>
0

> <i_epik_Tot_abs_Q>
0

> <r_epik_Metal_State_Penalty>
0.278477

> <b_epik_Metal_Only>
0

> <s_lp_Force_Field>
OPLS_2005

> <r_lp_Energy>
49.308

> <b_lp_Chiralities_Consistent>
1

> <s_lp_Variant>
AV-unprocessed.smi:1285-4

> <Gold.Version>
5.8.1

> <Gold.Id.Protein>
6NUR|6NUR_protein|mol2

> <Gold.PLP.Fitness>
36.1957

> <Gold.PLP.PLP>
-30.4467

> <Gold.PLP.part.hbond>
-2.0000

> <Gold.PLP.part.metal>
0.0000

> <Gold.PLP.part.buried>
-4.7527

> <Gold.PLP.part.nonpolar>
-23.9683

> <Gold.PLP.part.repulsive>
0.3950

> <Gold.PLP.ligand.clash>
0.0000

> <Gold.PLP.ligand.torsion>
0.2481

> <Gold.PLP.Chemscore.Hbond>
2.0000

> <Gold.PLP.Chemscore.CHOScore>
0.0000

> <Gold.PLP.Chemscore.Metal>
0.0000

> <Gold.Chemscore.Hbonds>
donor molecule, donor type, donor heavy atom, donor atom, acceptor molecule, acceptor atom, score
      P1  H  6934  6947       L1     8  1.00
      P1  H  7989  7998       L1    19  0.98

> <Gold.PLP.Chemscore.Internal.Correction>
0.2451

> <Gold.Rescore>
     Score         DG    S(hbond)    S(metal)    S(lipo)     H(rot)  DE(clash)    DE(int)     intcor
     11.51     -11.84       1.91        0.00      58.43       2.68       0.02       0.30       ----

> <Gold.Chemscore.Fitness>
11.5081

> <Gold.Chemscore.DG>
-11.8363

> <Gold.Chemscore.ZeroCoef>
-5.4800

> <Gold.Chemscore.Hbond>
1.9121

> <Gold.Chemscore.Metal>
0.0000

> <Gold.Chemscore.Lipo>
58.4281

> <Gold.Chemscore.Internal_Hbond>
0.0000

> <Gold.Chemscore.DEClash>
0.0249

> <Gold.Chemscore.DEInternal>
0.3033

> <Gold.Chemscore.Rot>
2.6821

> <Gold.Chemscore.Internal.Correction>
   9.000000E+99

> <Gold.Chemscore.Hbonds>
donor molecule, donor type, donor heavy atom, donor atom, acceptor molecule, acceptor atom, score
      P1  H  6934  6947       L1     8  0.30
      P1  H  7989  7998       L1    19  0.88

> <Gold.Chemscore.Hbond.Weighted>
-6.3863

> <Gold.Chemscore.Metal.Weighted>
-0.0000

> <Gold.Chemscore.Lipo.Weighted>
-6.8361

> <Gold.Chemscore.Internal_Hbond.Weighted>
0.0000

> <Gold.Chemscore.DEClash.Weighted>
0.0249

> <Gold.Chemscore.DEInternal.Weighted>
0.3033

> <Gold.Chemscore.Rot.Weighted>
6.8661

> <Gold.Chemscore.Internal.Correction.Weighted>
   9.000000E+99

> <Gold.Protein.RotatedTorsions>
[ 6907 6896 6895 6894 ] final   40.10 input  -60.11 | X-H torsion
[ 7974 7965 7964 7962 ] final -174.38 input  175.53 | X-H torsion
[ 8008 7997 7996 7995 ] final  173.27 input   59.86 | X-H torsion
[ 10167 10162 10161 10158 ] final  -24.53 input  -65.29 | X-H torsion
[ 10718 10713 10712 10709 ] final  113.31 input   66.30 | X-H torsion
[ 10763 10752 10751 10750 ] final   11.01 input  -60.55 | X-H torsion
[ 11005 11000 10999 10996 ] final   51.67 input  -57.11 | X-H torsion

> <Gold.Protein.ActiveResidues>
 VAL166  LYS551  ARG553  GLY616  TRP617  ASP618  TYR619  PRO620  LYS621  CYS622 
 ASP623  PHE694  ASN695  SER759  ASP760  ASP761  ALA762  ILE779  LEU786  VAL792 
 PHE793  MET794  SER795  GLU796  ALA797  LYS798  CYS799  TRP800  GLU811  SER814 

> <Gold.Protein.RotatedAtoms>
  152.1781  134.8778  160.0528 H   0  0  0  0  0  0  0  0  0  0  0  0  # atno 6907 bound_to 6896
  151.9712  133.3721  159.4080 H   0  0  0  0  0  0  0  0  0  0  0  0  # atno 6908 bound_to 6896
  150.6913  134.4061  159.5184 H   0  0  0  0  0  0  0  0  0  0  0  0  # atno 6909 bound_to 6896
  144.7132  140.1479  143.6386 H   0  0  0  0  0  0  0  0  0  0  0  0  # atno 7974 bound_to 7965
  156.1093  140.1464  156.9361 H   0  0  0  0  0  0  0  0  0  0  0  0  # atno 8008 bound_to 7997
  154.4755  140.0896  156.7295 H   0  0  0  0  0  0  0  0  0  0  0  0  # atno 8009 bound_to 7997
  155.4625  140.3439  155.4317 H   0  0  0  0  0  0  0  0  0  0  0  0  # atno 8010 bound_to 7997
  140.7288  143.4345  151.0751 H   0  0  0  0  0  0  0  0  0  0  0  0  # atno 10167 bound_to 10162
  157.6345  131.0981  150.7022 H   0  0  0  0  0  0  0  0  0  0  0  0  # atno 10718 bound_to 10713
  153.1971  135.6851  153.8278 H   0  0  0  0  0  0  0  0  0  0  0  0  # atno 10763 bound_to 10752
  153.7558  135.3217  155.3330 H   0  0  0  0  0  0  0  0  0  0  0  0  # atno 10764 bound_to 10752
  154.8150  135.4691  154.0720 H   0  0  0  0  0  0  0  0  0  0  0  0  # atno 10765 bound_to 10752
  140.0913  134.5205  155.8849 H   0  0  0  0  0  0  0  0  0  0  0  0  # atno 11005 bound_to 11000
  145.9142  139.2506  143.1419 LP  0  0  0  0  0  0  0  0  0  0  0  0  # atno 17320 bound_to 7965
  145.9685  140.8779  143.0174 LP  0  0  0  0  0  0  0  0  0  0  0  0  # atno 17321 bound_to 7965
  139.8005  143.8090  152.3162 LP  0  0  0  0  0  0  0  0  0  0  0  0  # atno 17342 bound_to 10162
  139.8105  144.7338  150.9704 LP  0  0  0  0  0  0  0  0  0  0  0  0  # atno 17343 bound_to 10162
  156.7355  130.4723  149.5489 LP  0  0  0  0  0  0  0  0  0  0  0  0  # atno 17370 bound_to 10713
  156.1574  130.6351  151.0674 LP  0  0  0  0  0  0  0  0  0  0  0  0  # atno 17371 bound_to 10713
  141.2079  133.6668  156.6334 LP  0  0  0  0  0  0  0  0  0  0  0  0  # atno 17394 bound_to 11000
  140.3348  134.7899  157.4353 LP  0  0  0  0  0  0  0  0  0  0  0  0  # atno 17395 bound_to 11000

$$$$
