AV-unprocessed.smi:440|AV-procd|sdf|2581|dock3
  -GOLD-   2262022563D 1   1.00000     0.00000
 Structure written by MMmdl.
 41 42  0  0  0  0  0  0  0  0  1 V2000
  152.3932  138.5750  154.8758 C   0  0  0  0  0  0  0  0  0  0  0  0
  151.3497  139.5156  155.4076 C   0  0  0  0  0  0  0  0  0  0  0  0
  150.6816  140.2844  154.5654 N   0  0  0  0  0  0  0  0  0  0  0  0
  149.8381  140.9979  155.3398 N   0  0  0  0  0  0  0  0  0  0  0  0
  148.9467  141.9626  154.7129 C   0  0  0  0  0  0  0  0  0  0  0  0
  147.5061  141.4362  154.5334 C   0  0  0  0  0  0  0  0  0  0  0  0
  147.4738  140.2821  153.5208 C   0  0  0  0  0  0  0  0  0  0  0  0
  146.5071  142.5382  154.1389 C   0  0  0  0  0  0  0  0  0  0  0  0
  149.9683  140.6679  156.6768 C   0  0  0  0  0  0  0  0  0  0  0  0
  149.1412  141.3039  157.7481 C   0  0  0  0  0  0  0  0  0  0  0  0
  150.9436  139.7100  156.7604 C   0  0  0  0  0  0  0  0  0  0  0  0
  151.4732  139.0105  157.9868 C   0  0  0  0  0  0  0  0  0  0  0  0
  152.6308  139.8143  158.5794 C   0  0  0  0  0  0  0  0  0  0  0  0
  153.7908  139.5389  158.2734 O   0  0  0  0  0  0  0  0  0  0  0  0
  152.2976  140.8049  159.4202 N   0  0  0  0  0  0  0  0  0  0  0  0
  153.2105  141.6944  160.0605 C   0  0  0  0  0  0  0  0  0  0  0  0
  152.6580  142.6361  161.1084 C   0  0  0  0  0  0  0  0  0  0  0  0
  153.0679  143.1717  159.7641 C   0  0  0  0  0  0  0  0  0  0  0  0
  153.3389  138.7032  155.4029 H   0  0  0  0  0  0  0  0  0  0  0  0
  152.5834  138.7395  153.8144 H   0  0  0  0  0  0  0  0  0  0  0  0
  152.0814  137.5379  154.9990 H   0  0  0  0  0  0  0  0  0  0  0  0
  148.9381  142.8731  155.3146 H   0  0  0  0  0  0  0  0  0  0  0  0
  149.3694  142.2432  153.7477 H   0  0  0  0  0  0  0  0  0  0  0  0
  147.1768  141.0311  155.4904 H   0  0  0  0  0  0  0  0  0  0  0  0
  147.7907  140.6142  152.5317 H   0  0  0  0  0  0  0  0  0  0  0  0
  146.4697  139.8678  153.4270 H   0  0  0  0  0  0  0  0  0  0  0  0
  148.1353  139.4714  153.8277 H   0  0  0  0  0  0  0  0  0  0  0  0
  146.8037  143.0254  153.2096 H   0  0  0  0  0  0  0  0  0  0  0  0
  146.4298  143.3061  154.9087 H   0  0  0  0  0  0  0  0  0  0  0  0
  145.5075  142.1274  153.9945 H   0  0  0  0  0  0  0  0  0  0  0  0
  149.2825  140.8023  158.7053 H   0  0  0  0  0  0  0  0  0  0  0  0
  148.0798  141.2536  157.5055 H   0  0  0  0  0  0  0  0  0  0  0  0
  149.4126  142.3511  157.8782 H   0  0  0  0  0  0  0  0  0  0  0  0
  150.6982  138.8886  158.7444 H   0  0  0  0  0  0  0  0  0  0  0  0
  151.8210  138.0040  157.7518 H   0  0  0  0  0  0  0  0  0  0  0  0
  151.3164  140.9528  159.6060 H   0  0  0  0  0  0  0  0  0  0  0  0
  154.2261  141.3368  160.2248 H   0  0  0  0  0  0  0  0  0  0  0  0
  151.5926  142.5872  161.3263 H   0  0  0  0  0  0  0  0  0  0  0  0
  153.2963  142.8705  161.9578 H   0  0  0  0  0  0  0  0  0  0  0  0
  153.9799  143.7633  159.7155 H   0  0  0  0  0  0  0  0  0  0  0  0
  152.2754  143.4811  159.0847 H   0  0  0  0  0  0  0  0  0  0  0  0
  1  2  1  0  0  0  0
  1 19  1  0  0  0  0
  1 20  1  0  0  0  0
  1 21  1  0  0  0  0
  2 11  1  0  0  0  0
  2  3  2  0  0  0  0
  3  4  1  0  0  0  0
  4  5  1  0  0  0  0
  4  9  1  0  0  0  0
  5  6  1  0  0  0  0
  5 22  1  0  0  0  0
  5 23  1  0  0  0  0
  6  7  1  0  0  0  0
  6  8  1  0  0  0  0
  6 24  1  0  0  0  0
  7 25  1  0  0  0  0
  7 26  1  0  0  0  0
  7 27  1  0  0  0  0
  8 28  1  0  0  0  0
  8 29  1  0  0  0  0
  8 30  1  0  0  0  0
  9 10  1  0  0  0  0
  9 11  2  0  0  0  0
 10 31  1  0  0  0  0
 10 32  1  0  0  0  0
 10 33  1  0  0  0  0
 11 12  1  0  0  0  0
 12 13  1  0  0  0  0
 12 34  1  0  0  0  0
 12 35  1  0  0  0  0
 13 14  2  0  0  0  0
 13 15  1  0  0  0  0
 15 16  1  0  0  0  0
 15 36  1  0  0  0  0
 16 18  1  0  0  0  0
 16 17  1  0  0  0  0
 16 37  1  0  0  0  0
 17 18  1  0  0  0  0
 17 38  1  0  0  0  0
 17 39  1  0  0  0  0
 18 40  1  0  0  0  0
 18 41  1  0  0  0  0
M  END
> <s_m_source_file>
AV-unprocessed.smi

> <i_m_source_file_index>
440

> <i_lp_mmshare_version>
43012

> <i_f3d_flags>
0

> <s_epik_input>
W0NIM11jMW5uKFtDSDJdW0NIXShbQ0gzXSlbQ0gzXSljKFtDSDNdKWMxW0NIMl1DKD1PKVtOSF1bQ0hdMltDSDJdW0NIMl0y

> <s_epik_cmdline>
J2VwaWtfcHl0aG9uJywgJy1waCcsICc3LjAnLCAnLXRuJywgJzgnLCAnLW1hJywgJzIwMCcsICctbWV0YWxfYmluZGluZycsICctaW1hZScsICc8aW5maWxlLm1hZT4nLCAnLW9tYWUnLCAnPG91dGZpbGUubWFlPic=

> <r_lp_tautomer_probability>
1

> <r_epik_Ionization_Penalty>
0.00313774

> <r_epik_Ionization_Penalty_Charging>
0

> <r_epik_Ionization_Penalty_Neutral>
0.00313774

> <r_epik_State_Penalty>
0.00220979

> <r_epik_Charging_Adjusted_Penalty>
0.00220979

> <i_epik_Tot_Q>
0

> <i_epik_Tot_abs_Q>
0

> <r_epik_Metal_State_Penalty>
-0

> <b_epik_Metal_Only>
0

> <s_lp_Force_Field>
OPLS_2005

> <r_lp_Energy>
13.2521

> <b_lp_Chiralities_Consistent>
1

> <s_lp_Variant>
AV-unprocessed.smi:440-1

> <Gold.Version>
5.8.1

> <Gold.Id.Protein>
6NUR|6NUR_protein|mol2

> <Gold.PLP.Fitness>
43.2839

> <Gold.PLP.PLP>
-39.3655

> <Gold.PLP.part.hbond>
-2.0000

> <Gold.PLP.part.metal>
0.0000

> <Gold.PLP.part.buried>
-1.8495

> <Gold.PLP.part.nonpolar>
-35.8897

> <Gold.PLP.part.repulsive>
0.2363

> <Gold.PLP.ligand.clash>
0.0000

> <Gold.PLP.ligand.torsion>
1.0730

> <Gold.PLP.Chemscore.Hbond>
2.0000

> <Gold.PLP.Chemscore.CHOScore>
0.0000

> <Gold.PLP.Chemscore.Metal>
0.0000

> <Gold.Chemscore.Hbonds>
donor molecule, donor type, donor heavy atom, donor atom, acceptor molecule, acceptor atom, score
      P1  H  7989  7998       L1     3  1.00
      P1  H  7997  8008       L1    14  1.00

> <Gold.PLP.Chemscore.Internal.Correction>
0.0644

> <Gold.Rescore>
     Score         DG    S(hbond)    S(metal)    S(lipo)     H(rot)  DE(clash)    DE(int)     intcor
     17.83     -18.81       1.89        0.00      93.63       1.53       0.00       0.97       ----

> <Gold.Chemscore.Fitness>
17.8327

> <Gold.Chemscore.DG>
-18.8060

> <Gold.Chemscore.ZeroCoef>
-5.4800

> <Gold.Chemscore.Hbond>
1.8858

> <Gold.Chemscore.Metal>
0.0000

> <Gold.Chemscore.Lipo>
93.6338

> <Gold.Chemscore.Internal_Hbond>
0.0000

> <Gold.Chemscore.DEClash>
0.0004

> <Gold.Chemscore.DEInternal>
0.9729

> <Gold.Chemscore.Rot>
1.5342

> <Gold.Chemscore.Internal.Correction>
   9.000000E+99

> <Gold.Chemscore.Hbonds>
donor molecule, donor type, donor heavy atom, donor atom, acceptor molecule, acceptor atom, score
      P1  H  7989  7998       L1     3  0.74
      P1  H  7997  8008       L1    14  0.94

> <Gold.Chemscore.Hbond.Weighted>
-6.2984

> <Gold.Chemscore.Metal.Weighted>
-0.0000

> <Gold.Chemscore.Lipo.Weighted>
-10.9552

> <Gold.Chemscore.Internal_Hbond.Weighted>
0.0000

> <Gold.Chemscore.DEClash.Weighted>
0.0004

> <Gold.Chemscore.DEInternal.Weighted>
0.9729

> <Gold.Chemscore.Rot.Weighted>
3.9276

> <Gold.Chemscore.Internal.Correction.Weighted>
   9.000000E+99

> <Gold.Protein.RotatedTorsions>
[ 6907 6896 6895 6894 ] final    2.35 input  -60.11 | X-H torsion
[ 7974 7965 7964 7962 ] final -179.32 input  175.53 | X-H torsion
[ 8008 7997 7996 7995 ] final  -98.52 input   59.86 | X-H torsion
[ 10167 10162 10161 10158 ] final -163.67 input  -65.29 | X-H torsion
[ 10718 10713 10712 10709 ] final  -55.66 input   66.30 | X-H torsion
[ 10763 10752 10751 10750 ] final  -66.27 input  -60.55 | X-H torsion
[ 11005 11000 10999 10996 ] final   64.18 input  -57.11 | X-H torsion

> <Gold.Protein.ActiveResidues>
 VAL166  LYS551  ARG553  GLY616  TRP617  ASP618  TYR619  PRO620  LYS621  CYS622 
 ASP623  PHE694  ASN695  SER759  ASP760  ASP761  ALA762  ILE779  LEU786  VAL792 
 PHE793  MET794  SER795  GLU796  ALA797  LYS798  CYS799  TRP800  GLU811  SER814 

> <Gold.Protein.RotatedAtoms>
  151.6075  135.1043  160.0073 H   0  0  0  0  0  0  0  0  0  0  0  0  # atno 6907 bound_to 6896
  152.4226  133.7137  159.6504 H   0  0  0  0  0  0  0  0  0  0  0  0  # atno 6908 bound_to 6896
  150.8114  133.8343  159.3202 H   0  0  0  0  0  0  0  0  0  0  0  0  # atno 6909 bound_to 6896
  144.7136  140.0735  143.6428 H   0  0  0  0  0  0  0  0  0  0  0  0  # atno 7974 bound_to 7965
  154.8023  140.0454  157.1282 H   0  0  0  0  0  0  0  0  0  0  0  0  # atno 8008 bound_to 7997
  154.9464  140.3059  155.5076 H   0  0  0  0  0  0  0  0  0  0  0  0  # atno 8009 bound_to 7997
  156.2963  140.2296  156.4538 H   0  0  0  0  0  0  0  0  0  0  0  0  # atno 8010 bound_to 7997
  139.6305  144.0450  152.2011 H   0  0  0  0  0  0  0  0  0  0  0  0  # atno 10167 bound_to 10162
  156.1351  130.4157  150.0201 H   0  0  0  0  0  0  0  0  0  0  0  0  # atno 10718 bound_to 10713
  154.3573  135.6123  153.5673 H   0  0  0  0  0  0  0  0  0  0  0  0  # atno 10763 bound_to 10752
  152.9795  135.5806  154.4674 H   0  0  0  0  0  0  0  0  0  0  0  0  # atno 10764 bound_to 10752
  154.4405  135.2850  155.1828 H   0  0  0  0  0  0  0  0  0  0  0  0  # atno 10765 bound_to 10752
  139.9976  134.6493  155.9984 H   0  0  0  0  0  0  0  0  0  0  0  0  # atno 11005 bound_to 11000
  145.9763  139.2907  143.1068 LP  0  0  0  0  0  0  0  0  0  0  0  0  # atno 17320 bound_to 7965
  145.9060  140.9211  143.0478 LP  0  0  0  0  0  0  0  0  0  0  0  0  # atno 17321 bound_to 7965
  140.0114  144.6221  150.7644 LP  0  0  0  0  0  0  0  0  0  0  0  0  # atno 17342 bound_to 10162
  140.7436  143.2848  151.3494 LP  0  0  0  0  0  0  0  0  0  0  0  0  # atno 17343 bound_to 10162
  156.8102  130.9322  151.3644 LP  0  0  0  0  0  0  0  0  0  0  0  0  # atno 17370 bound_to 10713
  157.6524  130.8896  149.9660 LP  0  0  0  0  0  0  0  0  0  0  0  0  # atno 17371 bound_to 10713
  141.1616  133.6538  156.4339 LP  0  0  0  0  0  0  0  0  0  0  0  0  # atno 17394 bound_to 11000
  140.4789  134.6683  157.5162 LP  0  0  0  0  0  0  0  0  0  0  0  0  # atno 17395 bound_to 11000

$$$$
