AV-unprocessed.smi:878|AV-procd|sdf|4031|dock6
  -GOLD-   22720 1523D 1   1.00000     0.00000
 Structure written by MMmdl.
 33 34  0  0  0  0  0  0  0  0  1 V2000
  149.1744  144.6799  160.3405 C   0  0  0  0  0  0  0  0  0  0  0  0
  150.7621  144.6243  159.4662 S   0  0  0  0  0  0  0  0  0  0  0  0
  151.8789  143.6295  160.4128 C   0  0  0  0  0  0  0  0  0  0  0  0
  152.1764  143.9300  161.7586 C   0  0  0  0  0  0  0  0  0  0  0  0
  153.0707  143.1182  162.4839 C   0  0  0  0  0  0  0  0  0  0  0  0
  153.6782  141.9928  161.8729 C   0  0  0  0  0  0  0  0  0  0  0  0
  154.5568  141.1436  162.5095 O   0  0  0  0  0  0  0  0  0  0  0  0
  154.5991  139.7832  162.1009 C   0  0  0  0  0  0  0  0  0  0  0  0
  155.3547  138.9477  163.1475 C   0  0  0  0  0  0  0  0  0  0  0  0
  155.2410  137.5255  162.9286 N   0  0  0  0  0  0  0  0  0  0  0  0
  154.9000  136.6492  163.9472 C   0  0  0  0  0  0  0  0  0  0  0  0
  154.8019  135.3090  163.7735 C   0  0  0  0  0  0  0  0  0  0  0  0
  154.3719  134.2823  165.0942 Cl  0  0  0  0  0  0  0  0  0  0  0  0
  155.0634  134.7204  162.4607 C   0  0  0  0  0  0  0  0  0  0  0  0
  154.9994  133.5224  162.1917 O   0  0  0  0  0  0  0  0  0  0  0  0
  155.4121  135.6393  161.4664 N   0  0  0  0  0  0  0  0  0  0  0  0
  155.5187  137.0200  161.6368 C   0  0  0  0  0  0  0  0  0  0  0  0
  155.8429  137.7295  160.6845 O   0  0  0  0  0  0  0  0  0  0  0  0
  153.3740  141.7042  160.5272 C   0  0  0  0  0  0  0  0  0  0  0  0
  152.4837  142.5162  159.7994 C   0  0  0  0  0  0  0  0  0  0  0  0
  155.6056  135.2722  160.5459 H   0  0  0  0  0  0  0  0  0  0  0  0
  148.4426  145.2291  159.7484 H   0  0  0  0  0  0  0  0  0  0  0  0
  149.2810  145.1815  161.3022 H   0  0  0  0  0  0  0  0  0  0  0  0
  148.7947  143.6716  160.5067 H   0  0  0  0  0  0  0  0  0  0  0  0
  151.7308  144.7794  162.2521 H   0  0  0  0  0  0  0  0  0  0  0  0
  153.2720  143.3798  163.5115 H   0  0  0  0  0  0  0  0  0  0  0  0
  153.5897  139.3902  161.9670 H   0  0  0  0  0  0  0  0  0  0  0  0
  155.1190  139.7047  161.1451 H   0  0  0  0  0  0  0  0  0  0  0  0
  156.4231  139.1640  163.1006 H   0  0  0  0  0  0  0  0  0  0  0  0
  155.0494  139.1736  164.1712 H   0  0  0  0  0  0  0  0  0  0  0  0
  154.7040  137.0518  164.9310 H   0  0  0  0  0  0  0  0  0  0  0  0
  153.8300  140.8507  160.0474 H   0  0  0  0  0  0  0  0  0  0  0  0
  152.2642  142.2794  158.7687 H   0  0  0  0  0  0  0  0  0  0  0  0
  1  2  1  0  0  0  0
  1 22  1  0  0  0  0
  1 23  1  0  0  0  0
  1 24  1  0  0  0  0
  2  3  1  0  0  0  0
  3 20  1  0  0  0  0
  3  4  2  0  0  0  0
  4  5  1  0  0  0  0
  4 25  1  0  0  0  0
  5  6  2  0  0  0  0
  5 26  1  0  0  0  0
  6  7  1  0  0  0  0
  6 19  1  0  0  0  0
  7  8  1  0  0  0  0
  8  9  1  0  0  0  0
  8 27  1  0  0  0  0
  8 28  1  0  0  0  0
  9 10  1  0  0  0  0
  9 29  1  0  0  0  0
  9 30  1  0  0  0  0
 10 17  1  0  0  0  0
 10 11  1  0  0  0  0
 11 12  2  0  0  0  0
 11 31  1  0  0  0  0
 12 13  1  0  0  0  0
 12 14  1  0  0  0  0
 14 15  2  0  0  0  0
 14 16  1  0  0  0  0
 16 21  1  0  0  0  0
 16 17  1  0  0  0  0
 17 18  2  0  0  0  0
 19 20  2  0  0  0  0
 19 32  1  0  0  0  0
 20 33  1  0  0  0  0
M  END
> <s_m_source_file>
AV-unprocessed.smi

> <i_m_source_file_index>
878

> <i_lp_mmshare_version>
43012

> <i_f3d_flags>
0

> <s_epik_input>
W0NIM11TYzFbY0hdW2NIXWMoW2NIXVtjSF0xKU9bQ0gyXVtDSDJdbjJbY0hdYyhDbCljKD1PKVtuSF1jMj1P

> <s_epik_cmdline>
J2VwaWtfcHl0aG9uJywgJy1waCcsICc3LjAnLCAnLXRuJywgJzgnLCAnLW1hJywgJzIwMCcsICctbWV0YWxfYmluZGluZycsICctaW1hZScsICc8aW5maWxlLm1hZT4nLCAnLW9tYWUnLCAnPG91dGZpbGUubWFlPic=

> <r_lp_tautomer_probability>
0.999537

> <r_epik_Ionization_Penalty>
0.037527

> <r_epik_Ionization_Penalty_Charging>
0.037527

> <r_epik_Ionization_Penalty_Neutral>
0

> <r_epik_State_Penalty>
0.0314158

> <r_epik_Charging_Adjusted_Penalty>
0.0689428

> <i_epik_Tot_Q>
0

> <i_epik_Tot_abs_Q>
0

> <r_epik_Metal_State_Penalty>
2.37917

> <b_epik_Metal_Only>
0

> <s_lp_Force_Field>
OPLS_2005

> <r_lp_Energy>
14.7844

> <b_lp_Chiralities_Consistent>
1

> <s_lp_Variant>
AV-unprocessed.smi:878-1

> <Gold.Version>
5.8.1

> <Gold.Id.Protein>
6NUR|6NUR_protein|mol2

> <Gold.PLP.Fitness>
44.0129

> <Gold.PLP.PLP>
-45.1278

> <Gold.PLP.part.hbond>
-1.0000

> <Gold.PLP.part.metal>
0.0000

> <Gold.PLP.part.buried>
-5.0447

> <Gold.PLP.part.nonpolar>
-39.1356

> <Gold.PLP.part.repulsive>
0.0398

> <Gold.PLP.ligand.clash>
0.0000

> <Gold.PLP.ligand.torsion>
0.5687

> <Gold.PLP.Chemscore.Hbond>
0.0000

> <Gold.PLP.Chemscore.CHOScore>
0.0000

> <Gold.PLP.Chemscore.Metal>
0.0000

> <Gold.PLP.Chemscore.Internal.Correction>
0.0226

> <Gold.Rescore>
     Score         DG    S(hbond)    S(metal)    S(lipo)     H(rot)  DE(clash)    DE(int)     intcor
     13.27     -15.07       0.00        0.00     125.18       1.98       0.01       1.79       ----

> <Gold.Chemscore.Fitness>
13.2662

> <Gold.Chemscore.DG>
-15.0686

> <Gold.Chemscore.ZeroCoef>
-5.4800

> <Gold.Chemscore.Hbond>
0.0000

> <Gold.Chemscore.Metal>
0.0000

> <Gold.Chemscore.Lipo>
125.1799

> <Gold.Chemscore.Internal_Hbond>
0.0000

> <Gold.Chemscore.DEClash>
0.0147

> <Gold.Chemscore.DEInternal>
1.7878

> <Gold.Chemscore.Rot>
1.9755

> <Gold.Chemscore.Internal.Correction>
   9.000000E+99

> <Gold.Chemscore.Hbond.Weighted>
-0.0000

> <Gold.Chemscore.Metal.Weighted>
-0.0000

> <Gold.Chemscore.Lipo.Weighted>
-14.6461

> <Gold.Chemscore.Internal_Hbond.Weighted>
0.0000

> <Gold.Chemscore.DEClash.Weighted>
0.0147

> <Gold.Chemscore.DEInternal.Weighted>
1.7878

> <Gold.Chemscore.Rot.Weighted>
5.0574

> <Gold.Chemscore.Internal.Correction.Weighted>
   9.000000E+99

> <Gold.Protein.RotatedTorsions>
[ 6907 6896 6895 6894 ] final  -42.09 input  -60.11 | X-H torsion
[ 7974 7965 7964 7962 ] final -104.71 input  175.53 | X-H torsion
[ 8008 7997 7996 7995 ] final   85.05 input   59.86 | X-H torsion
[ 10167 10162 10161 10158 ] final  -91.52 input  -65.29 | X-H torsion
[ 10718 10713 10712 10709 ] final  -70.63 input   66.30 | X-H torsion
[ 10763 10752 10751 10750 ] final   46.99 input  -60.55 | X-H torsion
[ 11005 11000 10999 10996 ] final   52.34 input  -57.11 | X-H torsion

> <Gold.Protein.ActiveResidues>
 VAL166  LYS551  ARG553  GLY616  TRP617  ASP618  TYR619  PRO620  LYS621  CYS622 
 ASP623  PHE694  ASN695  SER759  ASP760  ASP761  ALA762  ILE779  LEU786  VAL792 
 PHE793  MET794  SER795  GLU796  ALA797  LYS798  CYS799  TRP800  GLU811  SER814 

> <Gold.Protein.RotatedAtoms>
  150.9592  134.8982  159.7719 H   0  0  0  0  0  0  0  0  0  0  0  0  # atno 6907 bound_to 6896
  152.5150  134.3696  159.9323 H   0  0  0  0  0  0  0  0  0  0  0  0  # atno 6908 bound_to 6896
  151.3709  133.3815  159.2734 H   0  0  0  0  0  0  0  0  0  0  0  0  # atno 6909 bound_to 6896
  145.2397  140.9201  143.3157 H   0  0  0  0  0  0  0  0  0  0  0  0  # atno 7974 bound_to 7965
  155.9451  140.3405  155.6360 H   0  0  0  0  0  0  0  0  0  0  0  0  # atno 8008 bound_to 7997
  155.6991  140.0758  157.2436 H   0  0  0  0  0  0  0  0  0  0  0  0  # atno 8009 bound_to 7997
  154.4110  140.1643  156.2158 H   0  0  0  0  0  0  0  0  0  0  0  0  # atno 8010 bound_to 7997
  140.3441  143.2926  151.9802 H   0  0  0  0  0  0  0  0  0  0  0  0  # atno 10167 bound_to 10162
  156.0399  130.4335  150.2324 H   0  0  0  0  0  0  0  0  0  0  0  0  # atno 10718 bound_to 10713
  152.9804  135.5990  154.3689 H   0  0  0  0  0  0  0  0  0  0  0  0  # atno 10763 bound_to 10752
  154.3364  135.2768  155.2447 H   0  0  0  0  0  0  0  0  0  0  0  0  # atno 10764 bound_to 10752
  154.4548  135.5981  153.6271 H   0  0  0  0  0  0  0  0  0  0  0  0  # atno 10765 bound_to 10752
  140.0857  134.5277  155.8901 H   0  0  0  0  0  0  0  0  0  0  0  0  # atno 11005 bound_to 11000
  144.9600  139.3990  143.6360 LP  0  0  0  0  0  0  0  0  0  0  0  0  # atno 17320 bound_to 7965
  146.3331  139.8649  142.8850 LP  0  0  0  0  0  0  0  0  0  0  0  0  # atno 17321 bound_to 7965
  139.4836  144.6132  151.7395 LP  0  0  0  0  0  0  0  0  0  0  0  0  # atno 17342 bound_to 10162
  140.5281  144.0773  150.6044 LP  0  0  0  0  0  0  0  0  0  0  0  0  # atno 17343 bound_to 10162
  157.0420  131.0038  151.3280 LP  0  0  0  0  0  0  0  0  0  0  0  0  # atno 17370 bound_to 10713
  157.5203  130.7994  149.7801 LP  0  0  0  0  0  0  0  0  0  0  0  0  # atno 17371 bound_to 10713
  141.2062  133.6653  156.6225 LP  0  0  0  0  0  0  0  0  0  0  0  0  # atno 17394 bound_to 11000
  140.3424  134.7838  157.4407 LP  0  0  0  0  0  0  0  0  0  0  0  0  # atno 17395 bound_to 11000

$$$$
