#       Name:                AV-unprocessed.smi:1207
#       Creating user name   scv26
#       Creation time:       Fri Mar 27 04:08:53 2020


#       File generated by GOLD software.
#

@<TRIPOS>MOLECULE
AV-unprocessed.smi:1207
    58    60     1
SMALL
NO_CHARGES


@<TRIPOS>ATOM
      1 ****        -5.3560   0.5848  -2.8976 C.3            1 S1                 0.0000
      2 ****        -4.3471   1.0040  -1.8420 C.ar           1 S1                 0.0000
      3 ****        -4.8258   1.4239  -0.5802 C.ar           1 S1                 0.0000
      4 ****        -3.8782   1.7953   0.3663 C.ar           1 S1                 0.0000
      5 ****        -4.0229   2.2440   1.6812 N.pl3          1 S1                 1.0000
      6 ****        -2.7937   2.4805   2.2185 C.2            1 S1                 0.0000
      7 ****        -1.8676   2.1900   1.2652 N.pl3          1 S1                 0.0000
      8 ****        -0.4016   2.2596   1.3192 C.3            1 S1                 0.0000
      9 ****         0.2548   0.8805   1.5249 C.3            1 S1                 0.0000
     10 ****        -0.2154   0.3208   2.7352 O.3            1 S1                 0.0000
     11 ****         1.7914   0.9880   1.6037 C.3            1 S1                 0.0000
     12 ****         2.5152  -0.2774   1.4623 N.3            1 S1                 0.0000
     13 ****         3.8856  -0.1242   1.9436 C.3            1 S1                 0.0000
     14 ****         2.5022  -0.7695   0.0803 C.3            1 S1                 0.0000
     15 ****         3.0368  -2.1725  -0.0514 C.2            1 S1                 0.0000
     16 ****         4.2088  -2.6017  -0.7372 C.2            1 S1                 0.0000
     17 ****         5.2031  -1.7685  -1.4937 C.3            1 S1                 0.0000
     18 ****         4.3791  -3.9106  -0.6539 N.2            1 S1                 0.0000
     19 ****         3.3038  -4.3889   0.1012 O.3            1 S1                 0.0000
     20 ****         2.5197  -3.3364   0.4477 C.2            1 S1                 0.0000
     21 ****         1.3077  -3.6461   1.2597 C.3            1 S1                 0.0000
     22 ****        -2.4974   1.7617   0.0925 C.ar           1 S1                 0.0000
     23 ****        -2.0083   1.3553  -1.1462 C.ar           1 S1                 0.0000
     24 ****        -2.9560   0.9707  -2.1214 C.ar           1 S1                 0.0000
     25 ****        -2.4522   0.5167  -3.4808 C.3            1 S1                 0.0000
     26 ****        -6.3787   0.6739  -2.5298 H              1 S1                 0.0000
     27 ****        -5.1961  -0.4538  -3.1882 H              1 S1                 0.0000
     28 ****        -5.2655   1.2115  -3.7853 H              1 S1                 0.0000
     29 ****        -5.8831   1.4515  -0.3604 H              1 S1                 0.0000
     30 ****        -2.5898   2.8292   3.2208 H              1 S1                 0.0000
     31 ****        -0.0474   2.7283   0.4000 H              1 S1                 0.0000
     32 ****        -0.1343   2.9334   2.1347 H              1 S1                 0.0000
     33 ****        -0.0539   0.2247   0.7134 H              1 S1                 0.0000
     34 ****         0.2145  -0.5114   2.8637 H              1 S1                 0.0000
     35 ****         2.1460   1.6813   0.8393 H              1 S1                 0.0000
     36 ****         2.0447   1.4545   2.5574 H              1 S1                 0.0000
     37 ****         4.4249  -1.0712   1.9150 H              1 S1                 0.0000
     38 ****         3.8968   0.2187   2.9787 H              1 S1                 0.0000
     39 ****         4.4365   0.5992   1.3411 H              1 S1                 0.0000
     40 ****         1.4886  -0.7519  -0.3145 H              1 S1                 0.0000
     41 ****         3.0623  -0.0804  -0.5534 H              1 S1                 0.0000
     42 ****         4.7540  -1.3521  -2.3953 H              1 S1                 0.0000
     43 ****         6.0740  -2.3510  -1.7964 H              1 S1                 0.0000
     44 ****         5.5578  -0.9371  -0.8844 H              1 S1                 0.0000
     45 ****         0.9653  -2.7661   1.8043 H              1 S1                 0.0000
     46 ****         1.5177  -4.4304   1.9871 H              1 S1                 0.0000
     47 ****         0.4932  -3.9863   0.6205 H              1 S1                 0.0000
     48 ****        -0.9493   1.3292  -1.3566 H              1 S1                 0.0000
     49 ****        -1.3637   0.5498  -3.5345 H              1 S1                 0.0000
     50 ****        -2.8439   1.1599  -4.2691 H              1 S1                 0.0000
     51 ****        -2.7641  -0.5085  -3.6821 H              1 S1                 0.0000
     52 ****        -4.8939   2.3768   2.1790 H              1 S1                 0.0000
     53 ****        -1.2049   0.1859   2.6835 LP             1 S1                 0.0000
     54 ****        -0.0017   0.9330   3.4964 LP             1 S1                 0.0000
     55 ****         2.0450  -0.9617   2.0196 LP             1 S1                 0.0000
     56 ****         5.1239  -4.4479  -1.0497 LP             1 S1                 0.0000
     57 ****         3.6449  -4.8413   0.9252 LP             1 S1                 0.0000
     58 ****         2.7737  -5.0404  -0.4416 LP             1 S1                 0.0000
@<TRIPOS>BOND
    1    1    2 1     
    2    1   26 1     
    3    1   27 1     
    4    1   28 1     
    5    2   24 ar    
    6    2    3 ar    
    7    3    4 ar    
    8    3   29 1     
    9    4   22 ar    
   10    4    5 1     
   11    5    6 2     
   12    5   52 1     
   13    6    7 1     
   14    6   30 1     
   15    7    8 1     
   16    7   22 1     
   17    8    9 1     
   18    8   31 1     
   19    8   32 1     
   20    9   10 1     
   21    9   11 1     
   22    9   33 1     
   23   10   34 1     
   24   11   12 1     
   25   11   35 1     
   26   11   36 1     
   27   12   13 1     
   28   12   14 1     
   29   13   37 1     
   30   13   38 1     
   31   13   39 1     
   32   14   15 1     
   33   14   40 1     
   34   14   41 1     
   35   15   20 2     
   36   15   16 1     
   37   16   17 1     
   38   16   18 2     
   39   17   42 1     
   40   17   43 1     
   41   17   44 1     
   42   18   19 1     
   43   19   20 1     
   44   20   21 1     
   45   21   45 1     
   46   21   46 1     
   47   21   47 1     
   48   22   23 ar    
   49   23   24 ar    
   50   23   48 1     
   51   24   25 1     
   52   25   49 1     
   53   25   50 1     
   54   25   51 1     
   55   10   53 1     
   56   10   54 1     
   57   12   55 1     
   58   18   56 1     
   59   19   57 1     
   60   19   58 1     
@<TRIPOS>SUBSTRUCTURE
      1 S1             1
@<TRIPOS>SET
LONE_PAIRS      STATIC     ATOMS    <user>   **** ""
6 53 54 55 56 57 58
DONOR_HYDROGENS      STATIC     ATOMS    <user>   **** ""
2 52 34
ATOM$BLUE        STATIC     ATOMS    COLORGROUP SYSTEM
6 53 54 55 56 57 58
ATOM$RED        STATIC     ATOMS    COLORGROUP SYSTEM
2 52 34
