AV-unprocessed.smi:2202|AV-procd|sdf|8933|dock2
  -GOLD-   2272012143D 1   1.00000     0.00000
 Structure written by MMmdl.
 43 45  0  0  0  0  0  0  0  0  2 V2000
  153.4433  139.1680  156.0487 O   0  0  0  0  0  0  0  0  0  0  0  0
  152.5388  138.7736  156.7869 C   0  0  0  0  0  0  0  0  0  0  0  0
  152.6408  138.9181  158.3120 C   0  0  0  0  0  0  0  0  0  0  0  0
  152.4861  140.3027  158.7759 N   0  0  0  0  0  0  0  0  0  0  0  0
  151.7116  141.2251  158.1710 C   0  0  0  0  0  0  0  0  0  0  0  0
  151.1124  141.1085  157.1027 O   0  0  0  0  0  0  0  0  0  0  0  0
  151.6063  142.4482  159.0693 C   0  0  2  0  0  0  0  0  0  0  0  0
  151.5391  143.8784  158.5202 C   0  0  0  0  0  0  0  0  0  0  0  0
  151.7014  144.8463  159.6968 C   0  0  0  0  0  0  0  0  0  0  0  0
  152.1677  144.4782  160.9156 C   0  0  0  0  0  0  0  0  0  0  0  0
  152.6295  143.0573  161.2561 C   0  0  0  0  0  0  0  0  0  0  0  0
  152.8377  142.2982  159.9401 C   0  0  1  0  0  0  0  0  0  0  0  0
  153.0712  140.7964  159.8850 C   0  0  0  0  0  0  0  0  0  0  0  0
  153.7421  140.1767  160.7100 O   0  0  0  0  0  0  0  0  0  0  0  0
  151.4205  138.1932  156.3266 N   0  0  0  0  0  0  0  0  0  0  0  0
  151.1195  137.9658  154.9184 C   0  0  0  0  0  0  0  0  0  0  0  0
  149.6280  137.6577  154.7015 C   0  0  0  0  0  0  0  0  0  0  0  0
  148.8699  138.8505  154.1533 C   0  0  0  0  0  0  0  0  0  0  0  0
  148.8542  140.1000  154.8103 C   0  0  0  0  0  0  0  0  0  0  0  0
  148.1215  141.1652  154.2458 C   0  0  0  0  0  0  0  0  0  0  0  0
  147.4216  140.9587  153.0387 C   0  0  0  0  0  0  0  0  0  0  0  0
  147.4718  139.6902  152.4254 C   0  0  0  0  0  0  0  0  0  0  0  0
  148.1836  138.6946  152.9978 N   0  3  0  0  0  0  0  0  0  0  0  0
  151.8825  138.2895  158.7825 H   0  0  0  0  0  0  0  0  0  0  0  0
  153.6024  138.5156  158.6345 H   0  0  0  0  0  0  0  0  0  0  0  0
  150.7113  142.2841  159.6746 H   0  0  0  0  0  0  0  0  0  0  0  0
  152.3185  144.0647  157.7803 H   0  0  0  0  0  0  0  0  0  0  0  0
  150.5769  144.0524  158.0379 H   0  0  0  0  0  0  0  0  0  0  0  0
  151.4171  145.8734  159.5211 H   0  0  0  0  0  0  0  0  0  0  0  0
  152.2312  145.2105  161.7071 H   0  0  0  0  0  0  0  0  0  0  0  0
  153.5640  143.1042  161.8161 H   0  0  0  0  0  0  0  0  0  0  0  0
  151.8875  142.5711  161.8905 H   0  0  0  0  0  0  0  0  0  0  0  0
  153.6974  142.7436  159.4337 H   0  0  0  0  0  0  0  0  0  0  0  0
  150.7296  137.8917  156.9991 H   0  0  0  0  0  0  0  0  0  0  0  0
  151.4226  138.8346  154.3312 H   0  0  0  0  0  0  0  0  0  0  0  0
  151.7264  137.1293  154.5704 H   0  0  0  0  0  0  0  0  0  0  0  0
  149.5165  136.8158  154.0167 H   0  0  0  0  0  0  0  0  0  0  0  0
  149.1618  137.3529  155.6397 H   0  0  0  0  0  0  0  0  0  0  0  0
  149.3944  140.2426  155.7350 H   0  0  0  0  0  0  0  0  0  0  0  0
  148.0959  142.1288  154.7335 H   0  0  0  0  0  0  0  0  0  0  0  0
  146.8543  141.7614  152.5905 H   0  0  0  0  0  0  0  0  0  0  0  0
  146.9669  139.4431  151.5029 H   0  0  0  0  0  0  0  0  0  0  0  0
  148.2051  137.7838  152.5377 H   0  0  0  0  0  0  0  0  0  0  0  0
  1  2  2  0  0  0  0
  2  3  1  0  0  0  0
  2 15  1  0  0  0  0
  3  4  1  0  0  0  0
  3 24  1  0  0  0  0
  3 25  1  0  0  0  0
  4 13  1  0  0  0  0
  4  5  1  0  0  0  0
  5  6  2  0  0  0  0
  5  7  1  0  0  0  0
  7 12  1  0  0  0  0
  7  8  1  0  0  0  0
  7 26  1  0  0  0  0
  8  9  1  0  0  0  0
  8 27  1  0  0  0  0
  8 28  1  0  0  0  0
  9 10  2  0  0  0  0
  9 29  1  0  0  0  0
 10 11  1  0  0  0  0
 10 30  1  0  0  0  0
 11 12  1  0  0  0  0
 11 31  1  0  0  0  0
 11 32  1  0  0  0  0
 12 13  1  0  0  0  0
 12 33  1  0  0  0  0
 13 14  2  0  0  0  0
 15 16  1  0  0  0  0
 15 34  1  0  0  0  0
 16 17  1  0  0  0  0
 16 35  1  0  0  0  0
 16 36  1  0  0  0  0
 17 18  1  0  0  0  0
 17 37  1  0  0  0  0
 17 38  1  0  0  0  0
 18 23  1  0  0  0  0
 18 19  2  0  0  0  0
 19 20  1  0  0  0  0
 19 39  1  0  0  0  0
 20 21  2  0  0  0  0
 20 40  1  0  0  0  0
 21 22  1  0  0  0  0
 21 41  1  0  0  0  0
 22 23  2  0  0  0  0
 22 42  1  0  0  0  0
 23 43  1  0  0  0  0
M  CHG  1  23   1
M  END
> <s_m_source_file>
AV-unprocessed.smi

> <i_m_source_file_index>
2202

> <i_lp_mmshare_version>
43012

> <i_f3d_flags>
0

> <s_epik_input>
W0NIMl0xW0NIXT1bQ0hdW0NIMl1bQ0BIXShbQ0BIXTEyKUMoPU8pTihDMj1PKVtDSDJdQyg9TylbTkhdW0NIMl1bQ0gyXWMzW2NIXVtjSF1bY0hdW2NIXW4z

> <s_epik_cmdline>
J2VwaWtfcHl0aG9uJywgJy1waCcsICc3LjAnLCAnLXRuJywgJzgnLCAnLW1hJywgJzIwMCcsICctbWV0YWxfYmluZGluZycsICctaW1hZScsICc8aW5maWxlLm1hZT4nLCAnLW9tYWUnLCAnPG91dGZpbGUubWFlPic=

> <r_lp_tautomer_probability>
1

> <r_epik_Ionization_Penalty>
1.90039

> <r_epik_Ionization_Penalty_Charging>
1.90039

> <r_epik_Ionization_Penalty_Neutral>
1.50224e-07

> <r_epik_State_Penalty>
2.02162

> <r_epik_Charging_Adjusted_Penalty>
3.922

> <i_epik_Tot_Q>
1

> <i_epik_Tot_abs_Q>
1

> <r_epik_Metal_State_Penalty>
2.04542

> <b_epik_Metal_Only>
0

> <s_lp_Force_Field>
OPLS_2005

> <r_lp_Energy>
26.3593

> <b_lp_Chiralities_Consistent>
1

> <s_lp_Variant>
AV-unprocessed.smi:2202-5

> <Gold.Version>
5.8.1

> <Gold.Id.Protein>
6NUR|6NUR_protein|mol2

> <Gold.PLP.Fitness>
53.6656

> <Gold.PLP.PLP>
-46.8260

> <Gold.PLP.part.hbond>
-2.6290

> <Gold.PLP.part.metal>
0.0000

> <Gold.PLP.part.buried>
-5.2227

> <Gold.PLP.part.nonpolar>
-40.2802

> <Gold.PLP.part.repulsive>
0.1392

> <Gold.PLP.ligand.clash>
0.0000

> <Gold.PLP.ligand.torsion>
0.9282

> <Gold.PLP.Chemscore.Hbond>
2.8888

> <Gold.PLP.Chemscore.CHOScore>
0.0000

> <Gold.PLP.Chemscore.Metal>
0.0000

> <Gold.Chemscore.Hbonds>
donor molecule, donor type, donor heavy atom, donor atom, acceptor molecule, acceptor atom, score
      L1  H    23    43       P1  7948  2.00
      P1  H  7997  8008       L1     1  0.57

> <Gold.PLP.Chemscore.Internal.Correction>
0.0296

> <Gold.Rescore>
     Score         DG    S(hbond)    S(metal)    S(lipo)     H(rot)  DE(clash)    DE(int)     intcor
     17.81     -19.79       1.95        0.00     109.59       1.96       0.13       1.84       ----

> <Gold.Chemscore.Fitness>
17.8107

> <Gold.Chemscore.DG>
-19.7875

> <Gold.Chemscore.ZeroCoef>
-5.4800

> <Gold.Chemscore.Hbond>
1.9489

> <Gold.Chemscore.Metal>
0.0000

> <Gold.Chemscore.Lipo>
109.5914

> <Gold.Chemscore.Internal_Hbond>
0.0000

> <Gold.Chemscore.DEClash>
0.1323

> <Gold.Chemscore.DEInternal>
1.8445

> <Gold.Chemscore.Rot>
1.9625

> <Gold.Chemscore.Internal.Correction>
   9.000000E+99

> <Gold.Chemscore.Hbonds>
donor molecule, donor type, donor heavy atom, donor atom, acceptor molecule, acceptor atom, score
      L1  H    23    43       P1  7948  0.99
      P1  H  7997  8008       L1     1  0.55

> <Gold.Chemscore.Hbond.Weighted>
-6.5093

> <Gold.Chemscore.Metal.Weighted>
-0.0000

> <Gold.Chemscore.Lipo.Weighted>
-12.8222

> <Gold.Chemscore.Internal_Hbond.Weighted>
0.0000

> <Gold.Chemscore.DEClash.Weighted>
0.1323

> <Gold.Chemscore.DEInternal.Weighted>
1.8445

> <Gold.Chemscore.Rot.Weighted>
5.0240

> <Gold.Chemscore.Internal.Correction.Weighted>
   9.000000E+99

> <Gold.Protein.RotatedTorsions>
[ 6907 6896 6895 6894 ] final   16.13 input  -60.11 | X-H torsion
[ 7974 7965 7964 7962 ] final   56.25 input  175.53 | X-H torsion
[ 8008 7997 7996 7995 ] final  -55.21 input   59.86 | X-H torsion
[ 10167 10162 10161 10158 ] final   74.84 input  -65.29 | X-H torsion
[ 10718 10713 10712 10709 ] final  172.82 input   66.30 | X-H torsion
[ 10763 10752 10751 10750 ] final  -41.80 input  -60.55 | X-H torsion
[ 11005 11000 10999 10996 ] final  125.14 input  -57.11 | X-H torsion

> <Gold.Protein.ActiveResidues>
 VAL166  LYS551  ARG553  GLY616  TRP617  ASP618  TYR619  PRO620  LYS621  CYS622 
 ASP623  PHE694  ASN695  SER759  ASP760  ASP761  ALA762  ILE779  LEU786  VAL792 
 PHE793  MET794  SER795  GLU796  ALA797  LYS798  CYS799  TRP800  GLU811  SER814 

> <Gold.Protein.RotatedAtoms>
  151.8290  135.0627  160.0434 H   0  0  0  0  0  0  0  0  0  0  0  0  # atno 6907 bound_to 6896
  152.2894  133.5542  159.5556 H   0  0  0  0  0  0  0  0  0  0  0  0  # atno 6908 bound_to 6896
  150.7223  134.0366  159.3793 H   0  0  0  0  0  0  0  0  0  0  0  0  # atno 6909 bound_to 6896
  145.9417  139.3894  143.0359 H   0  0  0  0  0  0  0  0  0  0  0  0  # atno 7974 bound_to 7965
  154.4187  140.1158  156.5440 H   0  0  0  0  0  0  0  0  0  0  0  0  # atno 8008 bound_to 7997
  155.6479  140.3496  155.4718 H   0  0  0  0  0  0  0  0  0  0  0  0  # atno 8009 bound_to 7997
  155.9817  140.1161  157.0710 H   0  0  0  0  0  0  0  0  0  0  0  0  # atno 8010 bound_to 7997
  140.0093  144.5626  150.7671 H   0  0  0  0  0  0  0  0  0  0  0  0  # atno 10167 bound_to 10162
  156.9733  131.0097  151.2900 H   0  0  0  0  0  0  0  0  0  0  0  0  # atno 10718 bound_to 10713
  153.9685  135.6731  153.4746 H   0  0  0  0  0  0  0  0  0  0  0  0  # atno 10763 bound_to 10752
  153.0804  135.4926  154.8488 H   0  0  0  0  0  0  0  0  0  0  0  0  # atno 10764 bound_to 10752
  154.7232  135.3122  154.8973 H   0  0  0  0  0  0  0  0  0  0  0  0  # atno 10765 bound_to 10752
  139.9392  134.9637  156.8514 H   0  0  0  0  0  0  0  0  0  0  0  0  # atno 11005 bound_to 11000
  145.8290  140.9640  143.0859 LP  0  0  0  0  0  0  0  0  0  0  0  0  # atno 17320 bound_to 7965
  144.6780  140.0138  143.7484 LP  0  0  0  0  0  0  0  0  0  0  0  0  # atno 17321 bound_to 7965
  140.7387  143.2782  151.3677 LP  0  0  0  0  0  0  0  0  0  0  0  0  # atno 17342 bound_to 10162
  139.6216  144.0896  152.2396 LP  0  0  0  0  0  0  0  0  0  0  0  0  # atno 17343 bound_to 10162
  157.5577  130.8225  149.8226 LP  0  0  0  0  0  0  0  0  0  0  0  0  # atno 17370 bound_to 10713
  156.0274  130.3775  150.1785 LP  0  0  0  0  0  0  0  0  0  0  0  0  # atno 17371 bound_to 10713
  140.5995  134.0185  155.7531 LP  0  0  0  0  0  0  0  0  0  0  0  0  # atno 17394 bound_to 11000
  141.1019  133.9754  157.3063 LP  0  0  0  0  0  0  0  0  0  0  0  0  # atno 17395 bound_to 11000

$$$$
