AV-unprocessed.smi:2559|AV-procd|sdf|10037|dock8
  -GOLD-   2272014 83D 1   1.00000     0.00000
 Structure written by MMmdl.
 43 45  0  0  0  0  0  0  0  0  2 V2000
  153.9568  137.5601  160.2272 C   0  0  0  0  0  0  0  0  0  0  0  0
  153.3838  137.5598  158.8775 N   0  0  0  0  0  0  0  0  0  0  0  0
  153.3790  136.4539  158.0665 C   0  0  0  0  0  0  0  0  0  0  0  0
  153.8691  135.4068  158.4898 O   0  0  0  0  0  0  0  0  0  0  0  0
  152.8320  136.5347  156.8039 N   0  5  0  0  0  0  0  0  0  0  0  0
  152.2701  137.6486  156.2369 C   0  0  0  0  0  0  0  0  0  0  0  0
  151.8117  137.7385  155.0996 O   0  0  0  0  0  0  0  0  0  0  0  0
  152.2730  138.8070  157.1595 C   0  0  0  0  0  0  0  0  0  0  0  0
  152.8132  138.7713  158.4066 C   0  0  0  0  0  0  0  0  0  0  0  0
  152.7227  140.0038  159.0328 N   0  0  0  0  0  0  0  0  0  0  0  0
  152.0936  140.7530  158.1254 C   0  0  0  0  0  0  0  0  0  0  0  0
  151.7968  142.1017  158.3285 N   0  0  0  0  0  0  0  0  0  0  0  0
  150.5718  142.7366  157.8450 C   0  0  0  0  0  0  0  0  0  0  0  0
  149.9016  143.5808  158.9440 C   0  0  0  0  0  0  0  0  0  0  0  0
  150.8666  144.6501  159.4736 C   0  0  0  0  0  0  0  0  0  0  0  0
  152.1930  143.9984  159.8861 C   0  0  0  0  0  0  0  0  0  0  0  0
  152.7488  143.1340  158.7406 C   0  0  0  0  0  0  0  0  0  0  0  0
  151.7976  140.1096  156.9626 N   0  0  0  0  0  0  0  0  0  0  0  0
  151.1781  140.6657  155.7588 C   0  0  0  0  0  0  0  0  0  0  0  0
  149.9320  139.8735  155.3086 C   0  0  1  0  0  0  0  0  0  0  0  0
  149.2797  139.3179  156.4336 O   0  0  0  0  0  0  0  0  0  0  0  0
  148.9127  140.7458  154.5570 C   0  0  0  0  0  0  0  0  0  0  0  0
  149.4424  141.1915  153.3265 O   0  0  0  0  0  0  0  0  0  0  0  0
  154.3106  136.5864  160.5672 H   0  0  0  0  0  0  0  0  0  0  0  0
  153.2123  137.9005  160.9475 H   0  0  0  0  0  0  0  0  0  0  0  0
  154.8019  138.2479  160.2689 H   0  0  0  0  0  0  0  0  0  0  0  0
  150.8043  143.3564  156.9781 H   0  0  0  0  0  0  0  0  0  0  0  0
  149.8761  141.9701  157.5018 H   0  0  0  0  0  0  0  0  0  0  0  0
  148.9979  144.0513  158.5560 H   0  0  0  0  0  0  0  0  0  0  0  0
  149.5875  142.9314  159.7623 H   0  0  0  0  0  0  0  0  0  0  0  0
  151.0499  145.3933  158.6967 H   0  0  0  0  0  0  0  0  0  0  0  0
  150.4236  145.1796  160.3173 H   0  0  0  0  0  0  0  0  0  0  0  0
  152.9168  144.7653  160.1626 H   0  0  0  0  0  0  0  0  0  0  0  0
  152.0378  143.3837  160.7723 H   0  0  0  0  0  0  0  0  0  0  0  0
  153.6987  142.6825  159.0249 H   0  0  0  0  0  0  0  0  0  0  0  0
  152.9711  143.7654  157.8794 H   0  0  0  0  0  0  0  0  0  0  0  0
  150.9293  141.7112  155.9236 H   0  0  0  0  0  0  0  0  0  0  0  0
  151.9091  140.6940  154.9561 H   0  0  0  0  0  0  0  0  0  0  0  0
  150.2378  139.0442  154.6696 H   0  0  0  0  0  0  0  0  0  0  0  0
  148.3545  139.5032  156.3658 H   0  0  0  0  0  0  0  0  0  0  0  0
  148.0056  140.1772  154.3486 H   0  0  0  0  0  0  0  0  0  0  0  0
  148.6216  141.6090  155.1566 H   0  0  0  0  0  0  0  0  0  0  0  0
  149.2601  140.5383  152.6684 H   0  0  0  0  0  0  0  0  0  0  0  0
  1  2  1  0  0  0  0
  1 24  1  0  0  0  0
  1 25  1  0  0  0  0
  1 26  1  0  0  0  0
  2  9  1  0  0  0  0
  2  3  1  0  0  0  0
  3  4  2  0  0  0  0
  3  5  1  0  0  0  0
  5  6  1  0  0  0  0
  6  7  2  0  0  0  0
  6  8  1  0  0  0  0
  8 18  1  0  0  0  0
  8  9  2  0  0  0  0
  9 10  1  0  0  0  0
 10 11  2  0  0  0  0
 11 12  1  0  0  0  0
 11 18  1  0  0  0  0
 12 17  1  0  0  0  0
 12 13  1  0  0  0  0
 13 14  1  0  0  0  0
 13 27  1  0  0  0  0
 13 28  1  0  0  0  0
 14 15  1  0  0  0  0
 14 29  1  0  0  0  0
 14 30  1  0  0  0  0
 15 16  1  0  0  0  0
 15 31  1  0  0  0  0
 15 32  1  0  0  0  0
 16 17  1  0  0  0  0
 16 33  1  0  0  0  0
 16 34  1  0  0  0  0
 17 35  1  0  0  0  0
 17 36  1  0  0  0  0
 18 19  1  0  0  0  0
 19 20  1  0  0  0  0
 19 37  1  0  0  0  0
 19 38  1  0  0  0  0
 20 21  1  0  0  0  0
 20 22  1  0  0  0  0
 20 39  1  0  0  0  0
 21 40  1  0  0  0  0
 22 23  1  0  0  0  0
 22 41  1  0  0  0  0
 22 42  1  0  0  0  0
 23 43  1  0  0  0  0
M  CHG  1   5  -1
M  END
> <s_m_source_file>
AV-unprocessed.smi

> <i_m_source_file_index>
2559

> <i_lp_mmshare_version>
43012

> <i_f3d_flags>
0

> <s_epik_input>
Tz1jMVtuSF1jKD1PKW4oW0NIM10pYyhjMTIpbmMobjJbQ0gyXVtDQEhdKFtPSF0pW0NIMl1bT0hdKU4zW0NIMl1bQ0gyXVtDSDJdW0NIMl1bQ0gyXTM=

> <s_epik_cmdline>
J2VwaWtfcHl0aG9uJywgJy1waCcsICc3LjAnLCAnLXRuJywgJzgnLCAnLW1hJywgJzIwMCcsICctbWV0YWxfYmluZGluZycsICctaW1hZScsICc8aW5maWxlLm1hZT4nLCAnLW9tYWUnLCAnPG91dGZpbGUubWFlPic=

> <r_lp_tautomer_probability>
1

> <r_epik_Ionization_Penalty>
5.90509

> <r_epik_Ionization_Penalty_Charging>
0.0759636

> <r_epik_Ionization_Penalty_Neutral>
5.82913

> <r_epik_State_Penalty>
5.18635

> <r_epik_Charging_Adjusted_Penalty>
5.26231

> <i_epik_Tot_Q>
-1

> <i_epik_Tot_abs_Q>
1

> <r_epik_Metal_State_Penalty>
1.25614

> <b_epik_Metal_Only>
1

> <s_lp_Force_Field>
OPLS_2005

> <r_lp_Energy>
39.3002

> <b_lp_Chiralities_Consistent>
1

> <s_lp_Variant>
AV-unprocessed.smi:2559-4

> <Gold.Version>
5.8.1

> <Gold.Id.Protein>
6NUR|6NUR_protein|mol2

> <Gold.PLP.Fitness>
50.5155

> <Gold.PLP.PLP>
-37.9616

> <Gold.PLP.part.hbond>
-4.6921

> <Gold.PLP.part.metal>
0.0000

> <Gold.PLP.part.buried>
-5.0481

> <Gold.PLP.part.nonpolar>
-29.2905

> <Gold.PLP.part.repulsive>
0.0688

> <Gold.PLP.ligand.clash>
0.0000

> <Gold.PLP.ligand.torsion>
1.1499

> <Gold.PLP.Chemscore.Hbond>
4.7366

> <Gold.PLP.Chemscore.CHOScore>
0.0000

> <Gold.PLP.Chemscore.Metal>
0.0000

> <Gold.Chemscore.Hbonds>
donor molecule, donor type, donor heavy atom, donor atom, acceptor molecule, acceptor atom, score
      L1  H    23    43       P1  7957  0.88
      P1  H  6896  6909       L1     4  0.49
      P1  H  7989  7998       L1    23  0.07
      P1  H  8011  8017       L1    23  0.90
      P1  H 10752 10763       L1     5  2.00

> <Gold.PLP.Chemscore.Internal.Correction>
0.6440

> <Gold.Rescore>
     Score         DG    S(hbond)    S(metal)    S(lipo)     H(rot)  DE(clash)    DE(int)     intcor
     14.37     -15.76       2.53        0.00      79.91       2.93       0.10       1.29       ----

> <Gold.Chemscore.Fitness>
14.3685

> <Gold.Chemscore.DG>
-15.7609

> <Gold.Chemscore.ZeroCoef>
-5.4800

> <Gold.Chemscore.Hbond>
2.5269

> <Gold.Chemscore.Metal>
0.0000

> <Gold.Chemscore.Lipo>
79.9113

> <Gold.Chemscore.Internal_Hbond>
0.0000

> <Gold.Chemscore.DEClash>
0.1047

> <Gold.Chemscore.DEInternal>
1.2877

> <Gold.Chemscore.Rot>
2.9330

> <Gold.Chemscore.Internal.Correction>
   9.000000E+99

> <Gold.Chemscore.Hbonds>
donor molecule, donor type, donor heavy atom, donor atom, acceptor molecule, acceptor atom, score
      L1  H    23    43       P1  7957  0.86
      P1  H  6896  6909       L1     4  0.37
      P1  H  7989  7998       L1    23  0.01
      P1  H  8011  8017       L1    23  0.17
      P1  H 10752 10763       L1     5  0.57

> <Gold.Chemscore.Hbond.Weighted>
-8.4397

> <Gold.Chemscore.Metal.Weighted>
-0.0000

> <Gold.Chemscore.Lipo.Weighted>
-9.3496

> <Gold.Chemscore.Internal_Hbond.Weighted>
0.0000

> <Gold.Chemscore.DEClash.Weighted>
0.1047

> <Gold.Chemscore.DEInternal.Weighted>
1.2877

> <Gold.Chemscore.Rot.Weighted>
7.5084

> <Gold.Chemscore.Internal.Correction.Weighted>
   9.000000E+99

> <Gold.Protein.RotatedTorsions>
[ 6907 6896 6895 6894 ] final -166.94 input  -60.11 | X-H torsion
[ 7974 7965 7964 7962 ] final   11.78 input  175.53 | X-H torsion
[ 8008 7997 7996 7995 ] final  -65.10 input   59.86 | X-H torsion
[ 10167 10162 10161 10158 ] final  135.50 input  -65.29 | X-H torsion
[ 10718 10713 10712 10709 ] final  -10.26 input   66.30 | X-H torsion
[ 10763 10752 10751 10750 ] final  116.49 input  -60.55 | X-H torsion
[ 11005 11000 10999 10996 ] final -134.06 input  -57.11 | X-H torsion

> <Gold.Protein.ActiveResidues>
 VAL166  LYS551  ARG553  GLY616  TRP617  ASP618  TYR619  PRO620  LYS621  CYS622 
 ASP623  PHE694  ASN695  SER759  ASP760  ASP761  ALA762  ILE779  LEU786  VAL792 
 PHE793  MET794  SER795  GLU796  ALA797  LYS798  CYS799  TRP800  GLU811  SER814 

> <Gold.Protein.RotatedAtoms>
  151.4516  133.3616  159.2795 H   0  0  0  0  0  0  0  0  0  0  0  0  # atno 6907 bound_to 6896
  150.9087  134.8504  159.7421 H   0  0  0  0  0  0  0  0  0  0  0  0  # atno 6908 bound_to 6896
  152.4920  134.4444  159.9606 H   0  0  0  0  0  0  0  0  0  0  0  0  # atno 6909 bound_to 6896
  146.2364  139.9435  142.8480 H   0  0  0  0  0  0  0  0  0  0  0  0  # atno 7974 bound_to 7965
  154.4651  140.0940  156.6999 H   0  0  0  0  0  0  0  0  0  0  0  0  # atno 8008 bound_to 7997
  155.4881  140.3470  155.4332 H   0  0  0  0  0  0  0  0  0  0  0  0  # atno 8009 bound_to 7997
  156.0942  140.1405  156.9541 H   0  0  0  0  0  0  0  0  0  0  0  0  # atno 8010 bound_to 7997
  139.5215  144.6514  151.5292 H   0  0  0  0  0  0  0  0  0  0  0  0  # atno 10167 bound_to 10162
  156.6761  130.5023  149.5985 H   0  0  0  0  0  0  0  0  0  0  0  0  # atno 10718 bound_to 10713
  153.5381  135.3564  155.2706 H   0  0  0  0  0  0  0  0  0  0  0  0  # atno 10763 bound_to 10752
  154.8720  135.4084  154.3075 H   0  0  0  0  0  0  0  0  0  0  0  0  # atno 10764 bound_to 10752
  153.3777  135.7067  153.6657 H   0  0  0  0  0  0  0  0  0  0  0  0  # atno 10765 bound_to 10752
  140.9024  134.1673  157.4450 H   0  0  0  0  0  0  0  0  0  0  0  0  # atno 11005 bound_to 11000
  145.1930  140.9820  143.4200 LP  0  0  0  0  0  0  0  0  0  0  0  0  # atno 17320 bound_to 7965
  144.9840  139.3754  143.6248 LP  0  0  0  0  0  0  0  0  0  0  0  0  # atno 17321 bound_to 7965
  140.6320  143.9057  150.6614 LP  0  0  0  0  0  0  0  0  0  0  0  0  # atno 17342 bound_to 10162
  140.2364  143.3696  152.1523 LP  0  0  0  0  0  0  0  0  0  0  0  0  # atno 17343 bound_to 10162
  156.1902  130.6555  151.1052 LP  0  0  0  0  0  0  0  0  0  0  0  0  # atno 17370 bound_to 10713
  157.7060  131.0756  150.6665 LP  0  0  0  0  0  0  0  0  0  0  0  0  # atno 17371 bound_to 10713
  139.8744  134.9903  156.5498 LP  0  0  0  0  0  0  0  0  0  0  0  0  # atno 17394 bound_to 11000
  140.8213  133.8351  155.8898 LP  0  0  0  0  0  0  0  0  0  0  0  0  # atno 17395 bound_to 11000

$$$$
