AV-unprocessed.smi:1675|AV-procd|sdf|6717|dock7
  -GOLD-   22720 7463D 1   1.00000     0.00000
 Structure written by MMmdl.
 40 42  0  0  0  0  0  0  0  0  1 V2000
  156.4435  143.6956  167.4103 N   0  0  0  0  0  0  0  0  0  0  0  0
  155.3500  143.5198  166.6643 C   0  0  0  0  0  0  0  0  0  0  0  0
  154.7922  144.4540  166.0917 O   0  0  0  0  0  0  0  0  0  0  0  0
  154.8068  142.0924  166.5472 C   0  0  0  0  0  0  0  0  0  0  0  0
  154.6605  141.6891  165.1592 N   0  0  0  0  0  0  0  0  0  0  0  0
  153.8701  142.2643  164.1828 C   0  0  0  0  0  0  0  0  0  0  0  0
  154.0725  141.5187  163.0560 C   0  0  0  0  0  0  0  0  0  0  0  0
  153.4964  141.6593  161.7684 N   0  0  0  0  0  0  0  0  0  0  0  0
  153.8708  141.0461  160.6317 C   0  0  0  0  0  0  0  0  0  0  0  0
  154.7944  140.2364  160.5528 O   0  0  0  0  0  0  0  0  0  0  0  0
  153.0707  141.4179  159.3780 C   0  0  0  0  0  0  0  0  0  0  0  0
  151.9234  142.4144  159.6590 C   0  0  2  0  0  0  0  0  0  0  0  0
  150.8534  142.5418  158.5501 C   0  0  0  0  0  0  0  0  0  0  0  0
  150.7594  144.0643  158.3351 C   0  0  2  0  0  0  0  0  0  0  0  0
  152.0092  144.5408  157.5733 C   0  0  0  0  0  0  0  0  0  0  0  0
  153.1144  144.4354  158.6400 C   0  0  0  0  0  0  0  0  0  0  0  0
  152.3570  143.8846  159.8664 C   0  0  1  0  0  0  0  0  0  0  0  0
  151.0193  144.6066  159.7363 C   0  0  0  0  0  0  0  0  0  0  0  0
  154.9957  140.5054  163.4228 C   0  0  0  0  0  0  0  0  0  0  0  0
  155.3519  140.6187  164.6931 N   0  0  0  0  0  0  0  0  0  0  0  0
  156.8327  144.6213  167.5152 H   0  0  0  0  0  0  0  0  0  0  0  0
  156.8768  142.9069  167.8683 H   0  0  0  0  0  0  0  0  0  0  0  0
  155.4716  141.3843  167.0444 H   0  0  0  0  0  0  0  0  0  0  0  0
  153.8396  142.0316  167.0487 H   0  0  0  0  0  0  0  0  0  0  0  0
  153.2487  143.1249  164.3817 H   0  0  0  0  0  0  0  0  0  0  0  0
  152.7071  142.2858  161.7052 H   0  0  0  0  0  0  0  0  0  0  0  0
  153.7442  141.8464  158.6343 H   0  0  0  0  0  0  0  0  0  0  0  0
  152.6826  140.4955  158.9459 H   0  0  0  0  0  0  0  0  0  0  0  0
  151.4235  142.0958  160.5759 H   0  0  0  0  0  0  0  0  0  0  0  0
  151.1259  142.0223  157.6305 H   0  0  0  0  0  0  0  0  0  0  0  0
  149.9007  142.1340  158.8899 H   0  0  0  0  0  0  0  0  0  0  0  0
  149.8215  144.3854  157.8811 H   0  0  0  0  0  0  0  0  0  0  0  0
  152.2177  143.9285  156.6952 H   0  0  0  0  0  0  0  0  0  0  0  0
  151.8941  145.5733  157.2415 H   0  0  0  0  0  0  0  0  0  0  0  0
  153.9464  143.8065  158.3249 H   0  0  0  0  0  0  0  0  0  0  0  0
  153.5215  145.4236  158.8574 H   0  0  0  0  0  0  0  0  0  0  0  0
  152.8747  144.0561  160.8107 H   0  0  0  0  0  0  0  0  0  0  0  0
  151.1076  145.6939  159.7701 H   0  0  0  0  0  0  0  0  0  0  0  0
  150.2767  144.2859  160.4693 H   0  0  0  0  0  0  0  0  0  0  0  0
  155.4115  139.7094  162.8229 H   0  0  0  0  0  0  0  0  0  0  0  0
  1  2  1  0  0  0  0
  1 21  1  0  0  0  0
  1 22  1  0  0  0  0
  2  3  2  0  0  0  0
  2  4  1  0  0  0  0
  4  5  1  0  0  0  0
  4 23  1  0  0  0  0
  4 24  1  0  0  0  0
  5 20  1  0  0  0  0
  5  6  1  0  0  0  0
  6  7  2  0  0  0  0
  6 25  1  0  0  0  0
  7  8  1  0  0  0  0
  7 19  1  0  0  0  0
  8  9  1  0  0  0  0
  8 26  1  0  0  0  0
  9 10  2  0  0  0  0
  9 11  1  0  0  0  0
 11 12  1  0  0  0  0
 11 27  1  0  0  0  0
 11 28  1  0  0  0  0
 12 17  1  0  0  0  0
 12 13  1  0  0  0  0
 12 29  1  0  0  0  0
 13 14  1  0  0  0  0
 13 30  1  0  0  0  0
 13 31  1  0  0  0  0
 14 18  1  0  0  0  0
 14 15  1  0  0  0  0
 14 32  1  0  0  0  0
 15 16  1  0  0  0  0
 15 33  1  0  0  0  0
 15 34  1  0  0  0  0
 16 17  1  0  0  0  0
 16 35  1  0  0  0  0
 16 36  1  0  0  0  0
 17 18  1  0  0  0  0
 17 37  1  0  0  0  0
 18 38  1  0  0  0  0
 18 39  1  0  0  0  0
 19 20  2  0  0  0  0
 19 40  1  0  0  0  0
M  END
> <s_m_source_file>
AV-unprocessed.smi

> <i_m_source_file_index>
1675

> <i_lp_mmshare_version>
43012

> <i_f3d_flags>
0

> <s_epik_input>
W05IMl1DKD1PKVtDSDJdbjFbY0hdYyhbY0hdbjEpW05IXUMoPU8pW0NIMl1bQ0BIXShbQ0gyXVtDQEBIXTIzKVtDQEBIXShbQ0gyXTMpW0NIMl1bQ0gyXTI=

> <s_epik_cmdline>
J2VwaWtfcHl0aG9uJywgJy1waCcsICc3LjAnLCAnLXRuJywgJzgnLCAnLW1hJywgJzIwMCcsICctbWV0YWxfYmluZGluZycsICctaW1hZScsICc8aW5maWxlLm1hZT4nLCAnLW9tYWUnLCAnPG91dGZpbGUubWFlPic=

> <r_lp_tautomer_probability>
1

> <r_epik_Ionization_Penalty>
2.17494e-05

> <r_epik_Ionization_Penalty_Charging>
0

> <r_epik_Ionization_Penalty_Neutral>
2.17494e-05

> <r_epik_State_Penalty>
-0

> <r_epik_Charging_Adjusted_Penalty>
0

> <i_epik_Tot_Q>
0

> <i_epik_Tot_abs_Q>
0

> <r_epik_Metal_State_Penalty>
-0

> <b_epik_Metal_Only>
0

> <s_lp_Force_Field>
OPLS_2005

> <r_lp_Energy>
53.8438

> <b_lp_Chiralities_Consistent>
1

> <s_lp_Variant>
AV-unprocessed.smi:1675-3

> <Gold.Version>
5.8.1

> <Gold.Id.Protein>
6NUR|6NUR_protein|mol2

> <Gold.PLP.Fitness>
44.0582

> <Gold.PLP.PLP>
-44.8931

> <Gold.PLP.part.hbond>
-1.9401

> <Gold.PLP.part.metal>
0.0000

> <Gold.PLP.part.buried>
-0.2888

> <Gold.PLP.part.nonpolar>
-41.3789

> <Gold.PLP.part.repulsive>
0.1413

> <Gold.PLP.ligand.clash>
0.4523

> <Gold.PLP.ligand.torsion>
0.1952

> <Gold.PLP.Chemscore.Hbond>
0.0000

> <Gold.PLP.Chemscore.CHOScore>
0.0000

> <Gold.PLP.Chemscore.Metal>
0.0000

> <Gold.PLP.Chemscore.Internal.Correction>
0.0077

> <Gold.Rescore>
     Score         DG    S(hbond)    S(metal)    S(lipo)     H(rot)  DE(clash)    DE(int)     intcor
     11.98     -14.55       0.00        0.00     124.56       2.15       0.56       2.01       ----

> <Gold.Chemscore.Fitness>
11.9751

> <Gold.Chemscore.DG>
-14.5529

> <Gold.Chemscore.ZeroCoef>
-5.4800

> <Gold.Chemscore.Hbond>
0.0000

> <Gold.Chemscore.Metal>
0.0000

> <Gold.Chemscore.Lipo>
124.5577

> <Gold.Chemscore.Internal_Hbond>
0.0000

> <Gold.Chemscore.DEClash>
0.5649

> <Gold.Chemscore.DEInternal>
2.0129

> <Gold.Chemscore.Rot>
2.1486

> <Gold.Chemscore.Internal.Correction>
   9.000000E+99

> <Gold.Chemscore.Hbond.Weighted>
-0.0000

> <Gold.Chemscore.Metal.Weighted>
-0.0000

> <Gold.Chemscore.Lipo.Weighted>
-14.5732

> <Gold.Chemscore.Internal_Hbond.Weighted>
0.0000

> <Gold.Chemscore.DEClash.Weighted>
0.5649

> <Gold.Chemscore.DEInternal.Weighted>
2.0129

> <Gold.Chemscore.Rot.Weighted>
5.5004

> <Gold.Chemscore.Internal.Correction.Weighted>
   9.000000E+99

> <Gold.Protein.RotatedTorsions>
[ 6907 6896 6895 6894 ] final  -84.94 input  -60.11 | X-H torsion
[ 7974 7965 7964 7962 ] final  103.97 input  175.53 | X-H torsion
[ 8008 7997 7996 7995 ] final  145.12 input   59.86 | X-H torsion
[ 10167 10162 10161 10158 ] final   41.39 input  -65.29 | X-H torsion
[ 10718 10713 10712 10709 ] final   18.83 input   66.30 | X-H torsion
[ 10763 10752 10751 10750 ] final  -31.19 input  -60.55 | X-H torsion
[ 11005 11000 10999 10996 ] final   10.09 input  -57.11 | X-H torsion

> <Gold.Protein.ActiveResidues>
 VAL166  LYS551  ARG553  GLY616  TRP617  ASP618  TYR619  PRO620  LYS621  CYS622 
 ASP623  PHE694  ASN695  SER759  ASP760  ASP761  ALA762  ILE779  LEU786  VAL792 
 PHE793  MET794  SER795  GLU796  ALA797  LYS798  CYS799  TRP800  GLU811  SER814 

> <Gold.Protein.RotatedAtoms>
  150.6873  134.3282  159.4815 H   0  0  0  0  0  0  0  0  0  0  0  0  # atno 6907 bound_to 6896
  152.1149  134.9245  160.0574 H   0  0  0  0  0  0  0  0  0  0  0  0  # atno 6908 bound_to 6896
  152.0473  133.3969  159.4399 H   0  0  0  0  0  0  0  0  0  0  0  0  # atno 6909 bound_to 6896
  145.3389  139.2467  143.3620 H   0  0  0  0  0  0  0  0  0  0  0  0  # atno 7974 bound_to 7965
  156.2891  140.2217  156.5163 H   0  0  0  0  0  0  0  0  0  0  0  0  # atno 8008 bound_to 7997
  154.7566  140.0476  157.0960 H   0  0  0  0  0  0  0  0  0  0  0  0  # atno 8009 bound_to 7997
  155.0043  140.3105  155.4858 H   0  0  0  0  0  0  0  0  0  0  0  0  # atno 8010 bound_to 7997
  140.3648  144.2181  150.6136 H   0  0  0  0  0  0  0  0  0  0  0  0  # atno 10167 bound_to 10162
  157.1018  130.6471  149.5874 H   0  0  0  0  0  0  0  0  0  0  0  0  # atno 10718 bound_to 10713
  153.7933  135.6896  153.4868 H   0  0  0  0  0  0  0  0  0  0  0  0  # atno 10763 bound_to 10752
  153.1735  135.4533  154.9933 H   0  0  0  0  0  0  0  0  0  0  0  0  # atno 10764 bound_to 10752
  154.8036  135.3347  154.7427 H   0  0  0  0  0  0  0  0  0  0  0  0  # atno 10765 bound_to 10752
  140.5184  134.0583  155.7838 H   0  0  0  0  0  0  0  0  0  0  0  0  # atno 11005 bound_to 11000
  146.3015  140.3983  142.8702 LP  0  0  0  0  0  0  0  0  0  0  0  0  # atno 17320 bound_to 7965
  144.8805  140.7394  143.5989 LP  0  0  0  0  0  0  0  0  0  0  0  0  # atno 17321 bound_to 7965
  140.5091  143.2295  151.8562 LP  0  0  0  0  0  0  0  0  0  0  0  0  # atno 17342 bound_to 10162
  139.4810  144.4970  151.9110 LP  0  0  0  0  0  0  0  0  0  0  0  0  # atno 17343 bound_to 10162
  155.9871  130.4909  150.7112 LP  0  0  0  0  0  0  0  0  0  0  0  0  # atno 17370 bound_to 10713
  157.4634  131.0885  151.0721 LP  0  0  0  0  0  0  0  0  0  0  0  0  # atno 17371 bound_to 10713
  141.1347  133.9241  157.2459 LP  0  0  0  0  0  0  0  0  0  0  0  0  # atno 17394 bound_to 11000
  139.9619  135.0152  156.9285 LP  0  0  0  0  0  0  0  0  0  0  0  0  # atno 17395 bound_to 11000

$$$$
