AV-unprocessed.smi:3352|AV-procd|sdf|12952|dock2
  -GOLD-   2272019393D 1   1.00000     0.00000
 Structure written by MMmdl.
 38 39  0  0  0  0  0  0  0  0  1 V2000
  151.7241  144.5611  160.3760 C   0  0  0  0  0  0  0  0  0  0  0  0
  152.5049  144.0330  159.1638 C   0  0  0  0  0  0  0  0  0  0  0  0
  151.8808  144.4667  157.8298 C   0  0  0  0  0  0  0  0  0  0  0  0
  152.7019  142.5502  159.2281 C   0  0  0  0  0  0  0  0  0  0  0  0
  152.3270  141.7174  158.2529 N   0  0  0  0  0  0  0  0  0  0  0  0
  152.6122  140.3787  158.5428 C   0  0  0  0  0  0  0  0  0  0  0  0
  152.2627  139.3054  157.5537 C   0  0  0  0  0  0  0  0  0  0  0  0
  151.7988  139.9317  156.2380 C   0  0  0  0  0  0  0  0  0  0  0  0
  152.5408  139.9187  155.2558 O   0  0  0  0  0  0  0  0  0  0  0  0
  150.5708  140.4737  156.2334 N   0  0  0  0  0  0  0  0  0  0  0  0
  149.9367  141.1135  155.0867 C   0  0  0  0  0  0  0  0  0  0  0  0
  148.4405  141.3666  155.3355 C   0  0  1  0  0  0  0  0  0  0  0  0
  147.7176  141.9793  154.1369 C   0  0  0  0  0  0  0  0  0  0  0  0
  146.2909  141.5470  154.3856 C   0  0  0  0  0  0  0  0  0  0  0  0
  146.4876  140.1359  154.9303 C   0  0  0  0  0  0  0  0  0  0  0  0
  147.7478  140.1468  155.5955 O   0  0  0  0  0  0  0  0  0  0  0  0
  153.2052  140.2063  159.7690 C   0  0  0  0  0  0  0  0  0  0  0  0
  153.4323  141.7197  160.6002 S   0  0  0  0  0  0  0  0  0  0  0  0
  152.2231  144.2971  161.3090 H   0  0  0  0  0  0  0  0  0  0  0  0
  150.7142  144.1512  160.4101 H   0  0  0  0  0  0  0  0  0  0  0  0
  151.6387  145.6476  160.3439 H   0  0  0  0  0  0  0  0  0  0  0  0
  153.4960  144.4874  159.2086 H   0  0  0  0  0  0  0  0  0  0  0  0
  152.4925  144.1416  156.9875 H   0  0  0  0  0  0  0  0  0  0  0  0
  151.7917  145.5517  157.7730 H   0  0  0  0  0  0  0  0  0  0  0  0
  150.8838  144.0446  157.7007 H   0  0  0  0  0  0  0  0  0  0  0  0
  153.1254  138.6662  157.3614 H   0  0  0  0  0  0  0  0  0  0  0  0
  151.4796  138.6533  157.9436 H   0  0  0  0  0  0  0  0  0  0  0  0
  150.0362  140.4390  157.0895 H   0  0  0  0  0  0  0  0  0  0  0  0
  150.4437  142.0645  154.9220 H   0  0  0  0  0  0  0  0  0  0  0  0
  150.0845  140.5245  154.1800 H   0  0  0  0  0  0  0  0  0  0  0  0
  148.3062  142.0186  156.2004 H   0  0  0  0  0  0  0  0  0  0  0  0
  147.8332  143.0620  154.0780 H   0  0  0  0  0  0  0  0  0  0  0  0
  148.0798  141.5450  153.2038 H   0  0  0  0  0  0  0  0  0  0  0  0
  145.8331  142.1839  155.1438 H   0  0  0  0  0  0  0  0  0  0  0  0
  145.6691  141.5765  153.4905 H   0  0  0  0  0  0  0  0  0  0  0  0
  145.6842  139.8335  155.6021 H   0  0  0  0  0  0  0  0  0  0  0  0
  146.5355  139.4152  154.1130 H   0  0  0  0  0  0  0  0  0  0  0  0
  153.5232  139.2829  160.2303 H   0  0  0  0  0  0  0  0  0  0  0  0
  1  2  1  0  0  0  0
  1 19  1  0  0  0  0
  1 20  1  0  0  0  0
  1 21  1  0  0  0  0
  2  3  1  0  0  0  0
  2  4  1  0  0  0  0
  2 22  1  0  0  0  0
  3 23  1  0  0  0  0
  3 24  1  0  0  0  0
  3 25  1  0  0  0  0
  4 18  1  0  0  0  0
  4  5  2  0  0  0  0
  5  6  1  0  0  0  0
  6  7  1  0  0  0  0
  6 17  2  0  0  0  0
  7  8  1  0  0  0  0
  7 26  1  0  0  0  0
  7 27  1  0  0  0  0
  8  9  2  0  0  0  0
  8 10  1  0  0  0  0
 10 11  1  0  0  0  0
 10 28  1  0  0  0  0
 11 12  1  0  0  0  0
 11 29  1  0  0  0  0
 11 30  1  0  0  0  0
 12 16  1  0  0  0  0
 12 13  1  0  0  0  0
 12 31  1  0  0  0  0
 13 14  1  0  0  0  0
 13 32  1  0  0  0  0
 13 33  1  0  0  0  0
 14 15  1  0  0  0  0
 14 34  1  0  0  0  0
 14 35  1  0  0  0  0
 15 16  1  0  0  0  0
 15 36  1  0  0  0  0
 15 37  1  0  0  0  0
 17 18  1  0  0  0  0
 17 38  1  0  0  0  0
M  END
> <s_m_source_file>
AV-unprocessed.smi

> <i_m_source_file_index>
3352

> <i_lp_mmshare_version>
43012

> <i_f3d_flags>
0

> <s_epik_input>
W0NIM11bQ0hdKFtDSDNdKWMxbmMoW2NIXXMxKVtDSDJdQyg9TylbTkhdW0NIMl1bQ0BASF0yW0NIMl1bQ0gyXVtDSDJdTzI=

> <s_epik_cmdline>
J2VwaWtfcHl0aG9uJywgJy1waCcsICc3LjAnLCAnLXRuJywgJzgnLCAnLW1hJywgJzIwMCcsICctbWV0YWxfYmluZGluZycsICctaW1hZScsICc8aW5maWxlLm1hZT4nLCAnLW9tYWUnLCAnPG91dGZpbGUubWFlPic=

> <r_lp_tautomer_probability>
1

> <r_epik_Ionization_Penalty>
4.66014e-05

> <r_epik_Ionization_Penalty_Charging>
0

> <r_epik_Ionization_Penalty_Neutral>
4.66014e-05

> <r_epik_State_Penalty>
-0

> <r_epik_Charging_Adjusted_Penalty>
0

> <i_epik_Tot_Q>
0

> <i_epik_Tot_abs_Q>
0

> <r_epik_Metal_State_Penalty>
-0

> <b_epik_Metal_Only>
0

> <s_lp_Force_Field>
OPLS_2005

> <r_lp_Energy>
9.02769

> <b_lp_Chiralities_Consistent>
1

> <s_lp_Variant>
AV-unprocessed.smi:3352-2

> <Gold.Version>
5.8.1

> <Gold.Id.Protein>
6NUR|6NUR_protein|mol2

> <Gold.PLP.Fitness>
44.2670

> <Gold.PLP.PLP>
-40.7570

> <Gold.PLP.part.hbond>
-1.9889

> <Gold.PLP.part.metal>
0.0000

> <Gold.PLP.part.buried>
-2.6884

> <Gold.PLP.part.nonpolar>
-36.1133

> <Gold.PLP.part.repulsive>
0.0935

> <Gold.PLP.ligand.clash>
0.0000

> <Gold.PLP.ligand.torsion>
0.3299

> <Gold.PLP.Chemscore.Hbond>
1.3664

> <Gold.PLP.Chemscore.CHOScore>
0.0000

> <Gold.PLP.Chemscore.Metal>
0.0000

> <Gold.Chemscore.Hbonds>
donor molecule, donor type, donor heavy atom, donor atom, acceptor molecule, acceptor atom, score
      P1  H  7989  7998       L1     9  0.38
      P1  H  7997  8009       L1     9  1.00

> <Gold.PLP.Chemscore.Internal.Correction>
0.0706

> <Gold.Rescore>
     Score         DG    S(hbond)    S(metal)    S(lipo)     H(rot)  DE(clash)    DE(int)     intcor
     17.39     -17.85       1.01        0.00     110.85       1.55       0.16       0.30       ----

> <Gold.Chemscore.Fitness>
17.3941

> <Gold.Chemscore.DG>
-17.8532

> <Gold.Chemscore.ZeroCoef>
-5.4800

> <Gold.Chemscore.Hbond>
1.0111

> <Gold.Chemscore.Metal>
0.0000

> <Gold.Chemscore.Lipo>
110.8454

> <Gold.Chemscore.Internal_Hbond>
0.0000

> <Gold.Chemscore.DEClash>
0.1624

> <Gold.Chemscore.DEInternal>
0.2966

> <Gold.Chemscore.Rot>
1.5518

> <Gold.Chemscore.Internal.Correction>
   9.000000E+99

> <Gold.Chemscore.Hbonds>
donor molecule, donor type, donor heavy atom, donor atom, acceptor molecule, acceptor atom, score
      P1  H  7989  7998       L1     9  0.34
      P1  H  7997  8009       L1     9  0.47

> <Gold.Chemscore.Hbond.Weighted>
-3.3769

> <Gold.Chemscore.Metal.Weighted>
-0.0000

> <Gold.Chemscore.Lipo.Weighted>
-12.9689

> <Gold.Chemscore.Internal_Hbond.Weighted>
0.0000

> <Gold.Chemscore.DEClash.Weighted>
0.1624

> <Gold.Chemscore.DEInternal.Weighted>
0.2966

> <Gold.Chemscore.Rot.Weighted>
3.9727

> <Gold.Chemscore.Internal.Correction.Weighted>
   9.000000E+99

> <Gold.Protein.RotatedTorsions>
[ 6907 6896 6895 6894 ] final -119.55 input  -60.11 | X-H torsion
[ 7974 7965 7964 7962 ] final  100.63 input  175.53 | X-H torsion
[ 8008 7997 7996 7995 ] final -142.56 input   59.86 | X-H torsion
[ 10167 10162 10161 10158 ] final  -20.81 input  -65.29 | X-H torsion
[ 10718 10713 10712 10709 ] final  171.36 input   66.30 | X-H torsion
[ 10763 10752 10751 10750 ] final  171.52 input  -60.55 | X-H torsion
[ 11005 11000 10999 10996 ] final  -58.46 input  -57.11 | X-H torsion

> <Gold.Protein.ActiveResidues>
 VAL166  LYS551  ARG553  GLY616  TRP617  ASP618  TYR619  PRO620  LYS621  CYS622 
 ASP623  PHE694  ASN695  SER759  ASP760  ASP761  ALA762  ILE779  LEU786  VAL792 
 PHE793  MET794  SER795  GLU796  ALA797  LYS798  CYS799  TRP800  GLU811  SER814 

> <Gold.Protein.RotatedAtoms>
  150.8315  133.8084  159.3096 H   0  0  0  0  0  0  0  0  0  0  0  0  # atno 6907 bound_to 6896
  151.5812  135.1056  160.0027 H   0  0  0  0  0  0  0  0  0  0  0  0  # atno 6908 bound_to 6896
  152.4394  133.7378  159.6680 H   0  0  0  0  0  0  0  0  0  0  0  0  # atno 6909 bound_to 6896
  145.3830  139.2376  143.3393 H   0  0  0  0  0  0  0  0  0  0  0  0  # atno 7974 bound_to 7965
  155.4962  140.0572  157.2946 H   0  0  0  0  0  0  0  0  0  0  0  0  # atno 8008 bound_to 7997
  154.4604  140.1993  156.0211 H   0  0  0  0  0  0  0  0  0  0  0  0  # atno 8009 bound_to 7997
  156.0879  140.3237  155.7782 H   0  0  0  0  0  0  0  0  0  0  0  0  # atno 8010 bound_to 7997
  140.7278  143.4687  151.0277 H   0  0  0  0  0  0  0  0  0  0  0  0  # atno 10167 bound_to 10162
  156.9947  131.0158  151.2847 H   0  0  0  0  0  0  0  0  0  0  0  0  # atno 10718 bound_to 10713
  154.4131  135.2756  155.2024 H   0  0  0  0  0  0  0  0  0  0  0  0  # atno 10763 bound_to 10752
  154.4001  135.6046  153.5896 H   0  0  0  0  0  0  0  0  0  0  0  0  # atno 10764 bound_to 10752
  152.9831  135.5924  154.4416 H   0  0  0  0  0  0  0  0  0  0  0  0  # atno 10765 bound_to 10752
  141.1208  133.6612  156.4923 H   0  0  0  0  0  0  0  0  0  0  0  0  # atno 11005 bound_to 11000
  146.2833  140.4501  142.8768 LP  0  0  0  0  0  0  0  0  0  0  0  0  # atno 17320 bound_to 7965
  144.8494  140.6978  143.6178 LP  0  0  0  0  0  0  0  0  0  0  0  0  # atno 17321 bound_to 7965
  139.8377  143.7605  152.3180 LP  0  0  0  0  0  0  0  0  0  0  0  0  # atno 17342 bound_to 10162
  139.7743  144.7466  151.0179 LP  0  0  0  0  0  0  0  0  0  0  0  0  # atno 17343 bound_to 10162
  157.5433  130.8134  149.8055 LP  0  0  0  0  0  0  0  0  0  0  0  0  # atno 17370 bound_to 10713
  156.0193  130.3801  150.2010 LP  0  0  0  0  0  0  0  0  0  0  0  0  # atno 17371 bound_to 10713
  140.4513  134.6926  157.5041 LP  0  0  0  0  0  0  0  0  0  0  0  0  # atno 17394 bound_to 11000
  140.0164  134.6613  155.9304 LP  0  0  0  0  0  0  0  0  0  0  0  0  # atno 17395 bound_to 11000

$$$$
