#       Name:                AV-unprocessed.smi:2519
#       Creating user name   scv26
#       Creation time:       Fri Mar 27 13:54:32 2020


#       File generated by GOLD software.
#

@<TRIPOS>MOLECULE
AV-unprocessed.smi:2519
    48    49     1
SMALL
NO_CHARGES


@<TRIPOS>ATOM
      1 ****        -4.7123   4.3401  -0.9529 C.3            1 S1                 0.0000
      2 ****        -4.1517   3.0044  -0.8230 N.am           1 S1                 0.0000
      3 ****        -4.8786   1.8764  -0.7611 C.2            1 S1                 0.0000
      4 ****        -6.1098   1.8689  -0.8021 O.2            1 S1                 0.0000
      5 ****        -4.0989   0.5955  -0.6137 C.ar           1 S1                 0.0000
      6 ****        -4.7732  -0.6179  -0.3511 C.ar           1 S1                 0.0000
      7 ****        -4.0181  -1.7974  -0.2249 C.ar           1 S1                 0.0000
      8 ****        -2.6197  -1.7284  -0.3638 C.ar           1 S1                 0.0000
      9 ****        -2.0124  -0.4817  -0.6255 C.ar           1 S1                 0.0000
     10 ****        -0.5981  -0.5104  -0.7397 N.am           1 S1                 0.0000
     11 ****         0.2452   0.5226  -0.9378 C.2            1 S1                 0.0000
     12 ****        -0.1047   1.6864  -1.1274 O.2            1 S1                 0.0000
     13 ****         1.5476   0.1843  -0.9191 N.am           1 S1                 0.0000
     14 ****         2.7228   1.0440  -1.0978 C.3            1 S1                 0.0000
     15 ****         3.9754   0.3447  -0.5361 C.3            1 S1                 0.0000
     16 ****         4.4087  -0.8518  -1.4005 C.3            1 S1                 0.0000
     17 ****         4.6157  -0.4395  -2.8665 C.3            1 S1                 0.0000
     18 ****         3.3556   0.2285  -3.4558 C.3            1 S1                 0.0000
     19 ****         3.5497   0.6326  -4.9318 C.3            1 S1                 0.0000
     20 ****         4.5228   1.5361  -5.0528 F              1 S1                 0.0000
     21 ****         3.8625  -0.4382  -5.6616 F              1 S1                 0.0000
     22 ****         2.4197   1.1489  -5.4151 F              1 S1                 0.0000
     23 ****         2.9361   1.4300  -2.5797 C.3            1 S1                 0.0000
     24 ****        -2.7516   0.6473  -0.7477 N.ar           1 S1                 0.0000
     25 ****        -3.9104   5.0779  -0.9758 H              1 S1                 0.0000
     26 ****        -5.3650   4.5710  -0.1101 H              1 S1                 0.0000
     27 ****        -5.2872   4.4317  -1.8753 H              1 S1                 0.0000
     28 ****        -3.1455   2.9227  -0.7791 H              1 S1                 0.0000
     29 ****        -5.8480  -0.6532  -0.2463 H              1 S1                 0.0000
     30 ****        -4.5037  -2.7407  -0.0231 H              1 S1                 0.0000
     31 ****        -2.0242  -2.6247  -0.2670 H              1 S1                 0.0000
     32 ****        -0.1712  -1.4168  -0.6179 H              1 S1                 0.0000
     33 ****         1.7476  -0.7946  -0.7713 H              1 S1                 0.0000
     34 ****         2.5708   1.9543  -0.5155 H              1 S1                 0.0000
     35 ****         4.7949   1.0634  -0.4901 H              1 S1                 0.0000
     36 ****         3.8002   0.0210   0.4908 H              1 S1                 0.0000
     37 ****         5.3302  -1.2788  -1.0040 H              1 S1                 0.0000
     38 ****         3.6575  -1.6405  -1.3449 H              1 S1                 0.0000
     39 ****         5.4622   0.2447  -2.9339 H              1 S1                 0.0000
     40 ****         4.8834  -1.3186  -3.4531 H              1 S1                 0.0000
     41 ****         2.5481  -0.5049  -3.4283 H              1 S1                 0.0000
     42 ****         2.0356   1.8917  -2.9847 H              1 S1                 0.0000
     43 ****         3.7094   2.1973  -2.6330 H              1 S1                 0.0000
     44 ****        -6.6125   2.7293  -0.8850 LP             1 S1                 0.0000
     45 ****        -6.6064   1.0023  -0.7525 LP             1 S1                 0.0000
     46 ****        -1.0769   1.9201  -1.1422 LP             1 S1                 0.0000
     47 ****         0.5830   2.3988  -1.2668 LP             1 S1                 0.0000
     48 ****        -2.3020   1.5202  -0.9371 LP             1 S1                 0.0000
@<TRIPOS>BOND
    1    1    2 1     
    2    1   25 1     
    3    1   26 1     
    4    1   27 1     
    5    2    3 am    
    6    2   28 1     
    7    3    4 2     
    8    3    5 1     
    9    5   24 ar    
   10    5    6 ar    
   11    6    7 ar    
   12    6   29 1     
   13    7    8 ar    
   14    7   30 1     
   15    8    9 ar    
   16    8   31 1     
   17    9   10 1     
   18    9   24 ar    
   19   10   11 am    
   20   10   32 1     
   21   11   12 2     
   22   11   13 am    
   23   13   14 1     
   24   13   33 1     
   25   14   23 1     
   26   14   15 1     
   27   14   34 1     
   28   15   16 1     
   29   15   35 1     
   30   15   36 1     
   31   16   17 1     
   32   16   37 1     
   33   16   38 1     
   34   17   18 1     
   35   17   39 1     
   36   17   40 1     
   37   18   19 1     
   38   18   23 1     
   39   18   41 1     
   40   19   20 1     
   41   19   21 1     
   42   19   22 1     
   43   23   42 1     
   44   23   43 1     
   45    4   44 1     
   46    4   45 1     
   47   12   46 1     
   48   12   47 1     
   49   24   48 1     
@<TRIPOS>SUBSTRUCTURE
      1 S1             1
@<TRIPOS>SET
LONE_PAIRS      STATIC     ATOMS    <user>   **** ""
5 44 45 46 47 48
DONOR_HYDROGENS      STATIC     ATOMS    <user>   **** ""
3 28 32 33
ATOM$BLUE        STATIC     ATOMS    COLORGROUP SYSTEM
5 44 45 46 47 48
ATOM$RED        STATIC     ATOMS    COLORGROUP SYSTEM
3 28 32 33
