AV-unprocessed.smi:960|AV-procd|sdf|4272|dock4
  -GOLD-   22720 2183D 1   1.00000     0.00000
 Structure written by MMmdl.
 46 47  0  0  0  0  0  0  0  0  2 V2000
  146.0697  131.7900  149.0208 C   0  0  0  0  0  0  0  0  0  0  0  0
  145.3250  132.1191  150.0890 C   0  0  0  0  0  0  0  0  0  0  0  0
  143.8073  132.1199  150.0386 C   0  0  0  0  0  0  0  0  0  0  0  0
  145.9579  132.4797  151.4246 C   0  0  0  0  0  0  0  0  0  0  0  0
  145.3632  133.6929  152.0463 N   0  3  2  0  0  0  0  0  0  0  0  0
  145.4832  134.8719  151.1489 C   0  0  0  0  0  0  0  0  0  0  0  0
  144.7567  136.1020  151.7222 C   0  0  0  0  0  0  0  0  0  0  0  0
  145.2489  136.4523  153.1356 C   0  0  2  0  0  0  0  0  0  0  0  0
  146.6105  136.9854  153.0887 N   0  0  0  0  0  0  0  0  0  0  0  0
  147.0260  138.1033  153.7012 C   0  0  0  0  0  0  0  0  0  0  0  0
  146.2902  138.8261  154.3719 O   0  0  0  0  0  0  0  0  0  0  0  0
  148.3279  138.3330  153.4724 N   0  0  0  0  0  0  0  0  0  0  0  0
  149.1090  139.3949  153.9934 C   0  0  0  0  0  0  0  0  0  0  0  0
  148.7309  140.7358  154.2987 C   0  0  0  0  0  0  0  0  0  0  0  0
  147.4107  141.4442  154.1733 C   0  0  0  0  0  0  0  0  0  0  0  0
  149.7646  141.3906  154.8065 N   0  0  0  0  0  0  0  0  0  0  0  0
  150.8280  140.4774  154.8728 O   0  0  0  0  0  0  0  0  0  0  0  0
  150.4068  139.2774  154.3959 C   0  0  0  0  0  0  0  0  0  0  0  0
  151.3953  138.1609  154.4039 C   0  0  0  0  0  0  0  0  0  0  0  0
  145.1508  135.2025  154.0310 C   0  0  0  0  0  0  0  0  0  0  0  0
  145.8671  133.9873  153.4149 C   0  0  0  0  0  0  0  0  0  0  0  0
  145.6134  131.5233  148.0783 H   0  0  0  0  0  0  0  0  0  0  0  0
  147.1488  131.7818  149.0722 H   0  0  0  0  0  0  0  0  0  0  0  0
  143.4122  131.3631  150.7168 H   0  0  0  0  0  0  0  0  0  0  0  0
  143.4439  131.8932  149.0357 H   0  0  0  0  0  0  0  0  0  0  0  0
  143.3957  133.0835  150.3347 H   0  0  0  0  0  0  0  0  0  0  0  0
  145.8998  131.6328  152.1102 H   0  0  0  0  0  0  0  0  0  0  0  0
  147.0194  132.6594  151.2461 H   0  0  0  0  0  0  0  0  0  0  0  0
  146.5381  135.0977  150.9854 H   0  0  0  0  0  0  0  0  0  0  0  0
  145.0590  134.6335  150.1728 H   0  0  0  0  0  0  0  0  0  0  0  0
  144.8815  136.9562  151.0554 H   0  0  0  0  0  0  0  0  0  0  0  0
  143.6854  135.8989  151.7555 H   0  0  0  0  0  0  0  0  0  0  0  0
  144.5975  137.2296  153.5398 H   0  0  0  0  0  0  0  0  0  0  0  0
  147.2857  136.4663  152.5469 H   0  0  0  0  0  0  0  0  0  0  0  0
  148.7858  137.7371  152.7985 H   0  0  0  0  0  0  0  0  0  0  0  0
  146.5779  140.7589  154.3304 H   0  0  0  0  0  0  0  0  0  0  0  0
  147.2989  141.8909  153.1853 H   0  0  0  0  0  0  0  0  0  0  0  0
  147.3148  142.2428  154.9096 H   0  0  0  0  0  0  0  0  0  0  0  0
  150.9167  137.2106  154.1678 H   0  0  0  0  0  0  0  0  0  0  0  0
  151.8651  138.0676  155.3831 H   0  0  0  0  0  0  0  0  0  0  0  0
  152.1794  138.3360  153.6674 H   0  0  0  0  0  0  0  0  0  0  0  0
  145.5506  135.4064  155.0249 H   0  0  0  0  0  0  0  0  0  0  0  0
  144.0989  134.9549  154.1796 H   0  0  0  0  0  0  0  0  0  0  0  0
  145.6936  133.1344  154.0692 H   0  0  0  0  0  0  0  0  0  0  0  0
  146.9450  134.1541  153.3828 H   0  0  0  0  0  0  0  0  0  0  0  0
  144.3746  133.5067  152.1393 H   0  0  0  0  0  0  0  0  0  0  0  0
  1  2  2  0  0  0  0
  1 22  1  0  0  0  0
  1 23  1  0  0  0  0
  2  3  1  0  0  0  0
  2  4  1  0  0  0  0
  3 24  1  0  0  0  0
  3 25  1  0  0  0  0
  3 26  1  0  0  0  0
  4  5  1  0  0  0  0
  4 27  1  0  0  0  0
  4 28  1  0  0  0  0
  5 21  1  0  0  0  0
  5  6  1  0  0  0  0
  5 46  1  0  0  0  0
  6  7  1  0  0  0  0
  6 29  1  0  0  0  0
  6 30  1  0  0  0  0
  7  8  1  0  0  0  0
  7 31  1  0  0  0  0
  7 32  1  0  0  0  0
  8  9  1  0  0  0  0
  8 20  1  0  0  0  0
  8 33  1  0  0  0  0
  9 10  1  0  0  0  0
  9 34  1  0  0  0  0
 10 11  2  0  0  0  0
 10 12  1  0  0  0  0
 12 13  1  0  0  0  0
 12 35  1  0  0  0  0
 13 18  2  0  0  0  0
 13 14  1  0  0  0  0
 14 15  1  0  0  0  0
 14 16  2  0  0  0  0
 15 36  1  0  0  0  0
 15 37  1  0  0  0  0
 15 38  1  0  0  0  0
 16 17  1  0  0  0  0
 17 18  1  0  0  0  0
 18 19  1  0  0  0  0
 19 39  1  0  0  0  0
 19 40  1  0  0  0  0
 19 41  1  0  0  0  0
 20 21  1  0  0  0  0
 20 42  1  0  0  0  0
 20 43  1  0  0  0  0
 21 44  1  0  0  0  0
 21 45  1  0  0  0  0
M  CHG  1   5   1
M  END
> <s_m_source_file>
AV-unprocessed.smi

> <i_m_source_file_index>
960

> <i_lp_mmshare_version>
43012

> <i_f3d_flags>
0

> <s_epik_input>
W0NIMl09QyhbQ0gzXSlbQ0gyXU4xW0NIMl1bQ0gyXVtDSF0oW0NIMl1bQ0gyXTEpW05IXUMoPU8pW05IXWMyYyhbQ0gzXSlub2MyW0NIM10=

> <s_epik_cmdline>
J2VwaWtfcHl0aG9uJywgJy1waCcsICc3LjAnLCAnLXRuJywgJzgnLCAnLW1hJywgJzIwMCcsICctbWV0YWxfYmluZGluZycsICctaW1hZScsICc8aW5maWxlLm1hZT4nLCAnLW9tYWUnLCAnPG91dGZpbGUubWFlPic=

> <r_epik_Ionization_Penalty>
0.01938

> <r_epik_Ionization_Penalty_Charging>
0.0193505

> <r_epik_Ionization_Penalty_Neutral>
2.94909e-05

> <r_epik_State_Penalty>
0.0154499

> <r_epik_Charging_Adjusted_Penalty>
0.0348004

> <i_epik_Tot_Q>
1

> <i_epik_Tot_abs_Q>
1

> <r_epik_Metal_State_Penalty>
0.0154499

> <b_epik_Metal_Only>
0

> <s_lp_Force_Field>
OPLS_2005

> <r_lp_Energy>
21.0262

> <b_lp_Chiralities_Consistent>
1

> <s_lp_Variant>
AV-unprocessed.smi:960-2

> <Gold.Version>
5.8.1

> <Gold.Id.Protein>
6NUR|6NUR_protein|mol2

> <Gold.PLP.Fitness>
45.8104

> <Gold.PLP.PLP>
-38.3154

> <Gold.PLP.part.hbond>
-4.6366

> <Gold.PLP.part.metal>
0.0000

> <Gold.PLP.part.buried>
-2.4524

> <Gold.PLP.part.nonpolar>
-31.0002

> <Gold.PLP.part.repulsive>
0.3687

> <Gold.PLP.ligand.clash>
0.0000

> <Gold.PLP.ligand.torsion>
0.5697

> <Gold.PLP.Chemscore.Hbond>
2.7500

> <Gold.PLP.Chemscore.CHOScore>
0.0000

> <Gold.PLP.Chemscore.Metal>
0.0000

> <Gold.Chemscore.Hbonds>
donor molecule, donor type, donor heavy atom, donor atom, acceptor molecule, acceptor atom, score
      L1  H     9    34       P1  7948  1.00
      L1  H    12    35       P1  7948  1.00
      P1  H  7989  7998       L1    17  0.75

> <Gold.PLP.Chemscore.Internal.Correction>
0.3845

> <Gold.Rescore>
     Score         DG    S(hbond)    S(metal)    S(lipo)     H(rot)  DE(clash)    DE(int)     intcor
     17.93     -19.78       1.97        0.00      95.61       1.35       0.03       1.82       ----

> <Gold.Chemscore.Fitness>
17.9272

> <Gold.Chemscore.DG>
-19.7823

> <Gold.Chemscore.ZeroCoef>
-5.4800

> <Gold.Chemscore.Hbond>
1.9663

> <Gold.Chemscore.Metal>
0.0000

> <Gold.Chemscore.Lipo>
95.6054

> <Gold.Chemscore.Internal_Hbond>
0.0000

> <Gold.Chemscore.DEClash>
0.0334

> <Gold.Chemscore.DEInternal>
1.8218

> <Gold.Chemscore.Rot>
1.3480

> <Gold.Chemscore.Internal.Correction>
   9.000000E+99

> <Gold.Chemscore.Hbonds>
donor molecule, donor type, donor heavy atom, donor atom, acceptor molecule, acceptor atom, score
      L1  H     9    34       P1  7948  0.97
      L1  H    12    35       P1  7948  0.98
      P1  H  7989  7998       L1    17  0.02

> <Gold.Chemscore.Hbond.Weighted>
-6.5674

> <Gold.Chemscore.Metal.Weighted>
-0.0000

> <Gold.Chemscore.Lipo.Weighted>
-11.1858

> <Gold.Chemscore.Internal_Hbond.Weighted>
0.0000

> <Gold.Chemscore.DEClash.Weighted>
0.0334

> <Gold.Chemscore.DEInternal.Weighted>
1.8218

> <Gold.Chemscore.Rot.Weighted>
3.4509

> <Gold.Chemscore.Internal.Correction.Weighted>
   9.000000E+99

> <Gold.Protein.RotatedTorsions>
[ 6907 6896 6895 6894 ] final  153.81 input  -60.11 | X-H torsion
[ 7974 7965 7964 7962 ] final  -30.73 input  175.53 | X-H torsion
[ 8008 7997 7996 7995 ] final  -41.47 input   59.86 | X-H torsion
[ 10167 10162 10161 10158 ] final  137.58 input  -65.29 | X-H torsion
[ 10718 10713 10712 10709 ] final  -92.37 input   66.30 | X-H torsion
[ 10763 10752 10751 10750 ] final   24.96 input  -60.55 | X-H torsion
[ 11005 11000 10999 10996 ] final  -74.45 input  -57.11 | X-H torsion

> <Gold.Protein.ActiveResidues>
 VAL166  LYS551  ARG553  GLY616  TRP617  ASP618  TYR619  PRO620  LYS621  CYS622 
 ASP623  PHE694  ASN695  SER759  ASP760  ASP761  ALA762  ILE779  LEU786  VAL792 
 PHE793  MET794  SER795  GLU796  ALA797  LYS798  CYS799  TRP800  GLU811  SER814 

> <Gold.Protein.RotatedAtoms>
  152.0674  133.4090  159.4443 H   0  0  0  0  0  0  0  0  0  0  0  0  # atno 6907 bound_to 6896
  150.6864  134.3131  159.4764 H   0  0  0  0  0  0  0  0  0  0  0  0  # atno 6908 bound_to 6896
  152.0959  134.9375  160.0621 H   0  0  0  0  0  0  0  0  0  0  0  0  # atno 6909 bound_to 6896
  146.1121  140.5577  142.8773 H   0  0  0  0  0  0  0  0  0  0  0  0  # atno 7974 bound_to 7965
  154.4004  140.1498  156.3196 H   0  0  0  0  0  0  0  0  0  0  0  0  # atno 8008 bound_to 7997
  155.8541  140.3456  155.5691 H   0  0  0  0  0  0  0  0  0  0  0  0  # atno 8009 bound_to 7997
  155.7952  140.0862  157.1978 H   0  0  0  0  0  0  0  0  0  0  0  0  # atno 8010 bound_to 7997
  139.5139  144.6402  151.5590 H   0  0  0  0  0  0  0  0  0  0  0  0  # atno 10167 bound_to 10162
  156.0001  130.4984  150.5615 H   0  0  0  0  0  0  0  0  0  0  0  0  # atno 10718 bound_to 10713
  153.0726  135.6594  154.0214 H   0  0  0  0  0  0  0  0  0  0  0  0  # atno 10763 bound_to 10752
  153.9856  135.2951  155.3418 H   0  0  0  0  0  0  0  0  0  0  0  0  # atno 10764 bound_to 10752
  154.7105  135.5207  153.8729 H   0  0  0  0  0  0  0  0  0  0  0  0  # atno 10765 bound_to 10752
  141.1635  133.6912  156.7366 H   0  0  0  0  0  0  0  0  0  0  0  0  # atno 11005 bound_to 11000
  144.7521  140.5216  143.6795 LP  0  0  0  0  0  0  0  0  0  0  0  0  # atno 17320 bound_to 7965
  145.5642  139.1480  143.3324 LP  0  0  0  0  0  0  0  0  0  0  0  0  # atno 17321 bound_to 7965
  140.6165  143.9338  150.6493 LP  0  0  0  0  0  0  0  0  0  0  0  0  # atno 17342 bound_to 10162
  140.2598  143.3532  152.1333 LP  0  0  0  0  0  0  0  0  0  0  0  0  # atno 17343 bound_to 10162
  157.3523  131.0735  151.1703 LP  0  0  0  0  0  0  0  0  0  0  0  0  # atno 17370 bound_to 10713
  157.2515  130.6616  149.5933 LP  0  0  0  0  0  0  0  0  0  0  0  0  # atno 17371 bound_to 10713
  140.2705  134.8396  157.3843 LP  0  0  0  0  0  0  0  0  0  0  0  0  # atno 17394 bound_to 11000
  140.1526  134.4831  155.7950 LP  0  0  0  0  0  0  0  0  0  0  0  0  # atno 17395 bound_to 11000

$$$$
