AV-unprocessed.smi:1047|AV-procd|sdf|4589|dock7
  -GOLD-   22720 3 63D 1   1.00000     0.00000
 Structure written by MMmdl.
 57 59  0  0  0  0  0  0  0  0  3 V2000
  150.8300  130.2908  154.8261 C   0  0  0  0  0  0  0  0  0  0  0  0
  150.7218  131.8014  155.0778 C   0  0  0  0  0  0  0  0  0  0  0  0
  149.4386  132.3978  154.7103 N   0  0  0  0  0  0  0  0  0  0  0  0
  149.1533  132.1875  153.2950 C   0  0  0  0  0  0  0  0  0  0  0  0
  147.8092  132.8092  152.8808 C   0  0  0  0  0  0  0  0  0  0  0  0
  147.8109  134.1959  153.2036 O   0  0  0  0  0  0  0  0  0  0  0  0
  148.0284  134.4426  154.5904 C   0  0  2  0  0  0  0  0  0  0  0  0
  147.9772  135.9578  154.8273 C   0  0  0  0  0  0  0  0  0  0  0  0
  149.2858  136.5619  154.5201 N   0  3  0  0  0  0  0  0  0  0  0  0
  149.6098  137.7869  155.2764 C   0  0  0  0  0  0  0  0  0  0  0  0
  150.9694  138.3652  154.8301 C   0  0  2  0  0  0  0  0  0  0  0  0
  151.7924  137.3024  154.3992 O   0  0  0  0  0  0  0  0  0  0  0  0
  151.7475  139.1520  155.9146 C   0  0  0  0  0  0  0  0  0  0  0  0
  151.1717  140.4625  156.2507 N   0  0  0  0  0  0  0  0  0  0  0  0
  150.2451  141.2047  155.5839 C   0  0  0  0  0  0  0  0  0  0  0  0
  150.0572  142.3552  156.2877 N   0  3  0  0  0  0  0  0  0  0  0  0
  150.8629  142.3412  157.4282 C   0  0  0  0  0  0  0  0  0  0  0  0
  151.0277  143.2811  158.4379 C   0  0  0  0  0  0  0  0  0  0  0  0
  151.9379  142.9643  159.4710 C   0  0  0  0  0  0  0  0  0  0  0  0
  152.1491  143.9747  160.5857 C   0  0  0  0  0  0  0  0  0  0  0  0
  152.6409  141.7314  159.4727 C   0  0  0  0  0  0  0  0  0  0  0  0
  153.6155  141.4010  160.5903 C   0  0  0  0  0  0  0  0  0  0  0  0
  152.4556  140.7856  158.4388 C   0  0  0  0  0  0  0  0  0  0  0  0
  151.5658  141.1204  157.4214 C   0  0  0  0  0  0  0  0  0  0  0  0
  149.3820  133.8291  154.9986 C   0  0  0  0  0  0  0  0  0  0  0  0
  151.8445  129.9437  155.0219 H   0  0  0  0  0  0  0  0  0  0  0  0
  150.5919  130.0460  153.7908 H   0  0  0  0  0  0  0  0  0  0  0  0
  150.1640  129.7195  155.4721 H   0  0  0  0  0  0  0  0  0  0  0  0
  150.9439  132.0129  156.1247 H   0  0  0  0  0  0  0  0  0  0  0  0
  151.5117  132.2848  154.5013 H   0  0  0  0  0  0  0  0  0  0  0  0
  149.9513  132.6190  152.6886 H   0  0  0  0  0  0  0  0  0  0  0  0
  149.1388  131.1195  153.0746 H   0  0  0  0  0  0  0  0  0  0  0  0
  147.6508  132.6926  151.8087 H   0  0  0  0  0  0  0  0  0  0  0  0
  146.9790  132.3110  153.3841 H   0  0  0  0  0  0  0  0  0  0  0  0
  147.2315  133.9670  155.1659 H   0  0  0  0  0  0  0  0  0  0  0  0
  147.2199  136.4024  154.1803 H   0  0  0  0  0  0  0  0  0  0  0  0
  147.6992  136.1825  155.8577 H   0  0  0  0  0  0  0  0  0  0  0  0
  150.0056  135.8735  154.6908 H   0  0  0  0  0  0  0  0  0  0  0  0
  148.8209  138.5309  155.1581 H   0  0  0  0  0  0  0  0  0  0  0  0
  149.6413  137.5187  156.3337 H   0  0  0  0  0  0  0  0  0  0  0  0
  150.8104  139.0014  153.9591 H   0  0  0  0  0  0  0  0  0  0  0  0
  152.0717  137.4710  153.5120 H   0  0  0  0  0  0  0  0  0  0  0  0
  151.7698  138.5776  156.8423 H   0  0  0  0  0  0  0  0  0  0  0  0
  152.7873  139.2991  155.6186 H   0  0  0  0  0  0  0  0  0  0  0  0
  149.7565  140.9362  154.6579 H   0  0  0  0  0  0  0  0  0  0  0  0
  150.4853  144.2156  158.4337 H   0  0  0  0  0  0  0  0  0  0  0  0
  153.1905  144.2952  160.6194 H   0  0  0  0  0  0  0  0  0  0  0  0
  151.8884  143.5407  161.5513 H   0  0  0  0  0  0  0  0  0  0  0  0
  151.5320  144.8623  160.4427 H   0  0  0  0  0  0  0  0  0  0  0  0
  154.0741  140.4225  160.4454 H   0  0  0  0  0  0  0  0  0  0  0  0
  153.1048  141.3896  161.5534 H   0  0  0  0  0  0  0  0  0  0  0  0
  154.4153  142.1405  160.6310 H   0  0  0  0  0  0  0  0  0  0  0  0
  152.9890  139.8464  158.4418 H   0  0  0  0  0  0  0  0  0  0  0  0
  149.5375  134.0040  156.0627 H   0  0  0  0  0  0  0  0  0  0  0  0
  150.1894  134.3438  154.4753 H   0  0  0  0  0  0  0  0  0  0  0  0
  149.2958  136.7985  153.5385 H   0  0  0  0  0  0  0  0  0  0  0  0
  149.4186  143.0908  156.0117 H   0  0  0  0  0  0  0  0  0  0  0  0
  1  2  1  0  0  0  0
  1 26  1  0  0  0  0
  1 27  1  0  0  0  0
  1 28  1  0  0  0  0
  2  3  1  0  0  0  0
  2 29  1  0  0  0  0
  2 30  1  0  0  0  0
  3 25  1  0  0  0  0
  3  4  1  0  0  0  0
  4  5  1  0  0  0  0
  4 31  1  0  0  0  0
  4 32  1  0  0  0  0
  5  6  1  0  0  0  0
  5 33  1  0  0  0  0
  5 34  1  0  0  0  0
  6  7  1  0  0  0  0
  7  8  1  0  0  0  0
  7 25  1  0  0  0  0
  7 35  1  0  0  0  0
  8  9  1  0  0  0  0
  8 36  1  0  0  0  0
  8 37  1  0  0  0  0
  9 10  1  0  0  0  0
  9 38  1  0  0  0  0
  9 56  1  0  0  0  0
 10 11  1  0  0  0  0
 10 39  1  0  0  0  0
 10 40  1  0  0  0  0
 11 12  1  0  0  0  0
 11 13  1  0  0  0  0
 11 41  1  0  0  0  0
 12 42  1  0  0  0  0
 13 14  1  0  0  0  0
 13 43  1  0  0  0  0
 13 44  1  0  0  0  0
 14 24  1  0  0  0  0
 14 15  1  0  0  0  0
 15 16  2  0  0  0  0
 15 45  1  0  0  0  0
 16 17  1  0  0  0  0
 16 57  1  0  0  0  0
 17 24  2  0  0  0  0
 17 18  1  0  0  0  0
 18 19  2  0  0  0  0
 18 46  1  0  0  0  0
 19 20  1  0  0  0  0
 19 21  1  0  0  0  0
 20 47  1  0  0  0  0
 20 48  1  0  0  0  0
 20 49  1  0  0  0  0
 21 22  1  0  0  0  0
 21 23  2  0  0  0  0
 22 50  1  0  0  0  0
 22 51  1  0  0  0  0
 22 52  1  0  0  0  0
 23 24  1  0  0  0  0
 23 53  1  0  0  0  0
 25 54  1  0  0  0  0
 25 55  1  0  0  0  0
M  CHG  1   9   1
M  CHG  1  16   1
M  END
> <s_m_source_file>
AV-unprocessed.smi

> <i_m_source_file_index>
1047

> <i_lp_mmshare_version>
43012

> <i_f3d_flags>
0

> <s_epik_input>
W0NIM11bQ0gyXU4xW0NIMl1bQ0gyXU9bQ0BIXShbQ0gyXTEpW0NIMl1bTkhdW0NIMl1bQ0BIXShbT0hdKVtDSDJdbihbY0hdbjIpYyhjMjMpW2NIXWMoW0NIM10pYyhbY0hdMylbQ0gzXQ==

> <s_epik_cmdline>
J2VwaWtfcHl0aG9uJywgJy1waCcsICc3LjAnLCAnLXRuJywgJzgnLCAnLW1hJywgJzIwMCcsICctbWV0YWxfYmluZGluZycsICctaW1hZScsICc8aW5maWxlLm1hZT4nLCAnLW9tYWUnLCAnPG91dGZpbGUubWFlPic=

> <r_epik_Ionization_Penalty>
1.75732

> <r_epik_Ionization_Penalty_Charging>
1.18089

> <r_epik_Ionization_Penalty_Neutral>
0.576429

> <r_epik_State_Penalty>
1.69377

> <r_epik_Charging_Adjusted_Penalty>
2.87466

> <i_epik_Tot_Q>
2

> <i_epik_Tot_abs_Q>
2

> <r_epik_Metal_State_Penalty>
5.70174

> <b_epik_Metal_Only>
0

> <s_lp_Force_Field>
OPLS_2005

> <r_lp_Energy>
41.9229

> <b_lp_Chiralities_Consistent>
1

> <s_lp_Variant>
AV-unprocessed.smi:1047-30

> <Gold.Version>
5.8.1

> <Gold.Id.Protein>
6NUR|6NUR_protein|mol2

> <Gold.PLP.Fitness>
61.0135

> <Gold.PLP.PLP>
-49.3521

> <Gold.PLP.part.hbond>
-3.1515

> <Gold.PLP.part.metal>
0.0000

> <Gold.PLP.part.buried>
-7.0340

> <Gold.PLP.part.nonpolar>
-40.5418

> <Gold.PLP.part.repulsive>
1.9237

> <Gold.PLP.ligand.clash>
0.0000

> <Gold.PLP.ligand.torsion>
1.0618

> <Gold.PLP.Chemscore.Hbond>
4.4970

> <Gold.PLP.Chemscore.CHOScore>
0.0000

> <Gold.PLP.Chemscore.Metal>
0.0000

> <Gold.Chemscore.Hbonds>
donor molecule, donor type, donor heavy atom, donor atom, acceptor molecule, acceptor atom, score
      L1  H     9    56       P1  7948  1.86
      L1  H    16    57       P1  8028  2.00
      P1  H 10752 10764       L1    12  0.55

> <Gold.PLP.Chemscore.Internal.Correction>
0.2940

> <Gold.Rescore>
     Score         DG    S(hbond)    S(metal)    S(lipo)     H(rot)  DE(clash)    DE(int)     intcor
     18.86     -20.09       2.02        0.00     126.14       2.69       0.07       1.16       ----

> <Gold.Chemscore.Fitness>
18.8570

> <Gold.Chemscore.DG>
-20.0915

> <Gold.Chemscore.ZeroCoef>
-5.4800

> <Gold.Chemscore.Hbond>
2.0193

> <Gold.Chemscore.Metal>
0.0000

> <Gold.Chemscore.Lipo>
126.1350

> <Gold.Chemscore.Internal_Hbond>
0.0000

> <Gold.Chemscore.DEClash>
0.0740

> <Gold.Chemscore.DEInternal>
1.1605

> <Gold.Chemscore.Rot>
2.6917

> <Gold.Chemscore.Internal.Correction>
   9.000000E+99

> <Gold.Chemscore.Hbonds>
donor molecule, donor type, donor heavy atom, donor atom, acceptor molecule, acceptor atom, score
      L1  H     9    56       P1  7948  0.86
      L1  H    16    57       P1  8028  0.99
      P1  H 10752 10764       L1    12  0.06

> <Gold.Chemscore.Hbond.Weighted>
-6.7444

> <Gold.Chemscore.Metal.Weighted>
-0.0000

> <Gold.Chemscore.Lipo.Weighted>
-14.7578

> <Gold.Chemscore.Internal_Hbond.Weighted>
0.0000

> <Gold.Chemscore.DEClash.Weighted>
0.0740

> <Gold.Chemscore.DEInternal.Weighted>
1.1605

> <Gold.Chemscore.Rot.Weighted>
6.8907

> <Gold.Chemscore.Internal.Correction.Weighted>
   9.000000E+99

> <Gold.Protein.RotatedTorsions>
[ 6907 6896 6895 6894 ] final   85.39 input  -60.11 | X-H torsion
[ 7974 7965 7964 7962 ] final   59.86 input  175.53 | X-H torsion
[ 8008 7997 7996 7995 ] final  -64.96 input   59.86 | X-H torsion
[ 10167 10162 10161 10158 ] final  137.73 input  -65.29 | X-H torsion
[ 10718 10713 10712 10709 ] final -127.64 input   66.30 | X-H torsion
[ 10763 10752 10751 10750 ] final  -58.49 input  -60.55 | X-H torsion
[ 11005 11000 10999 10996 ] final    2.57 input  -57.11 | X-H torsion

> <Gold.Protein.ActiveResidues>
 VAL166  LYS551  ARG553  GLY616  TRP617  ASP618  TYR619  PRO620  LYS621  CYS622 
 ASP623  PHE694  ASN695  SER759  ASP760  ASP761  ALA762  ILE779  LEU786  VAL792 
 PHE793  MET794  SER795  GLU796  ALA797  LYS798  CYS799  TRP800  GLU811  SER814 

> <Gold.Protein.RotatedAtoms>
  152.5373  134.2593  159.8928 H   0  0  0  0  0  0  0  0  0  0  0  0  # atno 6907 bound_to 6896
  151.2554  133.4322  159.2621 H   0  0  0  0  0  0  0  0  0  0  0  0  # atno 6908 bound_to 6896
  151.0501  134.9681  159.8263 H   0  0  0  0  0  0  0  0  0  0  0  0  # atno 6909 bound_to 6896
  145.9024  139.3591  143.0584 H   0  0  0  0  0  0  0  0  0  0  0  0  # atno 7974 bound_to 7965
  154.4643  140.0943  156.6977 H   0  0  0  0  0  0  0  0  0  0  0  0  # atno 8008 bound_to 7997
  155.4904  140.3470  155.4335 H   0  0  0  0  0  0  0  0  0  0  0  0  # atno 8009 bound_to 7997
  156.0927  140.1401  156.9559 H   0  0  0  0  0  0  0  0  0  0  0  0  # atno 8010 bound_to 7997
  139.5134  144.6393  151.5611 H   0  0  0  0  0  0  0  0  0  0  0  0  # atno 10167 bound_to 10162
  156.1876  130.6773  151.0383 H   0  0  0  0  0  0  0  0  0  0  0  0  # atno 10718 bound_to 10713
  154.2390  135.6347  153.5200 H   0  0  0  0  0  0  0  0  0  0  0  0  # atno 10763 bound_to 10752
  152.9934  135.5537  154.5931 H   0  0  0  0  0  0  0  0  0  0  0  0  # atno 10764 bound_to 10752
  154.5432  135.2896  155.1051 H   0  0  0  0  0  0  0  0  0  0  0  0  # atno 10765 bound_to 10752
  140.6028  133.9820  155.8140 H   0  0  0  0  0  0  0  0  0  0  0  0  # atno 11005 bound_to 11000
  145.8774  140.9383  143.0619 LP  0  0  0  0  0  0  0  0  0  0  0  0  # atno 17320 bound_to 7965
  144.6737  140.0734  143.7472 LP  0  0  0  0  0  0  0  0  0  0  0  0  # atno 17321 bound_to 7965
  140.6154  143.9358  150.6485 LP  0  0  0  0  0  0  0  0  0  0  0  0  # atno 17342 bound_to 10162
  140.2614  143.3521  152.1319 LP  0  0  0  0  0  0  0  0  0  0  0  0  # atno 17343 bound_to 10162
  157.6908  131.0810  150.7112 LP  0  0  0  0  0  0  0  0  0  0  0  0  # atno 17370 bound_to 10713
  156.7168  130.4668  149.5533 LP  0  0  0  0  0  0  0  0  0  0  0  0  # atno 17371 bound_to 10713
  141.0861  133.9989  157.3312 LP  0  0  0  0  0  0  0  0  0  0  0  0  # atno 17394 bound_to 11000
  139.9225  135.0201  156.8116 LP  0  0  0  0  0  0  0  0  0  0  0  0  # atno 17395 bound_to 11000

$$$$
