#       Name:                AV-unprocessed.smi:2633
#       Creating user name   scv26
#       Creation time:       Fri Mar 27 14:26:29 2020


#       File generated by GOLD software.
#

@<TRIPOS>MOLECULE
AV-unprocessed.smi:2633
    38    40     1
SMALL
NO_CHARGES


@<TRIPOS>ATOM
      1 ****        -4.2591   0.8852   1.4146 O.3            1 S1                 0.0000
      2 ****        -2.8586   0.8640   1.2512 C.3            1 S1                 0.0000
      3 ****        -2.3802  -0.5867   1.1025 C.3            1 S1                 0.0000
      4 ****        -0.9228  -0.6655   0.9393 N.pl3          1 S1                 0.0000
      5 ****        -0.1596  -0.7081  -0.1910 C.2            1 S1                 0.0000
      6 ****        -0.6487  -0.6767  -1.6059 C.3            1 S1                 0.0000
      7 ****         0.2952   0.0606  -2.5384 C.ar           1 S1                 0.0000
      8 ****         0.3172   1.4714  -2.5485 C.ar           1 S1                 0.0000
      9 ****         1.2009   2.1587  -3.4031 C.ar           1 S1                 0.0000
     10 ****         2.0645   1.4383  -4.2510 C.ar           1 S1                 0.0000
     11 ****         2.0441   0.0302  -4.2442 C.ar           1 S1                 0.0000
     12 ****         1.1611  -0.6582  -3.3896 C.ar           1 S1                 0.0000
     13 ****         1.1429  -0.7850   0.2086 N.pl3          1 S1                 1.0000
     14 ****         1.2138  -0.7732   1.6016 C.ar           1 S1                 0.0000
     15 ****         2.3084  -0.8214   2.4594 C.ar           1 S1                 0.0000
     16 ****         2.0305  -0.7851   3.8416 C.ar           1 S1                 0.0000
     17 ****         0.7075  -0.7045   4.3230 C.ar           1 S1                 0.0000
     18 ****        -0.3941  -0.6572   3.4432 C.ar           1 S1                 0.0000
     19 ****        -0.1104  -0.6942   2.0783 C.ar           1 S1                 0.0000
     20 ****        -4.5397   1.7837   1.5022 H              1 S1                 0.0000
     21 ****        -2.5929   1.4495   0.3703 H              1 S1                 0.0000
     22 ****        -2.3940   1.3406   2.1147 H              1 S1                 0.0000
     23 ****        -2.6721  -1.1904   1.9625 H              1 S1                 0.0000
     24 ****        -2.8406  -1.0530   0.2309 H              1 S1                 0.0000
     25 ****        -0.7938  -1.7006  -1.9521 H              1 S1                 0.0000
     26 ****        -1.6249  -0.1922  -1.6450 H              1 S1                 0.0000
     27 ****        -0.3410   2.0291  -1.8980 H              1 S1                 0.0000
     28 ****         1.2167   3.2388  -3.4076 H              1 S1                 0.0000
     29 ****         2.7422   1.9655  -4.9063 H              1 S1                 0.0000
     30 ****         2.7068  -0.5224  -4.8939 H              1 S1                 0.0000
     31 ****         1.1532  -1.7385  -3.3887 H              1 S1                 0.0000
     32 ****         3.3227  -0.8811   2.0929 H              1 S1                 0.0000
     33 ****         2.8487  -0.8186   4.5465 H              1 S1                 0.0000
     34 ****         0.5334  -0.6779   5.3890 H              1 S1                 0.0000
     35 ****        -1.4034  -0.5930   3.8220 H              1 S1                 0.0000
     36 ****         1.9253  -0.8311  -0.4317 H              1 S1                 0.0000
     37 ****        -4.5101   0.3725   2.2357 LP             1 S1                 0.0000
     38 ****        -4.6975   0.4718   0.6165 LP             1 S1                 0.0000
@<TRIPOS>BOND
    1    1    2 1     
    2    1   20 1     
    3    2    3 1     
    4    2   21 1     
    5    2   22 1     
    6    3    4 1     
    7    3   23 1     
    8    3   24 1     
    9    4   19 1     
   10    4    5 1     
   11    5    6 1     
   12    5   13 2     
   13    6    7 1     
   14    6   25 1     
   15    6   26 1     
   16    7   12 ar    
   17    7    8 ar    
   18    8    9 ar    
   19    8   27 1     
   20    9   10 ar    
   21    9   28 1     
   22   10   11 ar    
   23   10   29 1     
   24   11   12 ar    
   25   11   30 1     
   26   12   31 1     
   27   13   14 1     
   28   13   36 1     
   29   14   19 ar    
   30   14   15 ar    
   31   15   16 ar    
   32   15   32 1     
   33   16   17 ar    
   34   16   33 1     
   35   17   18 ar    
   36   17   34 1     
   37   18   19 ar    
   38   18   35 1     
   39    1   37 1     
   40    1   38 1     
@<TRIPOS>SUBSTRUCTURE
      1 S1             1
@<TRIPOS>SET
LONE_PAIRS      STATIC     ATOMS    <user>   **** ""
2 37 38
DONOR_HYDROGENS      STATIC     ATOMS    <user>   **** ""
2 20 36
ATOM$BLUE        STATIC     ATOMS    COLORGROUP SYSTEM
2 37 38
ATOM$RED        STATIC     ATOMS    COLORGROUP SYSTEM
2 20 36
