#       Name:                AV-unprocessed.smi:1480
#       Creating user name   scv26
#       Creation time:       Fri Mar 27 06:08:01 2020


#       File generated by GOLD software.
#

@<TRIPOS>MOLECULE
AV-unprocessed.smi:1480
    44    45     1
SMALL
NO_CHARGES


@<TRIPOS>ATOM
      1 ****        -5.8946   1.2999   0.8425 C.3            1 S1                 0.0000
      2 ****        -4.4497   1.2304   0.6174 N.am           1 S1                 0.0000
      3 ****        -3.6966   0.4831   1.6347 C.3            1 S1                 0.0000
      4 ****        -2.1889   0.7656   1.6137 C.3            1 S1                 0.0000
      5 ****        -1.6558   0.6751   0.1781 C.3            1 S1                 0.0000
      6 ****        -0.1364   0.8965   0.1453 C.2            1 S1                 0.0000
      7 ****         0.3373   1.9381   0.5993 O.2            1 S1                 0.0000
      8 ****         0.5884  -0.1020  -0.3923 N.am           1 S1                 0.0000
      9 ****         1.9938  -0.1800  -0.5720 C.2            1 S1                 0.0000
     10 ****         2.9455   0.8245  -0.2212 C.2            1 S1                 0.0000
     11 ****         4.1364   0.2728  -0.5985 C.2            1 S1                 0.0000
     12 ****         3.8682  -0.9727  -1.1303 N.pl3          1 S1                 0.0000
     13 ****         4.8053  -1.9420  -1.6698 C.3            1 S1                 0.0000
     14 ****         5.5321  -2.6896  -0.5509 C.2            1 S1                 0.0000
     15 ****         4.8954  -3.7234   0.0055 N.am           1 S1                 0.0000
     16 ****         6.6545  -2.3384  -0.1940 O.2            1 S1                 0.0000
     17 ****         2.5459  -1.2522  -1.1143 N.2            1 S1                 0.0000
     18 ****        -2.3828   1.7048  -0.7106 C.3            1 S1                 0.0000
     19 ****        -3.9066   1.7552  -0.5078 C.2            1 S1                 0.0000
     20 ****        -4.5867   2.3062  -1.3739 O.2            1 S1                 0.0000
     21 ****        -6.4337   0.8043   0.0338 H              1 S1                 0.0000
     22 ****        -6.2266   2.3380   0.8881 H              1 S1                 0.0000
     23 ****        -6.1922   0.8176   1.7742 H              1 S1                 0.0000
     24 ****        -4.0836   0.7067   2.6299 H              1 S1                 0.0000
     25 ****        -3.8702  -0.5804   1.4650 H              1 S1                 0.0000
     26 ****        -2.0024   1.7599   2.0237 H              1 S1                 0.0000
     27 ****        -1.6730   0.0581   2.2645 H              1 S1                 0.0000
     28 ****        -1.8707  -0.3246  -0.2050 H              1 S1                 0.0000
     29 ****         0.0681  -0.9036  -0.7179 H              1 S1                 0.0000
     30 ****         2.7991   1.7936   0.2307 H              1 S1                 0.0000
     31 ****         5.1435   0.6577  -0.5330 H              1 S1                 0.0000
     32 ****         4.2771  -2.6465  -2.3147 H              1 S1                 0.0000
     33 ****         5.5287  -1.4167  -2.2948 H              1 S1                 0.0000
     34 ****         5.3390  -4.2506   0.7437 H              1 S1                 0.0000
     35 ****         3.9737  -3.9778  -0.3193 H              1 S1                 0.0000
     36 ****        -2.0051   2.7102  -0.5183 H              1 S1                 0.0000
     37 ****        -2.1754   1.4948  -1.7608 H              1 S1                 0.0000
     38 ****        -0.2665   2.6347   0.9868 LP             1 S1                 0.0000
     39 ****         1.3259   2.0876   0.5805 LP             1 S1                 0.0000
     40 ****         7.0987  -1.5590  -0.6359 LP             1 S1                 0.0000
     41 ****         7.1236  -2.8320   0.5383 LP             1 S1                 0.0000
     42 ****         2.0894  -2.0807  -1.4386 LP             1 S1                 0.0000
     43 ****        -5.5776   2.3787  -1.2606 LP             1 S1                 0.0000
     44 ****        -4.1481   2.6812  -2.1907 LP             1 S1                 0.0000
@<TRIPOS>BOND
    1    1    2 1     
    2    1   21 1     
    3    1   22 1     
    4    1   23 1     
    5    2   19 am    
    6    2    3 1     
    7    3    4 1     
    8    3   24 1     
    9    3   25 1     
   10    4    5 1     
   11    4   26 1     
   12    4   27 1     
   13    5    6 1     
   14    5   18 1     
   15    5   28 1     
   16    6    7 2     
   17    6    8 am    
   18    8    9 1     
   19    8   29 1     
   20    9   17 2     
   21    9   10 1     
   22   10   11 2     
   23   10   30 1     
   24   11   12 1     
   25   11   31 1     
   26   12   13 1     
   27   12   17 1     
   28   13   14 1     
   29   13   32 1     
   30   13   33 1     
   31   14   15 am    
   32   14   16 2     
   33   15   34 1     
   34   15   35 1     
   35   18   19 1     
   36   18   36 1     
   37   18   37 1     
   38   19   20 2     
   39    7   38 1     
   40    7   39 1     
   41   16   40 1     
   42   16   41 1     
   43   17   42 1     
   44   20   43 1     
   45   20   44 1     
@<TRIPOS>SUBSTRUCTURE
      1 S1             1
@<TRIPOS>SET
LONE_PAIRS      STATIC     ATOMS    <user>   **** ""
7 38 39 40 41 42 43 44
DONOR_HYDROGENS      STATIC     ATOMS    <user>   **** ""
3 29 34 35
ATOM$BLUE        STATIC     ATOMS    COLORGROUP SYSTEM
7 38 39 40 41 42 43 44
ATOM$RED        STATIC     ATOMS    COLORGROUP SYSTEM
3 29 34 35
