AV-unprocessed.smi:1815|AV-procd|sdf|7356|dock6
  -GOLD-   22720 9 13D 1   1.00000     0.00000
 Structure written by MMmdl.
 40 41  0  0  0  0  0  0  0  0  2 V2000
  151.7353  137.7499  155.6406 C   0  0  0  0  0  0  0  0  0  0  0  0
  151.0814  138.6295  154.5601 C   0  0  1  0  0  0  0  0  0  0  0  0
  149.5980  138.2949  154.3089 C   0  0  0  0  0  0  0  0  0  0  0  0
  148.7416  138.7798  155.4175 N   0  3  2  0  0  0  0  0  0  0  0  0
  147.3171  138.4086  155.2306 C   0  0  0  0  0  0  0  0  0  0  0  0
  146.8329  138.6285  153.7844 C   0  0  0  0  0  0  0  0  0  0  0  0
  146.9362  137.4062  152.9958 N   0  0  0  0  0  0  0  0  0  0  0  0
  145.9077  136.5950  152.7093 C   0  0  0  0  0  0  0  0  0  0  0  0
  144.7566  136.8031  153.0947 O   0  0  0  0  0  0  0  0  0  0  0  0
  146.3021  135.5471  151.9649 N   0  0  0  0  0  0  0  0  0  0  0  0
  145.5104  134.4795  151.4653 C   0  0  0  0  0  0  0  0  0  0  0  0
  144.1730  134.4499  151.5041 N   0  0  0  0  0  0  0  0  0  0  0  0
  143.6579  133.2797  150.9407 C   0  0  0  0  0  0  0  0  0  0  0  0
  144.6243  132.4226  150.4762 C   0  0  0  0  0  0  0  0  0  0  0  0
  146.2294  133.0558  150.7273 S   0  0  0  0  0  0  0  0  0  0  0  0
  148.9595  140.2298  155.6375 C   0  0  0  0  0  0  0  0  0  0  0  0
  150.4472  140.5115  155.9143 C   0  0  2  0  0  0  0  0  0  0  0  0
  150.7304  142.0104  156.0645 C   0  0  0  0  0  0  0  0  0  0  0  0
  151.2334  140.0229  154.8307 O   0  0  0  0  0  0  0  0  0  0  0  0
  151.7273  136.7015  155.3411 H   0  0  0  0  0  0  0  0  0  0  0  0
  151.2196  137.8161  156.5982 H   0  0  0  0  0  0  0  0  0  0  0  0
  152.7747  138.0378  155.7991 H   0  0  0  0  0  0  0  0  0  0  0  0
  151.6241  138.4423  153.6330 H   0  0  0  0  0  0  0  0  0  0  0  0
  149.2696  138.7604  153.3782 H   0  0  0  0  0  0  0  0  0  0  0  0
  149.4783  137.2180  154.1813 H   0  0  0  0  0  0  0  0  0  0  0  0
  147.1598  137.3735  155.5379 H   0  0  0  0  0  0  0  0  0  0  0  0
  146.7091  139.0233  155.8961 H   0  0  0  0  0  0  0  0  0  0  0  0
  145.8042  138.9930  153.7752 H   0  0  0  0  0  0  0  0  0  0  0  0
  147.4357  139.3855  153.2842 H   0  0  0  0  0  0  0  0  0  0  0  0
  147.8501  137.1651  152.6403 H   0  0  0  0  0  0  0  0  0  0  0  0
  147.2819  135.5073  151.7262 H   0  0  0  0  0  0  0  0  0  0  0  0
  142.5876  133.1382  150.9116 H   0  0  0  0  0  0  0  0  0  0  0  0
  144.4894  131.4613  150.0028 H   0  0  0  0  0  0  0  0  0  0  0  0
  148.6243  140.7869  154.7608 H   0  0  0  0  0  0  0  0  0  0  0  0
  148.3685  140.5796  156.4830 H   0  0  0  0  0  0  0  0  0  0  0  0
  150.7469  140.0182  156.8393 H   0  0  0  0  0  0  0  0  0  0  0  0
  150.1563  142.4385  156.8866 H   0  0  0  0  0  0  0  0  0  0  0  0
  150.4716  142.5550  155.1559 H   0  0  0  0  0  0  0  0  0  0  0  0
  151.7864  142.1883  156.2695 H   0  0  0  0  0  0  0  0  0  0  0  0
  149.0565  138.3013  156.2497 H   0  0  0  0  0  0  0  0  0  0  0  0
  1  2  1  0  0  0  0
  1 20  1  0  0  0  0
  1 21  1  0  0  0  0
  1 22  1  0  0  0  0
  2 19  1  0  0  0  0
  2  3  1  0  0  0  0
  2 23  1  0  0  0  0
  3  4  1  0  0  0  0
  3 24  1  0  0  0  0
  3 25  1  0  0  0  0
  4  5  1  0  0  0  0
  4 16  1  0  0  0  0
  4 40  1  0  0  0  0
  5  6  1  0  0  0  0
  5 26  1  0  0  0  0
  5 27  1  0  0  0  0
  6  7  1  0  0  0  0
  6 28  1  0  0  0  0
  6 29  1  0  0  0  0
  7  8  1  0  0  0  0
  7 30  1  0  0  0  0
  8  9  2  0  0  0  0
  8 10  1  0  0  0  0
 10 11  1  0  0  0  0
 10 31  1  0  0  0  0
 11 15  1  0  0  0  0
 11 12  2  0  0  0  0
 12 13  1  0  0  0  0
 13 14  2  0  0  0  0
 13 32  1  0  0  0  0
 14 15  1  0  0  0  0
 14 33  1  0  0  0  0
 16 17  1  0  0  0  0
 16 34  1  0  0  0  0
 16 35  1  0  0  0  0
 17 18  1  0  0  0  0
 17 19  1  0  0  0  0
 17 36  1  0  0  0  0
 18 37  1  0  0  0  0
 18 38  1  0  0  0  0
 18 39  1  0  0  0  0
M  CHG  1   4   1
M  END
> <s_m_source_file>
AV-unprocessed.smi

> <i_m_source_file_index>
1815

> <i_lp_mmshare_version>
43012

> <i_f3d_flags>
0

> <s_epik_input>
W0NIM11bQ0BASF0xW0NIMl1OKFtDSDJdW0NASF0oTzEpW0NIM10pW0NIMl1bQ0gyXVtOSF1DKD1PKVtOSF1jMm5bY0hdW2NIXXMy

> <s_epik_cmdline>
J2VwaWtfcHl0aG9uJywgJy1waCcsICc3LjAnLCAnLXRuJywgJzgnLCAnLW1hJywgJzIwMCcsICctbWV0YWxfYmluZGluZycsICctaW1hZScsICc8aW5maWxlLm1hZT4nLCAnLW9tYWUnLCAnPG91dGZpbGUubWFlPic=

> <r_lp_tautomer_probability>
0.999

> <r_epik_Ionization_Penalty>
0.695838

> <r_epik_Ionization_Penalty_Charging>
0.695697

> <r_epik_Ionization_Penalty_Neutral>
0.000141198

> <r_epik_State_Penalty>
0.717972

> <r_epik_Charging_Adjusted_Penalty>
1.41367

> <i_epik_Tot_Q>
1

> <i_epik_Tot_abs_Q>
1

> <r_epik_Metal_State_Penalty>
0.756405

> <b_epik_Metal_Only>
0

> <s_lp_Force_Field>
OPLS_2005

> <r_lp_Energy>
15.0285

> <b_lp_Chiralities_Consistent>
1

> <s_lp_Variant>
AV-unprocessed.smi:1815-7

> <Gold.Version>
5.8.1

> <Gold.Id.Protein>
6NUR|6NUR_protein|mol2

> <Gold.PLP.Fitness>
39.1071

> <Gold.PLP.PLP>
-28.2311

> <Gold.PLP.part.hbond>
-2.9721

> <Gold.PLP.part.metal>
0.0000

> <Gold.PLP.part.buried>
-5.1111

> <Gold.PLP.part.nonpolar>
-21.5204

> <Gold.PLP.part.repulsive>
0.4557

> <Gold.PLP.ligand.clash>
0.0000

> <Gold.PLP.ligand.torsion>
0.5662

> <Gold.PLP.Chemscore.Hbond>
3.0000

> <Gold.PLP.Chemscore.CHOScore>
0.9931

> <Gold.PLP.Chemscore.Metal>
0.0000

> <Gold.Chemscore.Hbonds>
donor molecule, donor type, donor heavy atom, donor atom, acceptor molecule, acceptor atom, score
      L1  H     7    30       P1  7948  1.00
      L1  H    10    31       P1  7948  1.00
      P1  H  7989  7998       L1    19  1.00
      L1  C    13    32       P1 10186  0.93

> <Gold.PLP.Chemscore.Internal.Correction>
0.0291

> <Gold.Rescore>
     Score         DG    S(hbond)    S(metal)    S(lipo)     H(rot)  DE(clash)    DE(int)     intcor
     16.70     -18.70       2.81        0.00      68.71       1.64       0.18       1.82       ----

> <Gold.Chemscore.Fitness>
16.6992

> <Gold.Chemscore.DG>
-18.7029

> <Gold.Chemscore.ZeroCoef>
-5.4800

> <Gold.Chemscore.Hbond>
2.8079

> <Gold.Chemscore.Metal>
0.0000

> <Gold.Chemscore.Lipo>
68.7101

> <Gold.Chemscore.Internal_Hbond>
0.0000

> <Gold.Chemscore.DEClash>
0.1816

> <Gold.Chemscore.DEInternal>
1.8220

> <Gold.Chemscore.Rot>
1.6385

> <Gold.Chemscore.Internal.Correction>
   9.000000E+99

> <Gold.Chemscore.Hbonds>
donor molecule, donor type, donor heavy atom, donor atom, acceptor molecule, acceptor atom, score
      L1  H     7    30       P1  7948  0.98
      L1  H    10    31       P1  7948  0.95
      P1  H  7989  7998       L1    19  0.81

> <Gold.Chemscore.Hbond.Weighted>
-9.3783

> <Gold.Chemscore.Metal.Weighted>
-0.0000

> <Gold.Chemscore.Lipo.Weighted>
-8.0391

> <Gold.Chemscore.Internal_Hbond.Weighted>
0.0000

> <Gold.Chemscore.DEClash.Weighted>
0.1816

> <Gold.Chemscore.DEInternal.Weighted>
1.8220

> <Gold.Chemscore.Rot.Weighted>
4.1945

> <Gold.Chemscore.Internal.Correction.Weighted>
   9.000000E+99

> <Gold.Protein.RotatedTorsions>
[ 6907 6896 6895 6894 ] final   27.17 input  -60.11 | X-H torsion
[ 7974 7965 7964 7962 ] final  110.81 input  175.53 | X-H torsion
[ 8008 7997 7996 7995 ] final   -4.80 input   59.86 | X-H torsion
[ 10167 10162 10161 10158 ] final   27.00 input  -65.29 | X-H torsion
[ 10718 10713 10712 10709 ] final  -87.63 input   66.30 | X-H torsion
[ 10763 10752 10751 10750 ] final   91.87 input  -60.55 | X-H torsion
[ 11005 11000 10999 10996 ] final   26.19 input  -57.11 | X-H torsion

> <Gold.Protein.ActiveResidues>
 VAL166  LYS551  ARG553  GLY616  TRP617  ASP618  TYR619  PRO620  LYS621  CYS622 
 ASP623  PHE694  ASN695  SER759  ASP760  ASP761  ALA762  ILE779  LEU786  VAL792 
 PHE793  MET794  SER795  GLU796  ALA797  LYS798  CYS799  TRP800  GLU811  SER814 

> <Gold.Protein.RotatedAtoms>
  151.9983  134.9942  160.0563 H   0  0  0  0  0  0  0  0  0  0  0  0  # atno 6907 bound_to 6896
  152.1543  133.4537  159.4837 H   0  0  0  0  0  0  0  0  0  0  0  0  # atno 6908 bound_to 6896
  150.6879  134.2068  159.4387 H   0  0  0  0  0  0  0  0  0  0  0  0  # atno 6909 bound_to 6896
  145.2502  139.2743  143.4071 H   0  0  0  0  0  0  0  0  0  0  0  0  # atno 7974 bound_to 7965
  154.6106  140.2475  155.7674 H   0  0  0  0  0  0  0  0  0  0  0  0  # atno 8008 bound_to 7997
  156.2368  140.2947  156.0284 H   0  0  0  0  0  0  0  0  0  0  0  0  # atno 8009 bound_to 7997
  155.2059  140.0396  157.2916 H   0  0  0  0  0  0  0  0  0  0  0  0  # atno 8010 bound_to 7997
  140.4975  144.0368  150.6320 H   0  0  0  0  0  0  0  0  0  0  0  0  # atno 10167 bound_to 10162
  155.9985  130.4806  150.4896 H   0  0  0  0  0  0  0  0  0  0  0  0  # atno 10718 bound_to 10713
  153.2129  135.4382  155.0400 H   0  0  0  0  0  0  0  0  0  0  0  0  # atno 10763 bound_to 10752
  154.8210  135.3337  154.7042 H   0  0  0  0  0  0  0  0  0  0  0  0  # atno 10764 bound_to 10752
  153.7478  135.7000  153.5008 H   0  0  0  0  0  0  0  0  0  0  0  0  # atno 10765 bound_to 10752
  140.3398  134.2346  155.7691 H   0  0  0  0  0  0  0  0  0  0  0  0  # atno 11005 bound_to 11000
  146.3305  140.2890  142.8614 LP  0  0  0  0  0  0  0  0  0  0  0  0  # atno 17320 bound_to 7965
  144.9510  140.8178  143.5572 LP  0  0  0  0  0  0  0  0  0  0  0  0  # atno 17321 bound_to 7965
  140.3655  143.2884  152.0337 LP  0  0  0  0  0  0  0  0  0  0  0  0  # atno 17342 bound_to 10162
  139.4864  144.6270  151.7144 LP  0  0  0  0  0  0  0  0  0  0  0  0  # atno 17343 bound_to 10162
  157.2892  131.0623  151.2145 LP  0  0  0  0  0  0  0  0  0  0  0  0  # atno 17370 bound_to 10713
  157.3164  130.6915  149.6244 LP  0  0  0  0  0  0  0  0  0  0  0  0  # atno 17371 bound_to 10713
  141.2041  133.7893  157.0302 LP  0  0  0  0  0  0  0  0  0  0  0  0  # atno 17394 bound_to 11000
  140.0791  134.9658  157.1594 LP  0  0  0  0  0  0  0  0  0  0  0  0  # atno 17395 bound_to 11000

$$$$
