AV-unprocessed.smi:2750|AV-procd|sdf|10593|dock7
  -GOLD-   2272015 43D 1   1.00000     0.00000
 Structure written by MMmdl.
 24 25  0  0  0  0  0  0  0  0  3 V2000
  146.7756  137.4678  160.1347 O   0  0  0  0  0  0  0  0  0  0  0  0
  147.8088  136.8280  160.4305 C   0  0  0  0  0  0  0  0  0  0  0  0
  148.2584  136.6636  161.5861 O   0  5  0  0  0  0  0  0  0  0  0  0
  148.5811  136.1780  159.2823 C   0  0  0  0  0  0  0  0  0  0  0  0
  149.3548  137.1447  158.5245 N   0  0  0  0  0  0  0  0  0  0  0  0
  150.6154  137.0016  157.9824 C   0  0  0  0  0  0  0  0  0  0  0  0
  150.8407  138.2053  157.3770 C   0  0  0  0  0  0  0  0  0  0  0  0
  152.0459  138.6629  156.6075 C   0  0  0  0  0  0  0  0  0  0  0  0
  151.7653  138.8882  155.1047 C   0  0  2  0  0  0  0  0  0  0  0  0
  150.8076  139.9590  154.8811 N   0  5  0  0  0  0  0  0  0  0  0  0
  149.7515  139.4577  154.1997 C   0  0  0  0  0  0  0  0  0  0  0  0
  148.7492  140.0579  153.8184 O   0  0  0  0  0  0  0  0  0  0  0  0
  149.9154  138.1513  153.9679 N   0  0  0  0  0  0  0  0  0  0  0  0
  151.0620  137.7036  154.4696 C   0  0  0  0  0  0  0  0  0  0  0  0
  151.4923  136.5513  154.4355 O   0  0  0  0  0  0  0  0  0  0  0  0
  149.7249  139.0192  157.5746 N   0  0  0  0  0  0  0  0  0  0  0  0
  148.8421  138.3726  158.2692 N   0  0  0  0  0  0  0  0  0  0  0  0
  149.2606  135.4230  159.6798 H   0  0  0  0  0  0  0  0  0  0  0  0
  147.8913  135.6613  158.6128 H   0  0  0  0  0  0  0  0  0  0  0  0
  151.2080  136.1037  158.0737 H   0  0  0  0  0  0  0  0  0  0  0  0
  152.4088  139.5921  157.0491 H   0  0  0  0  0  0  0  0  0  0  0  0
  152.8606  137.9475  156.7326 H   0  0  0  0  0  0  0  0  0  0  0  0
  152.7041  139.0482  154.5722 H   0  0  0  0  0  0  0  0  0  0  0  0
  149.2455  137.5751  153.4809 H   0  0  0  0  0  0  0  0  0  0  0  0
  1  2  2  0  0  0  0
  2  3  1  0  0  0  0
  2  4  1  0  0  0  0
  4  5  1  0  0  0  0
  4 18  1  0  0  0  0
  4 19  1  0  0  0  0
  5 17  1  0  0  0  0
  5  6  1  0  0  0  0
  6  7  2  0  0  0  0
  6 20  1  0  0  0  0
  7  8  1  0  0  0  0
  7 16  1  0  0  0  0
  8  9  1  0  0  0  0
  8 21  1  0  0  0  0
  8 22  1  0  0  0  0
  9 14  1  0  0  0  0
  9 10  1  0  0  0  0
  9 23  1  0  0  0  0
 10 11  1  0  0  0  0
 11 12  2  0  0  0  0
 11 13  1  0  0  0  0
 13 14  1  0  0  0  0
 13 24  1  0  0  0  0
 14 15  2  0  0  0  0
 16 17  2  0  0  0  0
M  CHG  1   3  -1
M  CHG  1  10  -1
M  END
> <s_m_source_file>
AV-unprocessed.smi

> <i_m_source_file_index>
2750

> <i_lp_mmshare_version>
43012

> <i_f3d_flags>
0

> <s_epik_input>
Tz1DKFtPSF0pW0NIMl1uMVtjSF1jKG5uMSlbQ0gyXVtDQEBIXTJbTkhdQyg9TylbTkhdQzI9Tw==

> <s_epik_cmdline>
J2VwaWtfcHl0aG9uJywgJy1waCcsICc3LjAnLCAnLXRuJywgJzgnLCAnLW1hJywgJzIwMCcsICctbWV0YWxfYmluZGluZycsICctaW1hZScsICc8aW5maWxlLm1hZT4nLCAnLW9tYWUnLCAnPG91dGZpbGUubWFlPic=

> <r_lp_tautomer_probability>
1

> <r_epik_Ionization_Penalty>
5.10791

> <r_epik_Ionization_Penalty_Charging>
5.10788

> <r_epik_Ionization_Penalty_Neutral>
2.55687e-05

> <r_epik_State_Penalty>
5.12334

> <r_epik_Charging_Adjusted_Penalty>
10.2312

> <i_epik_Tot_Q>
-2

> <i_epik_Tot_abs_Q>
2

> <r_epik_Metal_State_Penalty>
1.50935

> <b_epik_Metal_Only>
1

> <s_lp_Force_Field>
OPLS_2005

> <r_lp_Energy>
16.0951

> <b_lp_Chiralities_Consistent>
1

> <s_lp_Variant>
AV-unprocessed.smi:2750-5

> <Gold.Version>
5.8.1

> <Gold.Id.Protein>
6NUR|6NUR_protein|mol2

> <Gold.PLP.Fitness>
41.1615

> <Gold.PLP.PLP>
-21.5529

> <Gold.PLP.part.hbond>
-5.0000

> <Gold.PLP.part.metal>
0.0000

> <Gold.PLP.part.buried>
-5.0661

> <Gold.PLP.part.nonpolar>
-14.9125

> <Gold.PLP.part.repulsive>
3.0480

> <Gold.PLP.ligand.clash>
0.0000

> <Gold.PLP.ligand.torsion>
0.5814

> <Gold.PLP.Chemscore.Hbond>
6.9199

> <Gold.PLP.Chemscore.CHOScore>
0.0000

> <Gold.PLP.Chemscore.Metal>
0.0000

> <Gold.Chemscore.Hbonds>
donor molecule, donor type, donor heavy atom, donor atom, acceptor molecule, acceptor atom, score
      L1  H    13    24       P1  7948  0.73
      P1  H  6931  6943       L1     3  2.00
      P1  H  6934  6947       L1     1  2.00
      P1  H  7989  7998       L1    10  0.95
      P1  H 10752 10765       L1    15  1.00

> <Gold.PLP.Chemscore.Internal.Correction>
0.0117

> <Gold.Rescore>
     Score         DG    S(hbond)    S(metal)    S(lipo)     H(rot)  DE(clash)    DE(int)     intcor
      7.58     -11.54       3.11        0.00      24.29       2.80       1.62       2.35       ----

> <Gold.Chemscore.Fitness>
7.5751

> <Gold.Chemscore.DG>
-11.5412

> <Gold.Chemscore.ZeroCoef>
-5.4800

> <Gold.Chemscore.Hbond>
3.1079

> <Gold.Chemscore.Metal>
0.0000

> <Gold.Chemscore.Lipo>
24.2896

> <Gold.Chemscore.Internal_Hbond>
0.0000

> <Gold.Chemscore.DEClash>
1.6179

> <Gold.Chemscore.DEInternal>
2.3482

> <Gold.Chemscore.Rot>
2.7973

> <Gold.Chemscore.Internal.Correction>
   9.000000E+99

> <Gold.Chemscore.Hbonds>
donor molecule, donor type, donor heavy atom, donor atom, acceptor molecule, acceptor atom, score
      L1  H    13    24       P1  7948  0.69
      P1  H  6931  6943       L1     3  0.35
      P1  H  6934  6947       L1     1  0.26
      P1  H  7989  7998       L1    10  0.06
      P1  H 10752 10765       L1    15  1.00

> <Gold.Chemscore.Hbond.Weighted>
-10.3805

> <Gold.Chemscore.Metal.Weighted>
-0.0000

> <Gold.Chemscore.Lipo.Weighted>
-2.8419

> <Gold.Chemscore.Internal_Hbond.Weighted>
0.0000

> <Gold.Chemscore.DEClash.Weighted>
1.6179

> <Gold.Chemscore.DEInternal.Weighted>
2.3482

> <Gold.Chemscore.Rot.Weighted>
7.1611

> <Gold.Chemscore.Internal.Correction.Weighted>
   9.000000E+99

> <Gold.Protein.RotatedTorsions>
[ 6907 6896 6895 6894 ] final  -37.48 input  -60.11 | X-H torsion
[ 7974 7965 7964 7962 ] final  -74.25 input  175.53 | X-H torsion
[ 8008 7997 7996 7995 ] final   33.37 input   59.86 | X-H torsion
[ 10167 10162 10161 10158 ] final   84.26 input  -65.29 | X-H torsion
[ 10718 10713 10712 10709 ] final   -5.79 input   66.30 | X-H torsion
[ 10763 10752 10751 10750 ] final  169.46 input  -60.55 | X-H torsion
[ 11005 11000 10999 10996 ] final  -70.90 input  -57.11 | X-H torsion

> <Gold.Protein.ActiveResidues>
 VAL166  LYS551  ARG553  GLY616  TRP617  ASP618  TYR619  PRO620  LYS621  CYS622 
 ASP623  PHE694  ASN695  SER759  ASP760  ASP761  ALA762  ILE779  LEU786  VAL792 
 PHE793  MET794  SER795  GLU796  ALA797  LYS798  CYS799  TRP800  GLU811  SER814 

> <Gold.Protein.RotatedAtoms>
  151.0142  134.9420  159.8023 H   0  0  0  0  0  0  0  0  0  0  0  0  # atno 6907 bound_to 6896
  152.5310  134.2988  159.9081 H   0  0  0  0  0  0  0  0  0  0  0  0  # atno 6908 bound_to 6896
  151.2995  133.4087  159.2673 H   0  0  0  0  0  0  0  0  0  0  0  0  # atno 6909 bound_to 6896
  145.6416  140.9309  143.1033 H   0  0  0  0  0  0  0  0  0  0  0  0  # atno 7974 bound_to 7965
  155.1375  140.3263  155.4460 H   0  0  0  0  0  0  0  0  0  0  0  0  # atno 8008 bound_to 7997
  156.2615  140.1999  156.6441 H   0  0  0  0  0  0  0  0  0  0  0  0  # atno 8009 bound_to 7997
  154.6567  140.0552  157.0003 H   0  0  0  0  0  0  0  0  0  0  0  0  # atno 8010 bound_to 7997
  139.9098  144.6279  150.8549 H   0  0  0  0  0  0  0  0  0  0  0  0  # atno 10167 bound_to 10162
  156.7414  130.5211  149.5823 H   0  0  0  0  0  0  0  0  0  0  0  0  # atno 10718 bound_to 10713
  154.3835  135.2753  155.2197 H   0  0  0  0  0  0  0  0  0  0  0  0  # atno 10763 bound_to 10752
  154.4294  135.5981  153.6062 H   0  0  0  0  0  0  0  0  0  0  0  0  # atno 10764 bound_to 10752
  152.9834  135.5992  154.4081 H   0  0  0  0  0  0  0  0  0  0  0  0  # atno 10765 bound_to 10752
  141.1583  133.6802  156.6824 H   0  0  0  0  0  0  0  0  0  0  0  0  # atno 11005 bound_to 11000
  144.7155  139.8212  143.7400 LP  0  0  0  0  0  0  0  0  0  0  0  0  # atno 17320 bound_to 7965
  146.1276  139.4305  143.0189 LP  0  0  0  0  0  0  0  0  0  0  0  0  # atno 17321 bound_to 7965
  140.7688  143.3374  151.2280 LP  0  0  0  0  0  0  0  0  0  0  0  0  # atno 17342 bound_to 10162
  139.6952  143.9625  152.2879 LP  0  0  0  0  0  0  0  0  0  0  0  0  # atno 17343 bound_to 10162
  156.1462  130.6278  151.0534 LP  0  0  0  0  0  0  0  0  0  0  0  0  # atno 17370 bound_to 10713
  157.6817  131.0836  150.7353 LP  0  0  0  0  0  0  0  0  0  0  0  0  # atno 17371 bound_to 10713
  140.3092  134.8100  157.4162 LP  0  0  0  0  0  0  0  0  0  0  0  0  # atno 17394 bound_to 11000
  140.1193  134.5241  155.8197 LP  0  0  0  0  0  0  0  0  0  0  0  0  # atno 17395 bound_to 11000

$$$$
