AV-unprocessed.smi:264|AV-procd|sdf|2012|dock9
  -GOLD-   2262021213D 1   1.00000     0.00000
 Structure written by MMmdl.
 52 56  0  0  0  0  0  0  0  0  1 V2000
  147.0337  137.3440  158.9371 C   0  0  0  0  0  0  0  0  0  0  0  0
  147.6032  136.3751  159.9862 C   0  0  1  0  0  0  0  0  0  0  0  0
  147.9570  137.0741  161.1795 O   0  0  0  0  0  0  0  0  0  0  0  0
  147.2977  136.4988  162.2991 C   0  0  0  0  0  0  0  0  0  0  0  0
  147.0337  135.0574  161.8847 C   0  0  0  0  0  0  0  0  0  0  0  0
  146.6948  135.1969  160.4075 C   0  0  1  0  0  0  0  0  0  0  0  0
  145.3245  135.5493  160.2944 O   0  0  0  0  0  0  0  0  0  0  0  0
  146.9403  133.9129  159.5798 C   0  0  0  0  0  0  0  0  0  0  0  0
  146.4824  134.0177  158.2027 N   0  0  0  0  0  0  0  0  0  0  0  0
  145.2440  133.6621  157.7178 C   0  0  0  0  0  0  0  0  0  0  0  0
  145.0755  133.8426  156.4364 N   0  0  0  0  0  0  0  0  0  0  0  0
  146.2840  134.3780  156.0062 C   0  0  0  0  0  0  0  0  0  0  0  0
  146.7950  134.8071  154.7480 C   0  0  0  0  0  0  0  0  0  0  0  0
  146.1201  134.7683  153.5799 N   0  0  0  0  0  0  0  0  0  0  0  0
  145.9370  136.0793  152.9778 C   0  0  0  0  0  0  0  0  0  0  0  0
  144.9570  135.9725  151.8006 C   0  0  0  0  0  0  0  0  0  0  0  0
  145.4090  134.9880  150.8704 O   0  0  0  0  0  0  0  0  0  0  0  0
  145.5899  133.6808  151.4266 C   0  0  2  0  0  0  0  0  0  0  0  0
  146.1445  132.7819  150.3251 C   0  0  0  0  0  0  0  0  0  0  0  0
  145.4764  131.4424  150.5952 C   0  0  0  0  0  0  0  0  0  0  0  0
  144.1636  131.8294  150.9548 O   0  0  0  0  0  0  0  0  0  0  0  0
  144.2544  132.9844  151.7806 C   0  0  0  0  0  0  0  0  0  0  0  0
  146.5677  133.7651  152.6226 C   0  0  0  0  0  0  0  0  0  0  0  0
  148.0685  135.2687  154.7024 N   0  0  0  0  0  0  0  0  0  0  0  0
  148.7991  135.3259  155.8198 C   0  0  0  0  0  0  0  0  0  0  0  0
  148.4570  134.9713  157.0603 N   0  0  0  0  0  0  0  0  0  0  0  0
  147.1801  134.4939  157.1063 C   0  0  0  0  0  0  0  0  0  0  0  0
  146.7504  136.8149  158.0269 H   0  0  0  0  0  0  0  0  0  0  0  0
  147.7748  138.0963  158.6664 H   0  0  0  0  0  0  0  0  0  0  0  0
  146.1555  137.8715  159.3104 H   0  0  0  0  0  0  0  0  0  0  0  0
  148.5407  135.9728  159.6001 H   0  0  0  0  0  0  0  0  0  0  0  0
  147.9026  136.5736  163.2028 H   0  0  0  0  0  0  0  0  0  0  0  0
  146.3594  137.0280  162.4715 H   0  0  0  0  0  0  0  0  0  0  0  0
  147.9506  134.4799  162.0077 H   0  0  0  0  0  0  0  0  0  0  0  0
  146.2524  134.5758  162.4744 H   0  0  0  0  0  0  0  0  0  0  0  0
  144.8253  134.7621  160.1399 H   0  0  0  0  0  0  0  0  0  0  0  0
  148.0033  133.6682  159.5709 H   0  0  0  0  0  0  0  0  0  0  0  0
  146.4365  133.0625  160.0410 H   0  0  0  0  0  0  0  0  0  0  0  0
  144.4673  133.2537  158.3481 H   0  0  0  0  0  0  0  0  0  0  0  0
  145.5572  136.7852  153.7178 H   0  0  0  0  0  0  0  0  0  0  0  0
  146.8993  136.4593  152.6315 H   0  0  0  0  0  0  0  0  0  0  0  0
  143.9554  135.7341  152.1588 H   0  0  0  0  0  0  0  0  0  0  0  0
  144.8836  136.9317  151.2882 H   0  0  0  0  0  0  0  0  0  0  0  0
  145.8236  133.1446  149.3472 H   0  0  0  0  0  0  0  0  0  0  0  0
  147.2333  132.7205  150.3124 H   0  0  0  0  0  0  0  0  0  0  0  0
  145.4795  130.7848  149.7257 H   0  0  0  0  0  0  0  0  0  0  0  0
  145.9533  130.9234  151.4281 H   0  0  0  0  0  0  0  0  0  0  0  0
  144.2315  132.6766  152.8267 H   0  0  0  0  0  0  0  0  0  0  0  0
  143.3830  133.6137  151.6028 H   0  0  0  0  0  0  0  0  0  0  0  0
  147.5576  134.0354  152.2555 H   0  0  0  0  0  0  0  0  0  0  0  0
  146.6621  132.7950  153.1130 H   0  0  0  0  0  0  0  0  0  0  0  0
  149.8025  135.7086  155.7030 H   0  0  0  0  0  0  0  0  0  0  0  0
  1  2  1  0  0  0  0
  1 28  1  0  0  0  0
  1 29  1  0  0  0  0
  1 30  1  0  0  0  0
  2  6  1  0  0  0  0
  2  3  1  0  0  0  0
  2 31  1  0  0  0  0
  3  4  1  0  0  0  0
  4  5  1  0  0  0  0
  4 32  1  0  0  0  0
  4 33  1  0  0  0  0
  5  6  1  0  0  0  0
  5 34  1  0  0  0  0
  5 35  1  0  0  0  0
  6  7  1  0  0  0  0
  6  8  1  0  0  0  0
  7 36  1  0  0  0  0
  8  9  1  0  0  0  0
  8 37  1  0  0  0  0
  8 38  1  0  0  0  0
  9 27  1  0  0  0  0
  9 10  1  0  0  0  0
 10 11  2  0  0  0  0
 10 39  1  0  0  0  0
 11 12  1  0  0  0  0
 12 27  2  0  0  0  0
 12 13  1  0  0  0  0
 13 14  1  0  0  0  0
 13 24  2  0  0  0  0
 14 23  1  0  0  0  0
 14 15  1  0  0  0  0
 15 16  1  0  0  0  0
 15 40  1  0  0  0  0
 15 41  1  0  0  0  0
 16 17  1  0  0  0  0
 16 42  1  0  0  0  0
 16 43  1  0  0  0  0
 17 18  1  0  0  0  0
 18 22  1  0  0  0  0
 18 19  1  0  0  0  0
 18 23  1  0  0  0  0
 19 20  1  0  0  0  0
 19 44  1  0  0  0  0
 19 45  1  0  0  0  0
 20 21  1  0  0  0  0
 20 46  1  0  0  0  0
 20 47  1  0  0  0  0
 21 22  1  0  0  0  0
 22 48  1  0  0  0  0
 22 49  1  0  0  0  0
 23 50  1  0  0  0  0
 23 51  1  0  0  0  0
 24 25  1  0  0  0  0
 25 26  2  0  0  0  0
 25 52  1  0  0  0  0
 26 27  1  0  0  0  0
M  END
> <s_m_source_file>
AV-unprocessed.smi

> <i_m_source_file_index>
264

> <i_lp_mmshare_version>
43012

> <i_f3d_flags>
0

> <s_epik_input>
W0NIMl0xW0NIMl1PW0NAQEhdKFtDSDNdKVtDQEBdMShbT0hdKVtDSDJdbihbY0hdbjIpYyhjMjMpbltjSF1uYzNOKFtDSDJdNClbQ0gyXVtDSDJdT1tDQF00NVtDSDJdW0NIMl1PW0NIMl01

> <s_epik_cmdline>
J2VwaWtfcHl0aG9uJywgJy1waCcsICc3LjAnLCAnLXRuJywgJzgnLCAnLW1hJywgJzIwMCcsICctbWV0YWxfYmluZGluZycsICctaW1hZScsICc8aW5maWxlLm1hZT4nLCAnLW9tYWUnLCAnPG91dGZpbGUubWFlPic=

> <r_lp_tautomer_probability>
1

> <r_epik_Ionization_Penalty>
0.00539389

> <r_epik_Ionization_Penalty_Charging>
0

> <r_epik_Ionization_Penalty_Neutral>
0.00539389

> <r_epik_State_Penalty>
0.00375441

> <r_epik_Charging_Adjusted_Penalty>
0.00375441

> <i_epik_Tot_Q>
0

> <i_epik_Tot_abs_Q>
0

> <r_epik_Metal_State_Penalty>
-0

> <b_epik_Metal_Only>
0

> <s_lp_Force_Field>
OPLS_2005

> <r_lp_Energy>
56.7772

> <b_lp_Chiralities_Consistent>
1

> <s_lp_Variant>
AV-unprocessed.smi:264-6

> <Gold.Version>
5.8.1

> <Gold.Id.Protein>
6NUR|6NUR_protein|mol2

> <Gold.PLP.Fitness>
33.0331

> <Gold.PLP.PLP>
-28.5493

> <Gold.PLP.part.hbond>
-2.0000

> <Gold.PLP.part.metal>
0.0000

> <Gold.PLP.part.buried>
-5.7417

> <Gold.PLP.part.nonpolar>
-21.6875

> <Gold.PLP.part.repulsive>
1.0187

> <Gold.PLP.ligand.clash>
0.0000

> <Gold.PLP.ligand.torsion>
0.5307

> <Gold.PLP.Chemscore.Hbond>
1.7930

> <Gold.PLP.Chemscore.CHOScore>
0.0000

> <Gold.PLP.Chemscore.Metal>
0.0000

> <Gold.Chemscore.Hbonds>
donor molecule, donor type, donor heavy atom, donor atom, acceptor molecule, acceptor atom, score
      P1  H  6931  6943       L1     3  1.00
      P1  H  6934  6947       L1     3  0.61

> <Gold.PLP.Chemscore.Internal.Correction>
0.1661

> <Gold.Rescore>
     Score         DG    S(hbond)    S(metal)    S(lipo)     H(rot)  DE(clash)    DE(int)     intcor
     12.30     -12.85       1.29        0.00      72.28       2.11       0.01       0.54       ----

> <Gold.Chemscore.Fitness>
12.2959

> <Gold.Chemscore.DG>
-12.8515

> <Gold.Chemscore.ZeroCoef>
-5.4800

> <Gold.Chemscore.Hbond>
1.2894

> <Gold.Chemscore.Metal>
0.0000

> <Gold.Chemscore.Lipo>
72.2816

> <Gold.Chemscore.Internal_Hbond>
0.0000

> <Gold.Chemscore.DEClash>
0.0115

> <Gold.Chemscore.DEInternal>
0.5441

> <Gold.Chemscore.Rot>
2.1063

> <Gold.Chemscore.Internal.Correction>
   9.000000E+99

> <Gold.Chemscore.Hbonds>
donor molecule, donor type, donor heavy atom, donor atom, acceptor molecule, acceptor atom, score
      P1  H  6931  6943       L1     3  0.43
      P1  H  6934  6947       L1     3  0.20

> <Gold.Chemscore.Hbond.Weighted>
-4.3067

> <Gold.Chemscore.Metal.Weighted>
-0.0000

> <Gold.Chemscore.Lipo.Weighted>
-8.4569

> <Gold.Chemscore.Internal_Hbond.Weighted>
0.0000

> <Gold.Chemscore.DEClash.Weighted>
0.0115

> <Gold.Chemscore.DEInternal.Weighted>
0.5441

> <Gold.Chemscore.Rot.Weighted>
5.3921

> <Gold.Chemscore.Internal.Correction.Weighted>
   9.000000E+99

> <Gold.Protein.RotatedTorsions>
[ 6907 6896 6895 6894 ] final  108.76 input  -60.11 | X-H torsion
[ 7974 7965 7964 7962 ] final   47.10 input  175.53 | X-H torsion
[ 8008 7997 7996 7995 ] final   12.26 input   59.86 | X-H torsion
[ 10167 10162 10161 10158 ] final  113.44 input  -65.29 | X-H torsion
[ 10718 10713 10712 10709 ] final   49.34 input   66.30 | X-H torsion
[ 10763 10752 10751 10750 ] final  -16.20 input  -60.55 | X-H torsion
[ 11005 11000 10999 10996 ] final   -3.25 input  -57.11 | X-H torsion

> <Gold.Protein.ActiveResidues>
 VAL166  LYS551  ARG553  GLY616  TRP617  ASP618  TYR619  PRO620  LYS621  CYS622 
 ASP623  PHE694  ASN695  SER759  ASP760  ASP761  ALA762  ILE779  LEU786  VAL792 
 PHE793  MET794  SER795  GLU796  ALA797  LYS798  CYS799  TRP800  GLU811  SER814 

> <Gold.Protein.RotatedAtoms>
  152.5098  133.9042  159.7455 H   0  0  0  0  0  0  0  0  0  0  0  0  # atno 6907 bound_to 6896
  150.9451  133.6604  159.2790 H   0  0  0  0  0  0  0  0  0  0  0  0  # atno 6908 bound_to 6896
  151.3902  135.0959  159.9576 H   0  0  0  0  0  0  0  0  0  0  0  0  # atno 6909 bound_to 6896
  146.0328  139.4785  142.9827 H   0  0  0  0  0  0  0  0  0  0  0  0  # atno 7974 bound_to 7965
  154.8181  140.2879  155.5805 H   0  0  0  0  0  0  0  0  0  0  0  0  # atno 8008 bound_to 7997
  156.2995  140.2555  156.3013 H   0  0  0  0  0  0  0  0  0  0  0  0  # atno 8009 bound_to 7997
  154.9369  140.0382  157.2066 H   0  0  0  0  0  0  0  0  0  0  0  0  # atno 8010 bound_to 7997
  139.6461  144.7126  151.2140 H   0  0  0  0  0  0  0  0  0  0  0  0  # atno 10167 bound_to 10162
  157.4777  130.8295  149.8058 H   0  0  0  0  0  0  0  0  0  0  0  0  # atno 10718 bound_to 10713
  153.5549  135.7011  153.5574 H   0  0  0  0  0  0  0  0  0  0  0  0  # atno 10763 bound_to 10752
  153.3481  135.4002  155.1625 H   0  0  0  0  0  0  0  0  0  0  0  0  # atno 10764 bound_to 10752
  154.8656  135.3759  154.5063 H   0  0  0  0  0  0  0  0  0  0  0  0  # atno 10765 bound_to 10752
  140.6673  133.9268  155.8472 H   0  0  0  0  0  0  0  0  0  0  0  0  # atno 11005 bound_to 11000
  145.7012  141.0135  143.1503 LP  0  0  0  0  0  0  0  0  0  0  0  0  # atno 17320 bound_to 7965
  144.7038  139.8647  143.7436 LP  0  0  0  0  0  0  0  0  0  0  0  0  # atno 17321 bound_to 7965
  140.7515  143.6229  150.8496 LP  0  0  0  0  0  0  0  0  0  0  0  0  # atno 17342 bound_to 10162
  139.9872  143.5887  152.2923 LP  0  0  0  0  0  0  0  0  0  0  0  0  # atno 17343 bound_to 10162
  156.0105  130.3835  150.2281 LP  0  0  0  0  0  0  0  0  0  0  0  0  # atno 17370 bound_to 10713
  157.0466  131.0050  151.3267 LP  0  0  0  0  0  0  0  0  0  0  0  0  # atno 17371 bound_to 10713
  141.0419  134.0608  157.3891 LP  0  0  0  0  0  0  0  0  0  0  0  0  # atno 17394 bound_to 11000
  139.8993  135.0158  156.7190 LP  0  0  0  0  0  0  0  0  0  0  0  0  # atno 17395 bound_to 11000

$$$$
