AV-unprocessed.smi:1679|AV-procd|sdf|6730|dock6
  -GOLD-   22720 7473D 1   1.00000     0.00000
 Structure written by MMmdl.
 45 46  0  0  0  0  0  0  0  0  1 V2000
  151.3717  145.0206  159.4972 C   0  0  0  0  0  0  0  0  0  0  0  0
  152.4101  144.0767  160.1235 C   0  0  1  0  0  0  0  0  0  0  0  0
  152.0833  143.7687  161.6004 C   0  0  0  0  0  0  0  0  0  0  0  0
  153.1461  142.8580  162.2367 C   0  0  0  0  0  0  0  0  0  0  0  0
  153.3427  141.5684  161.4249 C   0  0  0  0  0  0  0  0  0  0  0  0
  153.6632  141.8802  159.9552 C   0  0  0  0  0  0  0  0  0  0  0  0
  152.5752  142.7699  159.3142 C   0  0  1  0  0  0  0  0  0  0  0  0
  151.3031  142.1330  159.2870 O   0  0  0  0  0  0  0  0  0  0  0  0
  150.9051  141.5504  158.0556 C   0  0  0  0  0  0  0  0  0  0  0  0
  150.9444  142.6306  156.9627 C   0  0  0  0  0  0  0  0  0  0  0  0
  149.9228  142.4043  155.9437 N   0  0  0  0  0  0  0  0  0  0  0  0
  149.8811  141.3425  155.1225 C   0  0  0  0  0  0  0  0  0  0  0  0
  150.6856  140.4116  155.1831 O   0  0  0  0  0  0  0  0  0  0  0  0
  148.7523  141.3121  154.0847 C   0  0  0  0  0  0  0  0  0  0  0  0
  147.4750  141.7433  154.6701 N   0  0  0  0  0  0  0  0  0  0  0  0
  146.7022  142.7061  154.0361 C   0  0  0  0  0  0  0  0  0  0  0  0
  145.5436  143.1869  154.5461 C   0  0  0  0  0  0  0  0  0  0  0  0
  145.0417  142.6990  155.8261 C   0  0  0  0  0  0  0  0  0  0  0  0
  144.0076  143.0757  156.3730 O   0  0  0  0  0  0  0  0  0  0  0  0
  145.8442  141.7276  156.4299 N   0  0  0  0  0  0  0  0  0  0  0  0
  147.0378  141.2266  155.9087 C   0  0  0  0  0  0  0  0  0  0  0  0
  147.6700  140.3714  156.5268 O   0  0  0  0  0  0  0  0  0  0  0  0
  145.5364  141.3602  157.3185 H   0  0  0  0  0  0  0  0  0  0  0  0
  150.3734  144.5818  159.5093 H   0  0  0  0  0  0  0  0  0  0  0  0
  151.6228  145.2492  158.4613 H   0  0  0  0  0  0  0  0  0  0  0  0
  151.3230  145.9644  160.0405 H   0  0  0  0  0  0  0  0  0  0  0  0
  153.3670  144.5999  160.1011 H   0  0  0  0  0  0  0  0  0  0  0  0
  152.0115  144.6956  162.1698 H   0  0  0  0  0  0  0  0  0  0  0  0
  151.1050  143.2915  161.6718 H   0  0  0  0  0  0  0  0  0  0  0  0
  154.0932  143.3949  162.3003 H   0  0  0  0  0  0  0  0  0  0  0  0
  152.8617  142.6129  163.2600 H   0  0  0  0  0  0  0  0  0  0  0  0
  154.1433  140.9721  161.8629 H   0  0  0  0  0  0  0  0  0  0  0  0
  152.4408  140.9588  161.4758 H   0  0  0  0  0  0  0  0  0  0  0  0
  154.6220  142.3976  159.9027 H   0  0  0  0  0  0  0  0  0  0  0  0
  153.7995  140.9566  159.3937 H   0  0  0  0  0  0  0  0  0  0  0  0
  152.8664  143.0171  158.2921 H   0  0  0  0  0  0  0  0  0  0  0  0
  151.5792  140.7349  157.7908 H   0  0  0  0  0  0  0  0  0  0  0  0
  149.8990  141.1380  158.1309 H   0  0  0  0  0  0  0  0  0  0  0  0
  150.8354  143.6225  157.4046 H   0  0  0  0  0  0  0  0  0  0  0  0
  151.9182  142.6187  156.4727 H   0  0  0  0  0  0  0  0  0  0  0  0
  149.2200  143.1206  155.8321 H   0  0  0  0  0  0  0  0  0  0  0  0
  149.0278  141.9733  153.2619 H   0  0  0  0  0  0  0  0  0  0  0  0
  148.6652  140.3195  153.6376 H   0  0  0  0  0  0  0  0  0  0  0  0
  147.0421  143.1033  153.0901 H   0  0  0  0  0  0  0  0  0  0  0  0
  144.9884  143.9405  154.0063 H   0  0  0  0  0  0  0  0  0  0  0  0
  1  2  1  0  0  0  0
  1 24  1  0  0  0  0
  1 25  1  0  0  0  0
  1 26  1  0  0  0  0
  2  7  1  0  0  0  0
  2  3  1  0  0  0  0
  2 27  1  0  0  0  0
  3  4  1  0  0  0  0
  3 28  1  0  0  0  0
  3 29  1  0  0  0  0
  4  5  1  0  0  0  0
  4 30  1  0  0  0  0
  4 31  1  0  0  0  0
  5  6  1  0  0  0  0
  5 32  1  0  0  0  0
  5 33  1  0  0  0  0
  6  7  1  0  0  0  0
  6 34  1  0  0  0  0
  6 35  1  0  0  0  0
  7  8  1  0  0  0  0
  7 36  1  0  0  0  0
  8  9  1  0  0  0  0
  9 10  1  0  0  0  0
  9 37  1  0  0  0  0
  9 38  1  0  0  0  0
 10 11  1  0  0  0  0
 10 39  1  0  0  0  0
 10 40  1  0  0  0  0
 11 12  1  0  0  0  0
 11 41  1  0  0  0  0
 12 13  2  0  0  0  0
 12 14  1  0  0  0  0
 14 15  1  0  0  0  0
 14 42  1  0  0  0  0
 14 43  1  0  0  0  0
 15 21  1  0  0  0  0
 15 16  1  0  0  0  0
 16 17  2  0  0  0  0
 16 44  1  0  0  0  0
 17 18  1  0  0  0  0
 17 45  1  0  0  0  0
 18 19  2  0  0  0  0
 18 20  1  0  0  0  0
 20 23  1  0  0  0  0
 20 21  1  0  0  0  0
 21 22  2  0  0  0  0
M  END
> <s_m_source_file>
AV-unprocessed.smi

> <i_m_source_file_index>
1679

> <i_lp_mmshare_version>
43012

> <i_f3d_flags>
0

> <s_epik_input>
W0NIM11bQ0BASF0xW0NIMl1bQ0gyXVtDSDJdW0NIMl1bQ0BIXTFPW0NIMl1bQ0gyXVtOSF1DKD1PKVtDSDJdbjJbY0hdW2NIXWMoPU8pW25IXWMyPU8=

> <s_epik_cmdline>
J2VwaWtfcHl0aG9uJywgJy1waCcsICc3LjAnLCAnLXRuJywgJzgnLCAnLW1hJywgJzIwMCcsICctbWV0YWxfYmluZGluZycsICctaW1hZScsICc8aW5maWxlLm1hZT4nLCAnLW9tYWUnLCAnPG91dGZpbGUubWFlPic=

> <r_lp_tautomer_probability>
0.999537

> <r_epik_Ionization_Penalty>
0.0033132

> <r_epik_Ionization_Penalty_Charging>
0.00331317

> <r_epik_Ionization_Penalty_Neutral>
2.78599e-08

> <r_epik_State_Penalty>
0.002342

> <r_epik_Charging_Adjusted_Penalty>
0.00565517

> <i_epik_Tot_Q>
0

> <i_epik_Tot_abs_Q>
0

> <r_epik_Metal_State_Penalty>
0.365595

> <b_epik_Metal_Only>
0

> <s_lp_Force_Field>
OPLS_2005

> <r_lp_Energy>
9.24545

> <b_lp_Chiralities_Consistent>
1

> <s_lp_Variant>
AV-unprocessed.smi:1679-2

> <Gold.Version>
5.8.1

> <Gold.Id.Protein>
6NUR|6NUR_protein|mol2

> <Gold.PLP.Fitness>
55.5309

> <Gold.PLP.PLP>
-52.3514

> <Gold.PLP.part.hbond>
-2.0000

> <Gold.PLP.part.metal>
0.0000

> <Gold.PLP.part.buried>
-5.4795

> <Gold.PLP.part.nonpolar>
-44.1763

> <Gold.PLP.part.repulsive>
0.2490

> <Gold.PLP.ligand.clash>
0.0000

> <Gold.PLP.ligand.torsion>
1.1498

> <Gold.PLP.Chemscore.Hbond>
1.7920

> <Gold.PLP.Chemscore.CHOScore>
0.0000

> <Gold.PLP.Chemscore.Metal>
0.0000

> <Gold.Chemscore.Hbonds>
donor molecule, donor type, donor heavy atom, donor atom, acceptor molecule, acceptor atom, score
      L1  H    11    41       P1  8028  0.96
      P1  H  7989  7998       L1    13  0.75

> <Gold.PLP.Chemscore.Internal.Correction>
0.1032

> <Gold.Rescore>
     Score         DG    S(hbond)    S(metal)    S(lipo)     H(rot)  DE(clash)    DE(int)     intcor
     15.08     -17.32       1.49        0.00     113.73       2.52       0.03       2.21       ----

> <Gold.Chemscore.Fitness>
15.0817

> <Gold.Chemscore.DG>
-17.3192

> <Gold.Chemscore.ZeroCoef>
-5.4800

> <Gold.Chemscore.Hbond>
1.4910

> <Gold.Chemscore.Metal>
0.0000

> <Gold.Chemscore.Lipo>
113.7316

> <Gold.Chemscore.Internal_Hbond>
0.0000

> <Gold.Chemscore.DEClash>
0.0277

> <Gold.Chemscore.DEInternal>
2.2097

> <Gold.Chemscore.Rot>
2.5185

> <Gold.Chemscore.Internal.Correction>
   9.000000E+99

> <Gold.Chemscore.Hbonds>
donor molecule, donor type, donor heavy atom, donor atom, acceptor molecule, acceptor atom, score
      L1  H    11    41       P1  8028  0.92
      P1  H  7989  7998       L1    13  0.09

> <Gold.Chemscore.Hbond.Weighted>
-4.9798

> <Gold.Chemscore.Metal.Weighted>
-0.0000

> <Gold.Chemscore.Lipo.Weighted>
-13.3066

> <Gold.Chemscore.Internal_Hbond.Weighted>
0.0000

> <Gold.Chemscore.DEClash.Weighted>
0.0277

> <Gold.Chemscore.DEInternal.Weighted>
2.2097

> <Gold.Chemscore.Rot.Weighted>
6.4472

> <Gold.Chemscore.Internal.Correction.Weighted>
   9.000000E+99

> <Gold.Protein.RotatedTorsions>
[ 6907 6896 6895 6894 ] final  123.73 input  -60.11 | X-H torsion
[ 7974 7965 7964 7962 ] final   26.29 input  175.53 | X-H torsion
[ 8008 7997 7996 7995 ] final -132.63 input   59.86 | X-H torsion
[ 10167 10162 10161 10158 ] final -128.01 input  -65.29 | X-H torsion
[ 10718 10713 10712 10709 ] final  125.15 input   66.30 | X-H torsion
[ 10763 10752 10751 10750 ] final  122.50 input  -60.55 | X-H torsion
[ 11005 11000 10999 10996 ] final -148.57 input  -57.11 | X-H torsion

> <Gold.Protein.ActiveResidues>
 VAL166  LYS551  ARG553  GLY616  TRP617  ASP618  TYR619  PRO620  LYS621  CYS622 
 ASP623  PHE694  ASN695  SER759  ASP760  ASP761  ALA762  ILE779  LEU786  VAL792 
 PHE793  MET794  SER795  GLU796  ALA797  LYS798  CYS799  TRP800  GLU811  SER814 

> <Gold.Protein.RotatedAtoms>
  152.4137  133.7004  159.6420 H   0  0  0  0  0  0  0  0  0  0  0  0  # atno 6907 bound_to 6896
  150.8016  133.8577  159.3232 H   0  0  0  0  0  0  0  0  0  0  0  0  # atno 6908 bound_to 6896
  151.6313  135.1024  160.0174 H   0  0  0  0  0  0  0  0  0  0  0  0  # atno 6909 bound_to 6896
  146.1845  139.7349  142.8876 H   0  0  0  0  0  0  0  0  0  0  0  0  # atno 7974 bound_to 7965
  155.3321  140.0467  157.3043 H   0  0  0  0  0  0  0  0  0  0  0  0  # atno 8008 bound_to 7997
  154.5322  140.2261  155.8749 H   0  0  0  0  0  0  0  0  0  0  0  0  # atno 8009 bound_to 7997
  156.1800  140.3076  155.9137 H   0  0  0  0  0  0  0  0  0  0  0  0  # atno 8010 bound_to 7997
  139.9548  143.6015  152.2464 H   0  0  0  0  0  0  0  0  0  0  0  0  # atno 10167 bound_to 10162
  157.5527  131.1093  150.8675 H   0  0  0  0  0  0  0  0  0  0  0  0  # atno 10718 bound_to 10713
  153.6308  135.3396  155.3041 H   0  0  0  0  0  0  0  0  0  0  0  0  # atno 10763 bound_to 10752
  154.8580  135.4295  154.2108 H   0  0  0  0  0  0  0  0  0  0  0  0  # atno 10764 bound_to 10752
  153.3003  135.7024  153.7283 H   0  0  0  0  0  0  0  0  0  0  0  0  # atno 10765 bound_to 10752
  140.7599  134.3310  157.5104 H   0  0  0  0  0  0  0  0  0  0  0  0  # atno 11005 bound_to 11000
  145.3979  141.0381  143.3087 LP  0  0  0  0  0  0  0  0  0  0  0  0  # atno 17320 bound_to 7965
  144.8373  139.5529  143.6916 LP  0  0  0  0  0  0  0  0  0  0  0  0  # atno 17321 bound_to 7965
  139.6600  144.7662  151.1981 LP  0  0  0  0  0  0  0  0  0  0  0  0  # atno 17342 bound_to 10162
  140.7572  143.6025  150.8685 LP  0  0  0  0  0  0  0  0  0  0  0  0  # atno 17343 bound_to 10162
  156.9195  130.5310  149.5279 LP  0  0  0  0  0  0  0  0  0  0  0  0  # atno 17370 bound_to 10713
  156.0590  130.5647  150.9154 LP  0  0  0  0  0  0  0  0  0  0  0  0  # atno 17371 bound_to 10713
  139.8772  134.9195  156.3229 LP  0  0  0  0  0  0  0  0  0  0  0  0  # atno 17394 bound_to 11000
  140.9673  133.7350  156.0485 LP  0  0  0  0  0  0  0  0  0  0  0  0  # atno 17395 bound_to 11000

$$$$
