AV-unprocessed.smi:2709|AV-procd|sdf|10463|dock9
  -GOLD-   2272014503D 1   1.00000     0.00000
 Structure written by MMmdl.
 40 42  0  0  0  0  0  0  0  0  1 V2000
  142.4866  137.3272  153.0508 C   0  0  0  0  0  0  0  0  0  0  0  0
  143.4380  136.8113  153.9682 O   0  0  0  0  0  0  0  0  0  0  0  0
  144.4203  135.9784  153.3669 C   0  0  1  0  0  0  0  0  0  0  0  0
  143.8204  134.6687  152.8369 C   0  0  0  0  0  0  0  0  0  0  0  0
  144.6905  134.3091  151.6385 C   0  0  0  0  0  0  0  0  0  0  0  0
  144.9897  135.6581  150.9872 C   0  0  0  0  0  0  0  0  0  0  0  0
  145.0389  136.6824  152.1392 C   0  0  2  0  0  0  0  0  0  0  0  0
  146.4114  137.0978  152.4209 N   0  0  0  0  0  0  0  0  0  0  0  0
  146.7644  138.0566  153.2882 C   0  0  0  0  0  0  0  0  0  0  0  0
  145.9545  138.7038  153.9513 O   0  0  0  0  0  0  0  0  0  0  0  0
  148.0998  138.1964  153.3386 N   0  0  0  0  0  0  0  0  0  0  0  0
  148.8631  139.1209  154.1011 C   0  0  0  0  0  0  0  0  0  0  0  0
  148.1975  140.1762  154.7595 C   0  0  0  0  0  0  0  0  0  0  0  0
  148.8579  141.0814  155.5130 N   0  0  0  0  0  0  0  0  0  0  0  0
  150.1823  140.9347  155.6077 C   0  0  0  0  0  0  0  0  0  0  0  0
  150.9089  141.9177  156.4724 C   0  0  0  0  0  0  0  0  0  0  0  0
  151.6580  141.4619  157.7083 C   0  0  0  0  0  0  0  0  0  0  0  0
  150.3933  142.2608  157.8550 C   0  0  0  0  0  0  0  0  0  0  0  0
  150.9171  139.9658  155.0548 N   0  0  0  0  0  0  0  0  0  0  0  0
  150.2648  139.0571  154.2975 C   0  0  0  0  0  0  0  0  0  0  0  0
  141.7528  137.9277  153.5880 H   0  0  0  0  0  0  0  0  0  0  0  0
  141.9529  136.5236  152.5420 H   0  0  0  0  0  0  0  0  0  0  0  0
  142.9549  137.9658  152.3014 H   0  0  0  0  0  0  0  0  0  0  0  0
  145.2055  135.7438  154.0893 H   0  0  0  0  0  0  0  0  0  0  0  0
  143.7966  133.8803  153.5898 H   0  0  0  0  0  0  0  0  0  0  0  0
  142.7966  134.8380  152.4999 H   0  0  0  0  0  0  0  0  0  0  0  0
  145.6185  133.8491  151.9802 H   0  0  0  0  0  0  0  0  0  0  0  0
  144.2012  133.6130  150.9571 H   0  0  0  0  0  0  0  0  0  0  0  0
  145.8995  135.6296  150.3860 H   0  0  0  0  0  0  0  0  0  0  0  0
  144.1721  135.9183  150.3137 H   0  0  0  0  0  0  0  0  0  0  0  0
  144.4434  137.5571  151.8692 H   0  0  0  0  0  0  0  0  0  0  0  0
  147.1431  136.6124  151.9233 H   0  0  0  0  0  0  0  0  0  0  0  0
  148.6362  137.5397  152.7908 H   0  0  0  0  0  0  0  0  0  0  0  0
  147.1269  140.2974  154.6818 H   0  0  0  0  0  0  0  0  0  0  0  0
  151.3459  142.7189  155.8793 H   0  0  0  0  0  0  0  0  0  0  0  0
  151.6153  140.4062  157.9688 H   0  0  0  0  0  0  0  0  0  0  0  0
  152.5969  141.9609  157.9391 H   0  0  0  0  0  0  0  0  0  0  0  0
  150.4850  143.2947  158.1811 H   0  0  0  0  0  0  0  0  0  0  0  0
  149.5098  141.7358  158.2130 H   0  0  0  0  0  0  0  0  0  0  0  0
  150.8803  138.2776  153.8768 H   0  0  0  0  0  0  0  0  0  0  0  0
  1  2  1  0  0  0  0
  1 21  1  0  0  0  0
  1 22  1  0  0  0  0
  1 23  1  0  0  0  0
  2  3  1  0  0  0  0
  3  7  1  0  0  0  0
  3  4  1  0  0  0  0
  3 24  1  0  0  0  0
  4  5  1  0  0  0  0
  4 25  1  0  0  0  0
  4 26  1  0  0  0  0
  5  6  1  0  0  0  0
  5 27  1  0  0  0  0
  5 28  1  0  0  0  0
  6  7  1  0  0  0  0
  6 29  1  0  0  0  0
  6 30  1  0  0  0  0
  7  8  1  0  0  0  0
  7 31  1  0  0  0  0
  8  9  1  0  0  0  0
  8 32  1  0  0  0  0
  9 10  2  0  0  0  0
  9 11  1  0  0  0  0
 11 12  1  0  0  0  0
 11 33  1  0  0  0  0
 12 20  1  0  0  0  0
 12 13  2  0  0  0  0
 13 14  1  0  0  0  0
 13 34  1  0  0  0  0
 14 15  2  0  0  0  0
 15 16  1  0  0  0  0
 15 19  1  0  0  0  0
 16 18  1  0  0  0  0
 16 17  1  0  0  0  0
 16 35  1  0  0  0  0
 17 18  1  0  0  0  0
 17 36  1  0  0  0  0
 17 37  1  0  0  0  0
 18 38  1  0  0  0  0
 18 39  1  0  0  0  0
 19 20  2  0  0  0  0
 20 40  1  0  0  0  0
M  END
> <s_m_source_file>
AV-unprocessed.smi

> <i_m_source_file_index>
2709

> <i_lp_mmshare_version>
43012

> <i_f3d_flags>
0

> <s_epik_input>
W0NIM11PW0NAQEhdMVtDSDJdW0NIMl1bQ0gyXVtDQEhdMVtOSF1DKD1PKVtOSF1jMltjSF1uYyhuW2NIXTIpW0NIXTNbQ0gyXVtDSDJdMw==

> <s_epik_cmdline>
J2VwaWtfcHl0aG9uJywgJy1waCcsICc3LjAnLCAnLXRuJywgJzgnLCAnLW1hJywgJzIwMCcsICctbWV0YWxfYmluZGluZycsICctaW1hZScsICc8aW5maWxlLm1hZT4nLCAnLW9tYWUnLCAnPG91dGZpbGUubWFlPic=

> <r_lp_tautomer_probability>
1

> <r_epik_Ionization_Penalty>
2.49969e-05

> <r_epik_Ionization_Penalty_Charging>
0

> <r_epik_Ionization_Penalty_Neutral>
2.49969e-05

> <r_epik_State_Penalty>
-0

> <r_epik_Charging_Adjusted_Penalty>
0

> <i_epik_Tot_Q>
0

> <i_epik_Tot_abs_Q>
0

> <r_epik_Metal_State_Penalty>
-0

> <b_epik_Metal_Only>
0

> <s_lp_Force_Field>
OPLS_2005

> <r_lp_Energy>
19.78

> <b_lp_Chiralities_Consistent>
1

> <s_lp_Variant>
AV-unprocessed.smi:2709-4

> <Gold.Version>
5.8.1

> <Gold.Id.Protein>
6NUR|6NUR_protein|mol2

> <Gold.PLP.Fitness>
38.7171

> <Gold.PLP.PLP>
-31.3526

> <Gold.PLP.part.hbond>
-3.4923

> <Gold.PLP.part.metal>
0.0000

> <Gold.PLP.part.buried>
-4.6863

> <Gold.PLP.part.nonpolar>
-24.6785

> <Gold.PLP.part.repulsive>
0.4572

> <Gold.PLP.ligand.clash>
0.0000

> <Gold.PLP.ligand.torsion>
0.2489

> <Gold.PLP.Chemscore.Hbond>
2.5780

> <Gold.PLP.Chemscore.CHOScore>
0.0000

> <Gold.PLP.Chemscore.Metal>
0.0000

> <Gold.Chemscore.Hbonds>
donor molecule, donor type, donor heavy atom, donor atom, acceptor molecule, acceptor atom, score
      L1  H     8    32       P1  7948  0.94
      L1  H    11    33       P1  7948  1.00
      P1  H  7989  7998       L1    19  0.65

> <Gold.PLP.Chemscore.Internal.Correction>
0.1284

> <Gold.Rescore>
     Score         DG    S(hbond)    S(metal)    S(lipo)     H(rot)  DE(clash)    DE(int)     intcor
     14.61     -16.15       1.95        0.00      66.43       1.41       0.00       1.53       ----

> <Gold.Chemscore.Fitness>
14.6114

> <Gold.Chemscore.DG>
-16.1459

> <Gold.Chemscore.ZeroCoef>
-5.4800

> <Gold.Chemscore.Hbond>
1.9482

> <Gold.Chemscore.Metal>
0.0000

> <Gold.Chemscore.Lipo>
66.4296

> <Gold.Chemscore.Internal_Hbond>
0.0000

> <Gold.Chemscore.DEClash>
0.0033

> <Gold.Chemscore.DEInternal>
1.5312

> <Gold.Chemscore.Rot>
1.4114

> <Gold.Chemscore.Internal.Correction>
   9.000000E+99

> <Gold.Chemscore.Hbonds>
donor molecule, donor type, donor heavy atom, donor atom, acceptor molecule, acceptor atom, score
      L1  H     8    32       P1  7948  0.91
      L1  H    11    33       P1  7948  0.99
      P1  H  7989  7998       L1    19  0.02

> <Gold.Chemscore.Hbond.Weighted>
-6.5069

> <Gold.Chemscore.Metal.Weighted>
-0.0000

> <Gold.Chemscore.Lipo.Weighted>
-7.7723

> <Gold.Chemscore.Internal_Hbond.Weighted>
0.0000

> <Gold.Chemscore.DEClash.Weighted>
0.0033

> <Gold.Chemscore.DEInternal.Weighted>
1.5312

> <Gold.Chemscore.Rot.Weighted>
3.6133

> <Gold.Chemscore.Internal.Correction.Weighted>
   9.000000E+99

> <Gold.Protein.RotatedTorsions>
[ 6907 6896 6895 6894 ] final -146.05 input  -60.11 | X-H torsion
[ 7974 7965 7964 7962 ] final  177.49 input  175.53 | X-H torsion
[ 8008 7997 7996 7995 ] final -166.17 input   59.86 | X-H torsion
[ 10167 10162 10161 10158 ] final  -27.75 input  -65.29 | X-H torsion
[ 10718 10713 10712 10709 ] final  -48.69 input   66.30 | X-H torsion
[ 10763 10752 10751 10750 ] final   63.11 input  -60.55 | X-H torsion
[ 11005 11000 10999 10996 ] final  -80.17 input  -57.11 | X-H torsion

> <Gold.Protein.ActiveResidues>
 VAL166  LYS551  ARG553  GLY616  TRP617  ASP618  TYR619  PRO620  LYS621  CYS622 
 ASP623  PHE694  ASN695  SER759  ASP760  ASP761  ALA762  ILE779  LEU786  VAL792 
 PHE793  MET794  SER795  GLU796  ALA797  LYS798  CYS799  TRP800  GLU811  SER814 

> <Gold.Protein.RotatedAtoms>
  151.1363  133.5002  159.2597 H   0  0  0  0  0  0  0  0  0  0  0  0  # atno 6907 bound_to 6896
  151.1703  135.0314  159.8758 H   0  0  0  0  0  0  0  0  0  0  0  0  # atno 6908 bound_to 6896
  152.5461  134.1227  159.8459 H   0  0  0  0  0  0  0  0  0  0  0  0  # atno 6909 bound_to 6896
  144.7168  140.0255  143.6439 H   0  0  0  0  0  0  0  0  0  0  0  0  # atno 7974 bound_to 7965
  155.8601  140.0976  157.1619 H   0  0  0  0  0  0  0  0  0  0  0  0  # atno 8008 bound_to 7997
  154.3990  140.1367  156.4012 H   0  0  0  0  0  0  0  0  0  0  0  0  # atno 8009 bound_to 7997
  155.7866  140.3457  155.5329 H   0  0  0  0  0  0  0  0  0  0  0  0  # atno 8010 bound_to 7997
  140.7275  143.4067  151.1173 H   0  0  0  0  0  0  0  0  0  0  0  0  # atno 10167 bound_to 10162
  156.1964  130.4154  149.9300 H   0  0  0  0  0  0  0  0  0  0  0  0  # atno 10718 bound_to 10713
  153.0006  135.5441  154.6299 H   0  0  0  0  0  0  0  0  0  0  0  0  # atno 10763 bound_to 10752
  154.5579  135.2831  155.0949 H   0  0  0  0  0  0  0  0  0  0  0  0  # atno 10764 bound_to 10752
  154.2163  135.6458  153.5183 H   0  0  0  0  0  0  0  0  0  0  0  0  # atno 10765 bound_to 10752
  141.1668  133.7138  156.8233 H   0  0  0  0  0  0  0  0  0  0  0  0  # atno 11005 bound_to 11000
  146.0145  139.3198  143.0850 LP  0  0  0  0  0  0  0  0  0  0  0  0  # atno 17320 bound_to 7965
  145.8642  140.9458  143.0684 LP  0  0  0  0  0  0  0  0  0  0  0  0  # atno 17321 bound_to 7965
  139.7695  143.8516  152.3117 LP  0  0  0  0  0  0  0  0  0  0  0  0  # atno 17342 bound_to 10162
  139.8429  144.7201  150.9308 LP  0  0  0  0  0  0  0  0  0  0  0  0  # atno 17343 bound_to 10162
  156.7024  130.8938  151.3601 LP  0  0  0  0  0  0  0  0  0  0  0  0  # atno 17370 bound_to 10713
  157.6960  130.9282  150.0646 LP  0  0  0  0  0  0  0  0  0  0  0  0  # atno 17371 bound_to 10713
  140.2103  134.8832  157.3267 LP  0  0  0  0  0  0  0  0  0  0  0  0  # atno 17394 bound_to 11000
  140.2093  134.4158  155.7621 LP  0  0  0  0  0  0  0  0  0  0  0  0  # atno 17395 bound_to 11000

$$$$
