AV-unprocessed.smi:1265|AV-procd|sdf|5317|dock3
  -GOLD-   22720 4443D 1   1.00000     0.00000
 Structure written by MMmdl.
 45 47  0  0  0  0  0  0  0  0  2 V2000
  145.1174  138.2409  152.9465 O   0  0  0  0  0  0  0  0  0  0  0  0
  146.2223  137.7906  152.6466 C   0  0  0  0  0  0  0  0  0  0  0  0
  146.3994  136.6155  152.0265 N   0  0  0  0  0  0  0  0  0  0  0  0
  145.3415  135.6880  151.6268 C   0  0  0  0  0  0  0  0  0  0  0  0
  145.4273  134.3194  152.3802 C   0  0  1  0  0  0  0  0  0  0  0  0
  145.5026  134.5422  153.8575 N   0  0  0  0  0  0  0  0  0  0  0  0
  144.3223  135.1612  154.4791 C   0  0  0  0  0  0  0  0  0  0  0  0
  144.5189  135.4233  155.9823 C   0  0  0  0  0  0  0  0  0  0  0  0
  144.8508  134.2106  156.6444 O   0  0  0  0  0  0  0  0  0  0  0  0
  146.0353  133.6238  156.1236 C   0  0  0  0  0  0  0  0  0  0  0  0
  145.8542  133.3382  154.6235 C   0  0  0  0  0  0  0  0  0  0  0  0
  144.2053  133.4582  151.9467 C   0  0  0  0  0  0  0  0  0  0  0  0
  144.3891  133.0164  150.4908 C   0  0  0  0  0  0  0  0  0  0  0  0
  146.1630  132.8024  150.2130 S   0  0  0  0  0  0  0  0  0  0  0  0
  146.6320  133.5282  151.8086 C   0  0  0  0  0  0  0  0  0  0  0  0
  147.4017  138.3918  152.8824 N   0  0  0  0  0  0  0  0  0  0  0  0
  147.6692  139.6501  153.4905 C   0  0  0  0  0  0  0  0  0  0  0  0
  148.9004  139.7873  154.1705 C   0  0  0  0  0  0  0  0  0  0  0  0
  149.2188  141.0081  154.7993 C   0  0  0  0  0  0  0  0  0  0  0  0
  148.3449  142.0357  154.7530 N   0  3  0  0  0  0  0  0  0  0  0  0
  147.1530  141.9513  154.1247 C   0  0  0  0  0  0  0  0  0  0  0  0
  146.7788  140.7552  153.4788 C   0  0  0  0  0  0  0  0  0  0  0  0
  147.3447  136.3224  151.8274 H   0  0  0  0  0  0  0  0  0  0  0  0
  144.3639  136.1540  151.7470 H   0  0  0  0  0  0  0  0  0  0  0  0
  145.4182  135.5471  150.5497 H   0  0  0  0  0  0  0  0  0  0  0  0
  144.0997  136.1241  154.0257 H   0  0  0  0  0  0  0  0  0  0  0  0
  143.4431  134.5317  154.3477 H   0  0  0  0  0  0  0  0  0  0  0  0
  145.3040  136.1633  156.1461 H   0  0  0  0  0  0  0  0  0  0  0  0
  143.6045  135.8263  156.4180 H   0  0  0  0  0  0  0  0  0  0  0  0
  146.8853  134.2872  156.2914 H   0  0  0  0  0  0  0  0  0  0  0  0
  146.2403  132.6988  156.6626 H   0  0  0  0  0  0  0  0  0  0  0  0
  145.0824  132.5779  154.4981 H   0  0  0  0  0  0  0  0  0  0  0  0
  146.7846  132.9031  154.2662 H   0  0  0  0  0  0  0  0  0  0  0  0
  144.1517  132.5341  152.5175 H   0  0  0  0  0  0  0  0  0  0  0  0
  143.2525  133.9653  152.0972 H   0  0  0  0  0  0  0  0  0  0  0  0
  143.8518  132.0921  150.2773 H   0  0  0  0  0  0  0  0  0  0  0  0
  144.0130  133.7749  149.8043 H   0  0  0  0  0  0  0  0  0  0  0  0
  147.5235  134.1455  151.6944 H   0  0  0  0  0  0  0  0  0  0  0  0
  146.9055  132.6947  152.4532 H   0  0  0  0  0  0  0  0  0  0  0  0
  148.2147  137.9019  152.5388 H   0  0  0  0  0  0  0  0  0  0  0  0
  149.6011  138.9656  154.2095 H   0  0  0  0  0  0  0  0  0  0  0  0
  150.1388  141.1909  155.3351 H   0  0  0  0  0  0  0  0  0  0  0  0
  146.5347  142.8364  154.1609 H   0  0  0  0  0  0  0  0  0  0  0  0
  145.8141  140.7150  152.9984 H   0  0  0  0  0  0  0  0  0  0  0  0
  148.5936  142.9111  155.2149 H   0  0  0  0  0  0  0  0  0  0  0  0
  1  2  2  0  0  0  0
  2  3  1  0  0  0  0
  2 16  1  0  0  0  0
  3  4  1  0  0  0  0
  3 23  1  0  0  0  0
  4  5  1  0  0  0  0
  4 24  1  0  0  0  0
  4 25  1  0  0  0  0
  5 15  1  0  0  0  0
  5  6  1  0  0  0  0
  5 12  1  0  0  0  0
  6 11  1  0  0  0  0
  6  7  1  0  0  0  0
  7  8  1  0  0  0  0
  7 26  1  0  0  0  0
  7 27  1  0  0  0  0
  8  9  1  0  0  0  0
  8 28  1  0  0  0  0
  8 29  1  0  0  0  0
  9 10  1  0  0  0  0
 10 11  1  0  0  0  0
 10 30  1  0  0  0  0
 10 31  1  0  0  0  0
 11 32  1  0  0  0  0
 11 33  1  0  0  0  0
 12 13  1  0  0  0  0
 12 34  1  0  0  0  0
 12 35  1  0  0  0  0
 13 14  1  0  0  0  0
 13 36  1  0  0  0  0
 13 37  1  0  0  0  0
 14 15  1  0  0  0  0
 15 38  1  0  0  0  0
 15 39  1  0  0  0  0
 16 17  1  0  0  0  0
 16 40  1  0  0  0  0
 17 22  1  0  0  0  0
 17 18  2  0  0  0  0
 18 19  1  0  0  0  0
 18 41  1  0  0  0  0
 19 20  2  0  0  0  0
 19 42  1  0  0  0  0
 20 21  1  0  0  0  0
 20 45  1  0  0  0  0
 21 22  2  0  0  0  0
 21 43  1  0  0  0  0
 22 44  1  0  0  0  0
M  CHG  1  20   1
M  END
> <s_m_source_file>
AV-unprocessed.smi

> <i_m_source_file_index>
1265

> <i_lp_mmshare_version>
43012

> <i_f3d_flags>
0

> <s_epik_input>
W2NIXTFbY0hdbltjSF1bY0hdYzFbTkhdQyg9TylbTkhdW0NIMl1bQ0BdMihbQ0gyXVtDSDJdU1tDSDJdMilOM1tDSDJdW0NIMl1PW0NIMl1bQ0gyXTM=

> <s_epik_cmdline>
J2VwaWtfcHl0aG9uJywgJy1waCcsICc3LjAnLCAnLXRuJywgJzgnLCAnLW1hJywgJzIwMCcsICctbWV0YWxfYmluZGluZycsICctaW1hZScsICc8aW5maWxlLm1hZT4nLCAnLW9tYWUnLCAnPG91dGZpbGUubWFlPic=

> <r_epik_Ionization_Penalty>
1.06168

> <r_epik_Ionization_Penalty_Charging>
1.04215

> <r_epik_Ionization_Penalty_Neutral>
0.019527

> <r_epik_State_Penalty>
1.12733

> <r_epik_Charging_Adjusted_Penalty>
2.16948

> <i_epik_Tot_Q>
1

> <i_epik_Tot_abs_Q>
1

> <r_epik_Metal_State_Penalty>
1.22116

> <b_epik_Metal_Only>
0

> <s_lp_Force_Field>
OPLS_2005

> <r_lp_Energy>
64.97

> <b_lp_Chiralities_Consistent>
1

> <s_lp_Variant>
AV-unprocessed.smi:1265-3

> <Gold.Version>
5.8.1

> <Gold.Id.Protein>
6NUR|6NUR_protein|mol2

> <Gold.PLP.Fitness>
41.3215

> <Gold.PLP.PLP>
-30.0822

> <Gold.PLP.part.hbond>
-3.5209

> <Gold.PLP.part.metal>
0.0000

> <Gold.PLP.part.buried>
-2.7588

> <Gold.PLP.part.nonpolar>
-27.4099

> <Gold.PLP.part.repulsive>
3.1513

> <Gold.PLP.ligand.clash>
0.0000

> <Gold.PLP.ligand.torsion>
0.3597

> <Gold.PLP.Chemscore.Hbond>
3.9600

> <Gold.PLP.Chemscore.CHOScore>
0.0000

> <Gold.PLP.Chemscore.Metal>
0.0000

> <Gold.Chemscore.Hbonds>
donor molecule, donor type, donor heavy atom, donor atom, acceptor molecule, acceptor atom, score
      L1  H     3    23       P1  7948  1.00
      L1  H    16    40       P1  7948  0.96
      L1  H    20    45       P1  8028  2.00

> <Gold.PLP.Chemscore.Internal.Correction>
0.0785

> <Gold.Rescore>
     Score         DG    S(hbond)    S(metal)    S(lipo)     H(rot)  DE(clash)    DE(int)     intcor
     18.62     -20.36       2.93        0.00      75.88       1.47       1.36       0.38       ----

> <Gold.Chemscore.Fitness>
18.6219

> <Gold.Chemscore.DG>
-20.3591

> <Gold.Chemscore.ZeroCoef>
-5.4800

> <Gold.Chemscore.Hbond>
2.9267

> <Gold.Chemscore.Metal>
0.0000

> <Gold.Chemscore.Lipo>
75.8828

> <Gold.Chemscore.Internal_Hbond>
0.0000

> <Gold.Chemscore.DEClash>
1.3607

> <Gold.Chemscore.DEInternal>
0.3765

> <Gold.Chemscore.Rot>
1.4743

> <Gold.Chemscore.Internal.Correction>
   9.000000E+99

> <Gold.Chemscore.Hbonds>
donor molecule, donor type, donor heavy atom, donor atom, acceptor molecule, acceptor atom, score
      L1  H     3    23       P1  7948  0.98
      L1  H    16    40       P1  7948  0.92
      L1  H    20    45       P1  8028  1.00

> <Gold.Chemscore.Hbond.Weighted>
-9.7751

> <Gold.Chemscore.Metal.Weighted>
-0.0000

> <Gold.Chemscore.Lipo.Weighted>
-8.8783

> <Gold.Chemscore.Internal_Hbond.Weighted>
0.0000

> <Gold.Chemscore.DEClash.Weighted>
1.3607

> <Gold.Chemscore.DEInternal.Weighted>
0.3765

> <Gold.Chemscore.Rot.Weighted>
3.7742

> <Gold.Chemscore.Internal.Correction.Weighted>
   9.000000E+99

> <Gold.Protein.RotatedTorsions>
[ 6907 6896 6895 6894 ] final -154.97 input  -60.11 | X-H torsion
[ 7974 7965 7964 7962 ] final  -15.18 input  175.53 | X-H torsion
[ 8008 7997 7996 7995 ] final -126.40 input   59.86 | X-H torsion
[ 10167 10162 10161 10158 ] final  -89.84 input  -65.29 | X-H torsion
[ 10718 10713 10712 10709 ] final  -77.92 input   66.30 | X-H torsion
[ 10763 10752 10751 10750 ] final -160.89 input  -60.55 | X-H torsion
[ 11005 11000 10999 10996 ] final   79.76 input  -57.11 | X-H torsion

> <Gold.Protein.ActiveResidues>
 VAL166  LYS551  ARG553  GLY616  TRP617  ASP618  TYR619  PRO620  LYS621  CYS622 
 ASP623  PHE694  ASN695  SER759  ASP760  ASP761  ALA762  ILE779  LEU786  VAL792 
 PHE793  MET794  SER795  GLU796  ALA797  LYS798  CYS799  TRP800  GLU811  SER814 

> <Gold.Protein.RotatedAtoms>
  151.2655  133.4281  159.2618 H   0  0  0  0  0  0  0  0  0  0  0  0  # atno 6907 bound_to 6896
  151.0492  134.9661  159.8213 H   0  0  0  0  0  0  0  0  0  0  0  0  # atno 6908 bound_to 6896
  152.5379  134.2610  159.8988 H   0  0  0  0  0  0  0  0  0  0  0  0  # atno 6909 bound_to 6896
  146.2043  140.3455  142.8412 H   0  0  0  0  0  0  0  0  0  0  0  0  # atno 7974 bound_to 7965
  155.2290  140.0424  157.2959 H   0  0  0  0  0  0  0  0  0  0  0  0  # atno 8008 bound_to 7997
  154.5900  140.2424  155.7904 H   0  0  0  0  0  0  0  0  0  0  0  0  # atno 8009 bound_to 7997
  156.2253  140.2956  156.0059 H   0  0  0  0  0  0  0  0  0  0  0  0  # atno 8010 bound_to 7997
  140.3608  143.2843  151.9617 H   0  0  0  0  0  0  0  0  0  0  0  0  # atno 10167 bound_to 10162
  156.0131  130.4504  150.3418 H   0  0  0  0  0  0  0  0  0  0  0  0  # atno 10718 bound_to 10713
  154.7352  135.3055  154.8824 H   0  0  0  0  0  0  0  0  0  0  0  0  # atno 10763 bound_to 10752
  153.9655  135.6748  153.4750 H   0  0  0  0  0  0  0  0  0  0  0  0  # atno 10764 bound_to 10752
  153.0955  135.4938  154.8693 H   0  0  0  0  0  0  0  0  0  0  0  0  # atno 10765 bound_to 10752
  139.9160  134.7867  156.1820 H   0  0  0  0  0  0  0  0  0  0  0  0  # atno 11005 bound_to 11000
  144.8755  140.7331  143.6019 LP  0  0  0  0  0  0  0  0  0  0  0  0  # atno 17320 bound_to 7965
  145.3375  139.1742  143.4504 LP  0  0  0  0  0  0  0  0  0  0  0  0  # atno 17321 bound_to 7965
  139.4814  144.5994  151.7632 LP  0  0  0  0  0  0  0  0  0  0  0  0  # atno 17342 bound_to 10162
  140.5129  144.0998  150.6000 LP  0  0  0  0  0  0  0  0  0  0  0  0  # atno 17343 bound_to 10162
  157.1513  131.0321  151.2883 LP  0  0  0  0  0  0  0  0  0  0  0  0  # atno 17370 bound_to 10713
  157.4389  130.7533  149.7053 LP  0  0  0  0  0  0  0  0  0  0  0  0  # atno 17371 bound_to 10713
  141.0636  133.6830  156.2001 LP  0  0  0  0  0  0  0  0  0  0  0  0  # atno 17394 bound_to 11000
  140.6621  134.4957  157.5584 LP  0  0  0  0  0  0  0  0  0  0  0  0  # atno 17395 bound_to 11000

$$$$
