AV-unprocessed.smi:1389|AV-procd|sdf|5650|dock8
  -GOLD-   22720 5273D 1   1.00000     0.00000
 Structure written by MMmdl.
 52 54  0  0  0  0  0  0  0  0  2 V2000
  146.8977  133.4197  159.1775 C   0  0  0  0  0  0  0  0  0  0  0  0
  146.9943  134.9617  159.2387 C   0  0  2  0  0  0  0  0  0  0  0  0
  148.3241  135.3881  158.5623 C   0  0  0  0  0  0  0  0  0  0  0  0
  148.2442  136.7446  158.0247 N   0  0  0  0  0  0  0  0  0  0  0  0
  149.0259  137.7738  158.3784 C   0  0  0  0  0  0  0  0  0  0  0  0
  149.8534  137.7295  159.2885 O   0  0  0  0  0  0  0  0  0  0  0  0
  148.8070  138.8385  157.5906 N   0  0  0  0  0  0  0  0  0  0  0  0
  149.5257  140.0659  157.5786 C   0  0  0  0  0  0  0  0  0  0  0  0
  150.7288  140.2319  158.3099 C   0  0  0  0  0  0  0  0  0  0  0  0
  151.4055  141.4662  158.2710 C   0  0  0  0  0  0  0  0  0  0  0  0
  150.8638  142.5174  157.5098 C   0  0  0  0  0  0  0  0  0  0  0  0
  149.7082  142.3316  156.8382 N   0  3  0  0  0  0  0  0  0  0  0  0
  149.0151  141.1660  156.8373 C   0  0  0  0  0  0  0  0  0  0  0  0
  147.8063  141.0896  156.1141 N   0  0  0  0  0  0  0  0  0  0  0  0
  146.7806  142.0295  156.5571 C   0  0  0  0  0  0  0  0  0  0  0  0
  146.0071  142.4451  155.3046 C   0  0  0  0  0  0  0  0  0  0  0  0
  147.0380  142.2847  154.1943 C   0  0  0  0  0  0  0  0  0  0  0  0
  147.8328  141.0633  154.6525 C   0  0  0  0  0  0  0  0  0  0  0  0
  146.8115  135.5158  160.5980 N   0  0  0  0  0  0  0  0  0  0  0  0
  146.3480  136.9062  160.5922 C   0  0  0  0  0  0  0  0  0  0  0  0
  146.1683  137.4725  162.0119 C   0  0  0  0  0  0  0  0  0  0  0  0
  147.3879  137.3603  162.7338 O   0  0  0  0  0  0  0  0  0  0  0  0
  147.8453  136.0165  162.8146 C   0  0  0  0  0  0  0  0  0  0  0  0
  148.0396  135.4543  161.3967 C   0  0  0  0  0  0  0  0  0  0  0  0
  147.1536  133.0463  158.1855 H   0  0  0  0  0  0  0  0  0  0  0  0
  145.8871  133.0669  159.3815 H   0  0  0  0  0  0  0  0  0  0  0  0
  147.5706  132.9453  159.8926 H   0  0  0  0  0  0  0  0  0  0  0  0
  146.1893  135.3459  158.6105 H   0  0  0  0  0  0  0  0  0  0  0  0
  149.1265  135.3782  159.3007 H   0  0  0  0  0  0  0  0  0  0  0  0
  148.6422  134.6703  157.8064 H   0  0  0  0  0  0  0  0  0  0  0  0
  147.5897  136.8867  157.2695 H   0  0  0  0  0  0  0  0  0  0  0  0
  148.1636  138.6991  156.8255 H   0  0  0  0  0  0  0  0  0  0  0  0
  151.1372  139.4310  158.9077 H   0  0  0  0  0  0  0  0  0  0  0  0
  152.3251  141.6040  158.8209 H   0  0  0  0  0  0  0  0  0  0  0  0
  151.3119  143.4968  157.4242 H   0  0  0  0  0  0  0  0  0  0  0  0
  146.1197  141.5753  157.2958 H   0  0  0  0  0  0  0  0  0  0  0  0
  147.2469  142.9034  157.0156 H   0  0  0  0  0  0  0  0  0  0  0  0
  145.1760  141.7586  155.1363 H   0  0  0  0  0  0  0  0  0  0  0  0
  145.6028  143.4554  155.3704 H   0  0  0  0  0  0  0  0  0  0  0  0
  146.5892  142.1544  153.2092 H   0  0  0  0  0  0  0  0  0  0  0  0
  147.6872  143.1608  154.1601 H   0  0  0  0  0  0  0  0  0  0  0  0
  148.8304  141.0448  154.2145 H   0  0  0  0  0  0  0  0  0  0  0  0
  147.3292  140.1517  154.3293 H   0  0  0  0  0  0  0  0  0  0  0  0
  147.0511  137.5295  160.0377 H   0  0  0  0  0  0  0  0  0  0  0  0
  145.3871  136.9867  160.0860 H   0  0  0  0  0  0  0  0  0  0  0  0
  145.8772  138.5220  161.9667 H   0  0  0  0  0  0  0  0  0  0  0  0
  145.3746  136.9428  162.5410 H   0  0  0  0  0  0  0  0  0  0  0  0
  148.7864  135.9930  163.3640 H   0  0  0  0  0  0  0  0  0  0  0  0
  147.1308  135.4113  163.3751 H   0  0  0  0  0  0  0  0  0  0  0  0
  148.3896  134.4297  161.4951 H   0  0  0  0  0  0  0  0  0  0  0  0
  148.8349  136.0077  160.8953 H   0  0  0  0  0  0  0  0  0  0  0  0
  149.3339  143.1147  156.3024 H   0  0  0  0  0  0  0  0  0  0  0  0
  1  2  1  0  0  0  0
  1 25  1  0  0  0  0
  1 26  1  0  0  0  0
  1 27  1  0  0  0  0
  2  3  1  0  0  0  0
  2 19  1  0  0  0  0
  2 28  1  0  0  0  0
  3  4  1  0  0  0  0
  3 29  1  0  0  0  0
  3 30  1  0  0  0  0
  4  5  1  0  0  0  0
  4 31  1  0  0  0  0
  5  6  2  0  0  0  0
  5  7  1  0  0  0  0
  7  8  1  0  0  0  0
  7 32  1  0  0  0  0
  8 13  1  0  0  0  0
  8  9  2  0  0  0  0
  9 10  1  0  0  0  0
  9 33  1  0  0  0  0
 10 11  2  0  0  0  0
 10 34  1  0  0  0  0
 11 12  1  0  0  0  0
 11 35  1  0  0  0  0
 12 13  2  0  0  0  0
 12 52  1  0  0  0  0
 13 14  1  0  0  0  0
 14 18  1  0  0  0  0
 14 15  1  0  0  0  0
 15 16  1  0  0  0  0
 15 36  1  0  0  0  0
 15 37  1  0  0  0  0
 16 17  1  0  0  0  0
 16 38  1  0  0  0  0
 16 39  1  0  0  0  0
 17 18  1  0  0  0  0
 17 40  1  0  0  0  0
 17 41  1  0  0  0  0
 18 42  1  0  0  0  0
 18 43  1  0  0  0  0
 19 24  1  0  0  0  0
 19 20  1  0  0  0  0
 20 21  1  0  0  0  0
 20 44  1  0  0  0  0
 20 45  1  0  0  0  0
 21 22  1  0  0  0  0
 21 46  1  0  0  0  0
 21 47  1  0  0  0  0
 22 23  1  0  0  0  0
 23 24  1  0  0  0  0
 23 48  1  0  0  0  0
 23 49  1  0  0  0  0
 24 50  1  0  0  0  0
 24 51  1  0  0  0  0
M  CHG  1  12   1
M  END
> <s_m_source_file>
AV-unprocessed.smi

> <i_m_source_file_index>
1389

> <i_lp_mmshare_version>
43012

> <i_f3d_flags>
0

> <s_epik_input>
W0NIMl0xW0NIMl1PW0NIMl1bQ0gyXU4xW0NASF0oW0NIM10pW0NIMl1bTkhdQyg9TylbTkhdYzJbY0hdW2NIXVtjSF1uYzJOM1tDSDJdW0NIMl1bQ0gyXVtDSDJdMw==

> <s_epik_cmdline>
J2VwaWtfcHl0aG9uJywgJy1waCcsICc3LjAnLCAnLXRuJywgJzgnLCAnLW1hJywgJzIwMCcsICctbWV0YWxfYmluZGluZycsICctaW1hZScsICc8aW5maWxlLm1hZT4nLCAnLW9tYWUnLCAnPG91dGZpbGUubWFlPic=

> <r_epik_Ionization_Penalty>
1.37675

> <r_epik_Ionization_Penalty_Charging>
1.11074

> <r_epik_Ionization_Penalty_Neutral>
0.26601

> <r_epik_State_Penalty>
1.46015

> <r_epik_Charging_Adjusted_Penalty>
2.57089

> <i_epik_Tot_Q>
1

> <i_epik_Tot_abs_Q>
1

> <r_epik_Metal_State_Penalty>
1.54223

> <b_epik_Metal_Only>
0

> <s_lp_Force_Field>
OPLS_2005

> <r_lp_Energy>
66.6842

> <b_lp_Chiralities_Consistent>
1

> <s_lp_Variant>
AV-unprocessed.smi:1389-5

> <Gold.Version>
5.8.1

> <Gold.Id.Protein>
6NUR|6NUR_protein|mol2

> <Gold.PLP.Fitness>
39.0457

> <Gold.PLP.PLP>
-33.0184

> <Gold.PLP.part.hbond>
-4.0000

> <Gold.PLP.part.metal>
0.0000

> <Gold.PLP.part.buried>
-5.1881

> <Gold.PLP.part.nonpolar>
-24.3110

> <Gold.PLP.part.repulsive>
0.2288

> <Gold.PLP.ligand.clash>
0.0000

> <Gold.PLP.ligand.torsion>
0.7813

> <Gold.PLP.Chemscore.Hbond>
2.4535

> <Gold.PLP.Chemscore.CHOScore>
0.0000

> <Gold.PLP.Chemscore.Metal>
0.0000

> <Gold.Chemscore.Hbonds>
donor molecule, donor type, donor heavy atom, donor atom, acceptor molecule, acceptor atom, score
      L1  H    12    52       P1  8028  2.00
      P1  H  6931  6943       L1    22  0.66

> <Gold.PLP.Chemscore.Internal.Correction>
0.2293

> <Gold.Rescore>
     Score         DG    S(hbond)    S(metal)    S(lipo)     H(rot)  DE(clash)    DE(int)     intcor
     12.52     -14.84       1.28        0.00      78.42       1.60       0.27       2.05       ----

> <Gold.Chemscore.Fitness>
12.5173

> <Gold.Chemscore.DG>
-14.8358

> <Gold.Chemscore.ZeroCoef>
-5.4800

> <Gold.Chemscore.Hbond>
1.2830

> <Gold.Chemscore.Metal>
0.0000

> <Gold.Chemscore.Lipo>
78.4220

> <Gold.Chemscore.Internal_Hbond>
0.0000

> <Gold.Chemscore.DEClash>
0.2684

> <Gold.Chemscore.DEInternal>
2.0500

> <Gold.Chemscore.Rot>
1.6035

> <Gold.Chemscore.Internal.Correction>
   9.000000E+99

> <Gold.Chemscore.Hbonds>
donor molecule, donor type, donor heavy atom, donor atom, acceptor molecule, acceptor atom, score
      L1  H    12    52       P1  8028  1.00
      P1  H  6931  6943       L1    22  0.17

> <Gold.Chemscore.Hbond.Weighted>
-4.2853

> <Gold.Chemscore.Metal.Weighted>
-0.0000

> <Gold.Chemscore.Lipo.Weighted>
-9.1754

> <Gold.Chemscore.Internal_Hbond.Weighted>
0.0000

> <Gold.Chemscore.DEClash.Weighted>
0.2684

> <Gold.Chemscore.DEInternal.Weighted>
2.0500

> <Gold.Chemscore.Rot.Weighted>
4.1049

> <Gold.Chemscore.Internal.Correction.Weighted>
   9.000000E+99

> <Gold.Protein.RotatedTorsions>
[ 6907 6896 6895 6894 ] final   95.55 input  -60.11 | X-H torsion
[ 7974 7965 7964 7962 ] final  -76.58 input  175.53 | X-H torsion
[ 8008 7997 7996 7995 ] final  129.23 input   59.86 | X-H torsion
[ 10167 10162 10161 10158 ] final -145.76 input  -65.29 | X-H torsion
[ 10718 10713 10712 10709 ] final   82.34 input   66.30 | X-H torsion
[ 10763 10752 10751 10750 ] final  156.60 input  -60.55 | X-H torsion
[ 11005 11000 10999 10996 ] final   99.26 input  -57.11 | X-H torsion

> <Gold.Protein.ActiveResidues>
 VAL166  LYS551  ARG553  GLY616  TRP617  ASP618  TYR619  PRO620  LYS621  CYS622 
 ASP623  PHE694  ASN695  SER759  ASP760  ASP761  ALA762  ILE779  LEU786  VAL792 
 PHE793  MET794  SER795  GLU796  ALA797  LYS798  CYS799  TRP800  GLU811  SER814 

> <Gold.Protein.RotatedAtoms>
  152.5442  134.1022  159.8322 H   0  0  0  0  0  0  0  0  0  0  0  0  # atno 6907 bound_to 6896
  151.1098  133.5174  159.2613 H   0  0  0  0  0  0  0  0  0  0  0  0  # atno 6908 bound_to 6896
  151.1897  135.0406  159.8881 H   0  0  0  0  0  0  0  0  0  0  0  0  # atno 6909 bound_to 6896
  145.6111  140.9386  143.1189 H   0  0  0  0  0  0  0  0  0  0  0  0  # atno 7974 bound_to 7965
  156.2932  140.2625  156.2565 H   0  0  0  0  0  0  0  0  0  0  0  0  # atno 8008 bound_to 7997
  154.9831  140.0389  157.2305 H   0  0  0  0  0  0  0  0  0  0  0  0  # atno 8009 bound_to 7997
  154.7754  140.2785  155.6110 H   0  0  0  0  0  0  0  0  0  0  0  0  # atno 8010 bound_to 7997
  139.7775  143.8148  152.2634 H   0  0  0  0  0  0  0  0  0  0  0  0  # atno 10167 bound_to 10162
  157.6855  131.0044  150.2361 H   0  0  0  0  0  0  0  0  0  0  0  0  # atno 10718 bound_to 10713
  154.1870  135.2796  155.3034 H   0  0  0  0  0  0  0  0  0  0  0  0  # atno 10763 bound_to 10752
  154.5959  135.5545  153.7328 H   0  0  0  0  0  0  0  0  0  0  0  0  # atno 10764 bound_to 10752
  153.0122  135.6379  154.2008 H   0  0  0  0  0  0  0  0  0  0  0  0  # atno 10765 bound_to 10752
  139.8771  134.9087  156.4580 H   0  0  0  0  0  0  0  0  0  0  0  0  # atno 11005 bound_to 11000
  144.7270  139.7845  143.7361 LP  0  0  0  0  0  0  0  0  0  0  0  0  # atno 17320 bound_to 7965
  146.1504  139.4585  143.0052 LP  0  0  0  0  0  0  0  0  0  0  0  0  # atno 17321 bound_to 7965
  139.8201  144.7299  150.9584 LP  0  0  0  0  0  0  0  0  0  0  0  0  # atno 17342 bound_to 10162
  140.7817  143.4167  151.0906 LP  0  0  0  0  0  0  0  0  0  0  0  0  # atno 17343 bound_to 10162
  156.2984  130.3755  149.7774 LP  0  0  0  0  0  0  0  0  0  0  0  0  # atno 17370 bound_to 10713
  156.5411  130.8300  151.3269 LP  0  0  0  0  0  0  0  0  0  0  0  0  # atno 17371 bound_to 10713
  140.8884  133.7866  155.9544 LP  0  0  0  0  0  0  0  0  0  0  0  0  # atno 17394 bound_to 11000
  140.8779  134.2647  157.5158 LP  0  0  0  0  0  0  0  0  0  0  0  0  # atno 17395 bound_to 11000

$$$$
