AV-unprocessed.smi:1180|AV-procd|sdf|4963|dock6
  -GOLD-   22720 3553D 1   1.00000     0.00000
 Structure written by MMmdl.
 38 39  0  0  0  0  0  0  0  0  1 V2000
  146.7807  138.7497  153.1389 C   0  0  0  0  0  0  0  0  0  0  0  0
  148.0399  139.1796  153.8601 C   0  0  0  0  0  0  0  0  0  0  0  0
  149.1130  138.3273  153.6602 N   0  0  0  0  0  0  0  0  0  0  0  0
  150.3145  138.6428  154.2699 C   0  0  0  0  0  0  0  0  0  0  0  0
  151.4380  137.6612  153.9853 C   0  0  0  0  0  0  0  0  0  0  0  0
  150.4384  139.7501  155.0457 C   0  0  0  0  0  0  0  0  0  0  0  0
  151.7416  140.1447  155.7373 C   0  0  0  0  0  0  0  0  0  0  0  0
  151.6547  140.2933  157.2565 C   0  0  0  0  0  0  0  0  0  0  0  0
  151.4180  139.3121  157.9603 O   0  0  0  0  0  0  0  0  0  0  0  0
  151.8462  141.5282  157.7451 N   0  0  0  0  0  0  0  0  0  0  0  0
  151.7962  141.9019  159.1548 C   0  0  0  0  0  0  0  0  0  0  0  0
  151.4042  143.3792  159.3451 C   0  0  1  0  0  0  0  0  0  0  0  0
  151.9325  143.9914  160.6262 C   0  0  0  0  0  0  0  0  0  0  0  0
  151.8081  145.4848  160.3391 C   0  0  0  0  0  0  0  0  0  0  0  0
  151.9780  145.6272  158.9317 O   0  0  0  0  0  0  0  0  0  0  0  0
  151.9773  144.3468  158.3078 C   0  0  0  0  0  0  0  0  0  0  0  0
  149.2501  140.6158  155.2344 C   0  0  0  0  0  0  0  0  0  0  0  0
  149.2938  141.6212  155.9427 O   0  0  0  0  0  0  0  0  0  0  0  0
  148.0580  140.2565  154.5850 N   0  0  0  0  0  0  0  0  0  0  0  0
  149.0653  137.4969  153.0874 H   0  0  0  0  0  0  0  0  0  0  0  0
  145.9668  139.4527  153.3214 H   0  0  0  0  0  0  0  0  0  0  0  0
  146.4631  137.7647  153.4825 H   0  0  0  0  0  0  0  0  0  0  0  0
  146.9556  138.7023  152.0635 H   0  0  0  0  0  0  0  0  0  0  0  0
  151.8086  137.2239  154.9121 H   0  0  0  0  0  0  0  0  0  0  0  0
  152.2657  138.1625  153.4834 H   0  0  0  0  0  0  0  0  0  0  0  0
  151.1047  136.8453  153.3426 H   0  0  0  0  0  0  0  0  0  0  0  0
  152.1343  141.0649  155.3018 H   0  0  0  0  0  0  0  0  0  0  0  0
  152.5047  139.3974  155.5209 H   0  0  0  0  0  0  0  0  0  0  0  0
  152.0348  142.2701  157.0864 H   0  0  0  0  0  0  0  0  0  0  0  0
  151.0530  141.2653  159.6353 H   0  0  0  0  0  0  0  0  0  0  0  0
  152.7454  141.6863  159.6486 H   0  0  0  0  0  0  0  0  0  0  0  0
  150.3163  143.4684  159.3443 H   0  0  0  0  0  0  0  0  0  0  0  0
  151.3761  143.6826  161.5115 H   0  0  0  0  0  0  0  0  0  0  0  0
  152.9806  143.7259  160.7721 H   0  0  0  0  0  0  0  0  0  0  0  0
  150.8123  145.8417  160.6046 H   0  0  0  0  0  0  0  0  0  0  0  0
  152.5385  146.0766  160.8913 H   0  0  0  0  0  0  0  0  0  0  0  0
  153.0077  144.0848  158.0633 H   0  0  0  0  0  0  0  0  0  0  0  0
  151.4023  144.3573  157.3816 H   0  0  0  0  0  0  0  0  0  0  0  0
  1 21  1  0  0  0  0
  1 22  1  0  0  0  0
  1 23  1  0  0  0  0
  1  2  1  0  0  0  0
  2  3  1  0  0  0  0
  2 19  2  0  0  0  0
  3  4  1  0  0  0  0
  3 20  1  0  0  0  0
  4  6  2  0  0  0  0
  4  5  1  0  0  0  0
  5 24  1  0  0  0  0
  5 25  1  0  0  0  0
  5 26  1  0  0  0  0
  6 17  1  0  0  0  0
  6  7  1  0  0  0  0
  7  8  1  0  0  0  0
  7 27  1  0  0  0  0
  7 28  1  0  0  0  0
  8  9  2  0  0  0  0
  8 10  1  0  0  0  0
 10 11  1  0  0  0  0
 10 29  1  0  0  0  0
 11 12  1  0  0  0  0
 11 30  1  0  0  0  0
 11 31  1  0  0  0  0
 12 16  1  0  0  0  0
 12 13  1  0  0  0  0
 12 32  1  0  0  0  0
 13 14  1  0  0  0  0
 13 33  1  0  0  0  0
 13 34  1  0  0  0  0
 14 15  1  0  0  0  0
 14 35  1  0  0  0  0
 14 36  1  0  0  0  0
 15 16  1  0  0  0  0
 16 37  1  0  0  0  0
 16 38  1  0  0  0  0
 17 18  2  0  0  0  0
 17 19  1  0  0  0  0
M  END
> <s_m_source_file>
AV-unprocessed.smi

> <i_m_source_file_index>
1180

> <i_lp_mmshare_version>
43012

> <i_f3d_flags>
0

> <s_epik_input>
W0NIM11jMW5jKFtDSDNdKWMoYyg9TylbbkhdMSlbQ0gyXUMoPU8pW05IXVtDSDJdW0NAQEhdMltDSDJdW0NIMl1PW0NIMl0y

> <s_epik_cmdline>
J2VwaWtfcHl0aG9uJywgJy1waCcsICc3LjAnLCAnLXRuJywgJzgnLCAnLW1hJywgJzIwMCcsICctbWV0YWxfYmluZGluZycsICctaW1hZScsICc8aW5maWxlLm1hZT4nLCAnLW9tYWUnLCAnPG91dGZpbGUubWFlPic=

> <r_lp_tautomer_probability>
0.156392

> <r_epik_Ionization_Penalty>
0.014237

> <r_epik_Ionization_Penalty_Charging>
0.0141173

> <r_epik_Ionization_Penalty_Neutral>
0.000119724

> <r_epik_State_Penalty>
1.52876

> <r_epik_Charging_Adjusted_Penalty>
1.54288

> <i_epik_Tot_Q>
0

> <i_epik_Tot_abs_Q>
0

> <r_epik_Metal_State_Penalty>
1.70686

> <b_epik_Metal_Only>
0

> <s_lp_Force_Field>
OPLS_2005

> <r_lp_Energy>
23.3722

> <b_lp_Chiralities_Consistent>
1

> <s_lp_Variant>
AV-unprocessed.smi:1180-4

> <Gold.Version>
5.8.1

> <Gold.Id.Protein>
6NUR|6NUR_protein|mol2

> <Gold.PLP.Fitness>
40.4632

> <Gold.PLP.PLP>
-38.4338

> <Gold.PLP.part.hbond>
-2.6453

> <Gold.PLP.part.metal>
0.0000

> <Gold.PLP.part.buried>
-0.9893

> <Gold.PLP.part.nonpolar>
-35.3269

> <Gold.PLP.part.repulsive>
0.9977

> <Gold.PLP.ligand.clash>
0.0000

> <Gold.PLP.ligand.torsion>
0.4910

> <Gold.PLP.Chemscore.Hbond>
1.0000

> <Gold.PLP.Chemscore.CHOScore>
0.0000

> <Gold.PLP.Chemscore.Metal>
0.0000

> <Gold.Chemscore.Hbonds>
donor molecule, donor type, donor heavy atom, donor atom, acceptor molecule, acceptor atom, score
      L1  H     3    20       P1  7948  1.00

> <Gold.PLP.Chemscore.Internal.Correction>
0.0114

> <Gold.Rescore>
     Score         DG    S(hbond)    S(metal)    S(lipo)     H(rot)  DE(clash)    DE(int)     intcor
     13.58     -15.01       0.98        0.00      92.90       1.81       0.07       1.35       ----

> <Gold.Chemscore.Fitness>
13.5793

> <Gold.Chemscore.DG>
-15.0087

> <Gold.Chemscore.ZeroCoef>
-5.4800

> <Gold.Chemscore.Hbond>
0.9831

> <Gold.Chemscore.Metal>
0.0000

> <Gold.Chemscore.Lipo>
92.9048

> <Gold.Chemscore.Internal_Hbond>
0.0000

> <Gold.Chemscore.DEClash>
0.0744

> <Gold.Chemscore.DEInternal>
1.3550

> <Gold.Chemscore.Rot>
1.8065

> <Gold.Chemscore.Internal.Correction>
   9.000000E+99

> <Gold.Chemscore.Hbonds>
donor molecule, donor type, donor heavy atom, donor atom, acceptor molecule, acceptor atom, score
      L1  H     3    20       P1  7948  1.00

> <Gold.Chemscore.Hbond.Weighted>
-3.2834

> <Gold.Chemscore.Metal.Weighted>
-0.0000

> <Gold.Chemscore.Lipo.Weighted>
-10.8699

> <Gold.Chemscore.Internal_Hbond.Weighted>
0.0000

> <Gold.Chemscore.DEClash.Weighted>
0.0744

> <Gold.Chemscore.DEInternal.Weighted>
1.3550

> <Gold.Chemscore.Rot.Weighted>
4.6246

> <Gold.Chemscore.Internal.Correction.Weighted>
   9.000000E+99

> <Gold.Protein.RotatedTorsions>
[ 6907 6896 6895 6894 ] final   82.03 input  -60.11 | X-H torsion
[ 7974 7965 7964 7962 ] final   81.62 input  175.53 | X-H torsion
[ 8008 7997 7996 7995 ] final  141.56 input   59.86 | X-H torsion
[ 10167 10162 10161 10158 ] final  -66.74 input  -65.29 | X-H torsion
[ 10718 10713 10712 10709 ] final  -52.47 input   66.30 | X-H torsion
[ 10763 10752 10751 10750 ] final  -57.26 input  -60.55 | X-H torsion
[ 11005 11000 10999 10996 ] final  -19.54 input  -57.11 | X-H torsion

> <Gold.Protein.ActiveResidues>
 VAL166  LYS551  ARG553  GLY616  TRP617  ASP618  TYR619  PRO620  LYS621  CYS622 
 ASP623  PHE694  ASN695  SER759  ASP760  ASP761  ALA762  ILE779  LEU786  VAL792 
 PHE793  MET794  SER795  GLU796  ALA797  LYS798  CYS799  TRP800  GLU811  SER814 

> <Gold.Protein.RotatedAtoms>
  152.5287  134.3113  159.9114 H   0  0  0  0  0  0  0  0  0  0  0  0  # atno 6907 bound_to 6896
  151.3062  133.4094  159.2651 H   0  0  0  0  0  0  0  0  0  0  0  0  # atno 6908 bound_to 6896
  151.0077  134.9389  159.8047 H   0  0  0  0  0  0  0  0  0  0  0  0  # atno 6909 bound_to 6896
  145.6357  139.2414  143.2059 H   0  0  0  0  0  0  0  0  0  0  0  0  # atno 7974 bound_to 7965
  156.2963  140.2312  156.4585 H   0  0  0  0  0  0  0  0  0  0  0  0  # atno 8008 bound_to 7997
  154.8039  140.0447  157.1314 H   0  0  0  0  0  0  0  0  0  0  0  0  # atno 8009 bound_to 7997
  154.9502  140.3041  155.5082 H   0  0  0  0  0  0  0  0  0  0  0  0  # atno 8010 bound_to 7997
  140.5635  143.2313  151.6682 H   0  0  0  0  0  0  0  0  0  0  0  0  # atno 10167 bound_to 10162
  156.1619  130.4149  149.9780 H   0  0  0  0  0  0  0  0  0  0  0  0  # atno 10718 bound_to 10713
  154.2197  135.6380  153.5140 H   0  0  0  0  0  0  0  0  0  0  0  0  # atno 10763 bound_to 10752
  152.9971  135.5493  154.6128 H   0  0  0  0  0  0  0  0  0  0  0  0  # atno 10764 bound_to 10752
  154.5585  135.2907  155.0916 H   0  0  0  0  0  0  0  0  0  0  0  0  # atno 10765 bound_to 10752
  140.8376  133.7950  155.9826 H   0  0  0  0  0  0  0  0  0  0  0  0  # atno 11005 bound_to 11000
  146.1321  140.7172  142.9407 LP  0  0  0  0  0  0  0  0  0  0  0  0  # atno 17320 bound_to 7965
  144.7176  140.4264  143.7032 LP  0  0  0  0  0  0  0  0  0  0  0  0  # atno 17321 bound_to 7965
  139.5081  144.3622  152.0551 LP  0  0  0  0  0  0  0  0  0  0  0  0  # atno 17342 bound_to 10162
  140.2751  144.3921  150.6138 LP  0  0  0  0  0  0  0  0  0  0  0  0  # atno 17343 bound_to 10162
  156.7607  130.9150  151.3641 LP  0  0  0  0  0  0  0  0  0  0  0  0  # atno 17370 bound_to 10713
  157.6739  130.9076  150.0104 LP  0  0  0  0  0  0  0  0  0  0  0  0  # atno 17371 bound_to 10713
  140.8930  134.2472  157.5084 LP  0  0  0  0  0  0  0  0  0  0  0  0  # atno 17394 bound_to 11000
  139.8704  134.9670  156.4583 LP  0  0  0  0  0  0  0  0  0  0  0  0  # atno 17395 bound_to 11000

$$$$
