AV-unprocessed.smi:3287|AV-procd|sdf|12597|dock2
  -GOLD-   2272018523D 1   1.00000     0.00000
 Structure written by MMmdl.
 43 44  0  0  0  0  0  0  0  0  2 V2000
  152.6129  144.0548  161.8929 C   0  0  0  0  0  0  0  0  0  0  0  0
  151.7303  143.5632  160.7339 C   0  0  1  0  0  0  0  0  0  0  0  0
  151.4557  144.6803  159.7087 C   0  0  0  0  0  0  0  0  0  0  0  0
  150.5028  144.2085  158.5985 C   0  0  0  0  0  0  0  0  0  0  0  0
  151.0285  142.9398  157.8950 C   0  0  2  0  0  0  0  0  0  0  0  0
  150.0758  142.4389  156.8788 N   0  3  0  0  0  0  0  0  0  0  0  0
  150.6804  141.7383  155.7245 C   0  0  0  0  0  0  0  0  0  0  0  0
  149.7067  140.7145  155.1154 C   0  0  1  0  0  0  0  0  0  0  0  0
  149.4177  141.0914  153.7827 O   0  0  0  0  0  0  0  0  0  0  0  0
  150.2717  139.3045  155.1965 C   0  0  0  0  0  0  0  0  0  0  0  0
  151.5773  139.0642  155.6782 C   0  0  0  0  0  0  0  0  0  0  0  0
  152.0416  137.7348  155.7338 C   0  0  0  0  0  0  0  0  0  0  0  0
  151.2984  136.6740  155.3530 N   0  0  0  0  0  0  0  0  0  0  0  0
  150.0498  136.9088  154.8967 C   0  0  0  0  0  0  0  0  0  0  0  0
  149.4907  138.1989  154.8000 C   0  0  0  0  0  0  0  0  0  0  0  0
  151.3075  141.8318  158.9309 C   0  0  0  0  0  0  0  0  0  0  0  0
  152.2718  142.2831  160.0483 C   0  0  1  0  0  0  0  0  0  0  0  0
  153.7218  142.4025  159.5368 C   0  0  0  0  0  0  0  0  0  0  0  0
  153.5750  144.4269  161.5403 H   0  0  0  0  0  0  0  0  0  0  0  0
  152.8033  143.2555  162.6096 H   0  0  0  0  0  0  0  0  0  0  0  0
  152.1280  144.8690  162.4325 H   0  0  0  0  0  0  0  0  0  0  0  0
  150.7690  143.2986  161.1775 H   0  0  0  0  0  0  0  0  0  0  0  0
  151.0214  145.5453  160.2113 H   0  0  0  0  0  0  0  0  0  0  0  0
  152.3917  145.0255  159.2686 H   0  0  0  0  0  0  0  0  0  0  0  0
  149.5183  144.0125  159.0262 H   0  0  0  0  0  0  0  0  0  0  0  0
  150.3729  145.0206  157.8833 H   0  0  0  0  0  0  0  0  0  0  0  0
  151.9624  143.1767  157.3837 H   0  0  0  0  0  0  0  0  0  0  0  0
  149.4573  141.7856  157.3378 H   0  0  0  0  0  0  0  0  0  0  0  0
  150.9847  142.4593  154.9654 H   0  0  0  0  0  0  0  0  0  0  0  0
  151.5828  141.2251  156.0597 H   0  0  0  0  0  0  0  0  0  0  0  0
  148.7667  140.7389  155.6688 H   0  0  0  0  0  0  0  0  0  0  0  0
  149.3319  140.3069  153.2616 H   0  0  0  0  0  0  0  0  0  0  0  0
  152.2134  139.8760  155.9993 H   0  0  0  0  0  0  0  0  0  0  0  0
  153.0358  137.5180  156.0956 H   0  0  0  0  0  0  0  0  0  0  0  0
  149.4774  136.0421  154.6005 H   0  0  0  0  0  0  0  0  0  0  0  0
  148.4847  138.3303  154.4293 H   0  0  0  0  0  0  0  0  0  0  0  0
  150.3652  141.5214  159.3853 H   0  0  0  0  0  0  0  0  0  0  0  0
  151.7053  140.9457  158.4346 H   0  0  0  0  0  0  0  0  0  0  0  0
  152.2787  141.4909  160.7984 H   0  0  0  0  0  0  0  0  0  0  0  0
  153.8434  143.2187  158.8252 H   0  0  0  0  0  0  0  0  0  0  0  0
  154.0348  141.4843  159.0391 H   0  0  0  0  0  0  0  0  0  0  0  0
  154.4208  142.5713  160.3558 H   0  0  0  0  0  0  0  0  0  0  0  0
  149.5229  143.2119  156.5361 H   0  0  0  0  0  0  0  0  0  0  0  0
  1  2  1  0  0  0  0
  1 19  1  0  0  0  0
  1 20  1  0  0  0  0
  1 21  1  0  0  0  0
  2 17  1  0  0  0  0
  2  3  1  0  0  0  0
  2 22  1  0  0  0  0
  3  4  1  0  0  0  0
  3 23  1  0  0  0  0
  3 24  1  0  0  0  0
  4  5  1  0  0  0  0
  4 25  1  0  0  0  0
  4 26  1  0  0  0  0
  5  6  1  0  0  0  0
  5 16  1  0  0  0  0
  5 27  1  0  0  0  0
  6  7  1  0  0  0  0
  6 28  1  0  0  0  0
  6 43  1  0  0  0  0
  7  8  1  0  0  0  0
  7 29  1  0  0  0  0
  7 30  1  0  0  0  0
  8  9  1  0  0  0  0
  8 10  1  0  0  0  0
  8 31  1  0  0  0  0
  9 32  1  0  0  0  0
 10 15  1  0  0  0  0
 10 11  2  0  0  0  0
 11 12  1  0  0  0  0
 11 33  1  0  0  0  0
 12 13  2  0  0  0  0
 12 34  1  0  0  0  0
 13 14  1  0  0  0  0
 14 15  2  0  0  0  0
 14 35  1  0  0  0  0
 15 36  1  0  0  0  0
 16 17  1  0  0  0  0
 16 37  1  0  0  0  0
 16 38  1  0  0  0  0
 17 18  1  0  0  0  0
 17 39  1  0  0  0  0
 18 40  1  0  0  0  0
 18 41  1  0  0  0  0
 18 42  1  0  0  0  0
M  CHG  1   6   1
M  END
> <s_m_source_file>
AV-unprocessed.smi

> <i_m_source_file_index>
3287

> <i_lp_mmshare_version>
43012

> <i_f3d_flags>
0

> <s_epik_input>
W0NIM11bQ0BASF0xW0NIMl1bQ0gyXVtDQEhdKFtDSDJdW0NASF0xW0NIM10pW05IXVtDSDJdW0NASF0oW09IXSljMltjSF1bY0hdbltjSF1bY0hdMg==

> <s_epik_cmdline>
J2VwaWtfcHl0aG9uJywgJy1waCcsICc3LjAnLCAnLXRuJywgJzgnLCAnLW1hJywgJzIwMCcsICctbWV0YWxfYmluZGluZycsICctaW1hZScsICc8aW5maWxlLm1hZT4nLCAnLW9tYWUnLCAnPG91dGZpbGUubWFlPic=

> <r_lp_tautomer_probability>
1

> <r_epik_Ionization_Penalty>
0.00537262

> <r_epik_Ionization_Penalty_Charging>
0.00321624

> <r_epik_Ionization_Penalty_Neutral>
0.00215638

> <r_epik_State_Penalty>
-0

> <r_epik_Charging_Adjusted_Penalty>
0.00321624

> <i_epik_Tot_Q>
1

> <i_epik_Tot_abs_Q>
1

> <r_epik_Metal_State_Penalty>
-0

> <b_epik_Metal_Only>
0

> <s_lp_Force_Field>
OPLS_2005

> <r_lp_Energy>
18.2577

> <b_lp_Chiralities_Consistent>
1

> <s_lp_Variant>
AV-unprocessed.smi:3287-8

> <Gold.Version>
5.8.1

> <Gold.Id.Protein>
6NUR|6NUR_protein|mol2

> <Gold.PLP.Fitness>
54.8472

> <Gold.PLP.PLP>
-42.2691

> <Gold.PLP.part.hbond>
-5.0000

> <Gold.PLP.part.metal>
0.0000

> <Gold.PLP.part.buried>
-1.9513

> <Gold.PLP.part.nonpolar>
-34.9496

> <Gold.PLP.part.repulsive>
0.1363

> <Gold.PLP.ligand.clash>
0.0000

> <Gold.PLP.ligand.torsion>
1.3014

> <Gold.PLP.Chemscore.Hbond>
4.3392

> <Gold.PLP.Chemscore.CHOScore>
0.7097

> <Gold.PLP.Chemscore.Metal>
0.0000

> <Gold.Chemscore.Hbonds>
donor molecule, donor type, donor heavy atom, donor atom, acceptor molecule, acceptor atom, score
      L1  H     6    43       P1  8028  2.00
      L1  H     9    32       P1  7957  0.42
      P1  H  7989  7998       L1     9  0.02
      P1  H  8011  8017       L1     9  0.93
      P1  H 10752 10764       L1    13  0.58
      L1  C    14    35       P1  7948  0.23

> <Gold.PLP.Chemscore.Internal.Correction>
0.0341

> <Gold.Rescore>
     Score         DG    S(hbond)    S(metal)    S(lipo)     H(rot)  DE(clash)    DE(int)     intcor
     22.87     -24.56       2.73        0.00     126.68       1.90       0.54       1.14       ----

> <Gold.Chemscore.Fitness>
22.8742

> <Gold.Chemscore.DG>
-24.5611

> <Gold.Chemscore.ZeroCoef>
-5.4800

> <Gold.Chemscore.Hbond>
2.7343

> <Gold.Chemscore.Metal>
0.0000

> <Gold.Chemscore.Lipo>
126.6779

> <Gold.Chemscore.Internal_Hbond>
0.0000

> <Gold.Chemscore.DEClash>
0.5440

> <Gold.Chemscore.DEInternal>
1.1428

> <Gold.Chemscore.Rot>
1.9035

> <Gold.Chemscore.Internal.Correction>
   9.000000E+99

> <Gold.Chemscore.Hbonds>
donor molecule, donor type, donor heavy atom, donor atom, acceptor molecule, acceptor atom, score
      L1  H     6    43       P1  8028  1.00
      L1  H     9    32       P1  7957  0.42
      P1  H  8011  8017       L1     9  0.22
      P1  H 10752 10764       L1    13  0.06

> <Gold.Chemscore.Hbond.Weighted>
-9.1326

> <Gold.Chemscore.Metal.Weighted>
-0.0000

> <Gold.Chemscore.Lipo.Weighted>
-14.8213

> <Gold.Chemscore.Internal_Hbond.Weighted>
0.0000

> <Gold.Chemscore.DEClash.Weighted>
0.5440

> <Gold.Chemscore.DEInternal.Weighted>
1.1428

> <Gold.Chemscore.Rot.Weighted>
4.8729

> <Gold.Chemscore.Internal.Correction.Weighted>
   9.000000E+99

> <Gold.Protein.RotatedTorsions>
[ 6907 6896 6895 6894 ] final   31.71 input  -60.11 | X-H torsion
[ 7974 7965 7964 7962 ] final -112.02 input  175.53 | X-H torsion
[ 8008 7997 7996 7995 ] final  -94.03 input   59.86 | X-H torsion
[ 10167 10162 10161 10158 ] final   69.04 input  -65.29 | X-H torsion
[ 10718 10713 10712 10709 ] final -127.85 input   66.30 | X-H torsion
[ 10763 10752 10751 10750 ] final  -59.46 input  -60.55 | X-H torsion
[ 11005 11000 10999 10996 ] final  167.28 input  -57.11 | X-H torsion

> <Gold.Protein.ActiveResidues>
 VAL166  LYS551  ARG553  GLY616  TRP617  ASP618  TYR619  PRO620  LYS621  CYS622 
 ASP623  PHE694  ASN695  SER759  ASP760  ASP761  ALA762  ILE779  LEU786  VAL792 
 PHE793  MET794  SER795  GLU796  ALA797  LYS798  CYS799  TRP800  GLU811  SER814 

> <Gold.Protein.RotatedAtoms>
  152.0641  134.9575  160.0574 H   0  0  0  0  0  0  0  0  0  0  0  0  # atno 6907 bound_to 6896
  152.0927  133.4204  159.4559 H   0  0  0  0  0  0  0  0  0  0  0  0  # atno 6908 bound_to 6896
  150.6837  134.2772  159.4656 H   0  0  0  0  0  0  0  0  0  0  0  0  # atno 6909 bound_to 6896
  145.1490  140.8819  143.3657 H   0  0  0  0  0  0  0  0  0  0  0  0  # atno 7974 bound_to 7965
  154.7432  140.0493  157.0829 H   0  0  0  0  0  0  0  0  0  0  0  0  # atno 8008 bound_to 7997
  155.0152  140.3140  155.4795 H   0  0  0  0  0  0  0  0  0  0  0  0  # atno 8009 bound_to 7997
  156.2869  140.2177  156.5267 H   0  0  0  0  0  0  0  0  0  0  0  0  # atno 8010 bound_to 7997
  140.0721  144.5144  150.7220 H   0  0  0  0  0  0  0  0  0  0  0  0  # atno 10167 bound_to 10162
  156.1895  130.6786  151.0406 H   0  0  0  0  0  0  0  0  0  0  0  0  # atno 10718 bound_to 10713
  154.2541  135.6320  153.5250 H   0  0  0  0  0  0  0  0  0  0  0  0  # atno 10763 bound_to 10752
  152.9907  135.5572  154.5776 H   0  0  0  0  0  0  0  0  0  0  0  0  # atno 10764 bound_to 10752
  154.5310  135.2888  155.1155 H   0  0  0  0  0  0  0  0  0  0  0  0  # atno 10765 bound_to 10752
  140.2751  134.7795  157.3709 H   0  0  0  0  0  0  0  0  0  0  0  0  # atno 11005 bound_to 11000
  145.0450  139.3228  143.5957 LP  0  0  0  0  0  0  0  0  0  0  0  0  # atno 17320 bound_to 7965
  146.3497  139.9838  142.8693 LP  0  0  0  0  0  0  0  0  0  0  0  0  # atno 17321 bound_to 7965
  140.7120  143.2513  151.4551 LP  0  0  0  0  0  0  0  0  0  0  0  0  # atno 17342 bound_to 10162
  139.5830  144.1668  152.1992 LP  0  0  0  0  0  0  0  0  0  0  0  0  # atno 17343 bound_to 10162
  157.6920  131.0807  150.7080 LP  0  0  0  0  0  0  0  0  0  0  0  0  # atno 17370 bound_to 10713
  156.7136  130.4659  149.5541 LP  0  0  0  0  0  0  0  0  0  0  0  0  # atno 17371 bound_to 10713
  140.1336  134.5063  155.8086 LP  0  0  0  0  0  0  0  0  0  0  0  0  # atno 17394 bound_to 11000
  141.2171  133.6799  156.7084 LP  0  0  0  0  0  0  0  0  0  0  0  0  # atno 17395 bound_to 11000

$$$$
