AV-unprocessed.smi:37|AV-procd|sdf|313|dock2
  -GOLD-   2262016133D 1   1.00000     0.00000
 Structure written by MMmdl.
 44 45  0  0  0  0  0  0  0  0  1 V2000
  153.8752  142.7136  163.1731 C   0  0  0  0  0  0  0  0  0  0  0  0
  154.1618  141.8356  161.9460 C   0  0  0  0  0  0  0  0  0  0  0  0
  153.1840  142.0618  160.7912 C   0  0  0  0  0  0  0  0  0  0  0  0
  152.9058  143.1873  160.3740 O   0  0  0  0  0  0  0  0  0  0  0  0
  152.6896  140.9056  160.3204 O   0  0  0  0  0  0  0  0  0  0  0  0
  152.1515  140.8390  159.0078 C   0  0  0  0  0  0  0  0  0  0  0  0
  152.7967  139.6626  158.2598 C   0  0  2  0  0  0  0  0  0  0  0  0
  152.8664  139.9082  156.8550 O   0  0  0  0  0  0  0  0  0  0  0  0
  152.6306  138.7315  156.1339 C   0  0  2  0  0  0  0  0  0  0  0  0
  151.3309  138.8596  155.3617 N   0  0  0  0  0  0  0  0  0  0  0  0
  150.6163  140.0508  155.2904 C   0  0  0  0  0  0  0  0  0  0  0  0
  149.4409  140.1676  154.6289 C   0  0  0  0  0  0  0  0  0  0  0  0
  148.8037  141.3506  154.6125 F   0  0  0  0  0  0  0  0  0  0  0  0
  148.8584  139.0223  153.9365 C   0  0  0  0  0  0  0  0  0  0  0  0
  147.7987  139.0292  153.3137 O   0  0  0  0  0  0  0  0  0  0  0  0
  149.6136  137.8498  154.0253 N   0  0  0  0  0  0  0  0  0  0  0  0
  150.8245  137.7151  154.7062 C   0  0  0  0  0  0  0  0  0  0  0  0
  151.4030  136.6294  154.7253 O   0  0  0  0  0  0  0  0  0  0  0  0
  152.5305  137.5871  157.1541 C   0  0  1  0  0  0  0  0  0  0  0  0
  154.3358  136.7972  157.4470 Br  0  0  0  0  0  0  0  0  0  0  0  0
  152.0877  138.3116  158.4122 C   0  0  2  0  0  0  0  0  0  0  0  0
  150.6759  138.4938  158.4140 O   0  0  0  0  0  0  0  0  0  0  0  0
  149.8446  137.4458  158.5293 C   0  0  0  0  0  0  0  0  0  0  0  0
  150.1784  136.2635  158.6040 O   0  0  0  0  0  0  0  0  0  0  0  0
  148.3755  137.8629  158.5313 C   0  0  0  0  0  0  0  0  0  0  0  0
  147.5736  137.1768  159.6461 C   0  0  0  0  0  0  0  0  0  0  0  0
  149.2507  137.0306  153.5595 H   0  0  0  0  0  0  0  0  0  0  0  0
  154.5886  142.5033  163.9699 H   0  0  0  0  0  0  0  0  0  0  0  0
  152.8758  142.5299  163.5693 H   0  0  0  0  0  0  0  0  0  0  0  0
  153.9546  143.7741  162.9315 H   0  0  0  0  0  0  0  0  0  0  0  0
  155.1732  142.0254  161.5859 H   0  0  0  0  0  0  0  0  0  0  0  0
  154.1208  140.7844  162.2321 H   0  0  0  0  0  0  0  0  0  0  0  0
  151.0683  140.7134  159.0280 H   0  0  0  0  0  0  0  0  0  0  0  0
  152.3556  141.7761  158.4896 H   0  0  0  0  0  0  0  0  0  0  0  0
  153.8250  139.5488  158.6057 H   0  0  0  0  0  0  0  0  0  0  0  0
  153.4032  138.5908  155.3756 H   0  0  0  0  0  0  0  0  0  0  0  0
  150.9876  140.9361  155.7826 H   0  0  0  0  0  0  0  0  0  0  0  0
  151.8619  136.7865  156.8365 H   0  0  0  0  0  0  0  0  0  0  0  0
  152.4053  137.7990  159.3215 H   0  0  0  0  0  0  0  0  0  0  0  0
  148.3176  138.9459  158.6421 H   0  0  0  0  0  0  0  0  0  0  0  0
  147.9403  137.6201  157.5616 H   0  0  0  0  0  0  0  0  0  0  0  0
  146.5187  137.4425  159.5793 H   0  0  0  0  0  0  0  0  0  0  0  0
  147.9244  137.4779  160.6339 H   0  0  0  0  0  0  0  0  0  0  0  0
  147.6461  136.0908  159.5778 H   0  0  0  0  0  0  0  0  0  0  0  0
  1  2  1  0  0  0  0
  1 28  1  0  0  0  0
  1 29  1  0  0  0  0
  1 30  1  0  0  0  0
  2  3  1  0  0  0  0
  2 31  1  0  0  0  0
  2 32  1  0  0  0  0
  3  4  2  0  0  0  0
  3  5  1  0  0  0  0
  5  6  1  0  0  0  0
  6  7  1  0  0  0  0
  6 33  1  0  0  0  0
  6 34  1  0  0  0  0
  7 21  1  0  0  0  0
  7  8  1  0  0  0  0
  7 35  1  0  0  0  0
  8  9  1  0  0  0  0
  9 10  1  0  0  0  0
  9 19  1  0  0  0  0
  9 36  1  0  0  0  0
 10 17  1  0  0  0  0
 10 11  1  0  0  0  0
 11 12  2  0  0  0  0
 11 37  1  0  0  0  0
 12 13  1  0  0  0  0
 12 14  1  0  0  0  0
 14 15  2  0  0  0  0
 14 16  1  0  0  0  0
 16 27  1  0  0  0  0
 16 17  1  0  0  0  0
 17 18  2  0  0  0  0
 19 20  1  0  0  0  0
 19 21  1  0  0  0  0
 19 38  1  0  0  0  0
 21 22  1  0  0  0  0
 21 39  1  0  0  0  0
 22 23  1  0  0  0  0
 23 24  2  0  0  0  0
 23 25  1  0  0  0  0
 25 26  1  0  0  0  0
 25 40  1  0  0  0  0
 25 41  1  0  0  0  0
 26 42  1  0  0  0  0
 26 43  1  0  0  0  0
 26 44  1  0  0  0  0
M  END
> <s_m_source_file>
AV-unprocessed.smi

> <i_m_source_file_index>
37

> <i_lp_mmshare_version>
43012

> <i_f3d_flags>
0

> <s_epik_input>
W0NIM11bQ0gyXUMoPU8pT1tDSDJdW0NAQEhdMU9bQ0BASF0objJbY0hdYyhGKWMoPU8pW25IXWMyPU8pW0NAQEhdKEJyKVtDQEhdMU9DKD1PKVtDSDJdW0NIM10=

> <s_epik_cmdline>
J2VwaWtfcHl0aG9uJywgJy1waCcsICc3LjAnLCAnLXRuJywgJzgnLCAnLW1hJywgJzIwMCcsICctbWV0YWxfYmluZGluZycsICctaW1hZScsICc8aW5maWxlLm1hZT4nLCAnLW9tYWUnLCAnPG91dGZpbGUubWFlPic=

> <r_lp_tautomer_probability>
0.999537

> <r_epik_Ionization_Penalty>
0.104106

> <r_epik_Ionization_Penalty_Charging>
0.104106

> <r_epik_Ionization_Penalty_Neutral>
3.94675e-16

> <r_epik_State_Penalty>
0.0940182

> <r_epik_Charging_Adjusted_Penalty>
0.198124

> <i_epik_Tot_Q>
0

> <i_epik_Tot_abs_Q>
0

> <r_epik_Metal_State_Penalty>
3.05314

> <b_epik_Metal_Only>
0

> <s_epik_Chemistry_Notes>
This compound has an ester and may undergo hydrolysis at high or low pH. This compound contains an acetal/aminal-like group ( X-CH(R)-Y where X, Y are N, S, or O) that may be acid/base labile, releasing an aldehyde.

> <s_lp_Force_Field>
OPLS_2005

> <r_lp_Energy>
21.1206

> <b_lp_Chiralities_Consistent>
1

> <s_lp_Variant>
AV-unprocessed.smi:37-11

> <Gold.Version>
5.8.1

> <Gold.Id.Protein>
6NUR|6NUR_protein|mol2

> <Gold.PLP.Fitness>
47.0547

> <Gold.PLP.PLP>
-39.7211

> <Gold.PLP.part.hbond>
-4.0000

> <Gold.PLP.part.metal>
0.0000

> <Gold.PLP.part.buried>
-1.9809

> <Gold.PLP.part.nonpolar>
-33.9118

> <Gold.PLP.part.repulsive>
1.2108

> <Gold.PLP.ligand.clash>
0.0000

> <Gold.PLP.ligand.torsion>
1.3873

> <Gold.PLP.Chemscore.Hbond>
3.2881

> <Gold.PLP.Chemscore.CHOScore>
0.0000

> <Gold.PLP.Chemscore.Metal>
0.0000

> <Gold.Chemscore.Hbonds>
donor molecule, donor type, donor heavy atom, donor atom, acceptor molecule, acceptor atom, score
      L1  H    16    27       P1  7948  0.86
      P1  H  6896  6907       L1    24  0.28
      P1  H  7997  8008       L1     8  0.95
      P1  H 10752 10765       L1    18  1.00

> <Gold.PLP.Chemscore.Internal.Correction>
0.2441

> <Gold.Rescore>
     Score         DG    S(hbond)    S(metal)    S(lipo)     H(rot)  DE(clash)    DE(int)     intcor
      8.69     -12.16       2.27        0.00      65.09       3.33       0.65       2.82       ----

> <Gold.Chemscore.Fitness>
8.6869

> <Gold.Chemscore.DG>
-12.1629

> <Gold.Chemscore.ZeroCoef>
-5.4800

> <Gold.Chemscore.Hbond>
2.2734

> <Gold.Chemscore.Metal>
0.0000

> <Gold.Chemscore.Lipo>
65.0884

> <Gold.Chemscore.Internal_Hbond>
0.0000

> <Gold.Chemscore.DEClash>
0.6530

> <Gold.Chemscore.DEInternal>
2.8231

> <Gold.Chemscore.Rot>
3.3303

> <Gold.Chemscore.Internal.Correction>
   9.000000E+99

> <Gold.Chemscore.Hbonds>
donor molecule, donor type, donor heavy atom, donor atom, acceptor molecule, acceptor atom, score
      L1  H    16    27       P1  7948  0.83
      P1  H  6896  6907       L1    24  0.28
      P1  H  7997  8008       L1     8  0.08
      P1  H 10752 10765       L1    18  1.00

> <Gold.Chemscore.Hbond.Weighted>
-7.5932

> <Gold.Chemscore.Metal.Weighted>
-0.0000

> <Gold.Chemscore.Lipo.Weighted>
-7.6153

> <Gold.Chemscore.Internal_Hbond.Weighted>
0.0000

> <Gold.Chemscore.DEClash.Weighted>
0.6530

> <Gold.Chemscore.DEInternal.Weighted>
2.8231

> <Gold.Chemscore.Rot.Weighted>
8.5256

> <Gold.Chemscore.Internal.Correction.Weighted>
   9.000000E+99

> <Gold.Protein.RotatedTorsions>
[ 6907 6896 6895 6894 ] final  -89.86 input  -60.11 | X-H torsion
[ 7974 7965 7964 7962 ] final  -68.82 input  175.53 | X-H torsion
[ 8008 7997 7996 7995 ] final  -66.42 input   59.86 | X-H torsion
[ 10167 10162 10161 10158 ] final  -55.82 input  -65.29 | X-H torsion
[ 10718 10713 10712 10709 ] final -162.25 input   66.30 | X-H torsion
[ 10763 10752 10751 10750 ] final  165.32 input  -60.55 | X-H torsion
[ 11005 11000 10999 10996 ] final   26.85 input  -57.11 | X-H torsion

> <Gold.Protein.ActiveResidues>
 VAL166  LYS551  ARG553  GLY616  TRP617  ASP618  TYR619  PRO620  LYS621  CYS622 
 ASP623  PHE694  ASN695  SER759  ASP760  ASP761  ALA762  ILE779  LEU786  VAL792 
 PHE793  MET794  SER795  GLU796  ALA797  LYS798  CYS799  TRP800  GLU811  SER814 

> <Gold.Protein.RotatedAtoms>
  150.6877  134.2521  159.4514 H   0  0  0  0  0  0  0  0  0  0  0  0  # atno 6907 bound_to 6896
  152.0458  134.9681  160.0583 H   0  0  0  0  0  0  0  0  0  0  0  0  # atno 6908 bound_to 6896
  152.1165  133.4295  159.4692 H   0  0  0  0  0  0  0  0  0  0  0  0  # atno 6909 bound_to 6896
  145.7116  140.9076  143.0677 H   0  0  0  0  0  0  0  0  0  0  0  0  # atno 7974 bound_to 7965
  154.4733  140.0913  156.7199 H   0  0  0  0  0  0  0  0  0  0  0  0  # atno 8008 bound_to 7997
  155.4664  140.3463  155.4301 H   0  0  0  0  0  0  0  0  0  0  0  0  # atno 8009 bound_to 7997
  156.1075  140.1439  156.9372 H   0  0  0  0  0  0  0  0  0  0  0  0  # atno 8010 bound_to 7997
  140.6353  143.2479  151.5135 H   0  0  0  0  0  0  0  0  0  0  0  0  # atno 10167 bound_to 10162
  156.6077  130.8837  151.2929 H   0  0  0  0  0  0  0  0  0  0  0  0  # atno 10718 bound_to 10713
  154.3223  135.2756  155.2513 H   0  0  0  0  0  0  0  0  0  0  0  0  # atno 10763 bound_to 10752
  154.4861  135.5845  153.6428 H   0  0  0  0  0  0  0  0  0  0  0  0  # atno 10764 bound_to 10752
  152.9875  135.6123  154.3409 H   0  0  0  0  0  0  0  0  0  0  0  0  # atno 10765 bound_to 10752
  140.3326  134.2421  155.7700 H   0  0  0  0  0  0  0  0  0  0  0  0  # atno 11005 bound_to 11000
  144.6940  139.9082  143.7462 LP  0  0  0  0  0  0  0  0  0  0  0  0  # atno 17320 bound_to 7965
  146.0707  139.3696  143.0525 LP  0  0  0  0  0  0  0  0  0  0  0  0  # atno 17321 bound_to 7965
  139.5564  144.2266  152.1619 LP  0  0  0  0  0  0  0  0  0  0  0  0  # atno 17342 bound_to 10162
  140.1520  144.5105  150.6681 LP  0  0  0  0  0  0  0  0  0  0  0  0  # atno 17343 bound_to 10162
  157.7262  130.9627  150.1648 LP  0  0  0  0  0  0  0  0  0  0  0  0  # atno 17370 bound_to 10713
  156.2416  130.3691  149.8331 LP  0  0  0  0  0  0  0  0  0  0  0  0  # atno 17371 bound_to 10713
  141.2059  133.7846  157.0204 LP  0  0  0  0  0  0  0  0  0  0  0  0  # atno 17394 bound_to 11000
  140.0848  134.9627  157.1682 LP  0  0  0  0  0  0  0  0  0  0  0  0  # atno 17395 bound_to 11000

$$$$
