AV-unprocessed.smi:175|AV-procd|sdf|1429|dock1
  -GOLD-   2262019203D 1   1.00000     0.00000
 Structure written by MMmdl.
 47 50  0  0  0  0  0  0  0  0  1 V2000
  152.3339  144.6153  157.6191 C   0  0  0  0  0  0  0  0  0  0  0  0
  151.8981  143.6264  158.7116 C   0  0  2  0  0  0  0  0  0  0  0  0
  153.0388  143.3549  159.5229 O   0  0  0  0  0  0  0  0  0  0  0  0
  152.9562  142.0269  160.0092 C   0  0  0  0  0  0  0  0  0  0  0  0
  152.4070  141.2708  158.8094 C   0  0  0  0  0  0  0  0  0  0  0  0
  151.3787  142.2406  158.2344 C   0  0  1  0  0  0  0  0  0  0  0  0
  150.1423  141.9985  158.8858 O   0  0  0  0  0  0  0  0  0  0  0  0
  151.1518  142.0757  156.7087 C   0  0  0  0  0  0  0  0  0  0  0  0
  150.6130  140.7745  156.3418 N   0  0  0  0  0  0  0  0  0  0  0  0
  149.3068  140.4852  156.0219 C   0  0  0  0  0  0  0  0  0  0  0  0
  149.0715  139.2365  155.7268 N   0  0  0  0  0  0  0  0  0  0  0  0
  150.3094  138.6126  155.8434 C   0  0  0  0  0  0  0  0  0  0  0  0
  150.7803  137.2770  155.6673 C   0  0  0  0  0  0  0  0  0  0  0  0
  150.0041  136.2241  155.3011 N   0  0  0  0  0  0  0  0  0  0  0  0
  148.5493  136.2570  155.2629 C   0  0  0  0  0  0  0  0  0  0  0  0
  148.2331  134.8950  154.6722 C   0  0  0  0  0  0  0  0  0  0  0  0
  147.0853  134.4924  154.4903 O   0  0  0  0  0  0  0  0  0  0  0  0
  149.3611  134.2300  154.3982 N   0  0  0  0  0  0  0  0  0  0  0  0
  149.4699  132.8885  153.8291 C   0  0  0  0  0  0  0  0  0  0  0  0
  149.7473  131.8171  154.8990 C   0  0  0  0  0  0  0  0  0  0  0  0
  149.6900  130.6130  154.3315 F   0  0  0  0  0  0  0  0  0  0  0  0
  150.9568  131.9731  155.4361 F   0  0  0  0  0  0  0  0  0  0  0  0
  148.8288  131.8757  155.8634 F   0  0  0  0  0  0  0  0  0  0  0  0
  150.5494  134.9827  154.7637 C   0  0  0  0  0  0  0  0  0  0  0  0
  152.1027  137.0512  155.8866 N   0  0  0  0  0  0  0  0  0  0  0  0
  152.9137  138.0503  156.2440 C   0  0  0  0  0  0  0  0  0  0  0  0
  152.6161  139.3351  156.4387 N   0  0  0  0  0  0  0  0  0  0  0  0
  151.2901  139.5727  156.2285 C   0  0  0  0  0  0  0  0  0  0  0  0
  151.5035  144.8772  156.9631 H   0  0  0  0  0  0  0  0  0  0  0  0
  153.1386  144.2070  157.0071 H   0  0  0  0  0  0  0  0  0  0  0  0
  152.7007  145.5405  158.0637 H   0  0  0  0  0  0  0  0  0  0  0  0
  151.1526  144.1168  159.3408 H   0  0  0  0  0  0  0  0  0  0  0  0
  153.9280  141.6551  160.3342 H   0  0  0  0  0  0  0  0  0  0  0  0
  152.2665  141.9834  160.8536 H   0  0  0  0  0  0  0  0  0  0  0  0
  153.2175  141.1162  158.0964 H   0  0  0  0  0  0  0  0  0  0  0  0
  151.9981  140.2923  159.0659 H   0  0  0  0  0  0  0  0  0  0  0  0
  149.4467  142.1016  158.2542 H   0  0  0  0  0  0  0  0  0  0  0  0
  150.4680  142.8417  156.3406 H   0  0  0  0  0  0  0  0  0  0  0  0
  152.0872  142.2107  156.1655 H   0  0  0  0  0  0  0  0  0  0  0  0
  148.5281  141.2341  156.0198 H   0  0  0  0  0  0  0  0  0  0  0  0
  148.1219  136.3557  156.2614 H   0  0  0  0  0  0  0  0  0  0  0  0
  148.1783  137.0515  154.6143 H   0  0  0  0  0  0  0  0  0  0  0  0
  148.5433  132.6504  153.3053 H   0  0  0  0  0  0  0  0  0  0  0  0
  150.2570  132.8756  153.0735 H   0  0  0  0  0  0  0  0  0  0  0  0
  151.1720  135.1667  153.8869 H   0  0  0  0  0  0  0  0  0  0  0  0
  151.1315  134.4506  155.5177 H   0  0  0  0  0  0  0  0  0  0  0  0
  153.9486  137.7815  156.3955 H   0  0  0  0  0  0  0  0  0  0  0  0
  1  2  1  0  0  0  0
  1 29  1  0  0  0  0
  1 30  1  0  0  0  0
  1 31  1  0  0  0  0
  2  6  1  0  0  0  0
  2  3  1  0  0  0  0
  2 32  1  0  0  0  0
  3  4  1  0  0  0  0
  4  5  1  0  0  0  0
  4 33  1  0  0  0  0
  4 34  1  0  0  0  0
  5  6  1  0  0  0  0
  5 35  1  0  0  0  0
  5 36  1  0  0  0  0
  6  7  1  0  0  0  0
  6  8  1  0  0  0  0
  7 37  1  0  0  0  0
  8  9  1  0  0  0  0
  8 38  1  0  0  0  0
  8 39  1  0  0  0  0
  9 28  1  0  0  0  0
  9 10  1  0  0  0  0
 10 11  2  0  0  0  0
 10 40  1  0  0  0  0
 11 12  1  0  0  0  0
 12 28  2  0  0  0  0
 12 13  1  0  0  0  0
 13 14  1  0  0  0  0
 13 25  2  0  0  0  0
 14 24  1  0  0  0  0
 14 15  1  0  0  0  0
 15 16  1  0  0  0  0
 15 41  1  0  0  0  0
 15 42  1  0  0  0  0
 16 17  2  0  0  0  0
 16 18  1  0  0  0  0
 18 19  1  0  0  0  0
 18 24  1  0  0  0  0
 19 20  1  0  0  0  0
 19 43  1  0  0  0  0
 19 44  1  0  0  0  0
 20 21  1  0  0  0  0
 20 22  1  0  0  0  0
 20 23  1  0  0  0  0
 24 45  1  0  0  0  0
 24 46  1  0  0  0  0
 25 26  1  0  0  0  0
 26 27  2  0  0  0  0
 26 47  1  0  0  0  0
 27 28  1  0  0  0  0
M  END
> <s_m_source_file>
AV-unprocessed.smi

> <i_m_source_file_index>
175

> <i_lp_mmshare_version>
43012

> <i_f3d_flags>
0

> <s_epik_input>
W0NIMl0xW0NIMl1PW0NAQEhdKFtDSDNdKVtDQEBdMShbT0hdKVtDSDJdbihbY0hdbjIpYyhjMjMpbltjSF1uYzNONFtDSDJdQyg9TylOKFtDSDJdNClbQ0gyXUMoRikoRilG

> <s_epik_cmdline>
J2VwaWtfcHl0aG9uJywgJy1waCcsICc3LjAnLCAnLXRuJywgJzgnLCAnLW1hJywgJzIwMCcsICctbWV0YWxfYmluZGluZycsICctaW1hZScsICc8aW5maWxlLm1hZT4nLCAnLW9tYWUnLCAnPG91dGZpbGUubWFlPic=

> <r_lp_tautomer_probability>
1

> <r_epik_Ionization_Penalty>
0.000307802

> <r_epik_Ionization_Penalty_Charging>
0

> <r_epik_Ionization_Penalty_Neutral>
0.000307802

> <r_epik_State_Penalty>
-0

> <r_epik_Charging_Adjusted_Penalty>
0

> <i_epik_Tot_Q>
0

> <i_epik_Tot_abs_Q>
0

> <r_epik_Metal_State_Penalty>
-0

> <b_epik_Metal_Only>
0

> <s_epik_Chemistry_Notes>
This compound contains an acetal/aminal-like group ( X-CH(R)-Y where X, Y are N, S, or O) that may be acid/base labile, releasing an aldehyde.

> <s_lp_Force_Field>
OPLS_2005

> <r_lp_Energy>
32.9701

> <b_lp_Chiralities_Consistent>
1

> <s_lp_Variant>
AV-unprocessed.smi:175-1

> <Gold.Version>
5.8.1

> <Gold.Id.Protein>
6NUR|6NUR_protein|mol2

> <Gold.PLP.Fitness>
48.0516

> <Gold.PLP.PLP>
-44.1655

> <Gold.PLP.part.hbond>
-2.9425

> <Gold.PLP.part.metal>
0.0000

> <Gold.PLP.part.buried>
-6.3264

> <Gold.PLP.part.nonpolar>
-35.0554

> <Gold.PLP.part.repulsive>
0.1007

> <Gold.PLP.ligand.clash>
0.0000

> <Gold.PLP.ligand.torsion>
0.6590

> <Gold.PLP.Chemscore.Hbond>
1.6699

> <Gold.PLP.Chemscore.CHOScore>
0.0000

> <Gold.PLP.Chemscore.Metal>
0.0000

> <Gold.Chemscore.Hbonds>
donor molecule, donor type, donor heavy atom, donor atom, acceptor molecule, acceptor atom, score
      P1  H  7997  8008       L1    27  0.90
      P1  H 10752 10763       L1    25  0.80

> <Gold.PLP.Chemscore.Internal.Correction>
0.1945

> <Gold.Rescore>
     Score         DG    S(hbond)    S(metal)    S(lipo)     H(rot)  DE(clash)    DE(int)     intcor
      9.27     -10.79       0.79        0.00      78.24       2.54       0.12       1.41       ----

> <Gold.Chemscore.Fitness>
9.2679

> <Gold.Chemscore.DG>
-10.7915

> <Gold.Chemscore.ZeroCoef>
-5.4800

> <Gold.Chemscore.Hbond>
0.7943

> <Gold.Chemscore.Metal>
0.0000

> <Gold.Chemscore.Lipo>
78.2438

> <Gold.Chemscore.Internal_Hbond>
0.0000

> <Gold.Chemscore.DEClash>
0.1172

> <Gold.Chemscore.DEInternal>
1.4064

> <Gold.Chemscore.Rot>
2.5375

> <Gold.Chemscore.Internal.Correction>
   9.000000E+99

> <Gold.Chemscore.Hbonds>
donor molecule, donor type, donor heavy atom, donor atom, acceptor molecule, acceptor atom, score
      P1  H  7997  8008       L1    27  0.21
      P1  H 10752 10763       L1    25  0.63

> <Gold.Chemscore.Hbond.Weighted>
-2.6531

> <Gold.Chemscore.Metal.Weighted>
-0.0000

> <Gold.Chemscore.Lipo.Weighted>
-9.1545

> <Gold.Chemscore.Internal_Hbond.Weighted>
0.0000

> <Gold.Chemscore.DEClash.Weighted>
0.1172

> <Gold.Chemscore.DEInternal.Weighted>
1.4064

> <Gold.Chemscore.Rot.Weighted>
6.4961

> <Gold.Chemscore.Internal.Correction.Weighted>
   9.000000E+99

> <Gold.Protein.RotatedTorsions>
[ 6907 6896 6895 6894 ] final  -52.02 input  -60.11 | X-H torsion
[ 7974 7965 7964 7962 ] final    0.19 input  175.53 | X-H torsion
[ 8008 7997 7996 7995 ] final  -73.63 input   59.86 | X-H torsion
[ 10167 10162 10161 10158 ] final  171.78 input  -65.29 | X-H torsion
[ 10718 10713 10712 10709 ] final  161.01 input   66.30 | X-H torsion
[ 10763 10752 10751 10750 ] final   66.11 input  -60.55 | X-H torsion
[ 11005 11000 10999 10996 ] final   66.55 input  -57.11 | X-H torsion

> <Gold.Protein.ActiveResidues>
 VAL166  LYS551  ARG553  GLY616  TRP617  ASP618  TYR619  PRO620  LYS621  CYS622 
 ASP623  PHE694  ASN695  SER759  ASP760  ASP761  ALA762  ILE779  LEU786  VAL792 
 PHE793  MET794  SER795  GLU796  ALA797  LYS798  CYS799  TRP800  GLU811  SER814 

> <Gold.Protein.RotatedAtoms>
  150.8557  134.7894  159.7043 H   0  0  0  0  0  0  0  0  0  0  0  0  # atno 6907 bound_to 6896
  152.4609  134.5183  159.9784 H   0  0  0  0  0  0  0  0  0  0  0  0  # atno 6908 bound_to 6896
  151.5296  133.3413  159.2951 H   0  0  0  0  0  0  0  0  0  0  0  0  # atno 6909 bound_to 6896
  146.2432  140.1175  142.8341 H   0  0  0  0  0  0  0  0  0  0  0  0  # atno 7974 bound_to 7965
  154.5263  140.0776  156.8264 H   0  0  0  0  0  0  0  0  0  0  0  0  # atno 8008 bound_to 7997
  155.3469  140.3410  155.4221 H   0  0  0  0  0  0  0  0  0  0  0  0  # atno 8009 bound_to 7997
  156.1735  140.1627  156.8392 H   0  0  0  0  0  0  0  0  0  0  0  0  # atno 8010 bound_to 7997
  139.5056  144.3448  151.9982 H   0  0  0  0  0  0  0  0  0  0  0  0  # atno 10167 bound_to 10162
  157.1424  131.0544  151.2320 H   0  0  0  0  0  0  0  0  0  0  0  0  # atno 10718 bound_to 10713
  153.0125  135.5332  154.6773 H   0  0  0  0  0  0  0  0  0  0  0  0  # atno 10763 bound_to 10752
  154.5942  135.2862  155.0606 H   0  0  0  0  0  0  0  0  0  0  0  0  # atno 10764 bound_to 10752
  154.1687  135.6535  153.5056 H   0  0  0  0  0  0  0  0  0  0  0  0  # atno 10765 bound_to 10752
  139.9825  134.6721  156.0237 H   0  0  0  0  0  0  0  0  0  0  0  0  # atno 11005 bound_to 11000
  145.0435  140.8963  143.5038 LP  0  0  0  0  0  0  0  0  0  0  0  0  # atno 17320 bound_to 7965
  145.1259  139.2663  143.5564 LP  0  0  0  0  0  0  0  0  0  0  0  0  # atno 17321 bound_to 7965
  140.2885  144.3780  150.6096 LP  0  0  0  0  0  0  0  0  0  0  0  0  # atno 17342 bound_to 10162
  140.5964  143.2167  151.7156 LP  0  0  0  0  0  0  0  0  0  0  0  0  # atno 17343 bound_to 10162
  157.4295  130.7482  149.6978 LP  0  0  0  0  0  0  0  0  0  0  0  0  # atno 17370 bound_to 10713
  155.9786  130.4049  150.3639 LP  0  0  0  0  0  0  0  0  0  0  0  0  # atno 17371 bound_to 10713
  141.1495  133.6550  156.3968 LP  0  0  0  0  0  0  0  0  0  0  0  0  # atno 17394 bound_to 11000
  140.5069  134.6432  157.5269 LP  0  0  0  0  0  0  0  0  0  0  0  0  # atno 17395 bound_to 11000

$$$$
