#       Name:                AV-unprocessed.smi:2786
#       Creating user name   scv26
#       Creation time:       Fri Mar 27 15:18:41 2020


#       File generated by GOLD software.
#

@<TRIPOS>MOLECULE
AV-unprocessed.smi:2786
    29    30     1
SMALL
NO_CHARGES


@<TRIPOS>ATOM
      1 ****        -1.6877   2.2768  -0.3995 C.3            1 S1                 0.0000
      2 ****        -0.2433   2.2117  -0.2897 N.pl3          1 S1                 0.0000
      3 ****         0.6188   3.2999  -0.2592 C.2            1 S1                 0.0000
      4 ****         1.8896   2.7927  -0.1389 C.2            1 S1                 0.0000
      5 ****         1.8285   1.4045  -0.0931 N.2            1 S1                 0.0000
      6 ****         0.5331   1.1138  -0.1959 C.2            1 S1                 0.0000
      7 ****        -0.0252  -0.2810  -0.1725 C.3            1 S1                 0.0000
      8 ****        -0.1888  -0.7882   1.2769 C.3            1 S1                 0.0000
      9 ****        -0.7403  -2.1449   1.3005 N.3            1 S1                 0.0000
     10 ****         0.0986  -3.0650   0.5312 C.3            1 S1                 0.0000
     11 ****         0.2579  -2.5698  -0.9177 C.3            1 S1                 0.0000
     12 ****         0.8080  -1.2131  -0.9432 N.3            1 S1                 0.0000
     13 ****        -2.0234   3.3123  -0.3366 H              1 S1                 0.0000
     14 ****        -2.1474   1.7090   0.4100 H              1 S1                 0.0000
     15 ****        -2.0031   1.8610  -1.3567 H              1 S1                 0.0000
     16 ****         0.2659   4.3191  -0.3206 H              1 S1                 0.0000
     17 ****         2.8336   3.3138  -0.0798 H              1 S1                 0.0000
     18 ****        -1.0129  -0.2530  -0.6335 H              1 S1                 0.0000
     19 ****         0.7757  -0.7706   1.7866 H              1 S1                 0.0000
     20 ****        -0.8442  -0.1165   1.8317 H              1 S1                 0.0000
     21 ****        -0.8008  -2.4669   2.2611 H              1 S1                 0.0000
     22 ****         1.0792  -3.1564   1.0004 H              1 S1                 0.0000
     23 ****        -0.3422  -4.0619   0.5352 H              1 S1                 0.0000
     24 ****         0.9119  -3.2452  -1.4693 H              1 S1                 0.0000
     25 ****        -0.7085  -2.5902  -1.4235 H              1 S1                 0.0000
     26 ****         0.8677  -0.8921  -1.9041 H              1 S1                 0.0000
     27 ****         2.5911   0.7640  -0.0027 LP             1 S1                 0.0000
     28 ****        -1.6505  -2.1248   0.8867 LP             1 S1                 0.0000
     29 ****         1.7170  -1.2382  -0.5272 LP             1 S1                 0.0000
@<TRIPOS>BOND
    1    1    2 1     
    2    1   13 1     
    3    1   14 1     
    4    1   15 1     
    5    2    6 1     
    6    2    3 1     
    7    3    4 2     
    8    3   16 1     
    9    4    5 1     
   10    4   17 1     
   11    5    6 2     
   12    6    7 1     
   13    7   12 1     
   14    7    8 1     
   15    7   18 1     
   16    8    9 1     
   17    8   19 1     
   18    8   20 1     
   19    9   10 1     
   20    9   21 1     
   21   10   11 1     
   22   10   22 1     
   23   10   23 1     
   24   11   12 1     
   25   11   24 1     
   26   11   25 1     
   27   12   26 1     
   28    5   27 1     
   29    9   28 1     
   30   12   29 1     
@<TRIPOS>SUBSTRUCTURE
      1 S1             1
@<TRIPOS>SET
LONE_PAIRS      STATIC     ATOMS    <user>   **** ""
3 27 28 29
DONOR_HYDROGENS      STATIC     ATOMS    <user>   **** ""
2 21 26
ATOM$BLUE        STATIC     ATOMS    COLORGROUP SYSTEM
3 27 28 29
ATOM$RED        STATIC     ATOMS    COLORGROUP SYSTEM
2 21 26
