AV-unprocessed.smi:1830|AV-procd|sdf|7437|dock6
  -GOLD-   22720 9123D 1   1.00000     0.00000
 Structure written by MMmdl.
 53 56  0  0  0  0  0  0  0  0  2 V2000
  150.8552  136.4250  158.8434 O   0  0  0  0  0  0  0  0  0  0  0  0
  149.8539  137.0735  158.5392 C   0  0  0  0  0  0  0  0  0  0  0  0
  148.6949  136.9957  159.2077 N   0  0  0  0  0  0  0  0  0  0  0  0
  148.4614  136.1540  160.3766 C   0  0  0  0  0  0  0  0  0  0  0  0
  146.9706  136.0920  160.7546 C   0  0  1  0  0  0  0  0  0  0  0  0
  146.7461  135.3340  162.0768 C   0  0  0  0  0  0  0  0  0  0  0  0
  145.3295  135.3833  162.5078 N   0  3  2  0  0  0  0  0  0  0  0  0
  144.4069  134.4301  161.8521 C   0  0  0  0  0  0  0  0  0  0  0  0
  143.0319  135.1156  161.8152 C   0  0  0  0  0  0  0  0  0  0  0  0
  143.2190  136.4463  162.5513 C   0  0  0  0  0  0  0  0  0  0  0  0
  144.7187  136.7271  162.4424 C   0  0  2  0  0  0  0  0  0  0  0  0
  145.0839  137.4506  161.1262 C   0  0  0  0  0  0  0  0  0  0  0  0
  146.4891  137.4211  160.9181 O   0  0  0  0  0  0  0  0  0  0  0  0
  149.7738  137.9506  157.5248 N   0  0  0  0  0  0  0  0  0  0  0  0
  150.7885  138.3281  156.5990 C   0  0  0  0  0  0  0  0  0  0  0  0
  152.0707  137.7251  156.6120 C   0  0  0  0  0  0  0  0  0  0  0  0
  153.0428  138.1480  155.6896 C   0  0  0  0  0  0  0  0  0  0  0  0
  152.6986  139.1604  154.7793 C   0  0  0  0  0  0  0  0  0  0  0  0
  151.4779  139.7302  154.7396 N   0  0  0  0  0  0  0  0  0  0  0  0
  150.5239  139.3225  155.6128 C   0  0  0  0  0  0  0  0  0  0  0  0
  149.2575  139.9432  155.5069 N   0  0  0  0  0  0  0  0  0  0  0  0
  148.4491  139.6652  154.3234 C   0  0  0  0  0  0  0  0  0  0  0  0
  147.7160  140.9670  153.9820 C   0  0  0  0  0  0  0  0  0  0  0  0
  147.7427  141.7514  155.2901 C   0  0  0  0  0  0  0  0  0  0  0  0
  149.0858  141.3416  155.8867 C   0  0  0  0  0  0  0  0  0  0  0  0
  147.9223  137.5645  158.8929 H   0  0  0  0  0  0  0  0  0  0  0  0
  148.8444  135.1511  160.1806 H   0  0  0  0  0  0  0  0  0  0  0  0
  149.0443  136.5498  161.2087 H   0  0  0  0  0  0  0  0  0  0  0  0
  146.4195  135.5977  159.9530 H   0  0  0  0  0  0  0  0  0  0  0  0
  147.0731  134.2966  161.9952 H   0  0  0  0  0  0  0  0  0  0  0  0
  147.3492  135.7912  162.8622 H   0  0  0  0  0  0  0  0  0  0  0  0
  144.7341  134.1947  160.8387 H   0  0  0  0  0  0  0  0  0  0  0  0
  144.3804  133.4972  162.4158 H   0  0  0  0  0  0  0  0  0  0  0  0
  142.7381  135.2975  160.7805 H   0  0  0  0  0  0  0  0  0  0  0  0
  142.2535  134.5049  162.2737 H   0  0  0  0  0  0  0  0  0  0  0  0
  142.6000  137.2476  162.1461 H   0  0  0  0  0  0  0  0  0  0  0  0
  142.9484  136.3205  163.6008 H   0  0  0  0  0  0  0  0  0  0  0  0
  145.0682  137.3227  163.2867 H   0  0  0  0  0  0  0  0  0  0  0  0
  144.5796  137.0024  160.2685 H   0  0  0  0  0  0  0  0  0  0  0  0
  144.7562  138.4895  161.1700 H   0  0  0  0  0  0  0  0  0  0  0  0
  148.9175  138.4816  157.4637 H   0  0  0  0  0  0  0  0  0  0  0  0
  152.3235  136.9404  157.3082 H   0  0  0  0  0  0  0  0  0  0  0  0
  154.0291  137.7080  155.6823 H   0  0  0  0  0  0  0  0  0  0  0  0
  153.4188  139.5175  154.0582 H   0  0  0  0  0  0  0  0  0  0  0  0
  149.0530  139.3166  153.4844 H   0  0  0  0  0  0  0  0  0  0  0  0
  147.7257  138.8871  154.5675 H   0  0  0  0  0  0  0  0  0  0  0  0
  148.2725  141.5115  153.2181 H   0  0  0  0  0  0  0  0  0  0  0  0
  146.7064  140.7989  153.6064 H   0  0  0  0  0  0  0  0  0  0  0  0
  147.6518  142.8283  155.1462 H   0  0  0  0  0  0  0  0  0  0  0  0
  146.9294  141.4237  155.9390 H   0  0  0  0  0  0  0  0  0  0  0  0
  149.1031  141.4651  156.9698 H   0  0  0  0  0  0  0  0  0  0  0  0
  149.8752  141.9598  155.4576 H   0  0  0  0  0  0  0  0  0  0  0  0
  145.3158  135.1241  163.4841 H   0  0  0  0  0  0  0  0  0  0  0  0
  1  2  2  0  0  0  0
  2  3  1  0  0  0  0
  2 14  1  0  0  0  0
  3  4  1  0  0  0  0
  3 26  1  0  0  0  0
  4  5  1  0  0  0  0
  4 27  1  0  0  0  0
  4 28  1  0  0  0  0
  5 13  1  0  0  0  0
  5  6  1  0  0  0  0
  5 29  1  0  0  0  0
  6  7  1  0  0  0  0
  6 30  1  0  0  0  0
  6 31  1  0  0  0  0
  7 11  1  0  0  0  0
  7  8  1  0  0  0  0
  7 53  1  0  0  0  0
  8  9  1  0  0  0  0
  8 32  1  0  0  0  0
  8 33  1  0  0  0  0
  9 10  1  0  0  0  0
  9 34  1  0  0  0  0
  9 35  1  0  0  0  0
 10 11  1  0  0  0  0
 10 36  1  0  0  0  0
 10 37  1  0  0  0  0
 11 12  1  0  0  0  0
 11 38  1  0  0  0  0
 12 13  1  0  0  0  0
 12 39  1  0  0  0  0
 12 40  1  0  0  0  0
 14 15  1  0  0  0  0
 14 41  1  0  0  0  0
 15 20  1  0  0  0  0
 15 16  2  0  0  0  0
 16 17  1  0  0  0  0
 16 42  1  0  0  0  0
 17 18  2  0  0  0  0
 17 43  1  0  0  0  0
 18 19  1  0  0  0  0
 18 44  1  0  0  0  0
 19 20  2  0  0  0  0
 20 21  1  0  0  0  0
 21 25  1  0  0  0  0
 21 22  1  0  0  0  0
 22 23  1  0  0  0  0
 22 45  1  0  0  0  0
 22 46  1  0  0  0  0
 23 24  1  0  0  0  0
 23 47  1  0  0  0  0
 23 48  1  0  0  0  0
 24 25  1  0  0  0  0
 24 49  1  0  0  0  0
 24 50  1  0  0  0  0
 25 51  1  0  0  0  0
 25 52  1  0  0  0  0
M  CHG  1   7   1
M  END
> <s_m_source_file>
AV-unprocessed.smi

> <i_m_source_file_index>
1830

> <i_lp_mmshare_version>
43012

> <i_f3d_flags>
0

> <s_epik_input>
W0NIMl0xW0NIMl1bQ0gyXVtDQEhdKE4xMilbQ0gyXU9bQ0BASF0oW0NIMl0yKVtDSDJdW05IXUMoPU8pW05IXWMzW2NIXVtjSF1bY0hdbmMzTjRbQ0gyXVtDSDJdW0NIMl1bQ0gyXTQ=

> <s_epik_cmdline>
J2VwaWtfcHl0aG9uJywgJy1waCcsICc3LjAnLCAnLXRuJywgJzgnLCAnLW1hJywgJzIwMCcsICctbWV0YWxfYmluZGluZycsICctaW1hZScsICc8aW5maWxlLm1hZT4nLCAnLW9tYWUnLCAnPG91dGZpbGUubWFlPic=

> <r_lp_tautomer_probability>
1

> <r_epik_Ionization_Penalty>
0.193547

> <r_epik_Ionization_Penalty_Charging>
0.10673

> <r_epik_Ionization_Penalty_Neutral>
0.0868166

> <r_epik_State_Penalty>
0.173595

> <r_epik_Charging_Adjusted_Penalty>
0.280326

> <i_epik_Tot_Q>
1

> <i_epik_Tot_abs_Q>
1

> <r_epik_Metal_State_Penalty>
0.164683

> <b_epik_Metal_Only>
0

> <s_lp_Force_Field>
OPLS_2005

> <r_lp_Energy>
64.4771

> <b_lp_Chiralities_Consistent>
1

> <s_lp_Variant>
AV-unprocessed.smi:1830-6

> <Gold.Version>
5.8.1

> <Gold.Id.Protein>
6NUR|6NUR_protein|mol2

> <Gold.PLP.Fitness>
44.4390

> <Gold.PLP.PLP>
-35.5757

> <Gold.PLP.part.hbond>
-3.0000

> <Gold.PLP.part.metal>
0.0000

> <Gold.PLP.part.buried>
-6.7789

> <Gold.PLP.part.nonpolar>
-28.1171

> <Gold.PLP.part.repulsive>
0.4014

> <Gold.PLP.ligand.clash>
0.0000

> <Gold.PLP.ligand.torsion>
0.2319

> <Gold.PLP.Chemscore.Hbond>
3.0000

> <Gold.PLP.Chemscore.CHOScore>
0.0000

> <Gold.PLP.Chemscore.Metal>
0.0000

> <Gold.Chemscore.Hbonds>
donor molecule, donor type, donor heavy atom, donor atom, acceptor molecule, acceptor atom, score
      P1  H  6896  6908       L1     1  0.94
      P1  H  6934  6947       L1    13  1.00
      P1  H  7989  7998       L1    19  1.00

> <Gold.PLP.Chemscore.Internal.Correction>
0.3271

> <Gold.Rescore>
     Score         DG    S(hbond)    S(metal)    S(lipo)     H(rot)  DE(clash)    DE(int)     intcor
     19.80     -21.48       2.83        0.00      86.77       1.41       0.05       1.63       ----

> <Gold.Chemscore.Fitness>
19.8013

> <Gold.Chemscore.DG>
-21.4766

> <Gold.Chemscore.ZeroCoef>
-5.4800

> <Gold.Chemscore.Hbond>
2.8280

> <Gold.Chemscore.Metal>
0.0000

> <Gold.Chemscore.Lipo>
86.7699

> <Gold.Chemscore.Internal_Hbond>
0.0000

> <Gold.Chemscore.DEClash>
0.0487

> <Gold.Chemscore.DEInternal>
1.6266

> <Gold.Chemscore.Rot>
1.4067

> <Gold.Chemscore.Internal.Correction>
   9.000000E+99

> <Gold.Chemscore.Hbonds>
donor molecule, donor type, donor heavy atom, donor atom, acceptor molecule, acceptor atom, score
      P1  H  6896  6908       L1     1  0.91
      P1  H  6934  6947       L1    13  0.78
      P1  H  7989  7998       L1    19  0.35

> <Gold.Chemscore.Hbond.Weighted>
-9.4456

> <Gold.Chemscore.Metal.Weighted>
-0.0000

> <Gold.Chemscore.Lipo.Weighted>
-10.1521

> <Gold.Chemscore.Internal_Hbond.Weighted>
0.0000

> <Gold.Chemscore.DEClash.Weighted>
0.0487

> <Gold.Chemscore.DEInternal.Weighted>
1.6266

> <Gold.Chemscore.Rot.Weighted>
3.6011

> <Gold.Chemscore.Internal.Correction.Weighted>
   9.000000E+99

> <Gold.Protein.RotatedTorsions>
[ 6907 6896 6895 6894 ] final -155.15 input  -60.11 | X-H torsion
[ 7974 7965 7964 7962 ] final  112.01 input  175.53 | X-H torsion
[ 8008 7997 7996 7995 ] final -147.95 input   59.86 | X-H torsion
[ 10167 10162 10161 10158 ] final   50.45 input  -65.29 | X-H torsion
[ 10718 10713 10712 10709 ] final   25.37 input   66.30 | X-H torsion
[ 10763 10752 10751 10750 ] final  -65.62 input  -60.55 | X-H torsion
[ 11005 11000 10999 10996 ] final  176.25 input  -57.11 | X-H torsion

> <Gold.Protein.ActiveResidues>
 VAL166  LYS551  ARG553  GLY616  TRP617  ASP618  TYR619  PRO620  LYS621  CYS622 
 ASP623  PHE694  ASN695  SER759  ASP760  ASP761  ALA762  ILE779  LEU786  VAL792 
 PHE793  MET794  SER795  GLU796  ALA797  LYS798  CYS799  TRP800  GLU811  SER814 

> <Gold.Protein.RotatedAtoms>
  151.2682  133.4268  159.2619 H   0  0  0  0  0  0  0  0  0  0  0  0  # atno 6907 bound_to 6896
  151.0469  134.9646  159.8201 H   0  0  0  0  0  0  0  0  0  0  0  0  # atno 6908 bound_to 6896
  152.5375  134.2638  159.8998 H   0  0  0  0  0  0  0  0  0  0  0  0  # atno 6909 bound_to 6896
  145.2350  139.2803  143.4148 H   0  0  0  0  0  0  0  0  0  0  0  0  # atno 7974 bound_to 7965
  155.5838  140.0646  157.2776 H   0  0  0  0  0  0  0  0  0  0  0  0  # atno 8008 bound_to 7997
  154.4325  140.1847  156.1051 H   0  0  0  0  0  0  0  0  0  0  0  0  # atno 8009 bound_to 7997
  156.0284  140.3309  155.7117 H   0  0  0  0  0  0  0  0  0  0  0  0  # atno 8010 bound_to 7997
  140.2723  144.3251  150.6286 H   0  0  0  0  0  0  0  0  0  0  0  0  # atno 10167 bound_to 10162
  157.1924  130.6852  149.6155 H   0  0  0  0  0  0  0  0  0  0  0  0  # atno 10718 bound_to 10713
  154.3476  135.6143  153.5627 H   0  0  0  0  0  0  0  0  0  0  0  0  # atno 10763 bound_to 10752
  152.9800  135.5784  154.4780 H   0  0  0  0  0  0  0  0  0  0  0  0  # atno 10764 bound_to 10752
  154.4495  135.2852  155.1768 H   0  0  0  0  0  0  0  0  0  0  0  0  # atno 10765 bound_to 10752
  140.3711  134.7029  157.4393 H   0  0  0  0  0  0  0  0  0  0  0  0  # atno 11005 bound_to 11000
  146.3343  140.2696  142.8605 LP  0  0  0  0  0  0  0  0  0  0  0  0  # atno 17320 bound_to 7965
  144.9642  140.8305  143.5495 LP  0  0  0  0  0  0  0  0  0  0  0  0  # atno 17321 bound_to 7965
  140.5879  143.2169  151.7307 LP  0  0  0  0  0  0  0  0  0  0  0  0  # atno 17342 bound_to 10162
  139.4985  144.3982  152.0208 LP  0  0  0  0  0  0  0  0  0  0  0  0  # atno 17343 bound_to 10162
  155.9710  130.4610  150.6094 LP  0  0  0  0  0  0  0  0  0  0  0  0  # atno 17370 bound_to 10713
  157.3848  131.0786  151.1446 LP  0  0  0  0  0  0  0  0  0  0  0  0  # atno 17371 bound_to 10713
  140.0551  134.6075  155.8815 LP  0  0  0  0  0  0  0  0  0  0  0  0  # atno 17394 bound_to 11000
  141.1954  133.6587  156.5642 LP  0  0  0  0  0  0  0  0  0  0  0  0  # atno 17395 bound_to 11000

$$$$
