AV-unprocessed.smi:1162|AV-procd|sdf|4919|dock4
  -GOLD-   22720 3503D 1   1.00000     0.00000
 Structure written by MMmdl.
 44 45  0  0  0  0  0  0  0  0  1 V2000
  163.5659  141.8254  156.6026 C   0  0  0  0  0  0  0  0  0  0  0  0
  162.3438  142.5510  156.6812 O   0  0  0  0  0  0  0  0  0  0  0  0
  161.2762  141.9671  157.3317 C   0  0  0  0  0  0  0  0  0  0  0  0
  161.5383  141.0615  158.3790 C   0  0  0  0  0  0  0  0  0  0  0  0
  160.4550  140.4576  159.0455 C   0  0  0  0  0  0  0  0  0  0  0  0
  159.1374  140.7863  158.6462 C   0  0  0  0  0  0  0  0  0  0  0  0
  157.9616  140.2311  159.2195 N   0  0  0  0  0  0  0  0  0  0  0  0
  156.8280  139.8475  158.6082 C   0  0  0  0  0  0  0  0  0  0  0  0
  156.6246  139.8791  157.3947 O   0  0  0  0  0  0  0  0  0  0  0  0
  155.9306  139.3958  159.4964 N   0  0  0  0  0  0  0  0  0  0  0  0
  154.6095  138.8679  159.1643 C   0  0  0  0  0  0  0  0  0  0  0  0
  153.5597  139.9660  158.9555 C   0  0  0  0  0  0  0  0  0  0  0  0
  152.8269  139.9610  157.9651 O   0  0  0  0  0  0  0  0  0  0  0  0
  153.4889  140.8976  159.9182 N   0  0  0  0  0  0  0  0  0  0  0  0
  152.5616  142.0248  159.9379 C   0  0  0  0  0  0  0  0  0  0  0  0
  152.6384  142.8160  158.6154 C   0  0  0  0  0  0  0  0  0  0  0  0
  151.7292  144.0555  158.6473 C   0  0  0  0  0  0  0  0  0  0  0  0
  152.0508  144.9552  159.8508 C   0  0  0  0  0  0  0  0  0  0  0  0
  151.9656  144.1693  161.1684 C   0  0  0  0  0  0  0  0  0  0  0  0
  152.8813  142.9350  161.1391 C   0  0  0  0  0  0  0  0  0  0  0  0
  158.9832  141.6965  157.5803 C   0  0  0  0  0  0  0  0  0  0  0  0
  160.0169  142.2791  156.9376 N   0  0  0  0  0  0  0  0  0  0  0  0
  164.3060  142.4221  156.0696 H   0  0  0  0  0  0  0  0  0  0  0  0
  163.4399  140.8896  156.0562 H   0  0  0  0  0  0  0  0  0  0  0  0
  163.9670  141.6104  157.5941 H   0  0  0  0  0  0  0  0  0  0  0  0
  162.5539  140.8287  158.6628 H   0  0  0  0  0  0  0  0  0  0  0  0
  160.6584  139.7485  159.8324 H   0  0  0  0  0  0  0  0  0  0  0  0
  158.0054  140.0642  160.2142 H   0  0  0  0  0  0  0  0  0  0  0  0
  156.1871  139.3935  160.4726 H   0  0  0  0  0  0  0  0  0  0  0  0
  154.6943  138.2908  158.2433 H   0  0  0  0  0  0  0  0  0  0  0  0
  154.2754  138.1747  159.9386 H   0  0  0  0  0  0  0  0  0  0  0  0
  154.1274  140.8214  160.6968 H   0  0  0  0  0  0  0  0  0  0  0  0
  151.5450  141.6469  160.0635 H   0  0  0  0  0  0  0  0  0  0  0  0
  153.6674  143.1277  158.4305 H   0  0  0  0  0  0  0  0  0  0  0  0
  152.3545  142.1785  157.7772 H   0  0  0  0  0  0  0  0  0  0  0  0
  151.8394  144.6204  157.7214 H   0  0  0  0  0  0  0  0  0  0  0  0
  150.6860  143.7406  158.6952 H   0  0  0  0  0  0  0  0  0  0  0  0
  153.0524  145.3725  159.7387 H   0  0  0  0  0  0  0  0  0  0  0  0
  151.3637  145.8013  159.8771 H   0  0  0  0  0  0  0  0  0  0  0  0
  152.2369  144.8143  162.0045 H   0  0  0  0  0  0  0  0  0  0  0  0
  150.9350  143.8560  161.3418 H   0  0  0  0  0  0  0  0  0  0  0  0
  152.7741  142.3771  162.0702 H   0  0  0  0  0  0  0  0  0  0  0  0
  153.9219  143.2597  161.0911 H   0  0  0  0  0  0  0  0  0  0  0  0
  157.9978  141.9697  157.2316 H   0  0  0  0  0  0  0  0  0  0  0  0
  1  2  1  0  0  0  0
  1 23  1  0  0  0  0
  1 24  1  0  0  0  0
  1 25  1  0  0  0  0
  2  3  1  0  0  0  0
  3 22  1  0  0  0  0
  3  4  2  0  0  0  0
  4  5  1  0  0  0  0
  4 26  1  0  0  0  0
  5  6  2  0  0  0  0
  5 27  1  0  0  0  0
  6  7  1  0  0  0  0
  6 21  1  0  0  0  0
  7  8  1  0  0  0  0
  7 28  1  0  0  0  0
  8  9  2  0  0  0  0
  8 10  1  0  0  0  0
 10 11  1  0  0  0  0
 10 29  1  0  0  0  0
 11 12  1  0  0  0  0
 11 30  1  0  0  0  0
 11 31  1  0  0  0  0
 12 13  2  0  0  0  0
 12 14  1  0  0  0  0
 14 15  1  0  0  0  0
 14 32  1  0  0  0  0
 15 20  1  0  0  0  0
 15 16  1  0  0  0  0
 15 33  1  0  0  0  0
 16 17  1  0  0  0  0
 16 34  1  0  0  0  0
 16 35  1  0  0  0  0
 17 18  1  0  0  0  0
 17 36  1  0  0  0  0
 17 37  1  0  0  0  0
 18 19  1  0  0  0  0
 18 38  1  0  0  0  0
 18 39  1  0  0  0  0
 19 20  1  0  0  0  0
 19 40  1  0  0  0  0
 19 41  1  0  0  0  0
 20 42  1  0  0  0  0
 20 43  1  0  0  0  0
 21 22  2  0  0  0  0
 21 44  1  0  0  0  0
M  END
> <s_m_source_file>
AV-unprocessed.smi

> <i_m_source_file_index>
1162

> <i_lp_mmshare_version>
43012

> <i_f3d_flags>
0

> <s_epik_input>
W0NIM11PYzFbY0hdW2NIXWMoW2NIXW4xKVtOSF1DKD1PKVtOSF1bQ0gyXUMoPU8pW05IXVtDSF0yW0NIMl1bQ0gyXVtDSDJdW0NIMl1bQ0gyXTI=

> <s_epik_cmdline>
J2VwaWtfcHl0aG9uJywgJy1waCcsICc3LjAnLCAnLXRuJywgJzgnLCAnLW1hJywgJzIwMCcsICctbWV0YWxfYmluZGluZycsICctaW1hZScsICc8aW5maWxlLm1hZT4nLCAnLW9tYWUnLCAnPG91dGZpbGUubWFlPic=

> <r_lp_tautomer_probability>
1

> <r_epik_Ionization_Penalty>
0.000141568

> <r_epik_Ionization_Penalty_Charging>
0

> <r_epik_Ionization_Penalty_Neutral>
0.000141568

> <r_epik_State_Penalty>
-0

> <r_epik_Charging_Adjusted_Penalty>
0

> <i_epik_Tot_Q>
0

> <i_epik_Tot_abs_Q>
0

> <r_epik_Metal_State_Penalty>
-0

> <b_epik_Metal_Only>
0

> <s_lp_Force_Field>
OPLS_2005

> <r_lp_Energy>
7.6567

> <b_lp_Chiralities_Consistent>
1

> <s_lp_Variant>
AV-unprocessed.smi:1162-1

> <Gold.Version>
5.8.1

> <Gold.Id.Protein>
6NUR|6NUR_protein|mol2

> <Gold.PLP.Fitness>
48.0486

> <Gold.PLP.PLP>
-44.2076

> <Gold.PLP.part.hbond>
-4.3953

> <Gold.PLP.part.metal>
0.0000

> <Gold.PLP.part.buried>
-6.9858

> <Gold.PLP.part.nonpolar>
-33.3678

> <Gold.PLP.part.repulsive>
0.4788

> <Gold.PLP.ligand.clash>
0.0000

> <Gold.PLP.ligand.torsion>
0.9803

> <Gold.PLP.Chemscore.Hbond>
1.9200

> <Gold.PLP.Chemscore.CHOScore>
0.0000

> <Gold.PLP.Chemscore.Metal>
0.0000

> <Gold.Chemscore.Hbonds>
donor molecule, donor type, donor heavy atom, donor atom, acceptor molecule, acceptor atom, score
      P1  H  7997  8009       L1    13  0.35

> <Gold.PLP.Chemscore.Internal.Correction>
0.0416

> <Gold.Rescore>
     Score         DG    S(hbond)    S(metal)    S(lipo)     H(rot)  DE(clash)    DE(int)     intcor
     14.28     -19.04       1.80        0.00     104.31       1.82       1.42       3.34       ----

> <Gold.Chemscore.Fitness>
14.2765

> <Gold.Chemscore.DG>
-19.0437

> <Gold.Chemscore.ZeroCoef>
-5.4800

> <Gold.Chemscore.Hbond>
1.8023

> <Gold.Chemscore.Metal>
0.0000

> <Gold.Chemscore.Lipo>
104.3089

> <Gold.Chemscore.Internal_Hbond>
0.0000

> <Gold.Chemscore.DEClash>
1.4240

> <Gold.Chemscore.DEInternal>
3.3432

> <Gold.Chemscore.Rot>
1.8204

> <Gold.Chemscore.Internal.Correction>
   9.000000E+99

> <Gold.Chemscore.Hbonds>
donor molecule, donor type, donor heavy atom, donor atom, acceptor molecule, acceptor atom, score
      P1  H  7997  8009       L1    13  0.01

> <Gold.Chemscore.Hbond.Weighted>
-6.0196

> <Gold.Chemscore.Metal.Weighted>
-0.0000

> <Gold.Chemscore.Lipo.Weighted>
-12.2041

> <Gold.Chemscore.Internal_Hbond.Weighted>
0.0000

> <Gold.Chemscore.DEClash.Weighted>
1.4240

> <Gold.Chemscore.DEInternal.Weighted>
3.3432

> <Gold.Chemscore.Rot.Weighted>
4.6601

> <Gold.Chemscore.Internal.Correction.Weighted>
   9.000000E+99

> <Gold.Protein.RotatedTorsions>
[ 6907 6896 6895 6894 ] final  119.68 input  -60.11 | X-H torsion
[ 7974 7965 7964 7962 ] final  155.94 input  175.53 | X-H torsion
[ 8008 7997 7996 7995 ] final  165.46 input   59.86 | X-H torsion
[ 10167 10162 10161 10158 ] final -113.89 input  -65.29 | X-H torsion
[ 10718 10713 10712 10709 ] final  -87.04 input   66.30 | X-H torsion
[ 10763 10752 10751 10750 ] final  -45.55 input  -60.55 | X-H torsion
[ 11005 11000 10999 10996 ] final   12.93 input  -57.11 | X-H torsion

> <Gold.Protein.ActiveResidues>
 VAL166  LYS551  ARG553  GLY616  TRP617  ASP618  TYR619  PRO620  LYS621  CYS622 
 ASP623  PHE694  ASN695  SER759  ASP760  ASP761  ALA762  ILE779  LEU786  VAL792 
 PHE793  MET794  SER795  GLU796  ALA797  LYS798  CYS799  TRP800  GLU811  SER814 

> <Gold.Protein.RotatedAtoms>
  152.4454  133.7526  159.6702 H   0  0  0  0  0  0  0  0  0  0  0  0  # atno 6907 bound_to 6896
  150.8353  133.8014  159.3088 H   0  0  0  0  0  0  0  0  0  0  0  0  # atno 6908 bound_to 6896
  151.5655  135.1067  160.0034 H   0  0  0  0  0  0  0  0  0  0  0  0  # atno 6909 bound_to 6896
  144.7994  139.7135  143.6188 H   0  0  0  0  0  0  0  0  0  0  0  0  # atno 7974 bound_to 7965
  156.1799  140.1669  156.8294 H   0  0  0  0  0  0  0  0  0  0  0  0  # atno 8008 bound_to 7997
  154.5348  140.0749  156.8442 H   0  0  0  0  0  0  0  0  0  0  0  0  # atno 8009 bound_to 7997
  155.3333  140.3380  155.4241 H   0  0  0  0  0  0  0  0  0  0  0  0  # atno 8010 bound_to 7997
  140.1069  143.4562  152.1777 H   0  0  0  0  0  0  0  0  0  0  0  0  # atno 10167 bound_to 10162
  155.9987  130.4786  150.4806 H   0  0  0  0  0  0  0  0  0  0  0  0  # atno 10718 bound_to 10713
  154.0303  135.6657  153.4780 H   0  0  0  0  0  0  0  0  0  0  0  0  # atno 10763 bound_to 10752
  153.0543  135.5065  154.7939 H   0  0  0  0  0  0  0  0  0  0  0  0  # atno 10764 bound_to 10752
  154.6882  135.3056  154.9482 H   0  0  0  0  0  0  0  0  0  0  0  0  # atno 10765 bound_to 10752
  140.4865  134.0883  155.7762 H   0  0  0  0  0  0  0  0  0  0  0  0  # atno 11005 bound_to 11000
  146.2271  139.5743  142.9580 LP  0  0  0  0  0  0  0  0  0  0  0  0  # atno 17320 bound_to 7965
  145.5591  141.0406  143.2236 LP  0  0  0  0  0  0  0  0  0  0  0  0  # atno 17321 bound_to 7965
  139.5640  144.7424  151.4074 LP  0  0  0  0  0  0  0  0  0  0  0  0  # atno 17342 bound_to 10162
  140.6947  143.7777  150.7308 LP  0  0  0  0  0  0  0  0  0  0  0  0  # atno 17343 bound_to 10162
  157.2811  131.0607  151.2197 LP  0  0  0  0  0  0  0  0  0  0  0  0  # atno 17370 bound_to 10713
  157.3243  130.6952  149.6287 LP  0  0  0  0  0  0  0  0  0  0  0  0  # atno 17371 bound_to 10713
  141.1505  133.8977  157.2109 LP  0  0  0  0  0  0  0  0  0  0  0  0  # atno 17394 bound_to 11000
  139.9795  135.0103  156.9714 LP  0  0  0  0  0  0  0  0  0  0  0  0  # atno 17395 bound_to 11000

$$$$
