AV-unprocessed.smi:2510|AV-procd|sdf|9884|dock6
  -GOLD-   2272013523D 1   1.00000     0.00000
 Structure written by MMmdl.
 48 49  0  0  0  0  0  0  0  0  1 V2000
  152.6569  139.0651  155.8438 C   0  0  0  0  0  0  0  0  0  0  0  0
  151.5657  138.9734  154.7604 C   0  0  0  0  0  0  0  0  0  0  0  0
  150.0868  139.0221  155.2409 C   0  0  0  0  0  0  0  0  0  0  0  0
  149.7950  137.7844  156.1172 C   0  0  0  0  0  0  0  0  0  0  0  0
  150.4109  137.8323  157.5249 C   0  0  0  0  0  0  0  0  0  0  0  0
  149.5445  140.3671  155.8016 C   0  0  1  0  0  0  0  0  0  0  0  0
  150.5421  141.2548  156.3869 N   0  0  0  0  0  0  0  0  0  0  0  0
  150.2631  142.2575  157.2330 C   0  0  0  0  0  0  0  0  0  0  0  0
  149.1269  142.5150  157.6302 O   0  0  0  0  0  0  0  0  0  0  0  0
  151.4484  143.0979  157.7065 C   0  0  0  0  0  0  0  0  0  0  0  0
  152.1903  142.3982  158.7992 C   0  0  0  0  0  0  0  0  0  0  0  0
  152.5117  142.7934  160.0677 C   0  0  0  0  0  0  0  0  0  0  0  0
  153.2278  141.6871  160.6115 C   0  0  0  0  0  0  0  0  0  0  0  0
  153.8322  141.5567  161.9785 C   0  0  0  0  0  0  0  0  0  0  0  0
  153.3372  140.6839  159.7530 N   0  0  0  0  0  0  0  0  0  0  0  0
  152.6999  141.1273  158.6537 N   0  0  0  0  0  0  0  0  0  0  0  0
  149.1523  140.7861  154.3817 C   0  0  2  0  0  0  0  0  0  0  0  0
  147.9432  141.6892  154.1705 C   0  0  0  0  0  0  0  0  0  0  0  0
  149.0797  139.2775  154.0822 C   0  0  2  0  0  0  0  0  0  0  0  0
  147.7935  138.7303  154.3555 O   0  0  0  0  0  0  0  0  0  0  0  0
  146.8741  138.9104  153.2916 C   0  0  0  0  0  0  0  0  0  0  0  0
  152.6239  140.5599  157.8218 H   0  0  0  0  0  0  0  0  0  0  0  0
  153.6414  139.1411  155.3821 H   0  0  0  0  0  0  0  0  0  0  0  0
  152.6757  138.1800  156.4790 H   0  0  0  0  0  0  0  0  0  0  0  0
  152.5331  139.9350  156.4851 H   0  0  0  0  0  0  0  0  0  0  0  0
  151.7523  139.7759  154.0470 H   0  0  0  0  0  0  0  0  0  0  0  0
  151.7352  138.0614  154.1876 H   0  0  0  0  0  0  0  0  0  0  0  0
  148.7229  137.6063  156.1929 H   0  0  0  0  0  0  0  0  0  0  0  0
  150.1732  136.8887  155.6236 H   0  0  0  0  0  0  0  0  0  0  0  0
  150.2274  136.8975  158.0548 H   0  0  0  0  0  0  0  0  0  0  0  0
  149.9858  138.6344  158.1274 H   0  0  0  0  0  0  0  0  0  0  0  0
  151.4902  137.9793  157.4829 H   0  0  0  0  0  0  0  0  0  0  0  0
  148.6577  140.2309  156.4261 H   0  0  0  0  0  0  0  0  0  0  0  0
  151.5037  141.1085  156.1163 H   0  0  0  0  0  0  0  0  0  0  0  0
  152.1143  143.2833  156.8630 H   0  0  0  0  0  0  0  0  0  0  0  0
  151.1010  144.0745  158.0474 H   0  0  0  0  0  0  0  0  0  0  0  0
  152.2738  143.7364  160.5373 H   0  0  0  0  0  0  0  0  0  0  0  0
  153.6829  142.4641  162.5640 H   0  0  0  0  0  0  0  0  0  0  0  0
  154.9055  141.3751  161.9178 H   0  0  0  0  0  0  0  0  0  0  0  0
  153.3832  140.7297  162.5286 H   0  0  0  0  0  0  0  0  0  0  0  0
  150.0168  141.2039  153.8625 H   0  0  0  0  0  0  0  0  0  0  0  0
  147.0602  141.3048  154.6814 H   0  0  0  0  0  0  0  0  0  0  0  0
  147.7004  141.7840  153.1122 H   0  0  0  0  0  0  0  0  0  0  0  0
  148.1319  142.6912  154.5556 H   0  0  0  0  0  0  0  0  0  0  0  0
  149.4732  138.9936  153.1042 H   0  0  0  0  0  0  0  0  0  0  0  0
  145.9021  138.5077  153.5757 H   0  0  0  0  0  0  0  0  0  0  0  0
  147.2067  138.3830  152.3967 H   0  0  0  0  0  0  0  0  0  0  0  0
  146.7435  139.9641  153.0454 H   0  0  0  0  0  0  0  0  0  0  0  0
  1  2  1  0  0  0  0
  1 23  1  0  0  0  0
  1 24  1  0  0  0  0
  1 25  1  0  0  0  0
  2  3  1  0  0  0  0
  2 26  1  0  0  0  0
  2 27  1  0  0  0  0
  3 19  1  0  0  0  0
  3  4  1  0  0  0  0
  3  6  1  0  0  0  0
  4  5  1  0  0  0  0
  4 28  1  0  0  0  0
  4 29  1  0  0  0  0
  5 30  1  0  0  0  0
  5 31  1  0  0  0  0
  5 32  1  0  0  0  0
  6  7  1  0  0  0  0
  6 17  1  0  0  0  0
  6 33  1  0  0  0  0
  7  8  1  0  0  0  0
  7 34  1  0  0  0  0
  8  9  2  0  0  0  0
  8 10  1  0  0  0  0
 10 35  1  0  0  0  0
 10 36  1  0  0  0  0
 10 11  1  0  0  0  0
 11 16  1  0  0  0  0
 11 12  2  0  0  0  0
 12 13  1  0  0  0  0
 12 37  1  0  0  0  0
 13 14  1  0  0  0  0
 13 15  2  0  0  0  0
 14 38  1  0  0  0  0
 14 39  1  0  0  0  0
 14 40  1  0  0  0  0
 15 16  1  0  0  0  0
 16 22  1  0  0  0  0
 17 18  1  0  0  0  0
 17 19  1  0  0  0  0
 17 41  1  0  0  0  0
 18 42  1  0  0  0  0
 18 43  1  0  0  0  0
 18 44  1  0  0  0  0
 19 20  1  0  0  0  0
 19 45  1  0  0  0  0
 20 21  1  0  0  0  0
 21 46  1  0  0  0  0
 21 47  1  0  0  0  0
 21 48  1  0  0  0  0
M  END
> <s_m_source_file>
AV-unprocessed.smi

> <i_m_source_file_index>
2510

> <i_lp_mmshare_version>
43012

> <i_f3d_flags>
0

> <s_epik_input>
W0NIM11PW0NAQEhdMVtDQEhdKFtDSDNdKVtDQEBIXShDMShbQ0gyXVtDSDNdKVtDSDJdW0NIM10pW05IXUMoPU8pW0NIMl1jMltjSF1jKFtDSDNdKVtuSF1uMg==

> <s_epik_cmdline>
J2VwaWtfcHl0aG9uJywgJy1waCcsICc3LjAnLCAnLXRuJywgJzgnLCAnLW1hJywgJzIwMCcsICctbWV0YWxfYmluZGluZycsICctaW1hZScsICc8aW5maWxlLm1hZT4nLCAnLW9tYWUnLCAnPG91dGZpbGUubWFlPic=

> <r_lp_tautomer_probability>
0.5

> <r_epik_Ionization_Penalty>
0.000134763

> <r_epik_Ionization_Penalty_Charging>
0

> <r_epik_Ionization_Penalty_Neutral>
0.000134763

> <r_epik_State_Penalty>
0.41068

> <r_epik_Charging_Adjusted_Penalty>
0.41068

> <i_epik_Tot_Q>
0

> <i_epik_Tot_abs_Q>
0

> <r_epik_Metal_State_Penalty>
0.410661

> <b_epik_Metal_Only>
0

> <s_lp_Force_Field>
OPLS_2005

> <r_lp_Energy>
27.4462

> <b_lp_Chiralities_Consistent>
1

> <s_lp_Variant>
AV-unprocessed.smi:2510-15

> <Gold.Version>
5.8.1

> <Gold.Id.Protein>
6NUR|6NUR_protein|mol2

> <Gold.PLP.Fitness>
35.7549

> <Gold.PLP.PLP>
-36.9814

> <Gold.PLP.part.hbond>
0.0000

> <Gold.PLP.part.metal>
0.0000

> <Gold.PLP.part.buried>
-1.4705

> <Gold.PLP.part.nonpolar>
-35.4393

> <Gold.PLP.part.repulsive>
1.3266

> <Gold.PLP.ligand.clash>
0.0000

> <Gold.PLP.ligand.torsion>
0.9537

> <Gold.PLP.Chemscore.Hbond>
0.0000

> <Gold.PLP.Chemscore.CHOScore>
0.0000

> <Gold.PLP.Chemscore.Metal>
0.0000

> <Gold.PLP.Chemscore.Internal.Correction>
0.6809

> <Gold.Rescore>
     Score         DG    S(hbond)    S(metal)    S(lipo)     H(rot)  DE(clash)    DE(int)     intcor
     12.31     -13.65       0.00        0.00     109.39       1.81       0.15       1.19       ----

> <Gold.Chemscore.Fitness>
12.3102

> <Gold.Chemscore.DG>
-13.6450

> <Gold.Chemscore.ZeroCoef>
-5.4800

> <Gold.Chemscore.Hbond>
0.0000

> <Gold.Chemscore.Metal>
0.0000

> <Gold.Chemscore.Lipo>
109.3942

> <Gold.Chemscore.Internal_Hbond>
0.0000

> <Gold.Chemscore.DEClash>
0.1461

> <Gold.Chemscore.DEInternal>
1.1888

> <Gold.Chemscore.Rot>
1.8102

> <Gold.Chemscore.Internal.Correction>
   9.000000E+99

> <Gold.Chemscore.Hbond.Weighted>
-0.0000

> <Gold.Chemscore.Metal.Weighted>
-0.0000

> <Gold.Chemscore.Lipo.Weighted>
-12.7991

> <Gold.Chemscore.Internal_Hbond.Weighted>
0.0000

> <Gold.Chemscore.DEClash.Weighted>
0.1461

> <Gold.Chemscore.DEInternal.Weighted>
1.1888

> <Gold.Chemscore.Rot.Weighted>
4.6341

> <Gold.Chemscore.Internal.Correction.Weighted>
   9.000000E+99

> <Gold.Protein.RotatedTorsions>
[ 6907 6896 6895 6894 ] final   50.14 input  -60.11 | X-H torsion
[ 7974 7965 7964 7962 ] final  128.83 input  175.53 | X-H torsion
[ 8008 7997 7996 7995 ] final  -44.99 input   59.86 | X-H torsion
[ 10167 10162 10161 10158 ] final  -72.87 input  -65.29 | X-H torsion
[ 10718 10713 10712 10709 ] final    8.44 input   66.30 | X-H torsion
[ 10763 10752 10751 10750 ] final -116.62 input  -60.55 | X-H torsion
[ 11005 11000 10999 10996 ] final   35.10 input  -57.11 | X-H torsion

> <Gold.Protein.ActiveResidues>
 VAL166  LYS551  ARG553  GLY616  TRP617  ASP618  TYR619  PRO620  LYS621  CYS622 
 ASP623  PHE694  ASN695  SER759  ASP760  ASP761  ALA762  ILE779  LEU786  VAL792 
 PHE793  MET794  SER795  GLU796  ALA797  LYS798  CYS799  TRP800  GLU811  SER814 

> <Gold.Protein.RotatedAtoms>
  152.2985  134.7638  160.0362 H   0  0  0  0  0  0  0  0  0  0  0  0  # atno 6907 bound_to 6896
  151.8160  133.3383  159.3578 H   0  0  0  0  0  0  0  0  0  0  0  0  # atno 6908 bound_to 6896
  150.7263  134.5548  159.5857 H   0  0  0  0  0  0  0  0  0  0  0  0  # atno 6909 bound_to 6896
  145.0352  139.4011  143.5129 H   0  0  0  0  0  0  0  0  0  0  0  0  # atno 7974 bound_to 7965
  154.3999  140.1408  156.3774 H   0  0  0  0  0  0  0  0  0  0  0  0  # atno 8008 bound_to 7997
  155.8035  140.3475  155.5396 H   0  0  0  0  0  0  0  0  0  0  0  0  # atno 8009 bound_to 7997
  155.8459  140.0934  157.1696 H   0  0  0  0  0  0  0  0  0  0  0  0  # atno 8010 bound_to 7997
  140.5157  143.2338  151.7517 H   0  0  0  0  0  0  0  0  0  0  0  0  # atno 10167 bound_to 10162
  156.9516  130.5899  149.5657 H   0  0  0  0  0  0  0  0  0  0  0  0  # atno 10718 bound_to 10713
  154.8526  135.4339  154.1850 H   0  0  0  0  0  0  0  0  0  0  0  0  # atno 10763 bound_to 10752
  153.2932  135.6963  153.7279 H   0  0  0  0  0  0  0  0  0  0  0  0  # atno 10764 bound_to 10752
  153.6438  135.3463  155.3054 H   0  0  0  0  0  0  0  0  0  0  0  0  # atno 10765 bound_to 10752
  140.2461  134.3358  155.7907 H   0  0  0  0  0  0  0  0  0  0  0  0  # atno 11005 bound_to 11000
  146.3503  139.9924  142.8684 LP  0  0  0  0  0  0  0  0  0  0  0  0  # atno 17320 bound_to 7965
  145.1718  140.9725  143.4317 LP  0  0  0  0  0  0  0  0  0  0  0  0  # atno 17321 bound_to 7965
  139.4908  144.4328  151.9853 LP  0  0  0  0  0  0  0  0  0  0  0  0  # atno 17342 bound_to 10162
  140.3422  144.3190  150.5965 LP  0  0  0  0  0  0  0  0  0  0  0  0  # atno 17343 bound_to 10162
  156.0360  130.5447  150.8655 LP  0  0  0  0  0  0  0  0  0  0  0  0  # atno 17370 bound_to 10713
  157.5718  131.0946  150.9406 LP  0  0  0  0  0  0  0  0  0  0  0  0  # atno 17371 bound_to 10713
  141.2206  133.7326  156.8963 LP  0  0  0  0  0  0  0  0  0  0  0  0  # atno 17394 bound_to 11000
  140.1604  134.9169  157.2708 LP  0  0  0  0  0  0  0  0  0  0  0  0  # atno 17395 bound_to 11000

$$$$
