AV-unprocessed.smi:3308|AV-procd|sdf|12709|dock5
  -GOLD-   2272019 43D 1   1.00000     0.00000
 Structure written by MMmdl.
 41 42  0  0  0  0  0  0  0  0  2 V2000
  146.8898  142.0929  154.3296 C   0  0  0  0  0  0  0  0  0  0  0  0
  147.9836  141.5246  155.2518 C   0  0  1  0  0  0  0  0  0  0  0  0
  148.0055  142.3116  156.5052 N   0  3  0  0  0  0  0  0  0  0  0  0
  149.0745  141.9407  157.4576 C   0  0  0  0  0  0  0  0  0  0  0  0
  149.2594  142.9874  158.5652 C   0  0  0  0  0  0  0  0  0  0  0  0
  148.3584  143.1736  159.3847 O   0  0  0  0  0  0  0  0  0  0  0  0
  150.4186  143.6760  158.6039 N   0  0  0  0  0  0  0  0  0  0  0  0
  150.7261  144.6851  159.6155 C   0  0  0  0  0  0  0  0  0  0  0  0
  152.2113  145.0048  159.4431 C   0  0  0  0  0  0  0  0  0  0  0  0
  152.4975  144.6686  157.9863 C   0  0  0  0  0  0  0  0  0  0  0  0
  151.5333  143.5247  157.6687 C   0  0  0  0  0  0  0  0  0  0  0  0
  147.7953  140.0147  155.5626 C   0  0  2  0  0  0  0  0  0  0  0  0
  149.1245  139.2914  155.8526 C   0  0  0  0  0  0  0  0  0  0  0  0
  147.0724  139.3211  154.5038 N   0  0  0  0  0  0  0  0  0  0  0  0
  147.3872  139.2459  153.1624 C   0  0  0  0  0  0  0  0  0  0  0  0
  146.4206  138.4953  152.5572 C   0  0  0  0  0  0  0  0  0  0  0  0
  145.5428  138.1513  153.6222 C   0  0  0  0  0  0  0  0  0  0  0  0
  145.9341  138.6471  154.7849 N   0  0  0  0  0  0  0  0  0  0  0  0
  146.8960  141.6152  153.3496 H   0  0  0  0  0  0  0  0  0  0  0  0
  147.0352  143.1608  154.1628 H   0  0  0  0  0  0  0  0  0  0  0  0
  145.8975  141.9561  154.7605 H   0  0  0  0  0  0  0  0  0  0  0  0
  148.9355  141.6566  154.7338 H   0  0  0  0  0  0  0  0  0  0  0  0
  148.1278  143.2860  156.2688 H   0  0  0  0  0  0  0  0  0  0  0  0
  148.8353  140.9778  157.9102 H   0  0  0  0  0  0  0  0  0  0  0  0
  150.0110  141.8273  156.9097 H   0  0  0  0  0  0  0  0  0  0  0  0
  150.1191  145.5720  159.4276 H   0  0  0  0  0  0  0  0  0  0  0  0
  150.5110  144.3349  160.6264 H   0  0  0  0  0  0  0  0  0  0  0  0
  152.4537  146.0376  159.6952 H   0  0  0  0  0  0  0  0  0  0  0  0
  152.8032  144.3554  160.0896 H   0  0  0  0  0  0  0  0  0  0  0  0
  152.2609  145.5308  157.3614 H   0  0  0  0  0  0  0  0  0  0  0  0
  153.5408  144.4050  157.8095 H   0  0  0  0  0  0  0  0  0  0  0  0
  152.0163  142.5621  157.8419 H   0  0  0  0  0  0  0  0  0  0  0  0
  151.2119  143.5642  156.6271 H   0  0  0  0  0  0  0  0  0  0  0  0
  147.1792  139.9341  156.4595 H   0  0  0  0  0  0  0  0  0  0  0  0
  149.6138  139.6918  156.7405 H   0  0  0  0  0  0  0  0  0  0  0  0
  149.8212  139.3835  155.0187 H   0  0  0  0  0  0  0  0  0  0  0  0
  148.9595  138.2282  156.0306 H   0  0  0  0  0  0  0  0  0  0  0  0
  148.2632  139.7271  152.7530 H   0  0  0  0  0  0  0  0  0  0  0  0
  146.3498  138.2327  151.5120 H   0  0  0  0  0  0  0  0  0  0  0  0
  144.6392  137.5609  153.5846 H   0  0  0  0  0  0  0  0  0  0  0  0
  147.1128  142.2085  156.9664 H   0  0  0  0  0  0  0  0  0  0  0  0
  1  2  1  0  0  0  0
  1 19  1  0  0  0  0
  1 20  1  0  0  0  0
  1 21  1  0  0  0  0
  2  3  1  0  0  0  0
  2 12  1  0  0  0  0
  2 22  1  0  0  0  0
  3  4  1  0  0  0  0
  3 23  1  0  0  0  0
  3 41  1  0  0  0  0
  4  5  1  0  0  0  0
  4 24  1  0  0  0  0
  4 25  1  0  0  0  0
  5  6  2  0  0  0  0
  5  7  1  0  0  0  0
  7 11  1  0  0  0  0
  7  8  1  0  0  0  0
  8  9  1  0  0  0  0
  8 26  1  0  0  0  0
  8 27  1  0  0  0  0
  9 10  1  0  0  0  0
  9 28  1  0  0  0  0
  9 29  1  0  0  0  0
 10 11  1  0  0  0  0
 10 30  1  0  0  0  0
 10 31  1  0  0  0  0
 11 32  1  0  0  0  0
 11 33  1  0  0  0  0
 12 13  1  0  0  0  0
 12 14  1  0  0  0  0
 12 34  1  0  0  0  0
 13 35  1  0  0  0  0
 13 36  1  0  0  0  0
 13 37  1  0  0  0  0
 14 18  1  0  0  0  0
 14 15  1  0  0  0  0
 15 16  2  0  0  0  0
 15 38  1  0  0  0  0
 16 17  1  0  0  0  0
 16 39  1  0  0  0  0
 17 18  2  0  0  0  0
 17 40  1  0  0  0  0
M  CHG  1   3   1
M  END
> <s_m_source_file>
AV-unprocessed.smi

> <i_m_source_file_index>
3308

> <i_lp_mmshare_version>
43012

> <i_f3d_flags>
0

> <s_epik_input>
bjFbY0hdW2NIXVtjSF1uMVtDQEBIXShbQ0gzXSlbQ0BIXShbQ0gzXSlbTkhdW0NIMl1DKD1PKU4yW0NIMl1bQ0gyXVtDSDJdW0NIMl0y

> <s_epik_cmdline>
J2VwaWtfcHl0aG9uJywgJy1waCcsICc3LjAnLCAnLXRuJywgJzgnLCAnLW1hJywgJzIwMCcsICctbWV0YWxfYmluZGluZycsICctaW1hZScsICc8aW5maWxlLm1hZT4nLCAnLW9tYWUnLCAnPG91dGZpbGUubWFlPic=

> <r_lp_tautomer_probability>
1

> <r_epik_Ionization_Penalty>
0.141739

> <r_epik_Ionization_Penalty_Charging>
0.141731

> <r_epik_Ionization_Penalty_Neutral>
8.82171e-06

> <r_epik_State_Penalty>
0.131043

> <r_epik_Charging_Adjusted_Penalty>
0.272773

> <i_epik_Tot_Q>
1

> <i_epik_Tot_abs_Q>
1

> <r_epik_Metal_State_Penalty>
0.131385

> <b_epik_Metal_Only>
0

> <s_lp_Force_Field>
OPLS_2005

> <r_lp_Energy>
34.0204

> <b_lp_Chiralities_Consistent>
1

> <s_lp_Variant>
AV-unprocessed.smi:3308-2

> <Gold.Version>
5.8.1

> <Gold.Id.Protein>
6NUR|6NUR_protein|mol2

> <Gold.PLP.Fitness>
41.2746

> <Gold.PLP.PLP>
-32.9693

> <Gold.PLP.part.hbond>
-2.0000

> <Gold.PLP.part.metal>
0.0000

> <Gold.PLP.part.buried>
-4.1717

> <Gold.PLP.part.nonpolar>
-28.1085

> <Gold.PLP.part.repulsive>
0.2072

> <Gold.PLP.ligand.clash>
0.0000

> <Gold.PLP.ligand.torsion>
0.9288

> <Gold.PLP.Chemscore.Hbond>
2.3557

> <Gold.PLP.Chemscore.CHOScore>
1.0000

> <Gold.PLP.Chemscore.Metal>
0.0000

> <Gold.Chemscore.Hbonds>
donor molecule, donor type, donor heavy atom, donor atom, acceptor molecule, acceptor atom, score
      L1  H     3    23       P1  8028  2.00
      P1  H  6933  6944       L1     6  0.34
      L1  C    15    38       P1  7957  1.00

> <Gold.PLP.Chemscore.Internal.Correction>
0.0958

> <Gold.Rescore>
     Score         DG    S(hbond)    S(metal)    S(lipo)     H(rot)  DE(clash)    DE(int)     intcor
     13.98     -15.15       1.14        0.00      88.97       1.78       0.15       1.01       ----

> <Gold.Chemscore.Fitness>
13.9805

> <Gold.Chemscore.DG>
-15.1461

> <Gold.Chemscore.ZeroCoef>
-5.4800

> <Gold.Chemscore.Hbond>
1.1447

> <Gold.Chemscore.Metal>
0.0000

> <Gold.Chemscore.Lipo>
88.9654

> <Gold.Chemscore.Internal_Hbond>
0.0000

> <Gold.Chemscore.DEClash>
0.1508

> <Gold.Chemscore.DEInternal>
1.0148

> <Gold.Chemscore.Rot>
1.7836

> <Gold.Chemscore.Internal.Correction>
   9.000000E+99

> <Gold.Chemscore.Hbonds>
donor molecule, donor type, donor heavy atom, donor atom, acceptor molecule, acceptor atom, score
      L1  H     3    23       P1  8028  0.35
      P1  H  6933  6944       L1     6  0.33

> <Gold.Chemscore.Hbond.Weighted>
-3.8232

> <Gold.Chemscore.Metal.Weighted>
-0.0000

> <Gold.Chemscore.Lipo.Weighted>
-10.4090

> <Gold.Chemscore.Internal_Hbond.Weighted>
0.0000

> <Gold.Chemscore.DEClash.Weighted>
0.1508

> <Gold.Chemscore.DEInternal.Weighted>
1.0148

> <Gold.Chemscore.Rot.Weighted>
4.5660

> <Gold.Chemscore.Internal.Correction.Weighted>
   9.000000E+99

> <Gold.Protein.RotatedTorsions>
[ 6907 6896 6895 6894 ] final  -58.53 input  -60.11 | X-H torsion
[ 7974 7965 7964 7962 ] final  149.22 input  175.53 | X-H torsion
[ 8008 7997 7996 7995 ] final  -27.97 input   59.86 | X-H torsion
[ 10167 10162 10161 10158 ] final   82.21 input  -65.29 | X-H torsion
[ 10718 10713 10712 10709 ] final -136.17 input   66.30 | X-H torsion
[ 10763 10752 10751 10750 ] final  127.47 input  -60.55 | X-H torsion
[ 11005 11000 10999 10996 ] final  -64.08 input  -57.11 | X-H torsion

> <Gold.Protein.ActiveResidues>
 VAL166  LYS551  ARG553  GLY616  TRP617  ASP618  TYR619  PRO620  LYS621  CYS622 
 ASP623  PHE694  ASN695  SER759  ASP760  ASP761  ALA762  ILE779  LEU786  VAL792 
 PHE793  MET794  SER795  GLU796  ALA797  LYS798  CYS799  TRP800  GLU811  SER814 

> <Gold.Protein.RotatedAtoms>
  150.8000  134.7086  159.6590 H   0  0  0  0  0  0  0  0  0  0  0  0  # atno 6907 bound_to 6896
  152.4115  134.6112  160.0036 H   0  0  0  0  0  0  0  0  0  0  0  0  # atno 6908 bound_to 6896
  151.6353  133.3292  159.3154 H   0  0  0  0  0  0  0  0  0  0  0  0  # atno 6909 bound_to 6896
  144.8454  139.6253  143.5997 H   0  0  0  0  0  0  0  0  0  0  0  0  # atno 7974 bound_to 7965
  154.4353  140.1858  156.1016 H   0  0  0  0  0  0  0  0  0  0  0  0  # atno 8008 bound_to 7997
  156.0288  140.3333  155.7091 H   0  0  0  0  0  0  0  0  0  0  0  0  # atno 8009 bound_to 7997
  155.5870  140.0627  157.2759 H   0  0  0  0  0  0  0  0  0  0  0  0  # atno 8010 bound_to 7997
  139.9312  144.6150  150.8343 H   0  0  0  0  0  0  0  0  0  0  0  0  # atno 10167 bound_to 10162
  156.2741  130.7282  151.1259 H   0  0  0  0  0  0  0  0  0  0  0  0  # atno 10718 bound_to 10713
  153.7099  135.3270  155.3244 H   0  0  0  0  0  0  0  0  0  0  0  0  # atno 10763 bound_to 10752
  154.8388  135.4474  154.1324 H   0  0  0  0  0  0  0  0  0  0  0  0  # atno 10764 bound_to 10752
  153.2415  135.6971  153.7857 H   0  0  0  0  0  0  0  0  0  0  0  0  # atno 10765 bound_to 10752
  141.1413  133.6660  156.5779 H   0  0  0  0  0  0  0  0  0  0  0  0  # atno 11005 bound_to 11000
  146.2740  139.6705  142.9276 LP  0  0  0  0  0  0  0  0  0  0  0  0  # atno 17320 bound_to 7965
  145.4607  141.0432  143.2753 LP  0  0  0  0  0  0  0  0  0  0  0  0  # atno 17321 bound_to 7965
  140.7637  143.3229  151.2581 LP  0  0  0  0  0  0  0  0  0  0  0  0  # atno 17342 bound_to 10162
  139.6781  143.9903  152.2792 LP  0  0  0  0  0  0  0  0  0  0  0  0  # atno 17343 bound_to 10162
  157.7293  131.0625  150.5778 LP  0  0  0  0  0  0  0  0  0  0  0  0  # atno 17370 bound_to 10713
  156.5878  130.4321  149.5950 LP  0  0  0  0  0  0  0  0  0  0  0  0  # atno 17371 bound_to 10713
  140.3861  134.7481  157.4692 LP  0  0  0  0  0  0  0  0  0  0  0  0  # atno 17394 bound_to 11000
  140.0601  134.6008  155.8759 LP  0  0  0  0  0  0  0  0  0  0  0  0  # atno 17395 bound_to 11000

$$$$
