#       Name:                AV-unprocessed.smi:2706
#       Creating user name   scv26
#       Creation time:       Fri Mar 27 14:48:45 2020


#       File generated by GOLD software.
#

@<TRIPOS>MOLECULE
AV-unprocessed.smi:2706
    46    49     1
SMALL
NO_CHARGES


@<TRIPOS>ATOM
      1 ****        -3.2690  -0.0109  -5.7867 C.3            1 S1                 0.0000
      2 ****        -2.6853   0.0972  -4.4555 N.pl3          1 S1                 0.0000
      3 ****        -3.4776   0.6333  -3.3531 C.3            1 S1                 0.0000
      4 ****        -1.3709  -0.3640  -4.2154 C.ar           1 S1                 0.0000
      5 ****        -0.5720  -0.9015  -5.2532 C.ar           1 S1                 0.0000
      6 ****         0.7277  -1.3456  -4.9509 C.ar           1 S1                 0.0000
      7 ****         1.1935  -1.2425  -3.6281 C.ar           1 S1                 0.0000
      8 ****         0.3471  -0.6958  -2.6410 C.ar           1 S1                 0.0000
      9 ****         0.9020  -0.6327  -1.3352 N.am           1 S1                 0.0000
     10 ****         0.3397  -0.1429  -0.2159 C.2            1 S1                 0.0000
     11 ****        -0.7829   0.3589  -0.1439 O.2            1 S1                 0.0000
     12 ****         1.1655  -0.2671   0.8324 N.am           1 S1                 0.0000
     13 ****         0.8855   0.1597   2.1650 C.3            1 S1                 0.0000
     14 ****         2.0648   0.6121   3.0017 C.3            1 S1                 0.0000
     15 ****         2.0161   1.3233   4.3519 C.3            1 S1                 0.0000
     16 ****         0.5773   1.7502   4.7090 C.3            1 S1                 0.0000
     17 ****        -0.1086   0.3972   5.0018 C.3            1 S1                 0.0000
     18 ****         1.0349  -0.6127   4.7708 C.3            1 S1                 0.0000
     19 ****         2.2225   0.1673   5.3258 C.3            1 S1                 0.0000
     20 ****         1.3914  -0.7191   3.2900 C.3            1 S1                 0.0000
     21 ****        -0.9031  -0.2719  -2.9469 N.ar           1 S1                 0.0000
     22 ****        -2.6906   0.5685  -6.5067 H              1 S1                 0.0000
     23 ****        -4.2919   0.3654  -5.8031 H              1 S1                 0.0000
     24 ****        -3.2925  -1.0516  -6.1118 H              1 S1                 0.0000
     25 ****        -2.9792   1.4937  -2.9055 H              1 S1                 0.0000
     26 ****        -3.6204  -0.1233  -2.5808 H              1 S1                 0.0000
     27 ****        -4.4625   0.9570  -3.6899 H              1 S1                 0.0000
     28 ****        -0.9273  -0.9813  -6.2694 H              1 S1                 0.0000
     29 ****         1.3584  -1.7601  -5.7232 H              1 S1                 0.0000
     30 ****         2.1893  -1.5799  -3.3798 H              1 S1                 0.0000
     31 ****         1.8352  -1.0052  -1.2425 H              1 S1                 0.0000
     32 ****         2.0672  -0.6930   0.6761 H              1 S1                 0.0000
     33 ****        -0.0615   0.6731   2.3125 H              1 S1                 0.0000
     34 ****         3.0562   0.5500   2.5559 H              1 S1                 0.0000
     35 ****         2.7526   2.1239   4.4243 H              1 S1                 0.0000
     36 ****         0.5722   2.3798   5.5998 H              1 S1                 0.0000
     37 ****         0.0953   2.3116   3.9083 H              1 S1                 0.0000
     38 ****        -0.4516   0.3612   6.0366 H              1 S1                 0.0000
     39 ****        -0.9720   0.2069   4.3637 H              1 S1                 0.0000
     40 ****         0.8709  -1.5890   5.2275 H              1 S1                 0.0000
     41 ****         3.1764  -0.3456   5.1896 H              1 S1                 0.0000
     42 ****         2.1130   0.4498   6.3746 H              1 S1                 0.0000
     43 ****         1.9648  -1.6049   3.0219 H              1 S1                 0.0000
     44 ****        -1.3540   0.4260  -0.9621 LP             1 S1                 0.0000
     45 ****        -1.1232   0.6992   0.7327 LP             1 S1                 0.0000
     46 ****        -1.4855   0.1122  -2.2305 LP             1 S1                 0.0000
@<TRIPOS>BOND
    1    1    2 1     
    2    1   22 1     
    3    1   23 1     
    4    1   24 1     
    5    2    3 1     
    6    2    4 1     
    7    3   25 1     
    8    3   26 1     
    9    3   27 1     
   10    4   21 ar    
   11    4    5 ar    
   12    5    6 ar    
   13    5   28 1     
   14    6    7 ar    
   15    6   29 1     
   16    7    8 ar    
   17    7   30 1     
   18    8    9 1     
   19    8   21 ar    
   20    9   10 am    
   21    9   31 1     
   22   10   11 2     
   23   10   12 am    
   24   12   13 1     
   25   12   32 1     
   26   13   20 1     
   27   13   14 1     
   28   13   33 1     
   29   14   20 1     
   30   14   15 1     
   31   14   34 1     
   32   15   19 1     
   33   15   16 1     
   34   15   35 1     
   35   16   17 1     
   36   16   36 1     
   37   16   37 1     
   38   17   18 1     
   39   17   38 1     
   40   17   39 1     
   41   18   19 1     
   42   18   20 1     
   43   18   40 1     
   44   19   41 1     
   45   19   42 1     
   46   20   43 1     
   47   11   44 1     
   48   11   45 1     
   49   21   46 1     
@<TRIPOS>SUBSTRUCTURE
      1 S1             1
@<TRIPOS>SET
LONE_PAIRS      STATIC     ATOMS    <user>   **** ""
3 44 45 46
DONOR_HYDROGENS      STATIC     ATOMS    <user>   **** ""
2 31 32
ATOM$BLUE        STATIC     ATOMS    COLORGROUP SYSTEM
3 44 45 46
ATOM$RED        STATIC     ATOMS    COLORGROUP SYSTEM
2 31 32
