#       Name:                AV-unprocessed.smi:260
#       Creating user name   scv26
#       Creation time:       Thu Mar 26 21:14:24 2020


#       File generated by GOLD software.
#

@<TRIPOS>MOLECULE
AV-unprocessed.smi:260
    62    65     1
SMALL
NO_CHARGES


@<TRIPOS>ATOM
      1 ****        -3.7003   3.4315  -3.4182 C.3            1 S1                 0.0000
      2 ****        -4.0093   3.0860  -2.0392 N.am           1 S1                 0.0000
      3 ****        -3.2641   2.2721  -1.2740 C.2            1 S1                 0.0000
      4 ****        -2.2336   1.7467  -1.6989 O.2            1 S1                 0.0000
      5 ****        -3.7371   1.9996   0.1813 C.3            1 S1                 0.0000
      6 ****        -4.8729   2.9551   0.6165 C.3            1 S1                 0.0000
      7 ****        -4.1540   0.5219   0.3337 C.3            1 S1                 0.0000
      8 ****        -2.8565  -0.2315   0.6354 C.3            1 S1                 0.0000
      9 ****        -2.0043   0.7435   1.2931 N.pl3          1 S1                 0.0000
     10 ****        -0.7108   0.5012   1.6301 C.ar           1 S1                 0.0000
     11 ****         0.0237   1.5276   2.1347 N.ar           1 S1                 0.0000
     12 ****         1.2997   1.3453   2.4837 C.ar           1 S1                 0.0000
     13 ****         2.0317   0.2333   2.4140 N.ar           1 S1                 0.0000
     14 ****         1.3041  -0.8055   1.9136 C.ar           1 S1                 0.0000
     15 ****        -0.0608  -0.7635   1.5047 C.ar           1 S1                 0.0000
     16 ****        -0.4491  -2.0237   1.0614 N.2            1 S1                 0.0000
     17 ****         0.6185  -2.7605   1.1944 C.2            1 S1                 0.0000
     18 ****         1.7248  -2.1037   1.6813 N.pl3          1 S1                 0.0000
     19 ****         3.0360  -2.6779   1.9301 C.3            1 S1                 0.0000
     20 ****         3.7104  -3.2618   0.6672 C.3            1 S1                 0.0000
     21 ****         4.8144  -4.0097   1.1355 O.3            1 S1                 0.0000
     22 ****         4.2585  -2.2203  -0.3361 C.3            1 S1                 0.0000
     23 ****         3.2408  -1.2261  -0.9024 C.3            1 S1                 0.0000
     24 ****         3.8313  -0.8167  -2.2415 C.3            1 S1                 0.0000
     25 ****         4.8763  -1.8956  -2.5265 C.3            1 S1                 0.0000
     26 ****         4.6649  -2.8813  -1.5263 O.3            1 S1                 0.0000
     27 ****        -2.5442   2.0931   1.1606 C.3            1 S1                 0.0000
     28 ****        -4.4440   4.1302  -3.8012 H              1 S1                 0.0000
     29 ****        -3.7082   2.5435  -4.0513 H              1 S1                 0.0000
     30 ****        -2.7200   3.9039  -3.4919 H              1 S1                 0.0000
     31 ****        -4.8437   3.4886  -1.6377 H              1 S1                 0.0000
     32 ****        -5.1572   2.7814   1.6549 H              1 S1                 0.0000
     33 ****        -5.7717   2.8152   0.0145 H              1 S1                 0.0000
     34 ****        -4.5708   4.0003   0.5377 H              1 S1                 0.0000
     35 ****        -4.8347   0.4117   1.1789 H              1 S1                 0.0000
     36 ****        -4.6652   0.1214  -0.5429 H              1 S1                 0.0000
     37 ****        -3.0394  -1.0990   1.2699 H              1 S1                 0.0000
     38 ****        -2.3832  -0.5697  -0.2870 H              1 S1                 0.0000
     39 ****         1.8066   2.2158   2.8734 H              1 S1                 0.0000
     40 ****         0.6293  -3.8082   0.9315 H              1 S1                 0.0000
     41 ****         3.6788  -1.9260   2.3899 H              1 S1                 0.0000
     42 ****         2.8993  -3.4628   2.6755 H              1 S1                 0.0000
     43 ****         3.0279  -3.9461   0.1619 H              1 S1                 0.0000
     44 ****         5.4255  -3.4171   1.5457 H              1 S1                 0.0000
     45 ****         5.1044  -1.6763   0.0896 H              1 S1                 0.0000
     46 ****         2.2822  -1.7192  -1.0681 H              1 S1                 0.0000
     47 ****         3.0757  -0.3711  -0.2473 H              1 S1                 0.0000
     48 ****         3.0618  -0.7806  -3.0134 H              1 S1                 0.0000
     49 ****         4.3004   0.1665  -2.1873 H              1 S1                 0.0000
     50 ****         4.7776  -2.3226  -3.5246 H              1 S1                 0.0000
     51 ****         5.8844  -1.4907  -2.4265 H              1 S1                 0.0000
     52 ****        -1.7910   2.7976   0.8036 H              1 S1                 0.0000
     53 ****        -2.8649   2.4341   2.1454 H              1 S1                 0.0000
     54 ****        -1.9326   1.9223  -2.6363 LP             1 S1                 0.0000
     55 ****        -1.6983   1.1447  -1.1064 LP             1 S1                 0.0000
     56 ****        -0.3958   2.4285   2.2457 LP             1 S1                 0.0000
     57 ****         2.9900   0.1694   2.6925 LP             1 S1                 0.0000
     58 ****        -1.3459  -2.3021   0.7177 LP             1 S1                 0.0000
     59 ****         5.2575  -4.4735   0.3683 LP             1 S1                 0.0000
     60 ****         4.5042  -4.6884   1.8011 LP             1 S1                 0.0000
     61 ****         3.9517  -3.5169  -1.8218 LP             1 S1                 0.0000
     62 ****         5.5130  -3.3850  -1.3619 LP             1 S1                 0.0000
@<TRIPOS>BOND
    1    1    2 1     
    2    1   28 1     
    3    1   29 1     
    4    1   30 1     
    5    2    3 am    
    6    2   31 1     
    7    3    4 2     
    8    3    5 1     
    9    5   27 1     
   10    5    6 1     
   11    5    7 1     
   12    6   32 1     
   13    6   33 1     
   14    6   34 1     
   15    7    8 1     
   16    7   35 1     
   17    7   36 1     
   18    8    9 1     
   19    8   37 1     
   20    8   38 1     
   21    9   10 1     
   22    9   27 1     
   23   10   15 ar    
   24   10   11 ar    
   25   11   12 ar    
   26   12   13 ar    
   27   12   39 1     
   28   13   14 ar    
   29   14   18 1     
   30   14   15 ar    
   31   15   16 1     
   32   16   17 2     
   33   17   18 1     
   34   17   40 1     
   35   18   19 1     
   36   19   20 1     
   37   19   41 1     
   38   19   42 1     
   39   20   21 1     
   40   20   22 1     
   41   20   43 1     
   42   21   44 1     
   43   22   26 1     
   44   22   23 1     
   45   22   45 1     
   46   23   24 1     
   47   23   46 1     
   48   23   47 1     
   49   24   25 1     
   50   24   48 1     
   51   24   49 1     
   52   25   26 1     
   53   25   50 1     
   54   25   51 1     
   55   27   52 1     
   56   27   53 1     
   57    4   54 1     
   58    4   55 1     
   59   11   56 1     
   60   13   57 1     
   61   16   58 1     
   62   21   59 1     
   63   21   60 1     
   64   26   61 1     
   65   26   62 1     
@<TRIPOS>SUBSTRUCTURE
      1 S1             1
@<TRIPOS>SET
LONE_PAIRS      STATIC     ATOMS    <user>   **** ""
9 54 55 56 57 58 59 60 61 62
DONOR_HYDROGENS      STATIC     ATOMS    <user>   **** ""
2 31 44
ATOM$BLUE        STATIC     ATOMS    COLORGROUP SYSTEM
9 54 55 56 57 58 59 60 61 62
ATOM$RED        STATIC     ATOMS    COLORGROUP SYSTEM
2 31 44
