AV-unprocessed.smi:1904|AV-procd|sdf|7723|dock4
  -GOLD-   22720 9463D 1   1.00000     0.00000
 Structure written by MMmdl.
 50 51  0  0  0  0  0  0  0  0  2 V2000
  151.1570  145.5955  159.9360 C   0  0  0  0  0  0  0  0  0  0  0  0
  151.9048  144.3786  160.4005 C   0  0  0  0  0  0  0  0  0  0  0  0
  152.2024  144.2525  161.6827 N   0  0  0  0  0  0  0  0  0  0  0  0
  152.8673  143.0831  161.7684 N   0  0  0  0  0  0  0  0  0  0  0  0
  153.3454  142.6303  163.0605 C   0  0  0  0  0  0  0  0  0  0  0  0
  152.9978  142.4731  160.5360 C   0  0  0  0  0  0  0  0  0  0  0  0
  153.7105  141.1702  160.3644 C   0  0  0  0  0  0  0  0  0  0  0  0
  152.3791  143.2824  159.6207 C   0  0  0  0  0  0  0  0  0  0  0  0
  152.2334  143.0835  158.1333 C   0  0  0  0  0  0  0  0  0  0  0  0
  151.4795  141.7808  157.8686 C   0  0  0  0  0  0  0  0  0  0  0  0
  151.9354  140.7110  158.2724 O   0  0  0  0  0  0  0  0  0  0  0  0
  150.3381  141.8796  157.1699 N   0  0  0  0  0  0  0  0  0  0  0  0
  149.5120  140.7518  156.7591 C   0  0  0  0  0  0  0  0  0  0  0  0
  148.9741  140.9520  155.3291 C   0  0  0  0  0  0  0  0  0  0  0  0
  147.8916  141.9660  155.2613 N   0  3  2  0  0  0  0  0  0  0  0  0
  146.8851  141.7795  156.3384 C   0  0  0  0  0  0  0  0  0  0  0  0
  145.8535  142.9201  156.3420 C   0  0  0  0  0  0  0  0  0  0  0  0
  145.1568  143.0486  154.9774 C   0  0  1  0  0  0  0  0  0  0  0  0
  144.1509  144.2083  154.9605 C   0  0  0  0  0  0  0  0  0  0  0  0
  146.2221  143.2022  153.8792 C   0  0  0  0  0  0  0  0  0  0  0  0
  147.2440  142.0537  153.9251 C   0  0  0  0  0  0  0  0  0  0  0  0
  150.3609  145.3251  159.2425 H   0  0  0  0  0  0  0  0  0  0  0  0
  151.8246  146.2877  159.4231 H   0  0  0  0  0  0  0  0  0  0  0  0
  150.6996  146.1307  160.7690 H   0  0  0  0  0  0  0  0  0  0  0  0
  153.0671  141.5870  163.2112 H   0  0  0  0  0  0  0  0  0  0  0  0
  152.9100  143.2276  163.8629 H   0  0  0  0  0  0  0  0  0  0  0  0
  154.4311  142.7195  163.1006 H   0  0  0  0  0  0  0  0  0  0  0  0
  153.8671  140.9389  159.3112 H   0  0  0  0  0  0  0  0  0  0  0  0
  153.1366  140.3558  160.8064 H   0  0  0  0  0  0  0  0  0  0  0  0
  154.6886  141.1954  160.8452 H   0  0  0  0  0  0  0  0  0  0  0  0
  151.6874  143.9044  157.6679 H   0  0  0  0  0  0  0  0  0  0  0  0
  153.2059  143.0562  157.6401 H   0  0  0  0  0  0  0  0  0  0  0  0
  150.0368  142.7993  156.8809 H   0  0  0  0  0  0  0  0  0  0  0  0
  150.0791  139.8219  156.8303 H   0  0  0  0  0  0  0  0  0  0  0  0
  148.6957  140.6743  157.4761 H   0  0  0  0  0  0  0  0  0  0  0  0
  149.7808  141.2256  154.6470 H   0  0  0  0  0  0  0  0  0  0  0  0
  148.5835  139.9967  154.9749 H   0  0  0  0  0  0  0  0  0  0  0  0
  146.3847  140.8185  156.2080 H   0  0  0  0  0  0  0  0  0  0  0  0
  147.3830  141.7484  157.3083 H   0  0  0  0  0  0  0  0  0  0  0  0
  145.1136  142.7421  157.1231 H   0  0  0  0  0  0  0  0  0  0  0  0
  146.3491  143.8583  156.5956 H   0  0  0  0  0  0  0  0  0  0  0  0
  144.6040  142.1269  154.7892 H   0  0  0  0  0  0  0  0  0  0  0  0
  144.6432  145.1638  155.1441 H   0  0  0  0  0  0  0  0  0  0  0  0
  143.3859  144.0755  155.7261 H   0  0  0  0  0  0  0  0  0  0  0  0
  143.6445  144.2749  153.9974 H   0  0  0  0  0  0  0  0  0  0  0  0
  145.7457  143.2299  152.8985 H   0  0  0  0  0  0  0  0  0  0  0  0
  146.7407  144.1549  153.9967 H   0  0  0  0  0  0  0  0  0  0  0  0
  147.9893  142.2211  153.1489 H   0  0  0  0  0  0  0  0  0  0  0  0
  146.7548  141.1064  153.6933 H   0  0  0  0  0  0  0  0  0  0  0  0
  148.3277  142.8600  155.4375 H   0  0  0  0  0  0  0  0  0  0  0  0
  1  2  1  0  0  0  0
  1 22  1  0  0  0  0
  1 23  1  0  0  0  0
  1 24  1  0  0  0  0
  2  8  1  0  0  0  0
  2  3  2  0  0  0  0
  3  4  1  0  0  0  0
  4  5  1  0  0  0  0
  4  6  1  0  0  0  0
  5 25  1  0  0  0  0
  5 26  1  0  0  0  0
  5 27  1  0  0  0  0
  6  7  1  0  0  0  0
  6  8  2  0  0  0  0
  7 28  1  0  0  0  0
  7 29  1  0  0  0  0
  7 30  1  0  0  0  0
  8  9  1  0  0  0  0
  9 10  1  0  0  0  0
  9 31  1  0  0  0  0
  9 32  1  0  0  0  0
 10 11  2  0  0  0  0
 10 12  1  0  0  0  0
 12 13  1  0  0  0  0
 12 33  1  0  0  0  0
 13 14  1  0  0  0  0
 13 34  1  0  0  0  0
 13 35  1  0  0  0  0
 14 15  1  0  0  0  0
 14 36  1  0  0  0  0
 14 37  1  0  0  0  0
 15 21  1  0  0  0  0
 15 16  1  0  0  0  0
 15 50  1  0  0  0  0
 16 17  1  0  0  0  0
 16 38  1  0  0  0  0
 16 39  1  0  0  0  0
 17 18  1  0  0  0  0
 17 40  1  0  0  0  0
 17 41  1  0  0  0  0
 18 19  1  0  0  0  0
 18 20  1  0  0  0  0
 18 42  1  0  0  0  0
 19 43  1  0  0  0  0
 19 44  1  0  0  0  0
 19 45  1  0  0  0  0
 20 21  1  0  0  0  0
 20 46  1  0  0  0  0
 20 47  1  0  0  0  0
 21 48  1  0  0  0  0
 21 49  1  0  0  0  0
M  CHG  1  15   1
M  END
> <s_m_source_file>
AV-unprocessed.smi

> <i_m_source_file_index>
1904

> <i_lp_mmshare_version>
43012

> <i_f3d_flags>
0

> <s_epik_input>
W0NIM11jMW5uKFtDSDNdKWMoW0NIM10pYzFbQ0gyXUMoPU8pW05IXVtDSDJdW0NIMl1OMltDSDJdW0NIMl1bQ0hdKFtDSDNdKVtDSDJdW0NIMl0y

> <s_epik_cmdline>
J2VwaWtfcHl0aG9uJywgJy1waCcsICc3LjAnLCAnLXRuJywgJzgnLCAnLW1hJywgJzIwMCcsICctbWV0YWxfYmluZGluZycsICctaW1hZScsICc8aW5maWxlLm1hZT4nLCAnLW9tYWUnLCAnPG91dGZpbGUubWFlPic=

> <r_lp_tautomer_probability>
1

> <r_epik_Ionization_Penalty>
0.00374255

> <r_epik_Ionization_Penalty_Charging>
0.00158211

> <r_epik_Ionization_Penalty_Neutral>
0.00216044

> <r_epik_State_Penalty>
-0

> <r_epik_Charging_Adjusted_Penalty>
0.00158211

> <i_epik_Tot_Q>
1

> <i_epik_Tot_abs_Q>
1

> <r_epik_Metal_State_Penalty>
-0

> <b_epik_Metal_Only>
0

> <s_lp_Force_Field>
OPLS_2005

> <r_lp_Energy>
10.069

> <b_lp_Chiralities_Consistent>
1

> <s_lp_Variant>
AV-unprocessed.smi:1904-1

> <Gold.Version>
5.8.1

> <Gold.Id.Protein>
6NUR|6NUR_protein|mol2

> <Gold.PLP.Fitness>
55.4834

> <Gold.PLP.PLP>
-49.8914

> <Gold.PLP.part.hbond>
-1.0000

> <Gold.PLP.part.metal>
0.0000

> <Gold.PLP.part.buried>
-8.2642

> <Gold.PLP.part.nonpolar>
-40.2961

> <Gold.PLP.part.repulsive>
0.3064

> <Gold.PLP.ligand.clash>
0.0000

> <Gold.PLP.ligand.torsion>
0.2488

> <Gold.PLP.Chemscore.Hbond>
2.0000

> <Gold.PLP.Chemscore.CHOScore>
0.0000

> <Gold.PLP.Chemscore.Metal>
0.0000

> <Gold.Chemscore.Hbonds>
donor molecule, donor type, donor heavy atom, donor atom, acceptor molecule, acceptor atom, score
      L1  H    15    50       P1  8028  2.00

> <Gold.PLP.Chemscore.Internal.Correction>
0.0897

> <Gold.Rescore>
     Score         DG    S(hbond)    S(metal)    S(lipo)     H(rot)  DE(clash)    DE(int)     intcor
     17.73     -18.28       1.00        0.00     116.32       1.61       0.14       0.41       ----

> <Gold.Chemscore.Fitness>
17.7296

> <Gold.Chemscore.DG>
-18.2822

> <Gold.Chemscore.ZeroCoef>
-5.4800

> <Gold.Chemscore.Hbond>
0.9956

> <Gold.Chemscore.Metal>
0.0000

> <Gold.Chemscore.Lipo>
116.3192

> <Gold.Chemscore.Internal_Hbond>
0.0000

> <Gold.Chemscore.DEClash>
0.1449

> <Gold.Chemscore.DEInternal>
0.4077

> <Gold.Chemscore.Rot>
1.6142

> <Gold.Chemscore.Internal.Correction>
   9.000000E+99

> <Gold.Chemscore.Hbonds>
donor molecule, donor type, donor heavy atom, donor atom, acceptor molecule, acceptor atom, score
      L1  H    15    50       P1  8028  0.98

> <Gold.Chemscore.Hbond.Weighted>
-3.3253

> <Gold.Chemscore.Metal.Weighted>
-0.0000

> <Gold.Chemscore.Lipo.Weighted>
-13.6093

> <Gold.Chemscore.Internal_Hbond.Weighted>
0.0000

> <Gold.Chemscore.DEClash.Weighted>
0.1449

> <Gold.Chemscore.DEInternal.Weighted>
0.4077

> <Gold.Chemscore.Rot.Weighted>
4.1324

> <Gold.Chemscore.Internal.Correction.Weighted>
   9.000000E+99

> <Gold.Protein.RotatedTorsions>
[ 6907 6896 6895 6894 ] final  -59.61 input  -60.11 | X-H torsion
[ 7974 7965 7964 7962 ] final   -9.04 input  175.53 | X-H torsion
[ 8008 7997 7996 7995 ] final  -95.41 input   59.86 | X-H torsion
[ 10167 10162 10161 10158 ] final  -33.13 input  -65.29 | X-H torsion
[ 10718 10713 10712 10709 ] final  -57.50 input   66.30 | X-H torsion
[ 10763 10752 10751 10750 ] final  119.21 input  -60.55 | X-H torsion
[ 11005 11000 10999 10996 ] final  -54.33 input  -57.11 | X-H torsion

> <Gold.Protein.ActiveResidues>
 VAL166  LYS551  ARG553  GLY616  TRP617  ASP618  TYR619  PRO620  LYS621  CYS622 
 ASP623  PHE694  ASN695  SER759  ASP760  ASP761  ALA762  ILE779  LEU786  VAL792 
 PHE793  MET794  SER795  GLU796  ALA797  LYS798  CYS799  TRP800  GLU811  SER814 

> <Gold.Protein.RotatedAtoms>
  150.7917  134.6945  159.6515 H   0  0  0  0  0  0  0  0  0  0  0  0  # atno 6907 bound_to 6896
  152.4023  134.6262  160.0073 H   0  0  0  0  0  0  0  0  0  0  0  0  # atno 6908 bound_to 6896
  151.6529  133.3283  159.3192 H   0  0  0  0  0  0  0  0  0  0  0  0  # atno 6909 bound_to 6896
  146.2263  140.2557  142.8349 H   0  0  0  0  0  0  0  0  0  0  0  0  # atno 7974 bound_to 7965
  154.7610  140.0480  157.0974 H   0  0  0  0  0  0  0  0  0  0  0  0  # atno 8008 bound_to 7997
  154.9937  140.3116  155.4876 H   0  0  0  0  0  0  0  0  0  0  0  0  # atno 8009 bound_to 7997
  156.2904  140.2214  156.5043 H   0  0  0  0  0  0  0  0  0  0  0  0  # atno 8010 bound_to 7997
  140.7209  143.3643  151.1902 H   0  0  0  0  0  0  0  0  0  0  0  0  # atno 10167 bound_to 10162
  156.1206  130.4166  150.0449 H   0  0  0  0  0  0  0  0  0  0  0  0  # atno 10718 bound_to 10713
  153.5795  135.3486  155.2869 H   0  0  0  0  0  0  0  0  0  0  0  0  # atno 10763 bound_to 10752
  154.8670  135.4178  154.2636 H   0  0  0  0  0  0  0  0  0  0  0  0  # atno 10764 bound_to 10752
  153.3419  135.7050  153.6930 H   0  0  0  0  0  0  0  0  0  0  0  0  # atno 10765 bound_to 10752
  141.1020  133.6617  156.4305 H   0  0  0  0  0  0  0  0  0  0  0  0  # atno 11005 bound_to 11000
  144.9377  140.8045  143.5649 LP  0  0  0  0  0  0  0  0  0  0  0  0  # atno 17320 bound_to 7965
  145.2506  139.2033  143.4944 LP  0  0  0  0  0  0  0  0  0  0  0  0  # atno 17321 bound_to 7965
  139.7201  143.9237  152.2982 LP  0  0  0  0  0  0  0  0  0  0  0  0  # atno 17342 bound_to 10162
  139.8991  144.6922  150.8685 LP  0  0  0  0  0  0  0  0  0  0  0  0  # atno 17343 bound_to 10162
  156.8389  130.9418  151.3633 LP  0  0  0  0  0  0  0  0  0  0  0  0  # atno 17370 bound_to 10713
  157.6389  130.8789  149.9411 LP  0  0  0  0  0  0  0  0  0  0  0  0  # atno 17371 bound_to 10713
  140.4997  134.6497  157.5243 LP  0  0  0  0  0  0  0  0  0  0  0  0  # atno 17394 bound_to 11000
  139.9876  134.7037  155.9747 LP  0  0  0  0  0  0  0  0  0  0  0  0  # atno 17395 bound_to 11000

$$$$
