#       Name:                AV-unprocessed.smi:1484
#       Creating user name   scv26
#       Creation time:       Fri Mar 27 06:09:08 2020


#       File generated by GOLD software.
#

@<TRIPOS>MOLECULE
AV-unprocessed.smi:1484
    44    45     1
SMALL
NO_CHARGES


@<TRIPOS>ATOM
      1 ****        -1.6779  -2.0153   2.7610 C.3            1 S1                 0.0000
      2 ****        -1.3752  -1.1893   1.5030 C.3            1 S1                 0.0000
      3 ****        -2.0404  -1.8001   0.2544 C.3            1 S1                 0.0000
      4 ****        -1.7498  -0.9710  -1.0068 C.3            1 S1                 0.0000
      5 ****        -2.1753   0.4968  -0.8221 C.3            1 S1                 0.0000
      6 ****        -1.5249   1.1334   0.4211 C.3            1 S1                 0.0000
      7 ****        -0.0908   1.2833   0.2011 N.am           1 S1                 0.0000
      8 ****         0.7279   2.1650   0.7971 C.2            1 S1                 0.0000
      9 ****         0.3344   3.0027   1.6085 O.2            1 S1                 0.0000
     10 ****         2.2235   2.1001   0.4379 C.3            1 S1                 0.0000
     11 ****         2.5478   1.1522  -0.6420 N.am           1 S1                 0.0000
     12 ****         2.8732  -0.1916  -0.1701 N.pl3          1 S1                -1.0000
     13 ****         3.0667  -1.1839  -1.0787 C.2            1 S1                 0.0000
     14 ****         3.2940  -2.3476  -0.7566 O.2            1 S1                 0.0000
     15 ****         3.0048  -0.8403  -2.4896 C.2            1 S1                 0.0000
     16 ****         2.7406   0.4169  -2.8968 C.2            1 S1                 0.0000
     17 ****         2.4842   1.5028  -1.9583 C.2            1 S1                 0.0000
     18 ****         2.2084   2.6453  -2.3243 O.2            1 S1                 0.0000
     19 ****        -1.8046   0.2832   1.6790 C.3            1 S1                 0.0000
     20 ****        -2.7472  -2.0388   2.9728 H              1 S1                 0.0000
     21 ****        -1.1740  -1.5986   3.6334 H              1 S1                 0.0000
     22 ****        -1.3376  -3.0448   2.6456 H              1 S1                 0.0000
     23 ****        -0.2945  -1.2141   1.3533 H              1 S1                 0.0000
     24 ****        -1.6887  -2.8218   0.1073 H              1 S1                 0.0000
     25 ****        -3.1189  -1.8633   0.4051 H              1 S1                 0.0000
     26 ****        -0.6852  -1.0225  -1.2407 H              1 S1                 0.0000
     27 ****        -2.2709  -1.4027  -1.8616 H              1 S1                 0.0000
     28 ****        -1.9261   1.0726  -1.7145 H              1 S1                 0.0000
     29 ****        -3.2603   0.5443  -0.7232 H              1 S1                 0.0000
     30 ****        -1.9567   2.1259   0.5611 H              1 S1                 0.0000
     31 ****         0.3362   0.6283  -0.4391 H              1 S1                 0.0000
     32 ****         2.5665   3.1038   0.1812 H              1 S1                 0.0000
     33 ****         2.7746   1.8307   1.3406 H              1 S1                 0.0000
     34 ****         3.1800  -1.6090  -3.2278 H              1 S1                 0.0000
     35 ****         2.7080   0.6274  -3.9554 H              1 S1                 0.0000
     36 ****        -2.8717   0.3222   1.9016 H              1 S1                 0.0000
     37 ****        -1.3019   0.7184   2.5437 H              1 S1                 0.0000
     38 ****        -0.6348   3.0477   1.8505 LP             1 S1                 0.0000
     39 ****         0.9840   3.6383   2.0257 LP             1 S1                 0.0000
     40 ****         2.9526  -0.3790   0.8089 LP             1 S1                 0.0000
     41 ****         3.3433  -2.5983   0.2102 LP             1 S1                 0.0000
     42 ****         3.4298  -3.0440  -1.4613 LP             1 S1                 0.0000
     43 ****         2.0211   3.3560  -1.6463 LP             1 S1                 0.0000
     44 ****         2.1718   2.8627  -3.2997 LP             1 S1                 0.0000
@<TRIPOS>BOND
    1    1    2 1     
    2    1   20 1     
    3    1   21 1     
    4    1   22 1     
    5    2   19 1     
    6    2    3 1     
    7    2   23 1     
    8    3    4 1     
    9    3   24 1     
   10    3   25 1     
   11    4    5 1     
   12    4   26 1     
   13    4   27 1     
   14    5    6 1     
   15    5   28 1     
   16    5   29 1     
   17    6    7 1     
   18    6   19 1     
   19    6   30 1     
   20    7    8 am    
   21    7   31 1     
   22    8    9 2     
   23    8   10 1     
   24   10   32 1     
   25   10   33 1     
   26   10   11 1     
   27   11   12 1     
   28   11   17 am    
   29   12   13 1     
   30   13   14 2     
   31   13   15 1     
   32   15   34 1     
   33   15   16 2     
   34   16   35 1     
   35   16   17 1     
   36   17   18 2     
   37   19   36 1     
   38   19   37 1     
   39    9   38 1     
   40    9   39 1     
   41   12   40 1     
   42   14   41 1     
   43   14   42 1     
   44   18   43 1     
   45   18   44 1     
@<TRIPOS>SUBSTRUCTURE
      1 S1             1
@<TRIPOS>SET
LONE_PAIRS      STATIC     ATOMS    <user>   **** ""
7 38 39 40 41 42 43 44
DONOR_HYDROGENS      STATIC     ATOMS    <user>   **** ""
1 31
ATOM$BLUE        STATIC     ATOMS    COLORGROUP SYSTEM
7 38 39 40 41 42 43 44
ATOM$RED        STATIC     ATOMS    COLORGROUP SYSTEM
1 31
