AV-unprocessed.smi:3087|AV-procd|sdf|11767|dock2
  -GOLD-   2272017143D 1   1.00000     0.00000
 Structure written by MMmdl.
 31 32  0  0  0  0  0  0  0  0  2 V2000
  154.0584  141.0987  161.4179 C   0  0  0  0  0  0  0  0  0  0  0  0
  153.1538  142.0019  160.6331 C   0  0  0  0  0  0  0  0  0  0  0  0
  152.8019  143.3526  160.9052 C   0  0  0  0  0  0  0  0  0  0  0  0
  151.9663  143.6968  159.8802 C   0  0  0  0  0  0  0  0  0  0  0  0
  151.2853  144.9954  159.5958 C   0  0  0  0  0  0  0  0  0  0  0  0
  151.8312  142.5787  159.0742 N   0  0  0  0  0  0  0  0  0  0  0  0
  151.0857  142.4336  157.8280 C   0  0  1  0  0  0  0  0  0  0  0  0
  151.4701  141.1270  157.1080 C   0  0  0  0  0  0  0  0  0  0  0  0
  150.6777  140.9835  155.7996 C   0  0  0  0  0  0  0  0  0  0  0  0
  149.1652  141.0915  156.0572 C   0  0  0  0  0  0  0  0  0  0  0  0
  148.8411  142.3559  156.7537 N   0  3  0  0  0  0  0  0  0  0  0  0
  149.5558  142.5033  158.0403 C   0  0  0  0  0  0  0  0  0  0  0  0
  152.5798  141.5494  159.5314 N   0  0  0  0  0  0  0  0  0  0  0  0
  154.5094  141.6263  162.2586 H   0  0  0  0  0  0  0  0  0  0  0  0
  154.8673  140.7143  160.7958 H   0  0  0  0  0  0  0  0  0  0  0  0
  153.5096  140.2454  161.8170 H   0  0  0  0  0  0  0  0  0  0  0  0
  153.1231  143.9786  161.7247 H   0  0  0  0  0  0  0  0  0  0  0  0
  151.6391  145.7760  160.2695 H   0  0  0  0  0  0  0  0  0  0  0  0
  150.2068  144.9046  159.7253 H   0  0  0  0  0  0  0  0  0  0  0  0
  151.4806  145.3236  158.5745 H   0  0  0  0  0  0  0  0  0  0  0  0
  151.3606  143.2695  157.1837 H   0  0  0  0  0  0  0  0  0  0  0  0
  152.5402  141.1118  156.8978 H   0  0  0  0  0  0  0  0  0  0  0  0
  151.2676  140.2710  157.7532 H   0  0  0  0  0  0  0  0  0  0  0  0
  150.9864  141.7593  155.0976 H   0  0  0  0  0  0  0  0  0  0  0  0
  150.9094  140.0287  155.3265 H   0  0  0  0  0  0  0  0  0  0  0  0
  148.6171  141.0524  155.1158 H   0  0  0  0  0  0  0  0  0  0  0  0
  148.8223  140.2507  156.6617 H   0  0  0  0  0  0  0  0  0  0  0  0
  149.0950  143.1280  156.1540 H   0  0  0  0  0  0  0  0  0  0  0  0
  149.2139  141.7173  158.7154 H   0  0  0  0  0  0  0  0  0  0  0  0
  149.2777  143.4559  158.4921 H   0  0  0  0  0  0  0  0  0  0  0  0
  147.8464  142.3903  156.9261 H   0  0  0  0  0  0  0  0  0  0  0  0
  1  2  1  0  0  0  0
  1 14  1  0  0  0  0
  1 15  1  0  0  0  0
  1 16  1  0  0  0  0
  2 13  2  0  0  0  0
  2  3  1  0  0  0  0
  3  4  2  0  0  0  0
  3 17  1  0  0  0  0
  4  5  1  0  0  0  0
  4  6  1  0  0  0  0
  5 18  1  0  0  0  0
  5 19  1  0  0  0  0
  5 20  1  0  0  0  0
  6  7  1  0  0  0  0
  6 13  1  0  0  0  0
  7 12  1  0  0  0  0
  7  8  1  0  0  0  0
  7 21  1  0  0  0  0
  8  9  1  0  0  0  0
  8 22  1  0  0  0  0
  8 23  1  0  0  0  0
  9 10  1  0  0  0  0
  9 24  1  0  0  0  0
  9 25  1  0  0  0  0
 10 11  1  0  0  0  0
 10 26  1  0  0  0  0
 10 27  1  0  0  0  0
 11 12  1  0  0  0  0
 11 28  1  0  0  0  0
 11 31  1  0  0  0  0
 12 29  1  0  0  0  0
 12 30  1  0  0  0  0
M  CHG  1  11   1
M  END
> <s_m_source_file>
AV-unprocessed.smi

> <i_m_source_file_index>
3087

> <i_lp_mmshare_version>
43012

> <i_f3d_flags>
0

> <s_epik_input>
W0NIM11jMVtjSF1jKFtDSDNdKW4objEpW0NAQEhdMltDSDJdW0NIMl1bQ0gyXVtOSF1bQ0gyXTI=

> <s_epik_cmdline>
J2VwaWtfcHl0aG9uJywgJy1waCcsICc3LjAnLCAnLXRuJywgJzgnLCAnLW1hJywgJzIwMCcsICctbWV0YWxfYmluZGluZycsICctaW1hZScsICc8aW5maWxlLm1hZT4nLCAnLW9tYWUnLCAnPG91dGZpbGUubWFlPic=

> <r_lp_tautomer_probability>
1

> <r_epik_Ionization_Penalty>
0.000855662

> <r_epik_Ionization_Penalty_Charging>
0.000651447

> <r_epik_Ionization_Penalty_Neutral>
0.000204215

> <r_epik_State_Penalty>
-0

> <r_epik_Charging_Adjusted_Penalty>
0.000651447

> <i_epik_Tot_Q>
1

> <i_epik_Tot_abs_Q>
1

> <r_epik_Metal_State_Penalty>
-0

> <b_epik_Metal_Only>
0

> <s_lp_Force_Field>
OPLS_2005

> <r_lp_Energy>
14.514

> <b_lp_Chiralities_Consistent>
1

> <s_lp_Variant>
AV-unprocessed.smi:3087-2

> <Gold.Version>
5.8.1

> <Gold.Id.Protein>
6NUR|6NUR_protein|mol2

> <Gold.PLP.Fitness>
37.3988

> <Gold.PLP.PLP>
-31.6748

> <Gold.PLP.part.hbond>
-1.0000

> <Gold.PLP.part.metal>
0.0000

> <Gold.PLP.part.buried>
-4.4759

> <Gold.PLP.part.nonpolar>
-26.4107

> <Gold.PLP.part.repulsive>
0.0017

> <Gold.PLP.ligand.clash>
0.0000

> <Gold.PLP.ligand.torsion>
0.1565

> <Gold.PLP.Chemscore.Hbond>
2.0000

> <Gold.PLP.Chemscore.CHOScore>
0.0000

> <Gold.PLP.Chemscore.Metal>
0.0000

> <Gold.Chemscore.Hbonds>
donor molecule, donor type, donor heavy atom, donor atom, acceptor molecule, acceptor atom, score
      L1  H    11    28       P1  8028  1.98

> <Gold.PLP.Chemscore.Internal.Correction>
0.0371

> <Gold.Rescore>
     Score         DG    S(hbond)    S(metal)    S(lipo)     H(rot)  DE(clash)    DE(int)     intcor
     16.26     -16.41       0.97        0.00      87.53       1.00       0.01       0.14       ----

> <Gold.Chemscore.Fitness>
16.2637

> <Gold.Chemscore.DG>
-16.4111

> <Gold.Chemscore.ZeroCoef>
-5.4800

> <Gold.Chemscore.Hbond>
0.9730

> <Gold.Chemscore.Metal>
0.0000

> <Gold.Chemscore.Lipo>
87.5322

> <Gold.Chemscore.Internal_Hbond>
0.0000

> <Gold.Chemscore.DEClash>
0.0081

> <Gold.Chemscore.DEInternal>
0.1393

> <Gold.Chemscore.Rot>
1.0000

> <Gold.Chemscore.Internal.Correction>
   9.000000E+99

> <Gold.Chemscore.Hbonds>
donor molecule, donor type, donor heavy atom, donor atom, acceptor molecule, acceptor atom, score
      L1  H    11    28       P1  8028  0.94

> <Gold.Chemscore.Hbond.Weighted>
-3.2498

> <Gold.Chemscore.Metal.Weighted>
-0.0000

> <Gold.Chemscore.Lipo.Weighted>
-10.2413

> <Gold.Chemscore.Internal_Hbond.Weighted>
0.0000

> <Gold.Chemscore.DEClash.Weighted>
0.0081

> <Gold.Chemscore.DEInternal.Weighted>
0.1393

> <Gold.Chemscore.Rot.Weighted>
2.5600

> <Gold.Chemscore.Internal.Correction.Weighted>
   9.000000E+99

> <Gold.Protein.RotatedTorsions>
[ 6907 6896 6895 6894 ] final  -94.41 input  -60.11 | X-H torsion
[ 7974 7965 7964 7962 ] final   10.96 input  175.53 | X-H torsion
[ 8008 7997 7996 7995 ] final  -18.99 input   59.86 | X-H torsion
[ 10167 10162 10161 10158 ] final  -25.45 input  -65.29 | X-H torsion
[ 10718 10713 10712 10709 ] final  -57.74 input   66.30 | X-H torsion
[ 10763 10752 10751 10750 ] final  130.07 input  -60.55 | X-H torsion
[ 11005 11000 10999 10996 ] final   -8.03 input  -57.11 | X-H torsion

> <Gold.Protein.ActiveResidues>
 VAL166  LYS551  ARG553  GLY616  TRP617  ASP618  TYR619  PRO620  LYS621  CYS622 
 ASP623  PHE694  ASN695  SER759  ASP760  ASP761  ALA762  ILE779  LEU786  VAL792 
 PHE793  MET794  SER795  GLU796  ALA797  LYS798  CYS799  TRP800  GLU811  SER814 

> <Gold.Protein.RotatedAtoms>
  150.6941  134.1817  159.4250 H   0  0  0  0  0  0  0  0  0  0  0  0  # atno 6907 bound_to 6896
  151.9791  135.0035  160.0566 H   0  0  0  0  0  0  0  0  0  0  0  0  # atno 6908 bound_to 6896
  152.1771  133.4647  159.4976 H   0  0  0  0  0  0  0  0  0  0  0  0  # atno 6909 bound_to 6896
  146.2379  139.9556  142.8465 H   0  0  0  0  0  0  0  0  0  0  0  0  # atno 7974 bound_to 7965
  154.4867  140.2101  155.9638 H   0  0  0  0  0  0  0  0  0  0  0  0  # atno 8008 bound_to 7997
  156.1247  140.3207  155.8228 H   0  0  0  0  0  0  0  0  0  0  0  0  # atno 8009 bound_to 7997
  155.4405  140.0510  157.3001 H   0  0  0  0  0  0  0  0  0  0  0  0  # atno 8010 bound_to 7997
  140.7286  143.4264  151.0870 H   0  0  0  0  0  0  0  0  0  0  0  0  # atno 10167 bound_to 10162
  156.1188  130.4168  150.0481 H   0  0  0  0  0  0  0  0  0  0  0  0  # atno 10718 bound_to 10713
  153.7520  135.3208  155.3323 H   0  0  0  0  0  0  0  0  0  0  0  0  # atno 10763 bound_to 10752
  154.8259  135.4569  154.0922 H   0  0  0  0  0  0  0  0  0  0  0  0  # atno 10764 bound_to 10752
  153.2128  135.6938  153.8176 H   0  0  0  0  0  0  0  0  0  0  0  0  # atno 10765 bound_to 10752
  140.7192  133.8843  155.8808 H   0  0  0  0  0  0  0  0  0  0  0  0  # atno 11005 bound_to 11000
  145.1819  140.9771  143.4261 LP  0  0  0  0  0  0  0  0  0  0  0  0  # atno 17320 bound_to 7965
  144.9934  139.3667  143.6203 LP  0  0  0  0  0  0  0  0  0  0  0  0  # atno 17321 bound_to 7965
  139.7915  143.8211  152.3152 LP  0  0  0  0  0  0  0  0  0  0  0  0  # atno 17342 bound_to 10162
  139.8197  144.7301  150.9589 LP  0  0  0  0  0  0  0  0  0  0  0  0  # atno 17343 bound_to 10162
  156.8425  130.9431  151.3631 LP  0  0  0  0  0  0  0  0  0  0  0  0  # atno 17370 bound_to 10713
  157.6371  130.8776  149.9380 LP  0  0  0  0  0  0  0  0  0  0  0  0  # atno 17371 bound_to 10713
  141.0018  134.1139  157.4309 LP  0  0  0  0  0  0  0  0  0  0  0  0  # atno 17394 bound_to 11000
  139.8852  135.0070  156.6421 LP  0  0  0  0  0  0  0  0  0  0  0  0  # atno 17395 bound_to 11000

$$$$
