AV-unprocessed.smi:104|AV-procd|sdf|997|dock7
  -GOLD-   2262017583D 1   1.00000     0.00000
 Structure written by MMmdl.
 47 49  0  0  0  0  0  0  0  0  1 V2000
  147.5983  134.4825  161.6228 C   0  0  0  0  0  0  0  0  0  0  0  0
  148.0087  135.8763  161.1647 C   0  0  0  0  0  0  0  0  0  0  0  0
  148.4061  136.7231  161.9650 O   0  0  0  0  0  0  0  0  0  0  0  0
  147.8835  136.0414  159.8392 O   0  0  0  0  0  0  0  0  0  0  0  0
  148.6116  137.0707  159.1909 C   0  0  0  0  0  0  0  0  0  0  0  0
  148.1880  137.1481  157.7182 C   0  0  2  0  0  0  0  0  0  0  0  0
  148.2825  135.8540  157.1292 O   0  0  0  0  0  0  0  0  0  0  0  0
  149.4446  135.7940  156.3757 C   0  0  1  0  0  0  0  0  0  0  0  0
  149.2860  134.7648  155.3077 N   0  0  0  0  0  0  0  0  0  0  0  0
  150.0838  133.6812  155.0210 C   0  0  0  0  0  0  0  0  0  0  0  0
  151.6600  133.2865  156.0146 Br  0  0  0  0  0  0  0  0  0  0  0  0
  149.7290  132.9309  154.0155 N   0  0  0  0  0  0  0  0  0  0  0  0
  148.5786  133.5605  153.5553 C   0  0  0  0  0  0  0  0  0  0  0  0
  147.6731  133.3060  152.4948 C   0  0  0  0  0  0  0  0  0  0  0  0
  147.8032  132.2695  151.6552 N   0  0  0  0  0  0  0  0  0  0  0  0
  146.6296  134.1499  152.3183 N   0  0  0  0  0  0  0  0  0  0  0  0
  146.4793  135.1942  153.1399 C   0  0  0  0  0  0  0  0  0  0  0  0
  147.2418  135.5619  154.1733 N   0  0  0  0  0  0  0  0  0  0  0  0
  148.2925  134.7078  154.3519 C   0  0  0  0  0  0  0  0  0  0  0  0
  149.6255  137.1744  155.7672 C   0  0  2  0  0  0  0  0  0  0  0  0
  150.9985  137.3997  155.4822 O   0  0  0  0  0  0  0  0  0  0  0  0
  151.3861  138.5477  154.9044 C   0  0  0  0  0  0  0  0  0  0  0  0
  152.8993  138.6438  154.7630 C   0  0  0  0  0  0  0  0  0  0  0  0
  150.6449  139.4507  154.5159 O   0  0  0  0  0  0  0  0  0  0  0  0
  149.1166  138.0622  156.8930 C   0  0  1  0  0  0  0  0  0  0  0  0
  148.4063  139.1599  156.3350 O   0  0  0  0  0  0  0  0  0  0  0  0
  147.7666  140.0292  157.1346 C   0  0  0  0  0  0  0  0  0  0  0  0
  147.1517  141.1868  156.3594 C   0  0  0  0  0  0  0  0  0  0  0  0
  147.6581  139.9447  158.3579 O   0  0  0  0  0  0  0  0  0  0  0  0
  147.0336  133.9673  160.8451 H   0  0  0  0  0  0  0  0  0  0  0  0
  146.9750  134.5472  162.5147 H   0  0  0  0  0  0  0  0  0  0  0  0
  148.4812  133.8890  161.8604 H   0  0  0  0  0  0  0  0  0  0  0  0
  148.3942  138.0178  159.6867 H   0  0  0  0  0  0  0  0  0  0  0  0
  149.6852  136.8959  159.2745 H   0  0  0  0  0  0  0  0  0  0  0  0
  147.1525  137.4846  157.6474 H   0  0  0  0  0  0  0  0  0  0  0  0
  150.2787  135.4725  157.0004 H   0  0  0  0  0  0  0  0  0  0  0  0
  148.5749  131.6271  151.7647 H   0  0  0  0  0  0  0  0  0  0  0  0
  147.1312  132.1338  150.9139 H   0  0  0  0  0  0  0  0  0  0  0  0
  145.6268  135.8266  152.9399 H   0  0  0  0  0  0  0  0  0  0  0  0
  148.9891  137.2540  154.8837 H   0  0  0  0  0  0  0  0  0  0  0  0
  153.2401  138.0212  153.9358 H   0  0  0  0  0  0  0  0  0  0  0  0
  153.3909  138.3077  155.6762 H   0  0  0  0  0  0  0  0  0  0  0  0
  153.2001  139.6732  154.5685 H   0  0  0  0  0  0  0  0  0  0  0  0
  149.9604  138.3956  157.5002 H   0  0  0  0  0  0  0  0  0  0  0  0
  147.9149  141.9264  156.1169 H   0  0  0  0  0  0  0  0  0  0  0  0
  146.3741  141.6715  156.9500 H   0  0  0  0  0  0  0  0  0  0  0  0
  146.7062  140.8303  155.4304 H   0  0  0  0  0  0  0  0  0  0  0  0
  1  2  1  0  0  0  0
  1 30  1  0  0  0  0
  1 31  1  0  0  0  0
  1 32  1  0  0  0  0
  2  3  2  0  0  0  0
  2  4  1  0  0  0  0
  4  5  1  0  0  0  0
  5  6  1  0  0  0  0
  5 33  1  0  0  0  0
  5 34  1  0  0  0  0
  6 25  1  0  0  0  0
  6  7  1  0  0  0  0
  6 35  1  0  0  0  0
  7  8  1  0  0  0  0
  8  9  1  0  0  0  0
  8 20  1  0  0  0  0
  8 36  1  0  0  0  0
  9 19  1  0  0  0  0
  9 10  1  0  0  0  0
 10 11  1  0  0  0  0
 10 12  2  0  0  0  0
 12 13  1  0  0  0  0
 13 19  2  0  0  0  0
 13 14  1  0  0  0  0
 14 15  1  0  0  0  0
 14 16  2  0  0  0  0
 15 37  1  0  0  0  0
 15 38  1  0  0  0  0
 16 17  1  0  0  0  0
 17 18  2  0  0  0  0
 17 39  1  0  0  0  0
 18 19  1  0  0  0  0
 20 21  1  0  0  0  0
 20 25  1  0  0  0  0
 20 40  1  0  0  0  0
 21 22  1  0  0  0  0
 22 23  1  0  0  0  0
 22 24  2  0  0  0  0
 23 41  1  0  0  0  0
 23 42  1  0  0  0  0
 23 43  1  0  0  0  0
 25 26  1  0  0  0  0
 25 44  1  0  0  0  0
 26 27  1  0  0  0  0
 27 28  1  0  0  0  0
 27 29  2  0  0  0  0
 28 45  1  0  0  0  0
 28 46  1  0  0  0  0
 28 47  1  0  0  0  0
M  END
> <s_m_source_file>
AV-unprocessed.smi

> <i_m_source_file_index>
104

> <i_lp_mmshare_version>
43012

> <i_f3d_flags>
0

> <s_epik_input>
W0NIM11DKD1PKU9bQ0gyXVtDQEBIXTFPW0NASF0oW0NAQEhdKE9DKD1PKVtDSDNdKVtDQEhdMU9DKD1PKVtDSDNdKW4oYyhCciluMiljKGMyMyluW2NIXW5jM1tOSDJd

> <s_epik_cmdline>
J2VwaWtfcHl0aG9uJywgJy1waCcsICc3LjAnLCAnLXRuJywgJzgnLCAnLW1hJywgJzIwMCcsICctbWV0YWxfYmluZGluZycsICctaW1hZScsICc8aW5maWxlLm1hZT4nLCAnLW9tYWUnLCAnPG91dGZpbGUubWFlPic=

> <r_lp_tautomer_probability>
1

> <r_epik_Ionization_Penalty>
7.36622e-05

> <r_epik_Ionization_Penalty_Charging>
0

> <r_epik_Ionization_Penalty_Neutral>
7.36622e-05

> <r_epik_State_Penalty>
-0

> <r_epik_Charging_Adjusted_Penalty>
0

> <i_epik_Tot_Q>
0

> <i_epik_Tot_abs_Q>
0

> <r_epik_Metal_State_Penalty>
-0

> <b_epik_Metal_Only>
0

> <s_epik_Chemistry_Notes>
This compound has an ester and may undergo hydrolysis at high or low pH. This compound contains an acetal/aminal-like group ( X-CH(R)-Y where X, Y are N, S, or O) that may be acid/base labile, releasing an aldehyde.

> <s_lp_Force_Field>
OPLS_2005

> <r_lp_Energy>
16.3368

> <b_lp_Chiralities_Consistent>
1

> <s_lp_Variant>
AV-unprocessed.smi:104-5

> <Gold.Version>
5.8.1

> <Gold.Id.Protein>
6NUR|6NUR_protein|mol2

> <Gold.PLP.Fitness>
39.0660

> <Gold.PLP.PLP>
-32.7437

> <Gold.PLP.part.hbond>
-4.0763

> <Gold.PLP.part.metal>
0.0000

> <Gold.PLP.part.buried>
-5.5856

> <Gold.PLP.part.nonpolar>
-22.7853

> <Gold.PLP.part.repulsive>
0.7093

> <Gold.PLP.ligand.clash>
0.0000

> <Gold.PLP.ligand.torsion>
0.4437

> <Gold.PLP.Chemscore.Hbond>
2.3425

> <Gold.PLP.Chemscore.CHOScore>
0.0000

> <Gold.PLP.Chemscore.Metal>
0.0000

> <Gold.Chemscore.Hbonds>
donor molecule, donor type, donor heavy atom, donor atom, acceptor molecule, acceptor atom, score
      L1  H    15    37       P1 10747  0.26
      P1  H  6931  6943       L1     3  1.00
      P1  H  7989  7998       L1    24  1.00

> <Gold.PLP.Chemscore.Internal.Correction>
0.1822

> <Gold.Rescore>
     Score         DG    S(hbond)    S(metal)    S(lipo)     H(rot)  DE(clash)    DE(int)     intcor
      4.98      -6.91       2.44        0.00      36.99       4.31       0.17       1.77       ----

> <Gold.Chemscore.Fitness>
4.9779

> <Gold.Chemscore.DG>
-6.9147

> <Gold.Chemscore.ZeroCoef>
-5.4800

> <Gold.Chemscore.Hbond>
2.4351

> <Gold.Chemscore.Metal>
0.0000

> <Gold.Chemscore.Lipo>
36.9866

> <Gold.Chemscore.Internal_Hbond>
0.0000

> <Gold.Chemscore.DEClash>
0.1711

> <Gold.Chemscore.DEInternal>
1.7657

> <Gold.Chemscore.Rot>
4.3070

> <Gold.Chemscore.Internal.Correction>
   9.000000E+99

> <Gold.Chemscore.Hbonds>
donor molecule, donor type, donor heavy atom, donor atom, acceptor molecule, acceptor atom, score
      L1  H    15    37       P1 10747  0.26
      P1  H  6931  6943       L1     3  1.00
      P1  H  7989  7998       L1    24  0.79

> <Gold.Chemscore.Hbond.Weighted>
-8.1331

> <Gold.Chemscore.Metal.Weighted>
-0.0000

> <Gold.Chemscore.Lipo.Weighted>
-4.3274

> <Gold.Chemscore.Internal_Hbond.Weighted>
0.0000

> <Gold.Chemscore.DEClash.Weighted>
0.1711

> <Gold.Chemscore.DEInternal.Weighted>
1.7657

> <Gold.Chemscore.Rot.Weighted>
11.0259

> <Gold.Chemscore.Internal.Correction.Weighted>
   9.000000E+99

> <Gold.Protein.RotatedTorsions>
[ 6907 6896 6895 6894 ] final -141.36 input  -60.11 | X-H torsion
[ 7974 7965 7964 7962 ] final   73.83 input  175.53 | X-H torsion
[ 8008 7997 7996 7995 ] final  162.76 input   59.86 | X-H torsion
[ 10167 10162 10161 10158 ] final -101.46 input  -65.29 | X-H torsion
[ 10718 10713 10712 10709 ] final  141.52 input   66.30 | X-H torsion
[ 10763 10752 10751 10750 ] final -131.80 input  -60.55 | X-H torsion
[ 11005 11000 10999 10996 ] final -115.53 input  -57.11 | X-H torsion

> <Gold.Protein.ActiveResidues>
 VAL166  LYS551  ARG553  GLY616  TRP617  ASP618  TYR619  PRO620  LYS621  CYS622 
 ASP623  PHE694  ASN695  SER759  ASP760  ASP761  ALA762  ILE779  LEU786  VAL792 
 PHE793  MET794  SER795  GLU796  ALA797  LYS798  CYS799  TRP800  GLU811  SER814 

> <Gold.Protein.RotatedAtoms>
  151.0728  133.5452  159.2625 H   0  0  0  0  0  0  0  0  0  0  0  0  # atno 6907 bound_to 6896
  151.2385  135.0579  159.9025 H   0  0  0  0  0  0  0  0  0  0  0  0  # atno 6908 bound_to 6896
  152.5414  134.0507  159.8162 H   0  0  0  0  0  0  0  0  0  0  0  0  # atno 6909 bound_to 6896
  145.7359  139.2702  143.1514 H   0  0  0  0  0  0  0  0  0  0  0  0  # atno 7974 bound_to 7965
  156.2008  140.1742  156.7904 H   0  0  0  0  0  0  0  0  0  0  0  0  # atno 8008 bound_to 7997
  154.5589  140.0703  156.8818 H   0  0  0  0  0  0  0  0  0  0  0  0  # atno 8009 bound_to 7997
  155.2886  140.3354  155.4256 H   0  0  0  0  0  0  0  0  0  0  0  0  # atno 8010 bound_to 7997
  140.2411  143.3538  152.0801 H   0  0  0  0  0  0  0  0  0  0  0  0  # atno 10167 bound_to 10162
  157.3910  131.1005  151.0646 H   0  0  0  0  0  0  0  0  0  0  0  0  # atno 10718 bound_to 10713
  154.8748  135.3818  154.4305 H   0  0  0  0  0  0  0  0  0  0  0  0  # atno 10763 bound_to 10752
  153.5000  135.7030  153.5842 H   0  0  0  0  0  0  0  0  0  0  0  0  # atno 10764 bound_to 10752
  153.4178  135.3909  155.2058 H   0  0  0  0  0  0  0  0  0  0  0  0  # atno 10765 bound_to 10752
  141.0482  133.9729  157.2882 H   0  0  0  0  0  0  0  0  0  0  0  0  # atno 11005 bound_to 11000
  146.0493  140.8085  142.9789 LP  0  0  0  0  0  0  0  0  0  0  0  0  # atno 17320 bound_to 7965
  144.6882  140.3029  143.7260 LP  0  0  0  0  0  0  0  0  0  0  0  0  # atno 17321 bound_to 7965
  139.5077  144.6837  151.5944 LP  0  0  0  0  0  0  0  0  0  0  0  0  # atno 17342 bound_to 10162
  140.6113  143.9431  150.6455 LP  0  0  0  0  0  0  0  0  0  0  0  0  # atno 17343 bound_to 10162
  157.1680  130.6254  149.5631 LP  0  0  0  0  0  0  0  0  0  0  0  0  # atno 17370 bound_to 10713
  155.9798  130.4795  150.6738 LP  0  0  0  0  0  0  0  0  0  0  0  0  # atno 17371 bound_to 10713
  139.9329  135.0199  156.8459 LP  0  0  0  0  0  0  0  0  0  0  0  0  # atno 17394 bound_to 11000
  140.6106  134.0086  155.7575 LP  0  0  0  0  0  0  0  0  0  0  0  0  # atno 17395 bound_to 11000

$$$$
