AV-unprocessed.smi:1601|AV-procd|sdf|6436|dock4
  -GOLD-   22720 7 83D 1   1.00000     0.00000
 Structure written by MMmdl.
 42 43  0  0  0  0  0  0  0  0  2 V2000
  150.4875  134.7364  156.3730 C   0  0  0  0  0  0  0  0  0  0  0  0
  149.9733  134.9247  154.9234 C   0  0  1  0  0  0  0  0  0  0  0  0
  148.6207  134.1865  154.7353 C   0  0  0  0  0  0  0  0  0  0  0  0
  147.9326  134.5879  153.5142 N   0  0  0  0  0  0  0  0  0  0  0  0
  146.8252  134.0026  153.0341 C   0  0  0  0  0  0  0  0  0  0  0  0
  146.2590  133.0699  153.6053 O   0  0  0  0  0  0  0  0  0  0  0  0
  146.2889  134.5593  151.7056 C   0  0  2  0  0  0  0  0  0  0  0  0
  145.5802  135.9180  151.8625 C   0  0  0  0  0  0  0  0  0  0  0  0
  145.4164  133.5820  151.0667 N   0  0  0  0  0  0  0  0  0  0  0  0
  145.6979  132.2818  150.6937 C   0  0  0  0  0  0  0  0  0  0  0  0
  144.5716  131.7682  150.1181 C   0  0  0  0  0  0  0  0  0  0  0  0
  143.6411  132.8424  150.1799 C   0  0  0  0  0  0  0  0  0  0  0  0
  144.1502  133.9262  150.7429 N   0  0  0  0  0  0  0  0  0  0  0  0
  149.8830  136.3775  154.5526 N   0  3  0  0  0  0  0  0  0  0  0  0
  148.8803  137.1360  155.3532 C   0  0  0  0  0  0  0  0  0  0  0  0
  148.8138  138.6118  154.9261 C   0  0  0  0  0  0  0  0  0  0  0  0
  150.0969  139.2033  155.0492 O   0  0  0  0  0  0  0  0  0  0  0  0
  151.0346  138.5742  154.1912 C   0  0  0  0  0  0  0  0  0  0  0  0
  151.1896  137.0946  154.5823 C   0  0  0  0  0  0  0  0  0  0  0  0
  150.4916  133.6905  156.6792 H   0  0  0  0  0  0  0  0  0  0  0  0
  149.8677  135.2809  157.0860 H   0  0  0  0  0  0  0  0  0  0  0  0
  151.5173  135.0690  156.4945 H   0  0  0  0  0  0  0  0  0  0  0  0
  150.6975  134.4603  154.2517 H   0  0  0  0  0  0  0  0  0  0  0  0
  148.7866  133.1076  154.7322 H   0  0  0  0  0  0  0  0  0  0  0  0
  147.9286  134.4081  155.5466 H   0  0  0  0  0  0  0  0  0  0  0  0
  148.3362  135.3472  152.9839 H   0  0  0  0  0  0  0  0  0  0  0  0
  147.1525  134.7186  151.0565 H   0  0  0  0  0  0  0  0  0  0  0  0
  146.2410  136.6588  152.3140 H   0  0  0  0  0  0  0  0  0  0  0  0
  144.6890  135.8422  152.4870 H   0  0  0  0  0  0  0  0  0  0  0  0
  145.2704  136.3074  150.8923 H   0  0  0  0  0  0  0  0  0  0  0  0
  146.6666  131.8361  150.8669 H   0  0  0  0  0  0  0  0  0  0  0  0
  144.4335  130.7766  149.7135 H   0  0  0  0  0  0  0  0  0  0  0  0
  142.6189  132.8675  149.8321 H   0  0  0  0  0  0  0  0  0  0  0  0
  147.8818  136.7215  155.2290 H   0  0  0  0  0  0  0  0  0  0  0  0
  149.1313  137.0662  156.4127 H   0  0  0  0  0  0  0  0  0  0  0  0
  148.4486  138.7070  153.9020 H   0  0  0  0  0  0  0  0  0  0  0  0
  148.1151  139.1546  155.5627 H   0  0  0  0  0  0  0  0  0  0  0  0
  150.7203  138.6723  153.1508 H   0  0  0  0  0  0  0  0  0  0  0  0
  151.9924  139.0870  154.2817 H   0  0  0  0  0  0  0  0  0  0  0  0
  151.6283  137.0152  155.5782 H   0  0  0  0  0  0  0  0  0  0  0  0
  151.8950  136.6565  153.8790 H   0  0  0  0  0  0  0  0  0  0  0  0
  149.5651  136.4082  153.5942 H   0  0  0  0  0  0  0  0  0  0  0  0
  1  2  1  0  0  0  0
  1 20  1  0  0  0  0
  1 21  1  0  0  0  0
  1 22  1  0  0  0  0
  2  3  1  0  0  0  0
  2 14  1  0  0  0  0
  2 23  1  0  0  0  0
  3  4  1  0  0  0  0
  3 24  1  0  0  0  0
  3 25  1  0  0  0  0
  4  5  1  0  0  0  0
  4 26  1  0  0  0  0
  5  6  2  0  0  0  0
  5  7  1  0  0  0  0
  7  8  1  0  0  0  0
  7  9  1  0  0  0  0
  7 27  1  0  0  0  0
  8 28  1  0  0  0  0
  8 29  1  0  0  0  0
  8 30  1  0  0  0  0
  9 13  1  0  0  0  0
  9 10  1  0  0  0  0
 10 11  2  0  0  0  0
 10 31  1  0  0  0  0
 11 12  1  0  0  0  0
 11 32  1  0  0  0  0
 12 13  2  0  0  0  0
 12 33  1  0  0  0  0
 14 19  1  0  0  0  0
 14 15  1  0  0  0  0
 14 42  1  0  0  0  0
 15 16  1  0  0  0  0
 15 34  1  0  0  0  0
 15 35  1  0  0  0  0
 16 17  1  0  0  0  0
 16 36  1  0  0  0  0
 16 37  1  0  0  0  0
 17 18  1  0  0  0  0
 18 19  1  0  0  0  0
 18 38  1  0  0  0  0
 18 39  1  0  0  0  0
 19 40  1  0  0  0  0
 19 41  1  0  0  0  0
M  CHG  1  14   1
M  END
> <s_m_source_file>
AV-unprocessed.smi

> <i_m_source_file_index>
1601

> <i_lp_mmshare_version>
43012

> <i_f3d_flags>
0

> <s_epik_input>
W0NIMl0xW0NIMl1PW0NIMl1bQ0gyXU4xW0NASF0oW0NIM10pW0NIMl1bTkhdQyg9TylbQ0BIXShbQ0gzXSluMltjSF1bY0hdW2NIXW4y

> <s_epik_cmdline>
J2VwaWtfcHl0aG9uJywgJy1waCcsICc3LjAnLCAnLXRuJywgJzgnLCAnLW1hJywgJzIwMCcsICctbWV0YWxfYmluZGluZycsICctaW1hZScsICc8aW5maWxlLm1hZT4nLCAnLW9tYWUnLCAnPG91dGZpbGUubWFlPic=

> <r_lp_tautomer_probability>
1

> <r_epik_Ionization_Penalty>
0.732551

> <r_epik_Ionization_Penalty_Charging>
0.732531

> <r_epik_Ionization_Penalty_Neutral>
2.04647e-05

> <r_epik_State_Penalty>
0.757939

> <r_epik_Charging_Adjusted_Penalty>
1.49047

> <i_epik_Tot_Q>
1

> <i_epik_Tot_abs_Q>
1

> <r_epik_Metal_State_Penalty>
0.757952

> <b_epik_Metal_Only>
0

> <s_lp_Force_Field>
OPLS_2005

> <r_lp_Energy>
25.0975

> <b_lp_Chiralities_Consistent>
1

> <s_lp_Variant>
AV-unprocessed.smi:1601-6

> <Gold.Version>
5.8.1

> <Gold.Id.Protein>
6NUR|6NUR_protein|mol2

> <Gold.PLP.Fitness>
43.1514

> <Gold.PLP.PLP>
-29.3319

> <Gold.PLP.part.hbond>
-1.9211

> <Gold.PLP.part.metal>
0.0000

> <Gold.PLP.part.buried>
-3.0630

> <Gold.PLP.part.nonpolar>
-24.9313

> <Gold.PLP.part.repulsive>
0.3603

> <Gold.PLP.ligand.clash>
0.0000

> <Gold.PLP.ligand.torsion>
0.6641

> <Gold.PLP.Chemscore.Hbond>
3.0000

> <Gold.PLP.Chemscore.CHOScore>
2.0000

> <Gold.PLP.Chemscore.Metal>
0.0000

> <Gold.Chemscore.Hbonds>
donor molecule, donor type, donor heavy atom, donor atom, acceptor molecule, acceptor atom, score
      L1  H     4    26       P1  7948  1.00
      L1  H    14    42       P1  7948  2.00
      L1  C    10    31       P1 10747  0.89
      L1  C    12    33       P1 10186  1.00

> <Gold.PLP.Chemscore.Internal.Correction>
0.1477

> <Gold.Rescore>
     Score         DG    S(hbond)    S(metal)    S(lipo)     H(rot)  DE(clash)    DE(int)     intcor
     14.56     -15.94       1.92        0.00      75.31       1.86       0.10       1.28       ----

> <Gold.Chemscore.Fitness>
14.5632

> <Gold.Chemscore.DG>
-15.9413

> <Gold.Chemscore.ZeroCoef>
-5.4800

> <Gold.Chemscore.Hbond>
1.9221

> <Gold.Chemscore.Metal>
0.0000

> <Gold.Chemscore.Lipo>
75.3085

> <Gold.Chemscore.Internal_Hbond>
0.0000

> <Gold.Chemscore.DEClash>
0.1027

> <Gold.Chemscore.DEInternal>
1.2754

> <Gold.Chemscore.Rot>
1.8631

> <Gold.Chemscore.Internal.Correction>
   9.000000E+99

> <Gold.Chemscore.Hbonds>
donor molecule, donor type, donor heavy atom, donor atom, acceptor molecule, acceptor atom, score
      L1  H     4    26       P1  7948  0.91
      L1  H    14    42       P1  7948  0.60

> <Gold.Chemscore.Hbond.Weighted>
-6.4199

> <Gold.Chemscore.Metal.Weighted>
-0.0000

> <Gold.Chemscore.Lipo.Weighted>
-8.8111

> <Gold.Chemscore.Internal_Hbond.Weighted>
0.0000

> <Gold.Chemscore.DEClash.Weighted>
0.1027

> <Gold.Chemscore.DEInternal.Weighted>
1.2754

> <Gold.Chemscore.Rot.Weighted>
4.7697

> <Gold.Chemscore.Internal.Correction.Weighted>
   9.000000E+99

> <Gold.Protein.RotatedTorsions>
[ 6907 6896 6895 6894 ] final -167.58 input  -60.11 | X-H torsion
[ 7974 7965 7964 7962 ] final  -40.75 input  175.53 | X-H torsion
[ 8008 7997 7996 7995 ] final  -56.99 input   59.86 | X-H torsion
[ 10167 10162 10161 10158 ] final   66.88 input  -65.29 | X-H torsion
[ 10718 10713 10712 10709 ] final   41.34 input   66.30 | X-H torsion
[ 10763 10752 10751 10750 ] final -176.40 input  -60.55 | X-H torsion
[ 11005 11000 10999 10996 ] final -158.41 input  -57.11 | X-H torsion

> <Gold.Protein.ActiveResidues>
 VAL166  LYS551  ARG553  GLY616  TRP617  ASP618  TYR619  PRO620  LYS621  CYS622 
 ASP623  PHE694  ASN695  SER759  ASP760  ASP761  ALA762  ILE779  LEU786  VAL792 
 PHE793  MET794  SER795  GLU796  ALA797  LYS798  CYS799  TRP800  GLU811  SER814 

> <Gold.Protein.RotatedAtoms>
  151.4618  133.3591  159.2809 H   0  0  0  0  0  0  0  0  0  0  0  0  # atno 6907 bound_to 6896
  150.9020  134.8435  159.7378 H   0  0  0  0  0  0  0  0  0  0  0  0  # atno 6908 bound_to 6896
  152.4885  134.4539  159.9635 H   0  0  0  0  0  0  0  0  0  0  0  0  # atno 6909 bound_to 6896
  146.0275  140.6773  142.9148 H   0  0  0  0  0  0  0  0  0  0  0  0  # atno 7974 bound_to 7965
  154.4250  140.1117  156.5725 H   0  0  0  0  0  0  0  0  0  0  0  0  # atno 8008 bound_to 7997
  155.6197  140.3495  155.4629 H   0  0  0  0  0  0  0  0  0  0  0  0  # atno 8009 bound_to 7997
  156.0034  140.1204  157.0515 H   0  0  0  0  0  0  0  0  0  0  0  0  # atno 8010 bound_to 7997
  140.0955  144.4950  150.7071 H   0  0  0  0  0  0  0  0  0  0  0  0  # atno 10167 bound_to 10162
  157.3924  130.7814  149.7281 H   0  0  0  0  0  0  0  0  0  0  0  0  # atno 10718 bound_to 10713
  154.5729  135.2829  155.0810 H   0  0  0  0  0  0  0  0  0  0  0  0  # atno 10763 bound_to 10752
  154.2176  135.6397  153.5138 H   0  0  0  0  0  0  0  0  0  0  0  0  # atno 10764 bound_to 10752
  153.0063  135.5506  154.6358 H   0  0  0  0  0  0  0  0  0  0  0  0  # atno 10765 bound_to 10752
  140.6539  134.4421  157.5235 H   0  0  0  0  0  0  0  0  0  0  0  0  # atno 11005 bound_to 11000
  144.7016  140.3676  143.7151 LP  0  0  0  0  0  0  0  0  0  0  0  0  # atno 17320 bound_to 7965
  145.7094  139.1681  143.2547 LP  0  0  0  0  0  0  0  0  0  0  0  0  # atno 17321 bound_to 7965
  140.7005  143.2432  151.4876 LP  0  0  0  0  0  0  0  0  0  0  0  0  # atno 17342 bound_to 10162
  139.5700  144.1951  152.1822 LP  0  0  0  0  0  0  0  0  0  0  0  0  # atno 17343 bound_to 10162
  155.9802  130.4032  150.3544 LP  0  0  0  0  0  0  0  0  0  0  0  0  # atno 17370 bound_to 10713
  157.1661  131.0357  151.2817 LP  0  0  0  0  0  0  0  0  0  0  0  0  # atno 17371 bound_to 10713
  139.9036  134.8500  156.1795 LP  0  0  0  0  0  0  0  0  0  0  0  0  # atno 17394 bound_to 11000
  141.0516  133.6886  156.1782 LP  0  0  0  0  0  0  0  0  0  0  0  0  # atno 17395 bound_to 11000

$$$$
