AV-unprocessed.smi:2584|AV-procd|sdf|10143|dock9
  -GOLD-   2272014153D 1   1.00000     0.00000
 Structure written by MMmdl.
 35 36  0  0  0  0  0  0  0  0  2 V2000
  150.0639  134.7265  156.0395 O   0  0  0  0  0  0  0  0  0  0  0  0
  149.7825  135.2575  154.9647 C   0  0  0  0  0  0  0  0  0  0  0  0
  148.9120  134.7335  154.0897 N   0  0  0  0  0  0  0  0  0  0  0  0
  148.2065  133.4703  154.2730 C   0  0  0  0  0  0  0  0  0  0  0  0
  148.6873  132.3996  153.2738 C   0  0  0  0  0  0  0  0  0  0  0  0
  147.6663  132.0895  152.2414 N   0  3  0  0  0  0  0  0  0  0  0  0
  147.0542  133.3185  151.6711 C   0  0  0  0  0  0  0  0  0  0  0  0
  146.1017  132.9812  150.5115 C   0  0  0  0  0  0  0  0  0  0  0  0
  145.0178  131.9926  150.9598 C   0  0  0  0  0  0  0  0  0  0  0  0
  145.6686  130.7476  151.5752 C   0  0  0  0  0  0  0  0  0  0  0  0
  146.6289  131.1323  152.7133 C   0  0  0  0  0  0  0  0  0  0  0  0
  150.2929  136.4158  154.5144 N   0  0  0  0  0  0  0  0  0  0  0  0
  151.1999  137.2152  155.1300 C   0  0  0  0  0  0  0  0  0  0  0  0
  151.8441  137.1111  156.3387 C   0  0  0  0  0  0  0  0  0  0  0  0
  152.7224  138.1730  156.6066 N   0  0  0  0  0  0  0  0  0  0  0  0
  152.7754  139.0701  155.6663 N   0  0  0  0  0  0  0  0  0  0  0  0
  151.7564  138.6759  154.3976 S   0  0  0  0  0  0  0  0  0  0  0  0
  148.7387  135.2347  153.2302 H   0  0  0  0  0  0  0  0  0  0  0  0
  148.3821  133.1301  155.2939 H   0  0  0  0  0  0  0  0  0  0  0  0
  147.1344  133.6482  154.1863 H   0  0  0  0  0  0  0  0  0  0  0  0
  149.6169  132.6997  152.7875 H   0  0  0  0  0  0  0  0  0  0  0  0
  148.9157  131.4941  153.8382 H   0  0  0  0  0  0  0  0  0  0  0  0
  146.5188  133.8570  152.4548 H   0  0  0  0  0  0  0  0  0  0  0  0
  147.8361  133.9855  151.3056 H   0  0  0  0  0  0  0  0  0  0  0  0
  145.6396  133.8927  150.1311 H   0  0  0  0  0  0  0  0  0  0  0  0
  146.6691  132.5533  149.6838 H   0  0  0  0  0  0  0  0  0  0  0  0
  144.3642  132.4682  151.6923 H   0  0  0  0  0  0  0  0  0  0  0  0
  144.3888  131.7117  150.1145 H   0  0  0  0  0  0  0  0  0  0  0  0
  144.8988  130.0716  151.9488 H   0  0  0  0  0  0  0  0  0  0  0  0
  146.2138  130.1997  150.8054 H   0  0  0  0  0  0  0  0  0  0  0  0
  147.0933  130.2262  153.1002 H   0  0  0  0  0  0  0  0  0  0  0  0
  146.0713  131.5765  153.5396 H   0  0  0  0  0  0  0  0  0  0  0  0
  149.9761  136.7316  153.6093 H   0  0  0  0  0  0  0  0  0  0  0  0
  151.7500  136.3297  157.0777 H   0  0  0  0  0  0  0  0  0  0  0  0
  148.1558  131.6421  151.4795 H   0  0  0  0  0  0  0  0  0  0  0  0
  1  2  2  0  0  0  0
  2  3  1  0  0  0  0
  2 12  1  0  0  0  0
  3  4  1  0  0  0  0
  3 18  1  0  0  0  0
  4  5  1  0  0  0  0
  4 19  1  0  0  0  0
  4 20  1  0  0  0  0
  5  6  1  0  0  0  0
  5 21  1  0  0  0  0
  5 22  1  0  0  0  0
  6 11  1  0  0  0  0
  6  7  1  0  0  0  0
  6 35  1  0  0  0  0
  7  8  1  0  0  0  0
  7 23  1  0  0  0  0
  7 24  1  0  0  0  0
  8  9  1  0  0  0  0
  8 25  1  0  0  0  0
  8 26  1  0  0  0  0
  9 10  1  0  0  0  0
  9 27  1  0  0  0  0
  9 28  1  0  0  0  0
 10 11  1  0  0  0  0
 10 29  1  0  0  0  0
 10 30  1  0  0  0  0
 11 31  1  0  0  0  0
 11 32  1  0  0  0  0
 12 13  1  0  0  0  0
 12 33  1  0  0  0  0
 13 17  1  0  0  0  0
 13 14  2  0  0  0  0
 14 15  1  0  0  0  0
 14 34  1  0  0  0  0
 15 16  2  0  0  0  0
 16 17  1  0  0  0  0
M  CHG  1   6   1
M  END
> <s_m_source_file>
AV-unprocessed.smi

> <i_m_source_file_index>
2584

> <i_lp_mmshare_version>
43012

> <i_f3d_flags>
0

> <s_epik_input>
czFubltjSF1jMVtOSF1DKD1PKVtOSF1bQ0gyXVtDSDJdTjJbQ0gyXVtDSDJdW0NIMl1bQ0gyXVtDSDJdMg==

> <s_epik_cmdline>
J2VwaWtfcHl0aG9uJywgJy1waCcsICc3LjAnLCAnLXRuJywgJzgnLCAnLW1hJywgJzIwMCcsICctbWV0YWxfYmluZGluZycsICctaW1hZScsICc8aW5maWxlLm1hZT4nLCAnLW9tYWUnLCAnPG91dGZpbGUubWFlPic=

> <r_lp_tautomer_probability>
1

> <r_epik_Ionization_Penalty>
0.00255984

> <r_epik_Ionization_Penalty_Charging>
0.0025387

> <r_epik_Ionization_Penalty_Neutral>
2.11374e-05

> <r_epik_State_Penalty>
0.00176242

> <r_epik_Charging_Adjusted_Penalty>
0.00430112

> <i_epik_Tot_Q>
1

> <i_epik_Tot_abs_Q>
1

> <r_epik_Metal_State_Penalty>
-0

> <b_epik_Metal_Only>
0

> <s_lp_Force_Field>
OPLS_2005

> <r_lp_Energy>
17.0629

> <b_lp_Chiralities_Consistent>
1

> <s_lp_Variant>
AV-unprocessed.smi:2584-1

> <Gold.Version>
5.8.1

> <Gold.Id.Protein>
6NUR|6NUR_protein|mol2

> <Gold.PLP.Fitness>
41.4482

> <Gold.PLP.PLP>
-30.8337

> <Gold.PLP.part.hbond>
-4.5026

> <Gold.PLP.part.metal>
0.0000

> <Gold.PLP.part.buried>
-5.5611

> <Gold.PLP.part.nonpolar>
-21.0755

> <Gold.PLP.part.repulsive>
0.0933

> <Gold.PLP.ligand.clash>
0.0000

> <Gold.PLP.ligand.torsion>
0.5389

> <Gold.PLP.Chemscore.Hbond>
3.8897

> <Gold.PLP.Chemscore.CHOScore>
0.0000

> <Gold.PLP.Chemscore.Metal>
0.0000

> <Gold.Chemscore.Hbonds>
donor molecule, donor type, donor heavy atom, donor atom, acceptor molecule, acceptor atom, score
      L1  H     3    18       P1  7948  1.00
      L1  H     6    35       P1 10747  1.00
      L1  H    12    33       P1  7948  0.89
      P1  H  7997  8010       L1    16  1.00

> <Gold.PLP.Chemscore.Internal.Correction>
0.0232

> <Gold.Rescore>
     Score         DG    S(hbond)    S(metal)    S(lipo)     H(rot)  DE(clash)    DE(int)     intcor
     17.35     -19.00       2.97        0.00      67.03       1.65       0.03       1.63       ----

> <Gold.Chemscore.Fitness>
17.3453

> <Gold.Chemscore.DG>
-19.0022

> <Gold.Chemscore.ZeroCoef>
-5.4800

> <Gold.Chemscore.Hbond>
2.9651

> <Gold.Chemscore.Metal>
0.0000

> <Gold.Chemscore.Lipo>
67.0268

> <Gold.Chemscore.Internal_Hbond>
0.0000

> <Gold.Chemscore.DEClash>
0.0312

> <Gold.Chemscore.DEInternal>
1.6257

> <Gold.Chemscore.Rot>
1.6497

> <Gold.Chemscore.Internal.Correction>
   9.000000E+99

> <Gold.Chemscore.Hbonds>
donor molecule, donor type, donor heavy atom, donor atom, acceptor molecule, acceptor atom, score
      L1  H     3    18       P1  7948  0.70
      L1  H     6    35       P1 10747  1.00
      L1  H    12    33       P1  7948  0.21
      P1  H  7997  8010       L1    16  0.34

> <Gold.Chemscore.Hbond.Weighted>
-9.9033

> <Gold.Chemscore.Metal.Weighted>
-0.0000

> <Gold.Chemscore.Lipo.Weighted>
-7.8421

> <Gold.Chemscore.Internal_Hbond.Weighted>
0.0000

> <Gold.Chemscore.DEClash.Weighted>
0.0312

> <Gold.Chemscore.DEInternal.Weighted>
1.6257

> <Gold.Chemscore.Rot.Weighted>
4.2232

> <Gold.Chemscore.Internal.Correction.Weighted>
   9.000000E+99

> <Gold.Protein.RotatedTorsions>
[ 6907 6896 6895 6894 ] final  -59.32 input  -60.11 | X-H torsion
[ 7974 7965 7964 7962 ] final -177.96 input  175.53 | X-H torsion
[ 8008 7997 7996 7995 ] final   85.59 input   59.86 | X-H torsion
[ 10167 10162 10161 10158 ] final   11.68 input  -65.29 | X-H torsion
[ 10718 10713 10712 10709 ] final   58.78 input   66.30 | X-H torsion
[ 10763 10752 10751 10750 ] final  -14.73 input  -60.55 | X-H torsion
[ 11005 11000 10999 10996 ] final   43.42 input  -57.11 | X-H torsion

> <Gold.Protein.ActiveResidues>
 VAL166  LYS551  ARG553  GLY616  TRP617  ASP618  TYR619  PRO620  LYS621  CYS622 
 ASP623  PHE694  ASN695  SER759  ASP760  ASP761  ALA762  ILE779  LEU786  VAL792 
 PHE793  MET794  SER795  GLU796  ALA797  LYS798  CYS799  TRP800  GLU811  SER814 

> <Gold.Protein.RotatedAtoms>
  150.7939  134.6984  159.6535 H   0  0  0  0  0  0  0  0  0  0  0  0  # atno 6907 bound_to 6896
  152.4049  134.6221  160.0063 H   0  0  0  0  0  0  0  0  0  0  0  0  # atno 6908 bound_to 6896
  151.6481  133.3285  159.3182 H   0  0  0  0  0  0  0  0  0  0  0  0  # atno 6909 bound_to 6896
  144.7129  140.0940  143.6420 H   0  0  0  0  0  0  0  0  0  0  0  0  # atno 7974 bound_to 7965
  155.9519  140.3400  155.6415 H   0  0  0  0  0  0  0  0  0  0  0  0  # atno 8008 bound_to 7997
  155.6909  140.0749  157.2467 H   0  0  0  0  0  0  0  0  0  0  0  0  # atno 8009 bound_to 7997
  154.4124  140.1657  156.2072 H   0  0  0  0  0  0  0  0  0  0  0  0  # atno 8010 bound_to 7997
  140.6116  143.8395  150.7072 H   0  0  0  0  0  0  0  0  0  0  0  0  # atno 10167 bound_to 10162
  157.5624  130.8845  149.9132 H   0  0  0  0  0  0  0  0  0  0  0  0  # atno 10718 bound_to 10713
  153.5327  135.7014  153.5675 H   0  0  0  0  0  0  0  0  0  0  0  0  # atno 10763 bound_to 10752
  153.3675  135.3953  155.1764 H   0  0  0  0  0  0  0  0  0  0  0  0  # atno 10764 bound_to 10752
  154.8683  135.3804  154.4825 H   0  0  0  0  0  0  0  0  0  0  0  0  # atno 10765 bound_to 10752
  140.1646  134.4298  155.8295 H   0  0  0  0  0  0  0  0  0  0  0  0  # atno 11005 bound_to 11000
  145.9595  139.2790  143.1164 LP  0  0  0  0  0  0  0  0  0  0  0  0  # atno 17320 bound_to 7965
  145.9236  140.9098  143.0392 LP  0  0  0  0  0  0  0  0  0  0  0  0  # atno 17321 bound_to 7965
  140.1965  143.3994  152.1824 LP  0  0  0  0  0  0  0  0  0  0  0  0  # atno 17342 bound_to 10162
  139.5366  144.7215  151.4873 LP  0  0  0  0  0  0  0  0  0  0  0  0  # atno 17343 bound_to 10162
  156.0675  130.3690  150.0847 LP  0  0  0  0  0  0  0  0  0  0  0  0  # atno 17370 bound_to 10713
  156.9009  130.9620  151.3576 LP  0  0  0  0  0  0  0  0  0  0  0  0  # atno 17371 bound_to 10713
  141.2212  133.6929  156.7656 LP  0  0  0  0  0  0  0  0  0  0  0  0  # atno 17394 bound_to 11000
  140.2448  134.8585  157.3610 LP  0  0  0  0  0  0  0  0  0  0  0  0  # atno 17395 bound_to 11000

$$$$
