AV-unprocessed.smi:2439|AV-procd|sdf|9613|dock9
  -GOLD-   2272013243D 1   1.00000     0.00000
 Structure written by MMmdl.
 40 42  0  0  0  0  0  0  0  0  1 V2000
  155.4331  139.5290  159.2827 N   0  0  0  0  0  0  0  0  0  0  0  0
  154.6240  140.2907  159.6048 C   0  0  0  0  0  0  0  0  0  0  0  0
  153.6043  141.2505  160.0105 C   0  0  0  0  0  0  0  0  0  0  0  0
  153.8205  142.0275  161.1677 C   0  0  0  0  0  0  0  0  0  0  0  0
  152.8407  142.9562  161.5638 C   0  0  0  0  0  0  0  0  0  0  0  0
  151.6773  143.0711  160.7814 C   0  0  0  0  0  0  0  0  0  0  0  0
  151.4574  142.3345  159.6726 N   0  0  0  0  0  0  0  0  0  0  0  0
  152.3961  141.4357  159.2857 C   0  0  0  0  0  0  0  0  0  0  0  0
  152.1370  140.6827  158.1268 N   0  0  0  0  0  0  0  0  0  0  0  0
  150.8818  140.8244  157.4024 C   0  0  0  0  0  0  0  0  0  0  0  0
  151.1212  141.2081  155.9299 C   0  0  2  0  0  0  0  0  0  0  0  0
  149.9088  141.9094  155.2878 C   0  0  0  0  0  0  0  0  0  0  0  0
  148.7943  141.0010  155.0451 N   0  0  0  0  0  0  0  0  0  0  0  0
  147.6746  141.6990  154.4149 C   0  0  0  0  0  0  0  0  0  0  0  0
  146.4665  140.7792  154.1790 C   0  0  0  0  0  0  0  0  0  0  0  0
  146.8788  139.5674  153.3316 C   0  0  0  0  0  0  0  0  0  0  0  0
  148.0902  138.8681  153.9668 C   0  0  0  0  0  0  0  0  0  0  0  0
  149.2364  139.8685  154.2264 C   0  0  2  0  0  0  0  0  0  0  0  0
  150.4374  139.1527  154.8757 C   0  0  0  0  0  0  0  0  0  0  0  0
  151.4895  140.0791  155.1348 O   0  0  0  0  0  0  0  0  0  0  0  0
  154.7250  141.9173  161.7489 H   0  0  0  0  0  0  0  0  0  0  0  0
  152.9781  143.5655  162.4447 H   0  0  0  0  0  0  0  0  0  0  0  0
  150.9025  143.7729  161.0522 H   0  0  0  0  0  0  0  0  0  0  0  0
  152.7523  139.9211  157.8784 H   0  0  0  0  0  0  0  0  0  0  0  0
  150.3026  139.9041  157.4767 H   0  0  0  0  0  0  0  0  0  0  0  0
  150.2935  141.6039  157.8875 H   0  0  0  0  0  0  0  0  0  0  0  0
  151.9602  141.9046  155.9009 H   0  0  0  0  0  0  0  0  0  0  0  0
  149.5847  142.7346  155.9235 H   0  0  0  0  0  0  0  0  0  0  0  0
  150.2234  142.3559  154.3432 H   0  0  0  0  0  0  0  0  0  0  0  0
  147.3663  142.5369  155.0414 H   0  0  0  0  0  0  0  0  0  0  0  0
  147.9937  142.1271  153.4632 H   0  0  0  0  0  0  0  0  0  0  0  0
  146.0695  140.4425  155.1376 H   0  0  0  0  0  0  0  0  0  0  0  0
  145.6656  141.3293  153.6845 H   0  0  0  0  0  0  0  0  0  0  0  0
  146.0456  138.8709  153.2350 H   0  0  0  0  0  0  0  0  0  0  0  0
  147.1327  139.8955  152.3230 H   0  0  0  0  0  0  0  0  0  0  0  0
  147.7883  138.4015  154.9058 H   0  0  0  0  0  0  0  0  0  0  0  0
  148.4326  138.0625  153.3163 H   0  0  0  0  0  0  0  0  0  0  0  0
  149.5679  140.2517  153.2597 H   0  0  0  0  0  0  0  0  0  0  0  0
  150.1426  138.6506  155.7977 H   0  0  0  0  0  0  0  0  0  0  0  0
  150.8188  138.3779  154.2103 H   0  0  0  0  0  0  0  0  0  0  0  0
  1  2  3  0  0  0  0
  2  3  1  0  0  0  0
  3  8  1  0  0  0  0
  3  4  2  0  0  0  0
  4  5  1  0  0  0  0
  4 21  1  0  0  0  0
  5  6  2  0  0  0  0
  5 22  1  0  0  0  0
  6  7  1  0  0  0  0
  6 23  1  0  0  0  0
  7  8  2  0  0  0  0
  8  9  1  0  0  0  0
  9 10  1  0  0  0  0
  9 24  1  0  0  0  0
 10 11  1  0  0  0  0
 10 25  1  0  0  0  0
 10 26  1  0  0  0  0
 11 20  1  0  0  0  0
 11 12  1  0  0  0  0
 11 27  1  0  0  0  0
 12 13  1  0  0  0  0
 12 28  1  0  0  0  0
 12 29  1  0  0  0  0
 13 18  1  0  0  0  0
 13 14  1  0  0  0  0
 14 15  1  0  0  0  0
 14 30  1  0  0  0  0
 14 31  1  0  0  0  0
 15 16  1  0  0  0  0
 15 32  1  0  0  0  0
 15 33  1  0  0  0  0
 16 17  1  0  0  0  0
 16 34  1  0  0  0  0
 16 35  1  0  0  0  0
 17 18  1  0  0  0  0
 17 36  1  0  0  0  0
 17 37  1  0  0  0  0
 18 19  1  0  0  0  0
 18 38  1  0  0  0  0
 19 20  1  0  0  0  0
 19 39  1  0  0  0  0
 19 40  1  0  0  0  0
M  END
> <s_m_source_file>
AV-unprocessed.smi

> <i_m_source_file_index>
2439

> <i_lp_mmshare_version>
43012

> <i_f3d_flags>
0

> <s_epik_input>
TiNDYzFbY0hdW2NIXVtjSF1uYzFbTkhdW0NIMl1bQ0BIXShbQ0gyXTIpT1tDSDJdW0NAQEhdKE4yMylbQ0gyXVtDSDJdW0NIMl1bQ0gyXTM=

> <s_epik_cmdline>
J2VwaWtfcHl0aG9uJywgJy1waCcsICc3LjAnLCAnLXRuJywgJzgnLCAnLW1hJywgJzIwMCcsICctbWV0YWxfYmluZGluZycsICctaW1hZScsICc8aW5maWxlLm1hZT4nLCAnLW9tYWUnLCAnPG91dGZpbGUubWFlPic=

> <r_epik_Ionization_Penalty>
1.22355

> <r_epik_Ionization_Penalty_Charging>
0

> <r_epik_Ionization_Penalty_Neutral>
1.22355

> <r_epik_State_Penalty>
1.29103

> <r_epik_Charging_Adjusted_Penalty>
1.29103

> <i_epik_Tot_Q>
0

> <i_epik_Tot_abs_Q>
0

> <r_epik_Metal_State_Penalty>
1.29103

> <b_epik_Metal_Only>
0

> <s_lp_Force_Field>
OPLS_2005

> <r_lp_Energy>
40.6055

> <b_lp_Chiralities_Consistent>
1

> <s_lp_Variant>
AV-unprocessed.smi:2439-11

> <Gold.Version>
5.8.1

> <Gold.Id.Protein>
6NUR|6NUR_protein|mol2

> <Gold.PLP.Fitness>
41.9642

> <Gold.PLP.PLP>
-36.3966

> <Gold.PLP.part.hbond>
-2.6148

> <Gold.PLP.part.metal>
0.0000

> <Gold.PLP.part.buried>
-0.2617

> <Gold.PLP.part.nonpolar>
-33.4011

> <Gold.PLP.part.repulsive>
0.2355

> <Gold.PLP.ligand.clash>
0.0000

> <Gold.PLP.ligand.torsion>
0.2190

> <Gold.PLP.Chemscore.Hbond>
2.0000

> <Gold.PLP.Chemscore.CHOScore>
0.0000

> <Gold.PLP.Chemscore.Metal>
0.0000

> <Gold.Chemscore.Hbonds>
donor molecule, donor type, donor heavy atom, donor atom, acceptor molecule, acceptor atom, score
      P1  H  7989  7998       L1    20  1.00
      P1  H  7997  8008       L1     1  0.95

> <Gold.PLP.Chemscore.Internal.Correction>
0.0057

> <Gold.Rescore>
     Score         DG    S(hbond)    S(metal)    S(lipo)     H(rot)  DE(clash)    DE(int)     intcor
     15.07     -15.37       0.32        0.00     102.74       1.25       0.18       0.12       ----

> <Gold.Chemscore.Fitness>
15.0709

> <Gold.Chemscore.DG>
-15.3732

> <Gold.Chemscore.ZeroCoef>
-5.4800

> <Gold.Chemscore.Hbond>
0.3198

> <Gold.Chemscore.Metal>
0.0000

> <Gold.Chemscore.Lipo>
102.7448

> <Gold.Chemscore.Internal_Hbond>
0.0000

> <Gold.Chemscore.DEClash>
0.1830

> <Gold.Chemscore.DEInternal>
0.1194

> <Gold.Chemscore.Rot>
1.2485

> <Gold.Chemscore.Internal.Correction>
   9.000000E+99

> <Gold.Chemscore.Hbonds>
donor molecule, donor type, donor heavy atom, donor atom, acceptor molecule, acceptor atom, score
      P1  H  7989  7998       L1    20  0.07
      P1  H  7997  8008       L1     1  0.20

> <Gold.Chemscore.Hbond.Weighted>
-1.0682

> <Gold.Chemscore.Metal.Weighted>
-0.0000

> <Gold.Chemscore.Lipo.Weighted>
-12.0211

> <Gold.Chemscore.Internal_Hbond.Weighted>
0.0000

> <Gold.Chemscore.DEClash.Weighted>
0.1830

> <Gold.Chemscore.DEInternal.Weighted>
0.1194

> <Gold.Chemscore.Rot.Weighted>
3.1961

> <Gold.Chemscore.Internal.Correction.Weighted>
   9.000000E+99

> <Gold.Protein.RotatedTorsions>
[ 6907 6896 6895 6894 ] final   97.44 input  -60.11 | X-H torsion
[ 7974 7965 7964 7962 ] final   18.63 input  175.53 | X-H torsion
[ 8008 7997 7996 7995 ] final -149.46 input   59.86 | X-H torsion
[ 10167 10162 10161 10158 ] final -157.88 input  -65.29 | X-H torsion
[ 10718 10713 10712 10709 ] final   41.20 input   66.30 | X-H torsion
[ 10763 10752 10751 10750 ] final  -56.22 input  -60.55 | X-H torsion
[ 11005 11000 10999 10996 ] final -137.19 input  -57.11 | X-H torsion

> <Gold.Protein.ActiveResidues>
 VAL166  LYS551  ARG553  GLY616  TRP617  ASP618  TYR619  PRO620  LYS621  CYS622 
 ASP623  PHE694  ASN695  SER759  ASP760  ASP761  ALA762  ILE779  LEU786  VAL792 
 PHE793  MET794  SER795  GLU796  ALA797  LYS798  CYS799  TRP800  GLU811  SER814 

> <Gold.Protein.RotatedAtoms>
  152.5423  134.0733  159.8203 H   0  0  0  0  0  0  0  0  0  0  0  0  # atno 6907 bound_to 6896
  151.0844  133.5357  159.2626 H   0  0  0  0  0  0  0  0  0  0  0  0  # atno 6908 bound_to 6896
  151.2172  135.0513  159.8989 H   0  0  0  0  0  0  0  0  0  0  0  0  # atno 6909 bound_to 6896
  146.2178  139.8430  142.8637 H   0  0  0  0  0  0  0  0  0  0  0  0  # atno 7974 bound_to 7965
  155.6079  140.0668  157.2714 H   0  0  0  0  0  0  0  0  0  0  0  0  # atno 8008 bound_to 7997
  154.4261  140.1806  156.1289 H   0  0  0  0  0  0  0  0  0  0  0  0  # atno 8009 bound_to 7997
  156.0108  140.3327  155.6942 H   0  0  0  0  0  0  0  0  0  0  0  0  # atno 8010 bound_to 7997
  139.6736  143.9702  152.2298 H   0  0  0  0  0  0  0  0  0  0  0  0  # atno 10167 bound_to 10162
  157.3908  130.7805  149.7268 H   0  0  0  0  0  0  0  0  0  0  0  0  # atno 10718 bound_to 10713
  154.2032  135.6407  153.5093 H   0  0  0  0  0  0  0  0  0  0  0  0  # atno 10763 bound_to 10752
  153.0007  135.5456  154.6293 H   0  0  0  0  0  0  0  0  0  0  0  0  # atno 10764 bound_to 10752
  154.5712  135.2917  155.0799 H   0  0  0  0  0  0  0  0  0  0  0  0  # atno 10765 bound_to 10752
  140.8734  134.2022  157.4636 H   0  0  0  0  0  0  0  0  0  0  0  0  # atno 11005 bound_to 11000
  145.2880  141.0158  143.3679 LP  0  0  0  0  0  0  0  0  0  0  0  0  # atno 17320 bound_to 7965
  144.9099  139.4542  143.6592 LP  0  0  0  0  0  0  0  0  0  0  0  0  # atno 17321 bound_to 7965
  139.9473  144.6643  150.8206 LP  0  0  0  0  0  0  0  0  0  0  0  0  # atno 17342 bound_to 10162
  140.7627  143.3205  151.2634 LP  0  0  0  0  0  0  0  0  0  0  0  0  # atno 17343 bound_to 10162
  155.9798  130.4036  150.3566 LP  0  0  0  0  0  0  0  0  0  0  0  0  # atno 17370 bound_to 10713
  157.1682  131.0362  151.2808 LP  0  0  0  0  0  0  0  0  0  0  0  0  # atno 17371 bound_to 10713
  139.8714  134.9785  156.4999 LP  0  0  0  0  0  0  0  0  0  0  0  0  # atno 17394 bound_to 11000
  140.8546  133.8106  155.9203 LP  0  0  0  0  0  0  0  0  0  0  0  0  # atno 17395 bound_to 11000

$$$$
