AV-unprocessed.smi:49|AV-procd|sdf|481|dock7
  -GOLD-   2262016343D 1   1.00000     0.00000
 Structure written by MMmdl.
 28 29  0  0  0  0  0  0  0  0  2 V2000
  152.1398  145.5675  159.1157 C   0  0  0  0  0  0  0  0  0  0  0  0
  150.6617  145.1638  159.0978 C   0  0  0  0  0  0  0  0  0  0  0  0
  150.4666  143.7116  158.8077 C   0  0  0  0  0  0  0  0  0  0  0  0
  149.7175  143.2864  157.7803 N   0  0  0  0  0  0  0  0  0  0  0  0
  149.7874  141.9514  157.8870 C   0  0  0  0  0  0  0  0  0  0  0  0
  149.0713  141.0509  156.9247 C   0  0  2  0  0  0  0  0  0  0  0  0
  149.9757  140.1185  156.1156 C   0  0  0  0  0  0  0  0  0  0  0  0
  149.2079  139.9831  154.8041 C   0  0  2  0  0  0  0  0  0  0  0  0
  150.0447  139.5941  153.7357 O   0  0  0  0  0  0  0  0  0  0  0  0
  148.6174  141.3827  154.5970 C   0  0  0  0  0  0  0  0  0  0  0  0
  148.4257  141.9519  155.9464 N   0  3  0  0  0  0  0  0  0  0  0  0
  150.5303  141.5512  158.9267 N   0  0  0  0  0  0  0  0  0  0  0  0
  150.9773  142.7121  159.5326 N   0  0  0  0  0  0  0  0  0  0  0  0
  148.2954  140.4813  157.4385 H   0  0  0  0  0  0  0  0  0  0  0  0
  148.4035  139.2554  154.9214 H   0  0  0  0  0  0  0  0  0  0  0  0
  149.2195  143.8400  157.0979 H   0  0  0  0  0  0  0  0  0  0  0  0
  152.2494  146.6309  159.3291 H   0  0  0  0  0  0  0  0  0  0  0  0
  152.6128  145.3707  158.1532 H   0  0  0  0  0  0  0  0  0  0  0  0
  152.6894  145.0158  159.8785 H   0  0  0  0  0  0  0  0  0  0  0  0
  150.1999  145.4015  160.0567 H   0  0  0  0  0  0  0  0  0  0  0  0
  150.1288  145.7447  158.3442 H   0  0  0  0  0  0  0  0  0  0  0  0
  150.9368  140.6005  155.9262 H   0  0  0  0  0  0  0  0  0  0  0  0
  150.1689  139.1680  156.6138 H   0  0  0  0  0  0  0  0  0  0  0  0
  149.5820  139.7283  152.9221 H   0  0  0  0  0  0  0  0  0  0  0  0
  149.3213  142.0236  154.0639 H   0  0  0  0  0  0  0  0  0  0  0  0
  147.6853  141.3634  154.0317 H   0  0  0  0  0  0  0  0  0  0  0  0
  147.4431  142.0434  156.1607 H   0  0  0  0  0  0  0  0  0  0  0  0
  148.8697  142.8590  155.9846 H   0  0  0  0  0  0  0  0  0  0  0  0
  1  2  1  0  0  0  0
  1 17  1  0  0  0  0
  1 18  1  0  0  0  0
  1 19  1  0  0  0  0
  2 20  1  0  0  0  0
  2 21  1  0  0  0  0
  2  3  1  0  0  0  0
  3  4  1  0  0  0  0
  3 13  2  0  0  0  0
  4 16  1  0  0  0  0
  4  5  1  0  0  0  0
  5 12  2  0  0  0  0
  5  6  1  0  0  0  0
  6 14  1  0  0  0  0
  6 11  1  0  0  0  0
  6  7  1  0  0  0  0
  7  8  1  0  0  0  0
  7 22  1  0  0  0  0
  7 23  1  0  0  0  0
  8 15  1  0  0  0  0
  8  9  1  0  0  0  0
  8 10  1  0  0  0  0
  9 24  1  0  0  0  0
 10 11  1  0  0  0  0
 10 25  1  0  0  0  0
 10 26  1  0  0  0  0
 11 27  1  0  0  0  0
 11 28  1  0  0  0  0
 12 13  1  0  0  0  0
M  CHG  1  11   1
M  END
> <s_m_source_file>
AV-unprocessed.smi

> <i_m_source_file_index>
49

> <i_lp_mmshare_version>
43012

> <i_f3d_flags>
0

> <s_epik_input>
W0NIM11bQ0gyXWMxbmMobltuSF0xKVtDQEBIXTJbQ0gyXVtDQEBIXShbT0hdKVtDSDJdW05IXTI=

> <s_epik_cmdline>
J2VwaWtfcHl0aG9uJywgJy1waCcsICc3LjAnLCAnLXRuJywgJzgnLCAnLW1hJywgJzIwMCcsICctbWV0YWxfYmluZGluZycsICctaW1hZScsICc8aW5maWxlLm1hZT4nLCAnLW9tYWUnLCAnPG91dGZpbGUubWFlPic=

> <r_lp_tautomer_probability>
0.0517155

> <r_epik_Ionization_Penalty>
0.939819

> <r_epik_Ionization_Penalty_Charging>
0.0688988

> <r_epik_Ionization_Penalty_Neutral>
0.87092

> <r_epik_State_Penalty>
2.1224

> <r_epik_Charging_Adjusted_Penalty>
2.1913

> <i_epik_Tot_Q>
1

> <i_epik_Tot_abs_Q>
1

> <r_epik_Metal_State_Penalty>
2.39725

> <b_epik_Metal_Only>
0

> <s_lp_Force_Field>
OPLS_2005

> <r_lp_Energy>
21.0752

> <b_lp_Chiralities_Consistent>
1

> <s_lp_Variant>
AV-unprocessed.smi:49-19

> <Gold.Version>
5.8.1

> <Gold.Id.Protein>
6NUR|6NUR_protein|mol2

> <Gold.PLP.Fitness>
38.9349

> <Gold.PLP.PLP>
-24.4980

> <Gold.PLP.part.hbond>
-5.4431

> <Gold.PLP.part.metal>
0.0000

> <Gold.PLP.part.buried>
-3.7563

> <Gold.PLP.part.nonpolar>
-15.0175

> <Gold.PLP.part.repulsive>
0.1079

> <Gold.PLP.ligand.clash>
0.0000

> <Gold.PLP.ligand.torsion>
0.0121

> <Gold.PLP.Chemscore.Hbond>
4.8160

> <Gold.PLP.Chemscore.CHOScore>
0.0000

> <Gold.PLP.Chemscore.Metal>
0.0000

> <Gold.Chemscore.Hbonds>
donor molecule, donor type, donor heavy atom, donor atom, acceptor molecule, acceptor atom, score
      L1  H     4    16       P1  8028  1.00
      L1  H     9    24       P1  7957  0.99
      L1  H    11    28       P1  8028  2.00
      P1  H  7989  7998       L1     9  0.87

> <Gold.PLP.Chemscore.Internal.Correction>
0.0131

> <Gold.Rescore>
     Score         DG    S(hbond)    S(metal)    S(lipo)     H(rot)  DE(clash)    DE(int)     intcor
     16.78     -16.99       3.23        0.00      47.65       1.89       0.07       0.14       ----

> <Gold.Chemscore.Fitness>
16.7778

> <Gold.Chemscore.DG>
-16.9928

> <Gold.Chemscore.ZeroCoef>
-5.4800

> <Gold.Chemscore.Hbond>
3.2251

> <Gold.Chemscore.Metal>
0.0000

> <Gold.Chemscore.Lipo>
47.6496

> <Gold.Chemscore.Internal_Hbond>
0.0000

> <Gold.Chemscore.DEClash>
0.0708

> <Gold.Chemscore.DEInternal>
0.1443

> <Gold.Chemscore.Rot>
1.8883

> <Gold.Chemscore.Internal.Correction>
   9.000000E+99

> <Gold.Chemscore.Hbonds>
donor molecule, donor type, donor heavy atom, donor atom, acceptor molecule, acceptor atom, score
      L1  H     4    16       P1  8028  0.45
      L1  H     9    24       P1  7957  0.93
      L1  H    11    28       P1  8028  0.95
      P1  H  7989  7998       L1     9  0.17

> <Gold.Chemscore.Hbond.Weighted>
-10.7718

> <Gold.Chemscore.Metal.Weighted>
-0.0000

> <Gold.Chemscore.Lipo.Weighted>
-5.5750

> <Gold.Chemscore.Internal_Hbond.Weighted>
0.0000

> <Gold.Chemscore.DEClash.Weighted>
0.0708

> <Gold.Chemscore.DEInternal.Weighted>
0.1443

> <Gold.Chemscore.Rot.Weighted>
4.8340

> <Gold.Chemscore.Internal.Correction.Weighted>
   9.000000E+99

> <Gold.Protein.RotatedTorsions>
[ 6907 6896 6895 6894 ] final -147.88 input  -60.11 | X-H torsion
[ 7974 7965 7964 7962 ] final  -73.62 input  175.53 | X-H torsion
[ 8008 7997 7996 7995 ] final   50.24 input   59.86 | X-H torsion
[ 10167 10162 10161 10158 ] final -136.49 input  -65.29 | X-H torsion
[ 10718 10713 10712 10709 ] final   57.12 input   66.30 | X-H torsion
[ 10763 10752 10751 10750 ] final   61.73 input  -60.55 | X-H torsion
[ 11005 11000 10999 10996 ] final  126.76 input  -57.11 | X-H torsion

> <Gold.Protein.ActiveResidues>
 VAL166  LYS551  ARG553  GLY616  TRP617  ASP618  TYR619  PRO620  LYS621  CYS622 
 ASP623  PHE694  ASN695  SER759  ASP760  ASP761  ALA762  ILE779  LEU786  VAL792 
 PHE793  MET794  SER795  GLU796  ALA797  LYS798  CYS799  TRP800  GLU811  SER814 

> <Gold.Protein.RotatedAtoms>
  151.1619  133.4839  159.2594 H   0  0  0  0  0  0  0  0  0  0  0  0  # atno 6907 bound_to 6896
  151.1445  135.0196  159.8651 H   0  0  0  0  0  0  0  0  0  0  0  0  # atno 6908 bound_to 6896
  152.5463  134.1509  159.8571 H   0  0  0  0  0  0  0  0  0  0  0  0  # atno 6909 bound_to 6896
  145.6498  140.9286  143.0991 H   0  0  0  0  0  0  0  0  0  0  0  0  # atno 7974 bound_to 7965
  155.4155  140.3444  155.4267 H   0  0  0  0  0  0  0  0  0  0  0  0  # atno 8008 bound_to 7997
  156.1424  140.1546  156.8932 H   0  0  0  0  0  0  0  0  0  0  0  0  # atno 8009 bound_to 7997
  154.4982  140.0822  156.7722 H   0  0  0  0  0  0  0  0  0  0  0  0  # atno 8010 bound_to 7997
  139.8672  143.7002  152.2644 H   0  0  0  0  0  0  0  0  0  0  0  0  # atno 10167 bound_to 10162
  157.5488  130.8750  149.8932 H   0  0  0  0  0  0  0  0  0  0  0  0  # atno 10718 bound_to 10713
  152.9960  135.5490  154.6080 H   0  0  0  0  0  0  0  0  0  0  0  0  # atno 10763 bound_to 10752
  154.5407  135.2819  155.1100 H   0  0  0  0  0  0  0  0  0  0  0  0  # atno 10764 bound_to 10752
  154.2379  135.6422  153.5250 H   0  0  0  0  0  0  0  0  0  0  0  0  # atno 10765 bound_to 10752
  139.9472  134.9628  156.8754 H   0  0  0  0  0  0  0  0  0  0  0  0  # atno 11005 bound_to 11000
  144.7127  139.8312  143.7409 LP  0  0  0  0  0  0  0  0  0  0  0  0  # atno 17320 bound_to 7965
  146.1213  139.4231  143.0226 LP  0  0  0  0  0  0  0  0  0  0  0  0  # atno 17321 bound_to 7965
  139.7318  144.7580  151.0790 LP  0  0  0  0  0  0  0  0  0  0  0  0  # atno 17342 bound_to 10162
  140.7766  143.5079  150.9689 LP  0  0  0  0  0  0  0  0  0  0  0  0  # atno 17343 bound_to 10162
  156.0559  130.3708  150.1093 LP  0  0  0  0  0  0  0  0  0  0  0  0  # atno 17370 bound_to 10713
  156.9268  130.9701  151.3539 LP  0  0  0  0  0  0  0  0  0  0  0  0  # atno 17371 bound_to 10713
  140.5805  134.0356  155.7462 LP  0  0  0  0  0  0  0  0  0  0  0  0  # atno 17394 bound_to 11000
  141.1126  133.9592  157.2882 LP  0  0  0  0  0  0  0  0  0  0  0  0  # atno 17395 bound_to 11000

$$$$
