#       Name:                AV-unprocessed.smi:2181
#       Creating user name   scv26
#       Creation time:       Fri Mar 27 12:05:49 2020


#       File generated by GOLD software.
#

@<TRIPOS>MOLECULE
AV-unprocessed.smi:2181
    45    46     1
SMALL
NO_CHARGES


@<TRIPOS>ATOM
      1 ****        -1.3402   1.5973   2.8602 C.3            1 S1                 0.0000
      2 ****        -2.3664   0.6475   2.3112 C.2            1 S1                 0.0000
      3 ****        -3.5907   1.0869   2.0735 N.2            1 S1                 0.0000
      4 ****        -4.2982  -0.0053   1.5624 O.3            1 S1                 0.0000
      5 ****        -3.4615  -1.0725   1.5106 C.2            1 S1                 0.0000
      6 ****        -4.0291  -2.3445   0.9778 C.3            1 S1                 0.0000
      7 ****        -2.2202  -0.7293   1.9712 C.2            1 S1                 0.0000
      8 ****        -0.9909  -1.5949   2.0817 C.3            1 S1                 0.0000
      9 ****        -0.1692  -1.4864   0.7980 C.2            1 S1                 0.0000
     10 ****        -0.1818  -2.4036  -0.0222 O.2            1 S1                 0.0000
     11 ****         0.5342  -0.3547   0.6360 N.am           1 S1                 0.0000
     12 ****         1.3835  -0.0260  -0.5084 C.3            1 S1                 0.0000
     13 ****         0.5238   0.5387  -1.6618 C.3            1 S1                 0.0000
     14 ****         1.1766   0.4103  -3.0477 C.3            1 S1                 0.0000
     15 ****         2.4874   1.1923  -3.2195 C.3            1 S1                 0.0000
     16 ****         3.6322   0.6841  -2.3262 C.3            1 S1                 0.0000
     17 ****         3.5238   1.1597  -0.9526 N.am           1 S1                 0.0000
     18 ****         2.5416   0.8941  -0.0779 C.2            1 S1                 0.0000
     19 ****         2.5604   1.3858   1.0505 O.2            1 S1                 0.0000
     20 ****        -0.9134   2.2095   2.0656 H              1 S1                 0.0000
     21 ****        -0.5213   1.0652   3.3437 H              1 S1                 0.0000
     22 ****        -1.7761   2.2685   3.6007 H              1 S1                 0.0000
     23 ****        -3.7238  -2.4968  -0.0575 H              1 S1                 0.0000
     24 ****        -5.1186  -2.3336   1.0122 H              1 S1                 0.0000
     25 ****        -3.6827  -3.1978   1.5607 H              1 S1                 0.0000
     26 ****        -0.3692  -1.3060   2.9296 H              1 S1                 0.0000
     27 ****        -1.2552  -2.6401   2.2474 H              1 S1                 0.0000
     28 ****         0.4855   0.3386   1.3686 H              1 S1                 0.0000
     29 ****         1.8404  -0.9600  -0.8411 H              1 S1                 0.0000
     30 ****        -0.4275   0.0065  -1.7029 H              1 S1                 0.0000
     31 ****         0.2676   1.5805  -1.4631 H              1 S1                 0.0000
     32 ****         1.3497  -0.6432  -3.2710 H              1 S1                 0.0000
     33 ****         0.4655   0.7584  -3.7975 H              1 S1                 0.0000
     34 ****         2.7993   1.0989  -4.2602 H              1 S1                 0.0000
     35 ****         2.3197   2.2573  -3.0532 H              1 S1                 0.0000
     36 ****         3.6976  -0.4047  -2.3488 H              1 S1                 0.0000
     37 ****         4.5800   1.0551  -2.7166 H              1 S1                 0.0000
     38 ****         4.2675   1.7638  -0.6333 H              1 S1                 0.0000
     39 ****        -3.9393   2.0114   2.2278 LP             1 S1                 0.0000
     40 ****        -4.6307   0.2079   0.6437 LP             1 S1                 0.0000
     41 ****        -5.0742  -0.2133   2.1578 LP             1 S1                 0.0000
     42 ****        -0.7304  -3.2216   0.1508 LP             1 S1                 0.0000
     43 ****         0.3565  -2.3310  -0.8618 LP             1 S1                 0.0000
     44 ****         1.8209   1.1888   1.6941 LP             1 S1                 0.0000
     45 ****         3.3152   1.9823   1.3235 LP             1 S1                 0.0000
@<TRIPOS>BOND
    1    1    2 1     
    2    1   20 1     
    3    1   21 1     
    4    1   22 1     
    5    2    7 1     
    6    2    3 2     
    7    3    4 1     
    8    4    5 1     
    9    5    6 1     
   10    5    7 2     
   11    6   23 1     
   12    6   24 1     
   13    6   25 1     
   14    7    8 1     
   15    8    9 1     
   16    8   26 1     
   17    8   27 1     
   18    9   10 2     
   19    9   11 am    
   20   11   12 1     
   21   11   28 1     
   22   12   18 1     
   23   12   13 1     
   24   12   29 1     
   25   13   14 1     
   26   13   30 1     
   27   13   31 1     
   28   14   15 1     
   29   14   32 1     
   30   14   33 1     
   31   15   16 1     
   32   15   34 1     
   33   15   35 1     
   34   16   17 1     
   35   16   36 1     
   36   16   37 1     
   37   17   18 am    
   38   17   38 1     
   39   18   19 2     
   40    3   39 1     
   41    4   40 1     
   42    4   41 1     
   43   10   42 1     
   44   10   43 1     
   45   19   44 1     
   46   19   45 1     
@<TRIPOS>SUBSTRUCTURE
      1 S1             1
@<TRIPOS>SET
LONE_PAIRS      STATIC     ATOMS    <user>   **** ""
7 39 40 41 42 43 44 45
DONOR_HYDROGENS      STATIC     ATOMS    <user>   **** ""
2 28 38
ATOM$BLUE        STATIC     ATOMS    COLORGROUP SYSTEM
7 39 40 41 42 43 44 45
ATOM$RED        STATIC     ATOMS    COLORGROUP SYSTEM
2 28 38
