AV-unprocessed.smi:2547|AV-procd|sdf|10003|dock7
  -GOLD-   2272014 53D 1   1.00000     0.00000
 Structure written by MMmdl.
 45 46  0  0  0  0  0  0  0  0  3 V2000
  143.6830  132.4442  148.9262 C   0  0  0  0  0  0  0  0  0  0  0  0
  144.5991  133.3871  149.6029 N   0  3  2  0  0  0  0  0  0  0  0  0
  145.2515  132.7854  150.7923 C   0  0  0  0  0  0  0  0  0  0  0  0
  146.2893  133.7449  151.3993 C   0  0  0  0  0  0  0  0  0  0  0  0
  145.6529  135.0990  151.7535 C   0  0  1  0  0  0  0  0  0  0  0  0
  146.6760  136.0145  152.2510 N   0  0  0  0  0  0  0  0  0  0  0  0
  146.4499  137.2688  152.6681 C   0  0  0  0  0  0  0  0  0  0  0  0
  145.3360  137.7924  152.6695 O   0  0  0  0  0  0  0  0  0  0  0  0
  147.5891  137.8686  153.0549 N   0  0  0  0  0  0  0  0  0  0  0  0
  147.7572  139.1873  153.5543 C   0  0  0  0  0  0  0  0  0  0  0  0
  146.8065  140.2239  153.3968 C   0  0  0  0  0  0  0  0  0  0  0  0
  147.0699  141.4918  153.9497 C   0  0  0  0  0  0  0  0  0  0  0  0
  148.2696  141.7057  154.6563 C   0  0  0  0  0  0  0  0  0  0  0  0
  149.1925  140.6425  154.8080 C   0  0  0  0  0  0  0  0  0  0  0  0
  150.4134  140.7730  155.5047 N   0  0  0  0  0  0  0  0  0  0  0  0
  151.4056  139.7081  155.4339 C   0  0  0  0  0  0  0  0  0  0  0  0
  150.7086  142.0077  156.2231 C   0  0  0  0  0  0  0  0  0  0  0  0
  148.8851  139.4426  154.2550 N   0  3  0  0  0  0  0  0  0  0  0  0
  144.9526  135.6807  150.5110 C   0  0  0  0  0  0  0  0  0  0  0  0
  143.9439  134.6799  149.9228 C   0  0  0  0  0  0  0  0  0  0  0  0
  142.8555  132.1651  149.5797 H   0  0  0  0  0  0  0  0  0  0  0  0
  144.2118  131.5356  148.6362 H   0  0  0  0  0  0  0  0  0  0  0  0
  143.2696  132.8906  148.0212 H   0  0  0  0  0  0  0  0  0  0  0  0
  144.4945  132.5318  151.5363 H   0  0  0  0  0  0  0  0  0  0  0  0
  145.7410  131.8530  150.5083 H   0  0  0  0  0  0  0  0  0  0  0  0
  146.7304  133.2942  152.2892 H   0  0  0  0  0  0  0  0  0  0  0  0
  147.1053  133.8912  150.6897 H   0  0  0  0  0  0  0  0  0  0  0  0
  144.9099  134.9326  152.5363 H   0  0  0  0  0  0  0  0  0  0  0  0
  147.6234  135.6663  152.2809 H   0  0  0  0  0  0  0  0  0  0  0  0
  148.4396  137.3434  152.9136 H   0  0  0  0  0  0  0  0  0  0  0  0
  145.8758  140.0667  152.8726 H   0  0  0  0  0  0  0  0  0  0  0  0
  146.3548  142.2932  153.8361 H   0  0  0  0  0  0  0  0  0  0  0  0
  148.4591  142.6834  155.0737 H   0  0  0  0  0  0  0  0  0  0  0  0
  151.7017  139.5283  154.4000 H   0  0  0  0  0  0  0  0  0  0  0  0
  151.0055  138.7825  155.8488 H   0  0  0  0  0  0  0  0  0  0  0  0
  152.3028  139.9639  155.9977 H   0  0  0  0  0  0  0  0  0  0  0  0
  149.9539  142.1976  156.9870 H   0  0  0  0  0  0  0  0  0  0  0  0
  150.7293  142.8549  155.5370 H   0  0  0  0  0  0  0  0  0  0  0  0
  151.6780  141.9565  156.7194 H   0  0  0  0  0  0  0  0  0  0  0  0
  144.4396  136.6091  150.7653 H   0  0  0  0  0  0  0  0  0  0  0  0
  145.6942  135.9359  149.7522 H   0  0  0  0  0  0  0  0  0  0  0  0
  143.5017  135.0996  149.0185 H   0  0  0  0  0  0  0  0  0  0  0  0
  143.1276  134.5118  150.6272 H   0  0  0  0  0  0  0  0  0  0  0  0
  145.3354  133.5933  148.9427 H   0  0  0  0  0  0  0  0  0  0  0  0
  149.5558  138.6830  154.3704 H   0  0  0  0  0  0  0  0  0  0  0  0
  1  2  1  0  0  0  0
  1 21  1  0  0  0  0
  1 22  1  0  0  0  0
  1 23  1  0  0  0  0
  2 20  1  0  0  0  0
  2  3  1  0  0  0  0
  2 44  1  0  0  0  0
  3  4  1  0  0  0  0
  3 24  1  0  0  0  0
  3 25  1  0  0  0  0
  4  5  1  0  0  0  0
  4 26  1  0  0  0  0
  4 27  1  0  0  0  0
  5  6  1  0  0  0  0
  5 19  1  0  0  0  0
  5 28  1  0  0  0  0
  6  7  1  0  0  0  0
  6 29  1  0  0  0  0
  7  8  2  0  0  0  0
  7  9  1  0  0  0  0
  9 10  1  0  0  0  0
  9 30  1  0  0  0  0
 10 18  1  0  0  0  0
 10 11  2  0  0  0  0
 11 12  1  0  0  0  0
 11 31  1  0  0  0  0
 12 13  2  0  0  0  0
 12 32  1  0  0  0  0
 13 14  1  0  0  0  0
 13 33  1  0  0  0  0
 14 15  1  0  0  0  0
 14 18  2  0  0  0  0
 15 16  1  0  0  0  0
 15 17  1  0  0  0  0
 16 34  1  0  0  0  0
 16 35  1  0  0  0  0
 16 36  1  0  0  0  0
 17 37  1  0  0  0  0
 17 38  1  0  0  0  0
 17 39  1  0  0  0  0
 18 45  1  0  0  0  0
 19 20  1  0  0  0  0
 19 40  1  0  0  0  0
 19 41  1  0  0  0  0
 20 42  1  0  0  0  0
 20 43  1  0  0  0  0
M  CHG  1   2   1
M  CHG  1  18   1
M  END
> <s_m_source_file>
AV-unprocessed.smi

> <i_m_source_file_index>
2547

> <i_lp_mmshare_version>
43012

> <i_f3d_flags>
0

> <s_epik_input>
W0NIM11OMVtDSDJdW0NIMl1bQ0hdKFtDSDJdW0NIMl0xKVtOSF1DKD1PKVtOSF1jMltjSF1bY0hdW2NIXWMobjIpTihbQ0gzXSlbQ0gzXQ==

> <s_epik_cmdline>
J2VwaWtfcHl0aG9uJywgJy1waCcsICc3LjAnLCAnLXRuJywgJzgnLCAnLW1hJywgJzIwMCcsICctbWV0YWxfYmluZGluZycsICctaW1hZScsICc8aW5maWxlLm1hZT4nLCAnLW9tYWUnLCAnPG91dGZpbGUubWFlPic=

> <r_lp_tautomer_probability>
0.999994

> <r_epik_Ionization_Penalty>
2.17028

> <r_epik_Ionization_Penalty_Charging>
2.10368

> <r_epik_Ionization_Penalty_Neutral>
0.0666017

> <r_epik_State_Penalty>
2.2357

> <r_epik_Charging_Adjusted_Penalty>
4.33938

> <i_epik_Tot_Q>
2

> <i_epik_Tot_abs_Q>
2

> <r_epik_Metal_State_Penalty>
2.25749

> <b_epik_Metal_Only>
0

> <s_lp_Force_Field>
OPLS_2005

> <r_lp_Energy>
26.2357

> <b_lp_Chiralities_Consistent>
1

> <s_lp_Variant>
AV-unprocessed.smi:2547-3

> <Gold.Version>
5.8.1

> <Gold.Id.Protein>
6NUR|6NUR_protein|mol2

> <Gold.PLP.Fitness>
41.9518

> <Gold.PLP.PLP>
-35.0738

> <Gold.PLP.part.hbond>
-2.2463

> <Gold.PLP.part.metal>
0.0000

> <Gold.PLP.part.buried>
2.8997

> <Gold.PLP.part.nonpolar>
-36.8565

> <Gold.PLP.part.repulsive>
0.5085

> <Gold.PLP.ligand.clash>
0.0000

> <Gold.PLP.ligand.torsion>
0.1112

> <Gold.PLP.Chemscore.Hbond>
2.3652

> <Gold.PLP.Chemscore.CHOScore>
0.0000

> <Gold.PLP.Chemscore.Metal>
0.0000

> <Gold.Chemscore.Hbonds>
donor molecule, donor type, donor heavy atom, donor atom, acceptor molecule, acceptor atom, score
      L1  H     2    44       P1  7921  1.00
      L1  H     6    29       P1  7948  0.60
      L1  H     9    30       P1  7948  0.72

> <Gold.PLP.Chemscore.Internal.Correction>
0.0049

> <Gold.Rescore>
     Score         DG    S(hbond)    S(metal)    S(lipo)     H(rot)  DE(clash)    DE(int)     intcor
     15.46     -19.06       2.00        0.00      80.92       1.00       1.66       1.94       ----

> <Gold.Chemscore.Fitness>
15.4576

> <Gold.Chemscore.DG>
-19.0560

> <Gold.Chemscore.ZeroCoef>
-5.4800

> <Gold.Chemscore.Hbond>
1.9967

> <Gold.Chemscore.Metal>
0.0000

> <Gold.Chemscore.Lipo>
80.9154

> <Gold.Chemscore.Internal_Hbond>
0.0000

> <Gold.Chemscore.DEClash>
1.6565

> <Gold.Chemscore.DEInternal>
1.9418

> <Gold.Chemscore.Rot>
1.0000

> <Gold.Chemscore.Internal.Correction>
   9.000000E+99

> <Gold.Chemscore.Hbonds>
donor molecule, donor type, donor heavy atom, donor atom, acceptor molecule, acceptor atom, score
      L1  H     2    44       P1  7921  0.52
      L1  H     6    29       P1  7948  0.58
      L1  H     9    30       P1  7948  0.71

> <Gold.Chemscore.Hbond.Weighted>
-6.6689

> <Gold.Chemscore.Metal.Weighted>
-0.0000

> <Gold.Chemscore.Lipo.Weighted>
-9.4671

> <Gold.Chemscore.Internal_Hbond.Weighted>
0.0000

> <Gold.Chemscore.DEClash.Weighted>
1.6565

> <Gold.Chemscore.DEInternal.Weighted>
1.9418

> <Gold.Chemscore.Rot.Weighted>
2.5600

> <Gold.Chemscore.Internal.Correction.Weighted>
   9.000000E+99

> <Gold.Protein.RotatedTorsions>
[ 6907 6896 6895 6894 ] final   51.72 input  -60.11 | X-H torsion
[ 7974 7965 7964 7962 ] final -144.67 input  175.53 | X-H torsion
[ 8008 7997 7996 7995 ] final  -32.23 input   59.86 | X-H torsion
[ 10167 10162 10161 10158 ] final  -65.09 input  -65.29 | X-H torsion
[ 10718 10713 10712 10709 ] final -158.42 input   66.30 | X-H torsion
[ 10763 10752 10751 10750 ] final  -19.66 input  -60.55 | X-H torsion
[ 11005 11000 10999 10996 ] final   99.56 input  -57.11 | X-H torsion

> <Gold.Protein.ActiveResidues>
 VAL166  LYS551  ARG553  GLY616  TRP617  ASP618  TYR619  PRO620  LYS621  CYS622 
 ASP623  PHE694  ASN695  SER759  ASP760  ASP761  ALA762  ILE779  LEU786  VAL792 
 PHE793  MET794  SER795  GLU796  ALA797  LYS798  CYS799  TRP800  GLU811  SER814 

> <Gold.Protein.RotatedAtoms>
  152.3157  134.7442  160.0325 H   0  0  0  0  0  0  0  0  0  0  0  0  # atno 6907 bound_to 6896
  151.7908  133.3354  159.3506 H   0  0  0  0  0  0  0  0  0  0  0  0  # atno 6908 bound_to 6896
  150.7343  134.5775  159.5966 H   0  0  0  0  0  0  0  0  0  0  0  0  # atno 6909 bound_to 6896
  144.8281  140.5681  143.5533 H   0  0  0  0  0  0  0  0  0  0  0  0  # atno 7974 bound_to 7965
  154.4187  140.1743  156.1694 H   0  0  0  0  0  0  0  0  0  0  0  0  # atno 8008 bound_to 7997
  155.9773  140.3380  155.6606 H   0  0  0  0  0  0  0  0  0  0  0  0  # atno 8009 bound_to 7997
  155.6547  140.0694  157.2565 H   0  0  0  0  0  0  0  0  0  0  0  0  # atno 8010 bound_to 7997
  140.5754  143.2321  151.6452 H   0  0  0  0  0  0  0  0  0  0  0  0  # atno 10167 bound_to 10162
  156.5539  130.8617  151.2788 H   0  0  0  0  0  0  0  0  0  0  0  0  # atno 10718 bound_to 10713
  153.6083  135.6997  153.5357 H   0  0  0  0  0  0  0  0  0  0  0  0  # atno 10763 bound_to 10752
  153.3038  135.4121  155.1276 H   0  0  0  0  0  0  0  0  0  0  0  0  # atno 10764 bound_to 10752
  154.8568  135.3655  154.5621 H   0  0  0  0  0  0  0  0  0  0  0  0  # atno 10765 bound_to 10752
  139.8771  134.9101  156.4624 H   0  0  0  0  0  0  0  0  0  0  0  0  # atno 11005 bound_to 11000
  145.4955  139.1486  143.3686 LP  0  0  0  0  0  0  0  0  0  0  0  0  # atno 17320 bound_to 7965
  146.2586  140.5094  142.8863 LP  0  0  0  0  0  0  0  0  0  0  0  0  # atno 17321 bound_to 7965
  139.5140  144.3425  152.0727 LP  0  0  0  0  0  0  0  0  0  0  0  0  # atno 17342 bound_to 10162
  140.2568  144.4110  150.6201 LP  0  0  0  0  0  0  0  0  0  0  0  0  # atno 17343 bound_to 10162
  157.7382  130.9809  150.2238 LP  0  0  0  0  0  0  0  0  0  0  0  0  # atno 17370 bound_to 10713
  156.2860  130.3739  149.7888 LP  0  0  0  0  0  0  0  0  0  0  0  0  # atno 17371 bound_to 10713
  140.8855  133.7887  155.9513 LP  0  0  0  0  0  0  0  0  0  0  0  0  # atno 17394 bound_to 11000
  140.8809  134.2612  157.5144 LP  0  0  0  0  0  0  0  0  0  0  0  0  # atno 17395 bound_to 11000

$$$$
