#       Name:                AV-unprocessed.smi:1239
#       Creating user name   scv26
#       Creation time:       Fri Mar 27 04:27:05 2020


#       File generated by GOLD software.
#

@<TRIPOS>MOLECULE
AV-unprocessed.smi:1239
    53    54     1
SMALL
NO_CHARGES


@<TRIPOS>ATOM
      1 ****        -3.2911   1.8095   0.5211 C.3            1 S1                 0.0000
      2 ****        -3.4427   1.0924  -0.8398 C.3            1 S1                 0.0000
      3 ****        -2.8284  -0.3239  -0.7063 C.3            1 S1                 0.0000
      4 ****        -1.3764  -0.2712  -0.5497 N.am           1 S1                 0.0000
      5 ****        -0.6629  -0.9696   0.3443 C.2            1 S1                 0.0000
      6 ****        -1.1615  -1.7588   1.1463 O.2            1 S1                 0.0000
      7 ****         0.6459  -0.6758   0.2558 N.am           1 S1                 0.0000
      8 ****         1.7261  -1.2060   1.0131 C.ar           1 S1                 0.0000
      9 ****         2.9331  -0.4821   1.0414 C.ar           1 S1                 0.0000
     10 ****         4.0263  -0.9886   1.7696 C.ar           1 S1                 0.0000
     11 ****         3.8905  -2.2223   2.4531 C.ar           1 S1                 0.0000
     12 ****         4.9556  -2.7727   3.2024 N.pl3          1 S1                 0.0000
     13 ****         4.7679  -4.0333   3.9136 C.3            1 S1                 0.0000
     14 ****         6.2339  -2.0773   3.2815 C.3            1 S1                 0.0000
     15 ****         2.7320  -2.9245   2.4105 N.ar           1 S1                 0.0000
     16 ****         1.6860  -2.4354   1.7119 C.ar           1 S1                 0.0000
     17 ****        -2.9199   1.8749  -1.9817 N.3            1 S1                 0.0000
     18 ****        -3.1072   1.1909  -3.2650 C.3            1 S1                 0.0000
     19 ****        -2.5853   2.0134  -4.4560 C.3            1 S1                 0.0000
     20 ****        -3.2243   3.2828  -4.4780 O.3            1 S1                 0.0000
     21 ****        -3.0107   4.0122  -3.2769 C.3            1 S1                 0.0000
     22 ****        -3.5355   3.2019  -2.0791 C.3            1 S1                 0.0000
     23 ****        -3.5795   1.1570   1.3457 H              1 S1                 0.0000
     24 ****        -3.9289   2.6897   0.5945 H              1 S1                 0.0000
     25 ****        -2.2614   2.1234   0.6960 H              1 S1                 0.0000
     26 ****        -4.5129   0.9479  -0.9964 H              1 S1                 0.0000
     27 ****        -3.2930  -0.8329   0.1398 H              1 S1                 0.0000
     28 ****        -3.0667  -0.9479  -1.5667 H              1 S1                 0.0000
     29 ****        -0.8824   0.3612  -1.1623 H              1 S1                 0.0000
     30 ****         0.8932   0.0519  -0.3987 H              1 S1                 0.0000
     31 ****         3.0240   0.4566   0.5145 H              1 S1                 0.0000
     32 ****         4.9441  -0.4208   1.7891 H              1 S1                 0.0000
     33 ****         4.5291  -4.8354   3.2145 H              1 S1                 0.0000
     34 ****         3.9546  -3.9487   4.6350 H              1 S1                 0.0000
     35 ****         5.6670  -4.3221   4.4578 H              1 S1                 0.0000
     36 ****         6.1077  -1.0941   3.7354 H              1 S1                 0.0000
     37 ****         6.6641  -1.9514   2.2876 H              1 S1                 0.0000
     38 ****         6.9514  -2.6328   3.8854 H              1 S1                 0.0000
     39 ****         0.8135  -3.0692   1.7091 H              1 S1                 0.0000
     40 ****        -2.5802   0.2383  -3.2721 H              1 S1                 0.0000
     41 ****        -4.1649   0.9687  -3.4151 H              1 S1                 0.0000
     42 ****        -1.5038   2.1425  -4.3922 H              1 S1                 0.0000
     43 ****        -2.7910   1.4954  -5.3927 H              1 S1                 0.0000
     44 ****        -1.9487   4.2325  -3.1586 H              1 S1                 0.0000
     45 ****        -3.5304   4.9681  -3.3441 H              1 S1                 0.0000
     46 ****        -4.6191   3.1023  -2.1576 H              1 S1                 0.0000
     47 ****        -3.3367   3.7825  -1.1796 H              1 S1                 0.0000
     48 ****        -2.1505  -1.9064   1.1534 LP             1 S1                 0.0000
     49 ****        -0.5776  -2.2524   1.7908 LP             1 S1                 0.0000
     50 ****         2.6530  -3.7971   2.8924 LP             1 S1                 0.0000
     51 ****        -1.9420   1.9728  -1.7972 LP             1 S1                 0.0000
     52 ****        -4.2072   3.1465  -4.6015 LP             1 S1                 0.0000
     53 ****        -2.8622   3.8124  -5.2451 LP             1 S1                 0.0000
@<TRIPOS>BOND
    1    1    2 1     
    2    1   23 1     
    3    1   24 1     
    4    1   25 1     
    5    2    3 1     
    6    2   17 1     
    7    2   26 1     
    8    3    4 1     
    9    3   27 1     
   10    3   28 1     
   11    4    5 am    
   12    4   29 1     
   13    5    6 2     
   14    5    7 am    
   15    7    8 1     
   16    7   30 1     
   17    8   16 ar    
   18    8    9 ar    
   19    9   10 ar    
   20    9   31 1     
   21   10   11 ar    
   22   10   32 1     
   23   11   12 1     
   24   11   15 ar    
   25   12   13 1     
   26   12   14 1     
   27   13   33 1     
   28   13   34 1     
   29   13   35 1     
   30   14   36 1     
   31   14   37 1     
   32   14   38 1     
   33   15   16 ar    
   34   16   39 1     
   35   17   22 1     
   36   17   18 1     
   37   18   19 1     
   38   18   40 1     
   39   18   41 1     
   40   19   20 1     
   41   19   42 1     
   42   19   43 1     
   43   20   21 1     
   44   21   22 1     
   45   21   44 1     
   46   21   45 1     
   47   22   46 1     
   48   22   47 1     
   49    6   48 1     
   50    6   49 1     
   51   15   50 1     
   52   17   51 1     
   53   20   52 1     
   54   20   53 1     
@<TRIPOS>SUBSTRUCTURE
      1 S1             1
@<TRIPOS>SET
LONE_PAIRS      STATIC     ATOMS    <user>   **** ""
6 48 49 50 51 52 53
DONOR_HYDROGENS      STATIC     ATOMS    <user>   **** ""
2 29 30
ATOM$BLUE        STATIC     ATOMS    COLORGROUP SYSTEM
6 48 49 50 51 52 53
ATOM$RED        STATIC     ATOMS    COLORGROUP SYSTEM
2 29 30
