AV-unprocessed.smi:1403|AV-procd|sdf|5697|dock4
  -GOLD-   22720 5323D 1   1.00000     0.00000
 Structure written by MMmdl.
 36 37  0  0  0  0  0  0  0  0  1 V2000
  154.4398  141.3964  160.2234 C   0  0  0  0  0  0  0  0  0  0  0  0
  152.9643  141.1359  159.8757 C   0  0  2  0  0  0  0  0  0  0  0  0
  152.8501  140.8040  158.4580 N   0  0  0  0  0  0  0  0  0  0  0  0
  151.9316  139.9875  157.9195 C   0  0  0  0  0  0  0  0  0  0  0  0
  151.0860  139.3881  158.5848 O   0  0  0  0  0  0  0  0  0  0  0  0
  151.9992  139.8016  156.3977 C   0  0  0  0  0  0  0  0  0  0  0  0
  150.7795  140.2611  155.7182 N   0  0  0  0  0  0  0  0  0  0  0  0
  150.0479  139.3908  154.9226 C   0  0  0  0  0  0  0  0  0  0  0  0
  148.9107  139.7464  154.2790 C   0  0  0  0  0  0  0  0  0  0  0  0
  148.3884  141.1036  154.3974 C   0  0  0  0  0  0  0  0  0  0  0  0
  147.3695  141.5216  153.8521 O   0  0  0  0  0  0  0  0  0  0  0  0
  149.1511  141.9484  155.2081 N   0  0  0  0  0  0  0  0  0  0  0  0
  150.3223  141.5877  155.8759 C   0  0  0  0  0  0  0  0  0  0  0  0
  150.9164  142.4112  156.5708 O   0  0  0  0  0  0  0  0  0  0  0  0
  152.0629  142.3470  160.1852 C   0  0  2  0  0  0  0  0  0  0  0  0
  152.4935  143.6514  159.5092 C   0  0  0  0  0  0  0  0  0  0  0  0
  151.9381  144.6914  160.4542 C   0  0  0  0  0  0  0  0  0  0  0  0
  152.1939  144.0378  161.8068 C   0  0  0  0  0  0  0  0  0  0  0  0
  152.0832  142.6353  161.5838 O   0  0  0  0  0  0  0  0  0  0  0  0
  148.8272  142.8978  155.3222 H   0  0  0  0  0  0  0  0  0  0  0  0
  154.5674  141.6037  161.2858 H   0  0  0  0  0  0  0  0  0  0  0  0
  154.8342  142.2481  159.6682 H   0  0  0  0  0  0  0  0  0  0  0  0
  155.0587  140.5300  159.9876 H   0  0  0  0  0  0  0  0  0  0  0  0
  152.6108  140.2927  160.4720 H   0  0  0  0  0  0  0  0  0  0  0  0
  153.5066  141.2511  157.8346 H   0  0  0  0  0  0  0  0  0  0  0  0
  152.8723  140.3170  155.9915 H   0  0  0  0  0  0  0  0  0  0  0  0
  152.1711  138.7434  156.1955 H   0  0  0  0  0  0  0  0  0  0  0  0
  150.3951  138.3737  154.8093 H   0  0  0  0  0  0  0  0  0  0  0  0
  148.3840  139.0223  153.6745 H   0  0  0  0  0  0  0  0  0  0  0  0
  151.0291  142.1297  159.9112 H   0  0  0  0  0  0  0  0  0  0  0  0
  153.5812  143.7276  159.4730 H   0  0  0  0  0  0  0  0  0  0  0  0
  152.1099  143.7515  158.4933 H   0  0  0  0  0  0  0  0  0  0  0  0
  152.4173  145.6656  160.3532 H   0  0  0  0  0  0  0  0  0  0  0  0
  150.8669  144.8151  160.2898 H   0  0  0  0  0  0  0  0  0  0  0  0
  153.2069  144.2541  162.1482 H   0  0  0  0  0  0  0  0  0  0  0  0
  151.4978  144.3773  162.5740 H   0  0  0  0  0  0  0  0  0  0  0  0
  1  2  1  0  0  0  0
  1 21  1  0  0  0  0
  1 22  1  0  0  0  0
  1 23  1  0  0  0  0
  2  3  1  0  0  0  0
  2 15  1  0  0  0  0
  2 24  1  0  0  0  0
  3  4  1  0  0  0  0
  3 25  1  0  0  0  0
  4  5  2  0  0  0  0
  4  6  1  0  0  0  0
  6  7  1  0  0  0  0
  6 26  1  0  0  0  0
  6 27  1  0  0  0  0
  7 13  1  0  0  0  0
  7  8  1  0  0  0  0
  8  9  2  0  0  0  0
  8 28  1  0  0  0  0
  9 10  1  0  0  0  0
  9 29  1  0  0  0  0
 10 11  2  0  0  0  0
 10 12  1  0  0  0  0
 12 20  1  0  0  0  0
 12 13  1  0  0  0  0
 13 14  2  0  0  0  0
 15 19  1  0  0  0  0
 15 16  1  0  0  0  0
 15 30  1  0  0  0  0
 16 17  1  0  0  0  0
 16 31  1  0  0  0  0
 16 32  1  0  0  0  0
 17 18  1  0  0  0  0
 17 33  1  0  0  0  0
 17 34  1  0  0  0  0
 18 19  1  0  0  0  0
 18 35  1  0  0  0  0
 18 36  1  0  0  0  0
M  END
> <s_m_source_file>
AV-unprocessed.smi

> <i_m_source_file_index>
1403

> <i_lp_mmshare_version>
43012

> <i_f3d_flags>
0

> <s_epik_input>
TzFbQ0gyXVtDSDJdW0NIMl1bQ0BIXTFbQ0BIXShbQ0gzXSlbTkhdQyg9TylbQ0gyXW4yW2NIXVtjSF1jKD1PKVtuSF1jMj1P

> <s_epik_cmdline>
J2VwaWtfcHl0aG9uJywgJy1waCcsICc3LjAnLCAnLXRuJywgJzgnLCAnLW1hJywgJzIwMCcsICctbWV0YWxfYmluZGluZycsICctaW1hZScsICc8aW5maWxlLm1hZT4nLCAnLW9tYWUnLCAnPG91dGZpbGUubWFlPic=

> <r_lp_tautomer_probability>
0.999537

> <r_epik_Ionization_Penalty>
0.00331407

> <r_epik_Ionization_Penalty_Charging>
0.00331405

> <r_epik_Ionization_Penalty_Neutral>
2.30132e-08

> <r_epik_State_Penalty>
0.00234266

> <r_epik_Charging_Adjusted_Penalty>
0.00565671

> <i_epik_Tot_Q>
0

> <i_epik_Tot_abs_Q>
0

> <r_epik_Metal_State_Penalty>
0.365604

> <b_epik_Metal_Only>
0

> <s_lp_Force_Field>
OPLS_2005

> <r_lp_Energy>
18.7727

> <b_lp_Chiralities_Consistent>
1

> <s_lp_Variant>
AV-unprocessed.smi:1403-1

> <Gold.Version>
5.8.1

> <Gold.Id.Protein>
6NUR|6NUR_protein|mol2

> <Gold.PLP.Fitness>
43.2610

> <Gold.PLP.PLP>
-40.3558

> <Gold.PLP.part.hbond>
-1.7509

> <Gold.PLP.part.metal>
0.0000

> <Gold.PLP.part.buried>
-4.1881

> <Gold.PLP.part.nonpolar>
-36.1682

> <Gold.PLP.part.repulsive>
0.6796

> <Gold.PLP.ligand.clash>
0.0000

> <Gold.PLP.ligand.torsion>
0.4051

> <Gold.PLP.Chemscore.Hbond>
1.2340

> <Gold.PLP.Chemscore.CHOScore>
0.0000

> <Gold.PLP.Chemscore.Metal>
0.0000

> <Gold.Chemscore.Hbonds>
donor molecule, donor type, donor heavy atom, donor atom, acceptor molecule, acceptor atom, score
      L1  H    12    20       P1  8028  1.00
      P1  H  6933  6945       L1    19  0.22

> <Gold.PLP.Chemscore.Internal.Correction>
0.0135

> <Gold.Rescore>
     Score         DG    S(hbond)    S(metal)    S(lipo)     H(rot)  DE(clash)    DE(int)     intcor
     14.32     -15.19       1.54        0.00      83.56       2.04       0.23       0.65       ----

> <Gold.Chemscore.Fitness>
14.3206

> <Gold.Chemscore.DG>
-15.1934

> <Gold.Chemscore.ZeroCoef>
-5.4800

> <Gold.Chemscore.Hbond>
1.5442

> <Gold.Chemscore.Metal>
0.0000

> <Gold.Chemscore.Lipo>
83.5639

> <Gold.Chemscore.Internal_Hbond>
0.0000

> <Gold.Chemscore.DEClash>
0.2270

> <Gold.Chemscore.DEInternal>
0.6459

> <Gold.Chemscore.Rot>
2.0395

> <Gold.Chemscore.Internal.Correction>
   9.000000E+99

> <Gold.Chemscore.Hbonds>
donor molecule, donor type, donor heavy atom, donor atom, acceptor molecule, acceptor atom, score
      L1  H    12    20       P1  8028  1.00
      P1  H  6933  6945       L1    19  0.06

> <Gold.Chemscore.Hbond.Weighted>
-5.1575

> <Gold.Chemscore.Metal.Weighted>
-0.0000

> <Gold.Chemscore.Lipo.Weighted>
-9.7770

> <Gold.Chemscore.Internal_Hbond.Weighted>
0.0000

> <Gold.Chemscore.DEClash.Weighted>
0.2270

> <Gold.Chemscore.DEInternal.Weighted>
0.6459

> <Gold.Chemscore.Rot.Weighted>
5.2211

> <Gold.Chemscore.Internal.Correction.Weighted>
   9.000000E+99

> <Gold.Protein.RotatedTorsions>
[ 6907 6896 6895 6894 ] final  144.16 input  -60.11 | X-H torsion
[ 7974 7965 7964 7962 ] final  116.74 input  175.53 | X-H torsion
[ 8008 7997 7996 7995 ] final   -4.30 input   59.86 | X-H torsion
[ 10167 10162 10161 10158 ] final  -39.49 input  -65.29 | X-H torsion
[ 10718 10713 10712 10709 ] final  162.34 input   66.30 | X-H torsion
[ 10763 10752 10751 10750 ] final  -39.25 input  -60.55 | X-H torsion
[ 11005 11000 10999 10996 ] final   40.24 input  -57.11 | X-H torsion

> <Gold.Protein.ActiveResidues>
 VAL166  LYS551  ARG553  GLY616  TRP617  ASP618  TYR619  PRO620  LYS621  CYS622 
 ASP623  PHE694  ASN695  SER759  ASP760  ASP761  ALA762  ILE779  LEU786  VAL792 
 PHE793  MET794  SER795  GLU796  ALA797  LYS798  CYS799  TRP800  GLU811  SER814 

> <Gold.Protein.RotatedAtoms>
  152.1972  133.4815  159.5038 H   0  0  0  0  0  0  0  0  0  0  0  0  # atno 6907 bound_to 6896
  150.6962  134.1637  159.4195 H   0  0  0  0  0  0  0  0  0  0  0  0  # atno 6908 bound_to 6896
  151.9553  135.0149  160.0595 H   0  0  0  0  0  0  0  0  0  0  0  0  # atno 6909 bound_to 6896
  145.1759  139.3076  143.4443 H   0  0  0  0  0  0  0  0  0  0  0  0  # atno 7974 bound_to 7965
  154.6158  140.2487  155.7612 H   0  0  0  0  0  0  0  0  0  0  0  0  # atno 8008 bound_to 7997
  156.2398  140.2937  156.0361 H   0  0  0  0  0  0  0  0  0  0  0  0  # atno 8009 bound_to 7997
  155.1978  140.0393  157.2902 H   0  0  0  0  0  0  0  0  0  0  0  0  # atno 8010 bound_to 7997
  140.7062  143.3211  151.2790 H   0  0  0  0  0  0  0  0  0  0  0  0  # atno 10167 bound_to 10162
  157.1239  131.0499  151.2402 H   0  0  0  0  0  0  0  0  0  0  0  0  # atno 10718 bound_to 10713
  153.9263  135.6777  153.4746 H   0  0  0  0  0  0  0  0  0  0  0  0  # atno 10763 bound_to 10752
  153.1002  135.4831  154.8851 H   0  0  0  0  0  0  0  0  0  0  0  0  # atno 10764 bound_to 10752
  154.7451  135.3170  154.8615 H   0  0  0  0  0  0  0  0  0  0  0  0  # atno 10765 bound_to 10752
  140.1950  134.3940  155.8126 H   0  0  0  0  0  0  0  0  0  0  0  0  # atno 11005 bound_to 11000
  146.3461  140.1921  142.8589 LP  0  0  0  0  0  0  0  0  0  0  0  0  # atno 17320 bound_to 7965
  145.0185  140.8774  143.5181 LP  0  0  0  0  0  0  0  0  0  0  0  0  # atno 17321 bound_to 7965
  139.6665  144.0096  152.2726 LP  0  0  0  0  0  0  0  0  0  0  0  0  # atno 17342 bound_to 10162
  139.9680  144.6513  150.8016 LP  0  0  0  0  0  0  0  0  0  0  0  0  # atno 17343 bound_to 10162
  157.4452  130.7566  149.7103 LP  0  0  0  0  0  0  0  0  0  0  0  0  # atno 17370 bound_to 10713
  155.9822  130.4012  150.3428 LP  0  0  0  0  0  0  0  0  0  0  0  0  # atno 17371 bound_to 10713
  141.2227  133.7065  156.8160 LP  0  0  0  0  0  0  0  0  0  0  0  0  # atno 17394 bound_to 11000
  140.2117  134.8822  157.3282 LP  0  0  0  0  0  0  0  0  0  0  0  0  # atno 17395 bound_to 11000

$$$$
