AV-unprocessed.smi:761|AV-procd|sdf|3632|dock4
  -GOLD-   22720 1 23D 1   1.00000     0.00000
 Structure written by MMmdl.
 34 35  0  0  0  0  0  0  0  0  4 V2000
  145.2827  138.3046  153.6466 O   0  0  0  0  0  0  0  0  0  0  0  0
  146.2729  137.5965  153.4301 C   0  0  0  0  0  0  0  0  0  0  0  0
  146.2937  136.2780  153.0963 N   0  5  0  0  0  0  0  0  0  0  0  0
  145.1218  135.4900  152.7166 C   0  0  0  0  0  0  0  0  0  0  0  0
  145.1647  134.1255  153.4323 C   0  0  0  0  0  0  0  0  0  0  0  0
  144.5535  133.0364  152.6271 N   0  3  0  0  0  0  0  0  0  0  0  0
  145.5119  132.1158  151.9403 C   0  0  0  0  0  0  0  0  0  0  0  0
  144.8450  131.8416  150.6226 C   0  0  0  0  0  0  0  0  0  0  0  0
  143.7713  132.6046  150.4538 C   0  0  0  0  0  0  0  0  0  0  0  0
  143.5507  133.5115  151.6311 C   0  0  0  0  0  0  0  0  0  0  0  0
  147.5088  138.1242  153.4884 N   0  0  0  0  0  0  0  0  0  0  0  0
  147.9040  139.4378  153.8597 C   0  0  0  0  0  0  0  0  0  0  0  0
  149.1778  139.5992  154.4479 C   0  0  0  0  0  0  0  0  0  0  0  0
  149.5977  140.8820  154.8543 C   0  0  0  0  0  0  0  0  0  0  0  0
  148.7769  141.9417  154.6905 N   0  3  0  0  0  0  0  0  0  0  0  0
  147.5445  141.8341  154.1488 C   0  0  0  0  0  0  0  0  0  0  0  0
  147.0702  140.5766  153.7237 C   0  0  0  0  0  0  0  0  0  0  0  0
  144.1827  135.9848  152.9676 H   0  0  0  0  0  0  0  0  0  0  0  0
  145.0876  135.3236  151.6396 H   0  0  0  0  0  0  0  0  0  0  0  0
  146.2110  133.8744  153.6157 H   0  0  0  0  0  0  0  0  0  0  0  0
  144.6847  134.1768  154.4110 H   0  0  0  0  0  0  0  0  0  0  0  0
  146.4833  132.5804  151.7656 H   0  0  0  0  0  0  0  0  0  0  0  0
  145.6518  131.1991  152.5137 H   0  0  0  0  0  0  0  0  0  0  0  0
  145.2274  131.1230  149.9125 H   0  0  0  0  0  0  0  0  0  0  0  0
  143.1333  132.6124  149.5822 H   0  0  0  0  0  0  0  0  0  0  0  0
  142.5378  133.4212  152.0244 H   0  0  0  0  0  0  0  0  0  0  0  0
  143.7278  134.5446  151.3279 H   0  0  0  0  0  0  0  0  0  0  0  0
  148.2531  137.5150  153.1816 H   0  0  0  0  0  0  0  0  0  0  0  0
  149.8316  138.7493  154.5813 H   0  0  0  0  0  0  0  0  0  0  0  0
  150.5571  141.0897  155.3050 H   0  0  0  0  0  0  0  0  0  0  0  0
  146.9747  142.7490  154.0787 H   0  0  0  0  0  0  0  0  0  0  0  0
  146.0740  140.5034  153.3143 H   0  0  0  0  0  0  0  0  0  0  0  0
  144.0318  132.4629  153.2745 H   0  0  0  0  0  0  0  0  0  0  0  0
  149.0987  142.8611  154.9937 H   0  0  0  0  0  0  0  0  0  0  0  0
  1  2  2  0  0  0  0
  2  3  1  0  0  0  0
  2 11  1  0  0  0  0
  3  4  1  0  0  0  0
  4  5  1  0  0  0  0
  4 18  1  0  0  0  0
  4 19  1  0  0  0  0
  5  6  1  0  0  0  0
  5 20  1  0  0  0  0
  5 21  1  0  0  0  0
  6 10  1  0  0  0  0
  6  7  1  0  0  0  0
  6 33  1  0  0  0  0
  7  8  1  0  0  0  0
  7 22  1  0  0  0  0
  7 23  1  0  0  0  0
  8  9  2  0  0  0  0
  8 24  1  0  0  0  0
  9 10  1  0  0  0  0
  9 25  1  0  0  0  0
 10 26  1  0  0  0  0
 10 27  1  0  0  0  0
 11 12  1  0  0  0  0
 11 28  1  0  0  0  0
 12 17  1  0  0  0  0
 12 13  2  0  0  0  0
 13 14  1  0  0  0  0
 13 29  1  0  0  0  0
 14 15  2  0  0  0  0
 14 30  1  0  0  0  0
 15 16  1  0  0  0  0
 15 34  1  0  0  0  0
 16 17  2  0  0  0  0
 16 31  1  0  0  0  0
 17 32  1  0  0  0  0
M  CHG  1   3  -1
M  CHG  1   6   1
M  CHG  1  15   1
M  END
> <s_m_source_file>
AV-unprocessed.smi

> <i_m_source_file_index>
761

> <i_lp_mmshare_version>
43012

> <i_f3d_flags>
0

> <s_epik_input>
W2NIXTFbY0hdbltjSF1bY0hdYzFbTkhdQyg9TylbTkhdW0NIMl1bQ0gyXU4yW0NIMl1bQ0hdPVtDSF1bQ0gyXTI=

> <s_epik_cmdline>
J2VwaWtfcHl0aG9uJywgJy1waCcsICc3LjAnLCAnLXRuJywgJzgnLCAnLW1hJywgJzIwMCcsICctbWV0YWxfYmluZGluZycsICctaW1hZScsICc8aW5maWxlLm1hZT4nLCAnLW9tYWUnLCAnPG91dGZpbGUubWFlPic=

> <r_epik_Ionization_Penalty>
8.30346

> <r_epik_Ionization_Penalty_Charging>
8.30346

> <r_epik_Ionization_Penalty_Neutral>
3.3887e-06

> <r_epik_State_Penalty>
7.87421

> <r_epik_Charging_Adjusted_Penalty>
16.1777

> <i_epik_Tot_Q>
1

> <i_epik_Tot_abs_Q>
3

> <r_epik_Metal_State_Penalty>
3.87237

> <b_epik_Metal_Only>
1

> <s_lp_Force_Field>
OPLS_2005

> <r_lp_Energy>
27.0573

> <b_lp_Chiralities_Consistent>
1

> <s_lp_Variant>
AV-unprocessed.smi:761-3

> <Gold.Version>
5.8.1

> <Gold.Id.Protein>
6NUR|6NUR_protein|mol2

> <Gold.PLP.Fitness>
40.1647

> <Gold.PLP.PLP>
-27.2004

> <Gold.PLP.part.hbond>
-3.0000

> <Gold.PLP.part.metal>
0.0000

> <Gold.PLP.part.buried>
-4.9171

> <Gold.PLP.part.nonpolar>
-22.4321

> <Gold.PLP.part.repulsive>
3.2975

> <Gold.PLP.ligand.clash>
0.0056

> <Gold.PLP.ligand.torsion>
1.0472

> <Gold.PLP.Chemscore.Hbond>
4.9920

> <Gold.PLP.Chemscore.CHOScore>
0.0000

> <Gold.PLP.Chemscore.Metal>
0.0000

> <Gold.Chemscore.Hbonds>
donor molecule, donor type, donor heavy atom, donor atom, acceptor molecule, acceptor atom, score
      L1  H     6    33       P1 10957  1.24
      L1  H    11    28       P1  7948  0.99
      L1  H    15    34       P1  8028  2.00

> <Gold.PLP.Chemscore.Internal.Correction>
0.0884

> <Gold.Rescore>
     Score         DG    S(hbond)    S(metal)    S(lipo)     H(rot)  DE(clash)    DE(int)     intcor
     15.30     -18.13       2.61        0.00      66.53       1.51       0.47       2.35       ----

> <Gold.Chemscore.Fitness>
15.3037

> <Gold.Chemscore.DG>
-18.1265

> <Gold.Chemscore.ZeroCoef>
-5.4800

> <Gold.Chemscore.Hbond>
2.6144

> <Gold.Chemscore.Metal>
0.0000

> <Gold.Chemscore.Lipo>
66.5333

> <Gold.Chemscore.Internal_Hbond>
0.0000

> <Gold.Chemscore.DEClash>
0.4734

> <Gold.Chemscore.DEInternal>
2.3493

> <Gold.Chemscore.Rot>
1.5117

> <Gold.Chemscore.Internal.Correction>
   9.000000E+99

> <Gold.Chemscore.Hbonds>
donor molecule, donor type, donor heavy atom, donor atom, acceptor molecule, acceptor atom, score
      L1  H     6    33       P1 10957  0.11
      L1  H    11    28       P1  7948  0.92
      L1  H    15    34       P1  8028  0.96

> <Gold.Chemscore.Hbond.Weighted>
-8.7321

> <Gold.Chemscore.Metal.Weighted>
-0.0000

> <Gold.Chemscore.Lipo.Weighted>
-7.7844

> <Gold.Chemscore.Internal_Hbond.Weighted>
0.0000

> <Gold.Chemscore.DEClash.Weighted>
0.4734

> <Gold.Chemscore.DEInternal.Weighted>
2.3493

> <Gold.Chemscore.Rot.Weighted>
3.8700

> <Gold.Chemscore.Internal.Correction.Weighted>
   9.000000E+99

> <Gold.Protein.RotatedTorsions>
[ 6907 6896 6895 6894 ] final   32.94 input  -60.11 | X-H torsion
[ 7974 7965 7964 7962 ] final  -24.62 input  175.53 | X-H torsion
[ 8008 7997 7996 7995 ] final  -73.82 input   59.86 | X-H torsion
[ 10167 10162 10161 10158 ] final  136.54 input  -65.29 | X-H torsion
[ 10718 10713 10712 10709 ] final   62.53 input   66.30 | X-H torsion
[ 10763 10752 10751 10750 ] final  -51.66 input  -60.55 | X-H torsion
[ 11005 11000 10999 10996 ] final -146.99 input  -57.11 | X-H torsion

> <Gold.Protein.ActiveResidues>
 VAL166  LYS551  ARG553  GLY616  TRP617  ASP618  TYR619  PRO620  LYS621  CYS622 
 ASP623  PHE694  ASN695  SER759  ASP760  ASP761  ALA762  ILE779  LEU786  VAL792 
 PHE793  MET794  SER795  GLU796  ALA797  LYS798  CYS799  TRP800  GLU811  SER814 

> <Gold.Protein.RotatedAtoms>
  152.0815  134.9467  160.0573 H   0  0  0  0  0  0  0  0  0  0  0  0  # atno 6907 bound_to 6896
  152.0754  133.4122  159.4486 H   0  0  0  0  0  0  0  0  0  0  0  0  # atno 6908 bound_to 6896
  150.6836  134.2963  159.4731 H   0  0  0  0  0  0  0  0  0  0  0  0  # atno 6909 bound_to 6896
  146.1543  140.4776  142.8598 H   0  0  0  0  0  0  0  0  0  0  0  0  # atno 7974 bound_to 7965
  154.5279  140.0772  156.8291 H   0  0  0  0  0  0  0  0  0  0  0  0  # atno 8008 bound_to 7997
  155.3437  140.3409  155.4221 H   0  0  0  0  0  0  0  0  0  0  0  0  # atno 8009 bound_to 7997
  156.1750  140.1632  156.8365 H   0  0  0  0  0  0  0  0  0  0  0  0  # atno 8010 bound_to 7997
  139.5176  144.6459  151.5441 H   0  0  0  0  0  0  0  0  0  0  0  0  # atno 10167 bound_to 10162
  157.5907  130.9055  149.9600 H   0  0  0  0  0  0  0  0  0  0  0  0  # atno 10718 bound_to 10713
  154.1301  135.6521  153.4920 H   0  0  0  0  0  0  0  0  0  0  0  0  # atno 10763 bound_to 10752
  153.0198  135.5291  154.7009 H   0  0  0  0  0  0  0  0  0  0  0  0  # atno 10764 bound_to 10752
  154.6242  135.2968  155.0262 H   0  0  0  0  0  0  0  0  0  0  0  0  # atno 10765 bound_to 10752
  140.7763  134.3131  157.5059 H   0  0  0  0  0  0  0  0  0  0  0  0  # atno 11005 bound_to 11000
  144.7943  140.6093  143.6520 LP  0  0  0  0  0  0  0  0  0  0  0  0  # atno 17320 bound_to 7965
  145.4746  139.1500  143.3795 LP  0  0  0  0  0  0  0  0  0  0  0  0  # atno 17321 bound_to 7965
  140.6244  143.9198  150.6552 LP  0  0  0  0  0  0  0  0  0  0  0  0  # atno 17342 bound_to 10162
  140.2481  143.3613  152.1429 LP  0  0  0  0  0  0  0  0  0  0  0  0  # atno 17343 bound_to 10162
  156.0962  130.3659  150.0302 LP  0  0  0  0  0  0  0  0  0  0  0  0  # atno 17370 bound_to 10713
  156.8425  130.9431  151.3631 LP  0  0  0  0  0  0  0  0  0  0  0  0  # atno 17371 bound_to 10713
  139.8748  134.9291  156.3469 LP  0  0  0  0  0  0  0  0  0  0  0  0  # atno 17394 bound_to 11000
  140.9525  133.7441  156.0292 LP  0  0  0  0  0  0  0  0  0  0  0  0  # atno 17395 bound_to 11000

$$$$
