AV-unprocessed.smi:3032|AV-procd|sdf|11557|dock5
  -GOLD-   2272016523D 1   1.00000     0.00000
 Structure written by MMmdl.
 37 38  0  0  0  0  0  0  0  0  1 V2000
  151.6827  145.3010  159.9406 C   0  0  0  0  0  0  0  0  0  0  0  0
  151.4931  143.8467  159.4871 C   0  0  2  0  0  0  0  0  0  0  0  0
  152.6133  142.9375  160.0255 C   0  0  0  0  0  0  0  0  0  0  0  0
  152.4130  141.4772  159.5920 C   0  0  0  0  0  0  0  0  0  0  0  0
  152.2769  141.3486  158.0613 C   0  0  0  0  0  0  0  0  0  0  0  0
  151.2170  142.2960  157.4473 C   0  0  1  0  0  0  0  0  0  0  0  0
  149.7646  141.8267  157.6520 C   0  0  0  0  0  0  0  0  0  0  0  0
  149.5070  140.6753  158.0024 O   0  0  0  0  0  0  0  0  0  0  0  0
  148.8153  142.7502  157.4366 N   0  0  0  0  0  0  0  0  0  0  0  0
  147.3841  142.5576  157.6539 C   0  0  0  0  0  0  0  0  0  0  0  0
  146.7900  141.4090  156.8115 C   0  0  0  0  0  0  0  0  0  0  0  0
  147.3710  141.2991  155.4361 C   0  0  0  0  0  0  0  0  0  0  0  0
  148.3023  142.1434  154.9866 N   0  0  0  0  0  0  0  0  0  0  0  0
  148.6559  141.7912  153.7331 N   0  0  0  0  0  0  0  0  0  0  0  0
  147.8818  140.7301  153.5136 C   0  0  0  0  0  0  0  0  0  0  0  0
  147.0545  140.3700  154.5408 N   0  0  0  0  0  0  0  0  0  0  0  0
  151.4235  143.7431  157.9496 C   0  0  0  0  0  0  0  0  0  0  0  0
  148.7123  142.9253  155.4775 H   0  0  0  0  0  0  0  0  0  0  0  0
  152.6180  145.7158  159.5638 H   0  0  0  0  0  0  0  0  0  0  0  0
  151.6995  145.3740  161.0283 H   0  0  0  0  0  0  0  0  0  0  0  0
  150.8698  145.9329  159.5818 H   0  0  0  0  0  0  0  0  0  0  0  0
  150.5457  143.5006  159.9023 H   0  0  0  0  0  0  0  0  0  0  0  0
  153.5804  143.2930  159.6674 H   0  0  0  0  0  0  0  0  0  0  0  0
  152.6488  142.9919  161.1142 H   0  0  0  0  0  0  0  0  0  0  0  0
  153.2544  140.8746  159.9351 H   0  0  0  0  0  0  0  0  0  0  0  0
  151.5340  141.0689  160.0896 H   0  0  0  0  0  0  0  0  0  0  0  0
  153.2436  141.5699  157.6072 H   0  0  0  0  0  0  0  0  0  0  0  0
  152.0580  140.3129  157.7975 H   0  0  0  0  0  0  0  0  0  0  0  0
  151.3823  142.2966  156.3684 H   0  0  0  0  0  0  0  0  0  0  0  0
  149.1097  143.6711  157.1449 H   0  0  0  0  0  0  0  0  0  0  0  0
  147.2520  142.3291  158.7116 H   0  0  0  0  0  0  0  0  0  0  0  0
  146.8442  143.4872  157.4694 H   0  0  0  0  0  0  0  0  0  0  0  0
  146.9357  140.4603  157.3290 H   0  0  0  0  0  0  0  0  0  0  0  0
  145.7108  141.5393  156.7221 H   0  0  0  0  0  0  0  0  0  0  0  0
  147.9146  140.1925  152.5775 H   0  0  0  0  0  0  0  0  0  0  0  0
  150.6278  144.3874  157.5719 H   0  0  0  0  0  0  0  0  0  0  0  0
  152.3463  144.1362  157.5211 H   0  0  0  0  0  0  0  0  0  0  0  0
  1  2  1  0  0  0  0
  1 19  1  0  0  0  0
  1 20  1  0  0  0  0
  1 21  1  0  0  0  0
  2 17  1  0  0  0  0
  2  3  1  0  0  0  0
  2 22  1  0  0  0  0
  3  4  1  0  0  0  0
  3 23  1  0  0  0  0
  3 24  1  0  0  0  0
  4  5  1  0  0  0  0
  4 25  1  0  0  0  0
  4 26  1  0  0  0  0
  5  6  1  0  0  0  0
  5 27  1  0  0  0  0
  5 28  1  0  0  0  0
  6  7  1  0  0  0  0
  6 17  1  0  0  0  0
  6 29  1  0  0  0  0
  7  8  2  0  0  0  0
  7  9  1  0  0  0  0
  9 10  1  0  0  0  0
  9 30  1  0  0  0  0
 10 11  1  0  0  0  0
 10 31  1  0  0  0  0
 10 32  1  0  0  0  0
 11 33  1  0  0  0  0
 11 34  1  0  0  0  0
 11 12  1  0  0  0  0
 12 16  2  0  0  0  0
 12 13  1  0  0  0  0
 13 18  1  0  0  0  0
 13 14  1  0  0  0  0
 14 15  2  0  0  0  0
 15 16  1  0  0  0  0
 15 35  1  0  0  0  0
 17 36  1  0  0  0  0
 17 37  1  0  0  0  0
M  END
> <s_m_source_file>
AV-unprocessed.smi

> <i_m_source_file_index>
3032

> <i_lp_mmshare_version>
43012

> <i_f3d_flags>
0

> <s_epik_input>
W0NIM11bQ0BASF0xW0NIMl1bQ0gyXVtDSDJdW0NASF0oW0NIMl0xKUMoPU8pW05IXVtDSDJdW0NIMl1jMm5uW2NIXVtuSF0y

> <s_epik_cmdline>
J2VwaWtfcHl0aG9uJywgJy1waCcsICc3LjAnLCAnLXRuJywgJzgnLCAnLW1hJywgJzIwMCcsICctbWV0YWxfYmluZGluZycsICctaW1hZScsICc8aW5maWxlLm1hZT4nLCAnLW9tYWUnLCAnPG91dGZpbGUubWFlPic=

> <r_lp_tautomer_probability>
0.948284

> <r_epik_Ionization_Penalty>
0.000474052

> <r_epik_Ionization_Penalty_Charging>
0

> <r_epik_Ionization_Penalty_Neutral>
0.000474052

> <r_epik_State_Penalty>
0.271807

> <r_epik_Charging_Adjusted_Penalty>
0.271807

> <i_epik_Tot_Q>
0

> <i_epik_Tot_abs_Q>
0

> <r_epik_Metal_State_Penalty>
0.397201

> <b_epik_Metal_Only>
0

> <s_lp_Force_Field>
OPLS_2005

> <r_lp_Energy>
8.45965

> <b_lp_Chiralities_Consistent>
1

> <s_lp_Variant>
AV-unprocessed.smi:3032-1

> <Gold.Version>
5.8.1

> <Gold.Id.Protein>
6NUR|6NUR_protein|mol2

> <Gold.PLP.Fitness>
40.7318

> <Gold.PLP.PLP>
-32.0725

> <Gold.PLP.part.hbond>
-3.2026

> <Gold.PLP.part.metal>
0.0000

> <Gold.PLP.part.buried>
-3.9894

> <Gold.PLP.part.nonpolar>
-25.3278

> <Gold.PLP.part.repulsive>
0.4756

> <Gold.PLP.ligand.clash>
0.0000

> <Gold.PLP.ligand.torsion>
0.6216

> <Gold.PLP.Chemscore.Hbond>
2.3628

> <Gold.PLP.Chemscore.CHOScore>
0.9192

> <Gold.PLP.Chemscore.Metal>
0.0000

> <Gold.Chemscore.Hbonds>
donor molecule, donor type, donor heavy atom, donor atom, acceptor molecule, acceptor atom, score
      L1  H     9    30       P1  8028  0.74
      L1  H    13    18       P1  8028  0.94
      P1  H  8011  8017       L1    14  0.56
      L1  C    15    35       P1  7957  0.97

> <Gold.PLP.Chemscore.Internal.Correction>
0.0566

> <Gold.Rescore>
     Score         DG    S(hbond)    S(metal)    S(lipo)     H(rot)  DE(clash)    DE(int)     intcor
     13.73     -15.95       2.18        0.00      76.46       2.25       0.04       2.19       ----

> <Gold.Chemscore.Fitness>
13.7295

> <Gold.Chemscore.DG>
-15.9536

> <Gold.Chemscore.ZeroCoef>
-5.4800

> <Gold.Chemscore.Hbond>
2.1820

> <Gold.Chemscore.Metal>
0.0000

> <Gold.Chemscore.Lipo>
76.4624

> <Gold.Chemscore.Internal_Hbond>
0.0000

> <Gold.Chemscore.DEClash>
0.0366

> <Gold.Chemscore.DEInternal>
2.1875

> <Gold.Chemscore.Rot>
2.2501

> <Gold.Chemscore.Internal.Correction>
   9.000000E+99

> <Gold.Chemscore.Hbonds>
donor molecule, donor type, donor heavy atom, donor atom, acceptor molecule, acceptor atom, score
      L1  H     9    30       P1  8028  0.37
      L1  H    13    18       P1  8028  0.92
      P1  H  8011  8017       L1    14  0.54

> <Gold.Chemscore.Hbond.Weighted>
-7.2878

> <Gold.Chemscore.Metal.Weighted>
-0.0000

> <Gold.Chemscore.Lipo.Weighted>
-8.9461

> <Gold.Chemscore.Internal_Hbond.Weighted>
0.0000

> <Gold.Chemscore.DEClash.Weighted>
0.0366

> <Gold.Chemscore.DEInternal.Weighted>
2.1875

> <Gold.Chemscore.Rot.Weighted>
5.7603

> <Gold.Chemscore.Internal.Correction.Weighted>
   9.000000E+99

> <Gold.Protein.RotatedTorsions>
[ 6907 6896 6895 6894 ] final   39.29 input  -60.11 | X-H torsion
[ 7974 7965 7964 7962 ] final -175.60 input  175.53 | X-H torsion
[ 8008 7997 7996 7995 ] final  103.33 input   59.86 | X-H torsion
[ 10167 10162 10161 10158 ] final -139.07 input  -65.29 | X-H torsion
[ 10718 10713 10712 10709 ] final -106.97 input   66.30 | X-H torsion
[ 10763 10752 10751 10750 ] final  177.67 input  -60.55 | X-H torsion
[ 11005 11000 10999 10996 ] final  -39.00 input  -57.11 | X-H torsion

> <Gold.Protein.ActiveResidues>
 VAL166  LYS551  ARG553  GLY616  TRP617  ASP618  TYR619  PRO620  LYS621  CYS622 
 ASP623  PHE694  ASN695  SER759  ASP760  ASP761  ALA762  ILE779  LEU786  VAL792 
 PHE793  MET794  SER795  GLU796  ALA797  LYS798  CYS799  TRP800  GLU811  SER814 

> <Gold.Protein.RotatedAtoms>
  152.1676  134.8861  160.0536 H   0  0  0  0  0  0  0  0  0  0  0  0  # atno 6907 bound_to 6896
  151.9833  133.3760  159.4124 H   0  0  0  0  0  0  0  0  0  0  0  0  # atno 6908 bound_to 6896
  150.6897  134.3938  159.5132 H   0  0  0  0  0  0  0  0  0  0  0  0  # atno 6909 bound_to 6896
  144.7128  140.1297  143.6399 H   0  0  0  0  0  0  0  0  0  0  0  0  # atno 7974 bound_to 7965
  156.1474  140.3166  155.8592 H   0  0  0  0  0  0  0  0  0  0  0  0  # atno 8008 bound_to 7997
  155.4038  140.0501  157.3052 H   0  0  0  0  0  0  0  0  0  0  0  0  # atno 8009 bound_to 7997
  154.5028  140.2136  155.9323 H   0  0  0  0  0  0  0  0  0  0  0  0  # atno 8010 bound_to 7997
  139.8416  143.7314  152.2663 H   0  0  0  0  0  0  0  0  0  0  0  0  # atno 10167 bound_to 10162
  156.0415  130.5639  150.7756 H   0  0  0  0  0  0  0  0  0  0  0  0  # atno 10718 bound_to 10713
  154.4975  135.2782  155.1447 H   0  0  0  0  0  0  0  0  0  0  0  0  # atno 10763 bound_to 10752
  154.3094  135.6232  153.5462 H   0  0  0  0  0  0  0  0  0  0  0  0  # atno 10764 bound_to 10752
  152.9897  135.5716  154.5411 H   0  0  0  0  0  0  0  0  0  0  0  0  # atno 10765 bound_to 10752
  141.0069  133.6927  156.2128 H   0  0  0  0  0  0  0  0  0  0  0  0  # atno 11005 bound_to 11000
  145.9298  139.2599  143.1332 LP  0  0  0  0  0  0  0  0  0  0  0  0  # atno 17320 bound_to 7965
  145.9535  140.8891  143.0247 LP  0  0  0  0  0  0  0  0  0  0  0  0  # atno 17321 bound_to 7965
  139.7553  144.7522  151.0445 LP  0  0  0  0  0  0  0  0  0  0  0  0  # atno 17342 bound_to 10162
  140.7797  143.4813  151.0015 LP  0  0  0  0  0  0  0  0  0  0  0  0  # atno 17343 bound_to 10162
  157.5238  131.0933  151.0044 LP  0  0  0  0  0  0  0  0  0  0  0  0  # atno 17370 bound_to 10713
  157.0368  130.5733  149.5350 LP  0  0  0  0  0  0  0  0  0  0  0  0  # atno 17371 bound_to 10713
  140.6797  134.4780  157.5589 LP  0  0  0  0  0  0  0  0  0  0  0  0  # atno 17394 bound_to 11000
  139.9068  134.8431  156.1674 LP  0  0  0  0  0  0  0  0  0  0  0  0  # atno 17395 bound_to 11000

$$$$
