AV-unprocessed.smi:2503|AV-procd|sdf|9848|dock6
  -GOLD-   2272013473D 1   1.00000     0.00000
 Structure written by MMmdl.
 36 37  0  0  0  0  0  0  0  0  1 V2000
  149.1510  141.5973  154.7282 C   0  0  0  0  0  0  0  0  0  0  0  0
  149.7206  140.7534  155.8784 C   0  0  0  0  0  0  0  0  0  0  0  0
  150.6498  141.5719  156.7871 C   0  0  0  0  0  0  0  0  0  0  0  0
  150.4002  139.5080  155.3755 C   0  0  0  0  0  0  0  0  0  0  0  0
  150.6278  139.2735  154.0853 N   0  0  0  0  0  0  0  0  0  0  0  0
  151.2965  138.0563  154.0501 C   0  0  0  0  0  0  0  0  0  0  0  0
  151.4672  137.5961  155.3320 C   0  0  0  0  0  0  0  0  0  0  0  0
  150.8996  138.5414  156.1783 N   0  0  0  0  0  0  0  0  0  0  0  0
  150.8813  138.4572  157.6321 C   0  0  0  0  0  0  0  0  0  0  0  0
  150.3898  137.0870  158.1092 C   0  0  0  0  0  0  0  0  0  0  0  0
  150.9830  136.0735  157.7336 O   0  0  0  0  0  0  0  0  0  0  0  0
  149.3186  137.1160  158.9354 N   0  0  0  0  0  0  0  0  0  0  0  0
  148.6719  136.1229  159.5900 C   0  0  0  0  0  0  0  0  0  0  0  0
  148.7898  134.9550  159.2225 O   0  0  0  0  0  0  0  0  0  0  0  0
  147.9005  136.4780  160.6340 N   0  0  0  0  0  0  0  0  0  0  0  0
  147.0586  135.6047  161.3852 C   0  0  0  0  0  0  0  0  0  0  0  0
  147.3586  135.4367  162.8589 C   0  0  0  0  0  0  0  0  0  0  0  0
  147.6677  134.3192  161.9013 C   0  0  0  0  0  0  0  0  0  0  0  0
  148.4486  141.0179  154.1285 H   0  0  0  0  0  0  0  0  0  0  0  0
  149.9402  141.9541  154.0653 H   0  0  0  0  0  0  0  0  0  0  0  0
  148.6187  142.4697  155.1079 H   0  0  0  0  0  0  0  0  0  0  0  0
  148.8644  140.4629  156.4842 H   0  0  0  0  0  0  0  0  0  0  0  0
  150.9883  140.9793  157.6379 H   0  0  0  0  0  0  0  0  0  0  0  0
  150.1396  142.4509  157.1809 H   0  0  0  0  0  0  0  0  0  0  0  0
  151.5336  141.9131  156.2472 H   0  0  0  0  0  0  0  0  0  0  0  0
  151.6028  137.6118  153.1148 H   0  0  0  0  0  0  0  0  0  0  0  0
  151.9426  136.7004  155.7040 H   0  0  0  0  0  0  0  0  0  0  0  0
  151.8771  138.6834  158.0159 H   0  0  0  0  0  0  0  0  0  0  0  0
  150.2143  139.2261  158.0237 H   0  0  0  0  0  0  0  0  0  0  0  0
  148.9417  138.0374  159.1034 H   0  0  0  0  0  0  0  0  0  0  0  0
  147.9111  137.4487  160.9145 H   0  0  0  0  0  0  0  0  0  0  0  0
  146.0087  135.5523  161.0997 H   0  0  0  0  0  0  0  0  0  0  0  0
  148.1993  135.9904  163.2732 H   0  0  0  0  0  0  0  0  0  0  0  0
  146.5131  135.3037  163.5307 H   0  0  0  0  0  0  0  0  0  0  0  0
  147.0287  133.4391  161.9330 H   0  0  0  0  0  0  0  0  0  0  0  0
  148.7153  134.1257  161.6780 H   0  0  0  0  0  0  0  0  0  0  0  0
  1  2  1  0  0  0  0
  1 19  1  0  0  0  0
  1 20  1  0  0  0  0
  1 21  1  0  0  0  0
  2  3  1  0  0  0  0
  2  4  1  0  0  0  0
  2 22  1  0  0  0  0
  3 23  1  0  0  0  0
  3 24  1  0  0  0  0
  3 25  1  0  0  0  0
  4  8  1  0  0  0  0
  4  5  2  0  0  0  0
  5  6  1  0  0  0  0
  6  7  2  0  0  0  0
  6 26  1  0  0  0  0
  7  8  1  0  0  0  0
  7 27  1  0  0  0  0
  8  9  1  0  0  0  0
  9 10  1  0  0  0  0
  9 28  1  0  0  0  0
  9 29  1  0  0  0  0
 10 11  2  0  0  0  0
 10 12  1  0  0  0  0
 12 13  1  0  0  0  0
 12 30  1  0  0  0  0
 13 14  2  0  0  0  0
 13 15  1  0  0  0  0
 15 16  1  0  0  0  0
 15 31  1  0  0  0  0
 16 18  1  0  0  0  0
 16 17  1  0  0  0  0
 16 32  1  0  0  0  0
 17 18  1  0  0  0  0
 17 33  1  0  0  0  0
 17 34  1  0  0  0  0
 18 35  1  0  0  0  0
 18 36  1  0  0  0  0
M  END
> <s_m_source_file>
AV-unprocessed.smi

> <i_m_source_file_index>
2503

> <i_lp_mmshare_version>
43012

> <i_f3d_flags>
0

> <s_epik_input>
W0NIM11bQ0hdKFtDSDNdKWMxbltjSF1bY0hdbjFbQ0gyXUMoPU8pW05IXUMoPU8pW05IXVtDSF0yW0NIMl1bQ0gyXTI=

> <s_epik_cmdline>
J2VwaWtfcHl0aG9uJywgJy1waCcsICc3LjAnLCAnLXRuJywgJzgnLCAnLW1hJywgJzIwMCcsICctbWV0YWxfYmluZGluZycsICctaW1hZScsICc8aW5maWxlLm1hZT4nLCAnLW9tYWUnLCAnPG91dGZpbGUubWFlPic=

> <r_lp_tautomer_probability>
1

> <r_epik_Ionization_Penalty>
0.441646

> <r_epik_Ionization_Penalty_Charging>
0.441618

> <r_epik_Ionization_Penalty_Neutral>
2.81151e-05

> <r_epik_State_Penalty>
0.443748

> <r_epik_Charging_Adjusted_Penalty>
0.885366

> <i_epik_Tot_Q>
0

> <i_epik_Tot_abs_Q>
0

> <r_epik_Metal_State_Penalty>
0.251733

> <b_epik_Metal_Only>
0

> <s_lp_Force_Field>
OPLS_2005

> <r_lp_Energy>
20.0487

> <b_lp_Chiralities_Consistent>
1

> <s_lp_Variant>
AV-unprocessed.smi:2503-2

> <Gold.Version>
5.8.1

> <Gold.Id.Protein>
6NUR|6NUR_protein|mol2

> <Gold.PLP.Fitness>
40.8531

> <Gold.PLP.PLP>
-32.3594

> <Gold.PLP.part.hbond>
-3.0000

> <Gold.PLP.part.metal>
0.0000

> <Gold.PLP.part.buried>
-4.0116

> <Gold.PLP.part.nonpolar>
-25.2519

> <Gold.PLP.part.repulsive>
0.6006

> <Gold.PLP.ligand.clash>
0.0000

> <Gold.PLP.ligand.torsion>
0.3116

> <Gold.PLP.Chemscore.Hbond>
2.0000

> <Gold.PLP.Chemscore.CHOScore>
1.0000

> <Gold.PLP.Chemscore.Metal>
0.0000

> <Gold.Chemscore.Hbonds>
donor molecule, donor type, donor heavy atom, donor atom, acceptor molecule, acceptor atom, score
      P1  H  6896  6908       L1    14  1.00
      P1  H  7989  7998       L1     5  1.00
      L1  C     6    26       P1  7949  1.00

> <Gold.PLP.Chemscore.Internal.Correction>
0.1169

> <Gold.Rescore>
     Score         DG    S(hbond)    S(metal)    S(lipo)     H(rot)  DE(clash)    DE(int)     intcor
     12.03     -14.92       1.91        0.00      65.02       1.77       0.00       2.89       ----

> <Gold.Chemscore.Fitness>
12.0280

> <Gold.Chemscore.DG>
-14.9205

> <Gold.Chemscore.ZeroCoef>
-5.4800

> <Gold.Chemscore.Hbond>
1.9083

> <Gold.Chemscore.Metal>
0.0000

> <Gold.Chemscore.Lipo>
65.0245

> <Gold.Chemscore.Internal_Hbond>
0.0000

> <Gold.Chemscore.DEClash>
0.0030

> <Gold.Chemscore.DEInternal>
2.8895

> <Gold.Chemscore.Rot>
1.7738

> <Gold.Chemscore.Internal.Correction>
   9.000000E+99

> <Gold.Chemscore.Hbonds>
donor molecule, donor type, donor heavy atom, donor atom, acceptor molecule, acceptor atom, score
      P1  H  6896  6908       L1    14  0.80
      P1  H  7989  7998       L1     5  0.41

> <Gold.Chemscore.Hbond.Weighted>
-6.3736

> <Gold.Chemscore.Metal.Weighted>
-0.0000

> <Gold.Chemscore.Lipo.Weighted>
-7.6079

> <Gold.Chemscore.Internal_Hbond.Weighted>
0.0000

> <Gold.Chemscore.DEClash.Weighted>
0.0030

> <Gold.Chemscore.DEInternal.Weighted>
2.8895

> <Gold.Chemscore.Rot.Weighted>
4.5409

> <Gold.Chemscore.Internal.Correction.Weighted>
   9.000000E+99

> <Gold.Protein.RotatedTorsions>
[ 6907 6896 6895 6894 ] final  152.10 input  -60.11 | X-H torsion
[ 7974 7965 7964 7962 ] final  -60.57 input  175.53 | X-H torsion
[ 8008 7997 7996 7995 ] final  150.93 input   59.86 | X-H torsion
[ 10167 10162 10161 10158 ] final   17.21 input  -65.29 | X-H torsion
[ 10718 10713 10712 10709 ] final  -55.27 input   66.30 | X-H torsion
[ 10763 10752 10751 10750 ] final  162.81 input  -60.55 | X-H torsion
[ 11005 11000 10999 10996 ] final -147.80 input  -57.11 | X-H torsion

> <Gold.Protein.ActiveResidues>
 VAL166  LYS551  ARG553  GLY616  TRP617  ASP618  TYR619  PRO620  LYS621  CYS622 
 ASP623  PHE694  ASN695  SER759  ASP760  ASP761  ALA762  ILE779  LEU786  VAL792 
 PHE793  MET794  SER795  GLU796  ALA797  LYS798  CYS799  TRP800  GLU811  SER814 

> <Gold.Protein.RotatedAtoms>
  152.0915  133.4203  159.4545 H   0  0  0  0  0  0  0  0  0  0  0  0  # atno 6907 bound_to 6896
  150.6862  134.2866  159.4658 H   0  0  0  0  0  0  0  0  0  0  0  0  # atno 6908 bound_to 6896
  152.0718  134.9528  160.0625 H   0  0  0  0  0  0  0  0  0  0  0  0  # atno 6909 bound_to 6896
  145.8139  140.8582  143.0168 H   0  0  0  0  0  0  0  0  0  0  0  0  # atno 7974 bound_to 7965
  156.2695  140.2061  156.6096 H   0  0  0  0  0  0  0  0  0  0  0  0  # atno 8008 bound_to 7997
  154.6842  140.0537  157.0321 H   0  0  0  0  0  0  0  0  0  0  0  0  # atno 8009 bound_to 7997
  155.0957  140.3201  155.4564 H   0  0  0  0  0  0  0  0  0  0  0  0  # atno 8010 bound_to 7997
  140.5742  143.9104  150.6737 H   0  0  0  0  0  0  0  0  0  0  0  0  # atno 10167 bound_to 10162
  156.1382  130.4156  150.0148 H   0  0  0  0  0  0  0  0  0  0  0  0  # atno 10718 bound_to 10713
  154.2841  135.2762  155.2684 H   0  0  0  0  0  0  0  0  0  0  0  0  # atno 10763 bound_to 10752
  154.5192  135.5761  153.6670 H   0  0  0  0  0  0  0  0  0  0  0  0  # atno 10764 bound_to 10752
  152.9924  135.6200  154.3002 H   0  0  0  0  0  0  0  0  0  0  0  0  # atno 10765 bound_to 10752
  140.7679  134.3223  157.5083 H   0  0  0  0  0  0  0  0  0  0  0  0  # atno 11005 bound_to 11000
  144.6754  140.0435  143.7480 LP  0  0  0  0  0  0  0  0  0  0  0  0  # atno 17320 bound_to 7965
  145.9748  139.2896  143.1077 LP  0  0  0  0  0  0  0  0  0  0  0  0  # atno 17321 bound_to 7965
  140.2587  143.3540  152.1342 LP  0  0  0  0  0  0  0  0  0  0  0  0  # atno 17342 bound_to 10162
  139.5134  144.6931  151.5705 LP  0  0  0  0  0  0  0  0  0  0  0  0  # atno 17343 bound_to 10162
  156.8041  130.9301  151.3645 LP  0  0  0  0  0  0  0  0  0  0  0  0  # atno 17370 bound_to 10713
  157.6552  130.8918  149.9714 LP  0  0  0  0  0  0  0  0  0  0  0  0  # atno 17371 bound_to 10713
  139.8760  134.9242  156.3344 LP  0  0  0  0  0  0  0  0  0  0  0  0  # atno 17394 bound_to 11000
  140.9602  133.7393  156.0391 LP  0  0  0  0  0  0  0  0  0  0  0  0  # atno 17395 bound_to 11000

$$$$
