AV-unprocessed.smi:283|AV-procd|sdf|2148|dock6
  -GOLD-   2262021483D 1   1.00000     0.00000
 Structure written by MMmdl.
 48 51  0  0  0  0  0  0  0  0  1 V2000
  147.4408  137.6611  163.4737 C   0  0  0  0  0  0  0  0  0  0  0  0
  146.6863  137.4233  162.1531 C   0  0  1  0  0  0  0  0  0  0  0  0
  147.5781  136.8889  161.1243 N   0  0  0  0  0  0  0  0  0  0  0  0
  147.5079  137.2984  159.8382 C   0  0  0  0  0  0  0  0  0  0  0  0
  146.3523  137.7797  159.3103 N   0  0  0  0  0  0  0  0  0  0  0  0
  146.3147  138.1771  158.0350 C   0  0  0  0  0  0  0  0  0  0  0  0
  147.2955  138.1703  157.1297 N   0  0  0  0  0  0  0  0  0  0  0  0
  148.4554  137.6749  157.6510 C   0  0  0  0  0  0  0  0  0  0  0  0
  148.6426  137.2308  158.9891 C   0  0  0  0  0  0  0  0  0  0  0  0
  149.9568  136.8221  159.1687 N   0  0  0  0  0  0  0  0  0  0  0  0
  150.5113  137.0234  158.0038 C   0  0  0  0  0  0  0  0  0  0  0  0
  149.6694  137.4972  157.0186 N   0  0  0  0  0  0  0  0  0  0  0  0
  149.9901  137.8542  155.5967 C   0  0  1  0  0  0  0  0  0  0  0  0
  149.7635  139.2240  155.4228 O   0  0  0  0  0  0  0  0  0  0  0  0
  150.9919  139.9456  155.4331 C   0  0  1  0  0  0  0  0  0  0  0  0
  151.3387  140.3820  156.8748 C   0  0  0  0  0  0  0  0  0  0  0  0
  150.2815  141.1269  157.4430 O   0  0  0  0  0  0  0  0  0  0  0  0
  151.9578  138.9534  154.7718 C   0  0  1  0  0  0  0  0  0  0  0  0
  153.3103  139.1828  155.1158 O   0  0  0  0  0  0  0  0  0  0  0  0
  151.4764  137.5954  155.2700 C   0  0  2  0  0  0  0  0  0  0  0  0
  151.6263  136.6309  154.2471 O   0  0  0  0  0  0  0  0  0  0  0  0
  145.4701  136.5313  162.3992 C   0  0  0  0  0  0  0  0  0  0  0  0
  144.1727  137.0954  162.4314 C   0  0  0  0  0  0  0  0  0  0  0  0
  143.0423  136.2860  162.6514 C   0  0  0  0  0  0  0  0  0  0  0  0
  143.1948  134.9002  162.8347 C   0  0  0  0  0  0  0  0  0  0  0  0
  144.4783  134.3257  162.7918 C   0  0  0  0  0  0  0  0  0  0  0  0
  145.6139  135.1308  162.5721 C   0  0  0  0  0  0  0  0  0  0  0  0
  147.1633  134.3648  162.5118 Cl  0  0  0  0  0  0  0  0  0  0  0  0
  149.2862  137.2641  155.0083 H   0  0  0  0  0  0  0  0  0  0  0  0
  150.8680  140.8349  154.8136 H   0  0  0  0  0  0  0  0  0  0  0  0
  151.8430  139.0260  153.6888 H   0  0  0  0  0  0  0  0  0  0  0  0
  152.0174  137.2948  156.1687 H   0  0  0  0  0  0  0  0  0  0  0  0
  146.7849  138.1052  164.2229 H   0  0  0  0  0  0  0  0  0  0  0  0
  148.2855  138.3374  163.3434 H   0  0  0  0  0  0  0  0  0  0  0  0
  147.8257  136.7264  163.8825 H   0  0  0  0  0  0  0  0  0  0  0  0
  146.3181  138.3802  161.7855 H   0  0  0  0  0  0  0  0  0  0  0  0
  148.2868  136.2492  161.4528 H   0  0  0  0  0  0  0  0  0  0  0  0
  145.3625  138.5522  157.6899 H   0  0  0  0  0  0  0  0  0  0  0  0
  151.5595  136.8250  157.8361 H   0  0  0  0  0  0  0  0  0  0  0  0
  151.4796  139.5038  157.5042 H   0  0  0  0  0  0  0  0  0  0  0  0
  152.2632  140.9587  156.9130 H   0  0  0  0  0  0  0  0  0  0  0  0
  149.4791  140.6391  157.3362 H   0  0  0  0  0  0  0  0  0  0  0  0
  153.8579  138.8396  154.4261 H   0  0  0  0  0  0  0  0  0  0  0  0
  150.9445  136.7634  153.6069 H   0  0  0  0  0  0  0  0  0  0  0  0
  144.0314  138.1558  162.2827 H   0  0  0  0  0  0  0  0  0  0  0  0
  142.0575  136.7285  162.6763 H   0  0  0  0  0  0  0  0  0  0  0  0
  142.3286  134.2774  163.0028 H   0  0  0  0  0  0  0  0  0  0  0  0
  144.5910  133.2597  162.9250 H   0  0  0  0  0  0  0  0  0  0  0  0
  1  2  1  0  0  0  0
  1 33  1  0  0  0  0
  1 34  1  0  0  0  0
  1 35  1  0  0  0  0
  2  3  1  0  0  0  0
  2 22  1  0  0  0  0
  2 36  1  0  0  0  0
  3  4  1  0  0  0  0
  3 37  1  0  0  0  0
  4  9  1  0  0  0  0
  4  5  2  0  0  0  0
  5  6  1  0  0  0  0
  6  7  2  0  0  0  0
  6 38  1  0  0  0  0
  7  8  1  0  0  0  0
  8 12  1  0  0  0  0
  8  9  2  0  0  0  0
  9 10  1  0  0  0  0
 10 11  2  0  0  0  0
 11 12  1  0  0  0  0
 11 39  1  0  0  0  0
 12 13  1  0  0  0  0
 13 29  1  0  0  0  0
 13 20  1  0  0  0  0
 13 14  1  0  0  0  0
 14 15  1  0  0  0  0
 15 30  1  0  0  0  0
 15 16  1  0  0  0  0
 15 18  1  0  0  0  0
 16 17  1  0  0  0  0
 16 40  1  0  0  0  0
 16 41  1  0  0  0  0
 17 42  1  0  0  0  0
 18 31  1  0  0  0  0
 18 19  1  0  0  0  0
 18 20  1  0  0  0  0
 19 43  1  0  0  0  0
 20 32  1  0  0  0  0
 20 21  1  0  0  0  0
 21 44  1  0  0  0  0
 22 27  1  0  0  0  0
 22 23  2  0  0  0  0
 23 24  1  0  0  0  0
 23 45  1  0  0  0  0
 24 25  2  0  0  0  0
 24 46  1  0  0  0  0
 25 26  1  0  0  0  0
 25 47  1  0  0  0  0
 26 27  2  0  0  0  0
 26 48  1  0  0  0  0
 27 28  1  0  0  0  0
M  END
> <s_m_source_file>
AV-unprocessed.smi

> <i_m_source_file_index>
283

> <i_lp_mmshare_version>
43012

> <i_f3d_flags>
0

> <s_epik_input>
Q2xjMVtjSF1bY0hdW2NIXVtjSF1jMVtDQEhdKFtDSDNdKVtOSF1jKG5bY0hdbjIpYyhjMjMpbltjSF1uM1tDQEBIXTRPW0NASF0oW0NIMl1bT0hdKVtDQEBIXShbT0hdKVtDQEhdNFtPSF0=

> <s_epik_cmdline>
J2VwaWtfcHl0aG9uJywgJy1waCcsICc3LjAnLCAnLXRuJywgJzgnLCAnLW1hJywgJzIwMCcsICctbWV0YWxfYmluZGluZycsICctaW1hZScsICc8aW5maWxlLm1hZT4nLCAnLW9tYWUnLCAnPG91dGZpbGUubWFlPic=

> <r_lp_tautomer_probability>
1

> <r_epik_Ionization_Penalty>
0.000266407

> <r_epik_Ionization_Penalty_Charging>
0

> <r_epik_Ionization_Penalty_Neutral>
0.000266407

> <r_epik_State_Penalty>
-0

> <r_epik_Charging_Adjusted_Penalty>
0

> <i_epik_Tot_Q>
0

> <i_epik_Tot_abs_Q>
0

> <r_epik_Metal_State_Penalty>
-0

> <b_epik_Metal_Only>
0

> <s_epik_Chemistry_Notes>
This compound contains an acetal/aminal-like group ( X-CH(R)-Y where X, Y are N, S, or O) that may be acid/base labile, releasing an aldehyde.

> <s_lp_Force_Field>
OPLS_2005

> <r_lp_Energy>
43.8521

> <b_lp_Chiralities_Consistent>
1

> <s_lp_Variant>
AV-unprocessed.smi:283-24

> <Gold.Version>
5.8.1

> <Gold.Id.Protein>
6NUR|6NUR_protein|mol2

> <Gold.PLP.Fitness>
55.6627

> <Gold.PLP.PLP>
-47.3117

> <Gold.PLP.part.hbond>
-4.4047

> <Gold.PLP.part.metal>
0.0000

> <Gold.PLP.part.buried>
-5.0725

> <Gold.PLP.part.nonpolar>
-37.3033

> <Gold.PLP.part.repulsive>
0.2472

> <Gold.PLP.ligand.clash>
0.0000

> <Gold.PLP.ligand.torsion>
0.8415

> <Gold.PLP.Chemscore.Hbond>
3.2999

> <Gold.PLP.Chemscore.CHOScore>
0.0000

> <Gold.PLP.Chemscore.Metal>
0.0000

> <Gold.Chemscore.Hbonds>
donor molecule, donor type, donor heavy atom, donor atom, acceptor molecule, acceptor atom, score
      L1  H    21    44       P1  7949  0.17
      P1  H  6896  6907       L1    10  0.60
      P1  H  7997  8010       L1    19  1.00
      P1  H 10752 10763       L1    21  0.90

> <Gold.PLP.Chemscore.Internal.Correction>
0.1344

> <Gold.Rescore>
     Score         DG    S(hbond)    S(metal)    S(lipo)     H(rot)  DE(clash)    DE(int)     intcor
     12.80     -15.56       2.82        0.00      95.41       4.10       0.49       2.28       ----

> <Gold.Chemscore.Fitness>
12.7954

> <Gold.Chemscore.DG>
-15.5633

> <Gold.Chemscore.ZeroCoef>
-5.4800

> <Gold.Chemscore.Hbond>
2.8170

> <Gold.Chemscore.Metal>
0.0000

> <Gold.Chemscore.Lipo>
95.4066

> <Gold.Chemscore.Internal_Hbond>
0.0000

> <Gold.Chemscore.DEClash>
0.4871

> <Gold.Chemscore.DEInternal>
2.2808

> <Gold.Chemscore.Rot>
4.0968

> <Gold.Chemscore.Internal.Correction>
   9.000000E+99

> <Gold.Chemscore.Hbonds>
donor molecule, donor type, donor heavy atom, donor atom, acceptor molecule, acceptor atom, score
      L1  H    21    44       P1  7949  0.04
      P1  H  6896  6907       L1    10  0.15
      P1  H  7997  8010       L1    19  0.44
      P1  H 10752 10763       L1    21  0.86

> <Gold.Chemscore.Hbond.Weighted>
-9.4087

> <Gold.Chemscore.Metal.Weighted>
-0.0000

> <Gold.Chemscore.Lipo.Weighted>
-11.1626

> <Gold.Chemscore.Internal_Hbond.Weighted>
0.0000

> <Gold.Chemscore.DEClash.Weighted>
0.4871

> <Gold.Chemscore.DEInternal.Weighted>
2.2808

> <Gold.Chemscore.Rot.Weighted>
10.4879

> <Gold.Chemscore.Internal.Correction.Weighted>
   9.000000E+99

> <Gold.Protein.RotatedTorsions>
[ 6907 6896 6895 6894 ] final  -45.70 input  -60.11 | X-H torsion
[ 7974 7965 7964 7962 ] final   94.01 input  175.53 | X-H torsion
[ 8008 7997 7996 7995 ] final   92.37 input   59.86 | X-H torsion
[ 10167 10162 10161 10158 ] final  148.22 input  -65.29 | X-H torsion
[ 10718 10713 10712 10709 ] final -105.60 input   66.30 | X-H torsion
[ 10763 10752 10751 10750 ] final   17.70 input  -60.55 | X-H torsion
[ 11005 11000 10999 10996 ] final   12.81 input  -57.11 | X-H torsion

> <Gold.Protein.ActiveResidues>
 VAL166  LYS551  ARG553  GLY616  TRP617  ASP618  TYR619  PRO620  LYS621  CYS622 
 ASP623  PHE694  ASN695  SER759  ASP760  ASP761  ALA762  ILE779  LEU786  VAL792 
 PHE793  MET794  SER795  GLU796  ALA797  LYS798  CYS799  TRP800  GLU811  SER814 

> <Gold.Protein.RotatedAtoms>
  150.9191  134.8609  159.7476 H   0  0  0  0  0  0  0  0  0  0  0  0  # atno 6907 bound_to 6896
  152.4984  134.4244  159.9501 H   0  0  0  0  0  0  0  0  0  0  0  0  # atno 6908 bound_to 6896
  151.4280  133.3639  159.2800 H   0  0  0  0  0  0  0  0  0  0  0  0  # atno 6909 bound_to 6896
  145.4713  139.2282  143.2933 H   0  0  0  0  0  0  0  0  0  0  0  0  # atno 7974 bound_to 7965
  156.0346  140.3326  155.7176 H   0  0  0  0  0  0  0  0  0  0  0  0  # atno 8008 bound_to 7997
  155.5835  140.0639  157.2795 H   0  0  0  0  0  0  0  0  0  0  0  0  # atno 8009 bound_to 7997
  154.4367  140.1840  156.0989 H   0  0  0  0  0  0  0  0  0  0  0  0  # atno 8010 bound_to 7997
  139.4878  144.5696  151.7080 H   0  0  0  0  0  0  0  0  0  0  0  0  # atno 10167 bound_to 10162
  156.0353  130.5571  150.7562 H   0  0  0  0  0  0  0  0  0  0  0  0  # atno 10718 bound_to 10713
  153.1315  135.6741  153.9170 H   0  0  0  0  0  0  0  0  0  0  0  0  # atno 10763 bound_to 10752
  153.8655  135.3076  155.3441 H   0  0  0  0  0  0  0  0  0  0  0  0  # atno 10764 bound_to 10752
  154.7712  135.4938  153.9734 H   0  0  0  0  0  0  0  0  0  0  0  0  # atno 10765 bound_to 10752
  140.4878  134.0870  155.7764 H   0  0  0  0  0  0  0  0  0  0  0  0  # atno 11005 bound_to 11000
  146.2395  140.5491  142.8940 LP  0  0  0  0  0  0  0  0  0  0  0  0  # atno 17320 bound_to 7965
  144.7944  140.6094  143.6520 LP  0  0  0  0  0  0  0  0  0  0  0  0  # atno 17321 bound_to 7965
  140.5280  144.0775  150.6044 LP  0  0  0  0  0  0  0  0  0  0  0  0  # atno 17342 bound_to 10162
  140.3755  143.2831  152.0229 LP  0  0  0  0  0  0  0  0  0  0  0  0  # atno 17343 bound_to 10162
  157.5093  131.0924  151.0217 LP  0  0  0  0  0  0  0  0  0  0  0  0  # atno 17370 bound_to 10713
  157.0577  130.5813  149.5380 LP  0  0  0  0  0  0  0  0  0  0  0  0  # atno 17371 bound_to 10713
  141.1499  133.8988  157.2124 LP  0  0  0  0  0  0  0  0  0  0  0  0  # atno 17394 bound_to 11000
  139.9787  135.0105  156.9696 LP  0  0  0  0  0  0  0  0  0  0  0  0  # atno 17395 bound_to 11000

$$$$
