#       Name:                AV-unprocessed.smi:701
#       Creating user name   scv26
#       Creation time:       Fri Mar 27 00:39:20 2020


#       File generated by GOLD software.
#

@<TRIPOS>MOLECULE
AV-unprocessed.smi:701
    57    59     1
SMALL
NO_CHARGES


@<TRIPOS>ATOM
      1 ****        -5.8318   1.7094  -0.7640 C.3            1 S1                 0.0000
      2 ****        -4.3124   1.8794  -0.7038 C.3            1 S1                 0.0000
      3 ****        -3.7127   0.5987  -0.6027 O.3            1 S1                 0.0000
      4 ****        -2.2962   0.6567  -0.5415 C.3            1 S1                 0.0000
      5 ****        -1.7324   1.0727   0.8202 C.3            1 S1                 0.0000
      6 ****        -0.6708  -0.0163   0.6348 C.3            1 S1                 0.0000
      7 ****         0.5338   0.5330   0.0107 N.am           1 S1                 0.0000
      8 ****         1.7914   0.1986   0.3333 C.2            1 S1                 0.0000
      9 ****         2.0706  -0.6273   1.2030 O.2            1 S1                 0.0000
     10 ****         2.9021   0.8801  -0.4765 C.3            1 S1                 0.0000
     11 ****         4.0929   1.1696   0.3343 N.am           1 S1                 0.0000
     12 ****         5.1851   0.3141   0.3087 C.2            1 S1                 0.0000
     13 ****         6.3094   0.5191   1.0351 C.2            1 S1                 0.0000
     14 ****         6.4252   1.6855   1.9039 C.2            1 S1                 0.0000
     15 ****         7.4025   1.9595   2.5968 O.2            1 S1                 0.0000
     16 ****         5.3041   2.5195   1.9055 N.am           1 S1                 0.0000
     17 ****         4.1413   2.3124   1.1619 C.2            1 S1                 0.0000
     18 ****         3.2067   3.1090   1.2404 O.2            1 S1                 0.0000
     19 ****        -1.6283  -0.7290  -0.3658 C.3            1 S1                 0.0000
     20 ****        -2.5178  -1.8190   0.2711 C.3            1 S1                 0.0000
     21 ****        -1.7486  -3.1164   0.5772 C.3            1 S1                 0.0000
     22 ****        -1.0850  -3.6823  -0.6848 C.3            1 S1                 0.0000
     23 ****        -0.2229  -2.6220  -1.3810 C.3            1 S1                 0.0000
     24 ****        -1.0315  -1.3413  -1.6494 C.3            1 S1                 0.0000
     25 ****         5.3377   3.3385   2.4951 H              1 S1                 0.0000
     26 ****        -6.3301   2.6764  -0.8352 H              1 S1                 0.0000
     27 ****        -6.2040   1.2057   0.1284 H              1 S1                 0.0000
     28 ****        -6.1246   1.1170  -1.6311 H              1 S1                 0.0000
     29 ****        -3.9584   2.3903  -1.6003 H              1 S1                 0.0000
     30 ****        -4.0423   2.4944   0.1556 H              1 S1                 0.0000
     31 ****        -1.8574   1.2222  -1.3665 H              1 S1                 0.0000
     32 ****        -1.3536   2.0946   0.8639 H              1 S1                 0.0000
     33 ****        -2.4131   0.8637   1.6468 H              1 S1                 0.0000
     34 ****        -0.4905  -0.5788   1.5521 H              1 S1                 0.0000
     35 ****         0.3978   1.2160  -0.7203 H              1 S1                 0.0000
     36 ****         3.1606   0.2242  -1.3092 H              1 S1                 0.0000
     37 ****         2.5285   1.7965  -0.9384 H              1 S1                 0.0000
     38 ****         5.1417  -0.5654  -0.3177 H              1 S1                 0.0000
     39 ****         7.1273  -0.1842   0.9733 H              1 S1                 0.0000
     40 ****        -2.9712  -1.4563   1.1940 H              1 S1                 0.0000
     41 ****        -3.3533  -2.0524  -0.3902 H              1 S1                 0.0000
     42 ****        -0.9873  -2.9247   1.3341 H              1 S1                 0.0000
     43 ****        -2.4251  -3.8577   1.0032 H              1 S1                 0.0000
     44 ****        -0.4793  -4.5531  -0.4329 H              1 S1                 0.0000
     45 ****        -1.8561  -4.0302  -1.3734 H              1 S1                 0.0000
     46 ****         0.6426  -2.3897  -0.7601 H              1 S1                 0.0000
     47 ****         0.1683  -3.0192  -2.3179 H              1 S1                 0.0000
     48 ****        -1.8335  -1.5716  -2.3522 H              1 S1                 0.0000
     49 ****        -0.3992  -0.6219  -2.1699 H              1 S1                 0.0000
     50 ****        -3.9759   0.0589  -1.4023 LP             1 S1                 0.0000
     51 ****        -4.0501   0.1527   0.2263 LP             1 S1                 0.0000
     52 ****         1.3406  -1.0864   1.7093 LP             1 S1                 0.0000
     53 ****         3.0273  -0.8388   1.4030 LP             1 S1                 0.0000
     54 ****         8.2026   1.3597   2.5923 LP             1 S1                 0.0000
     55 ****         7.3976   2.7823   3.1652 LP             1 S1                 0.0000
     56 ****         2.3749   2.9581   0.7063 LP             1 S1                 0.0000
     57 ****         3.2790   3.9073   1.8384 LP             1 S1                 0.0000
@<TRIPOS>BOND
    1    1    2 1     
    2    1   26 1     
    3    1   27 1     
    4    1   28 1     
    5    2    3 1     
    6    2   29 1     
    7    2   30 1     
    8    3    4 1     
    9    4   19 1     
   10    4    5 1     
   11    4   31 1     
   12    5    6 1     
   13    5   32 1     
   14    5   33 1     
   15    6    7 1     
   16    6   19 1     
   17    6   34 1     
   18    7    8 am    
   19    7   35 1     
   20    8    9 2     
   21    8   10 1     
   22   10   11 1     
   23   10   36 1     
   24   10   37 1     
   25   11   17 1     
   26   11   12 1     
   27   12   13 2     
   28   12   38 1     
   29   13   14 1     
   30   13   39 1     
   31   14   15 2     
   32   14   16 1     
   33   16   25 1     
   34   16   17 1     
   35   17   18 2     
   36   19   24 1     
   37   19   20 1     
   38   20   21 1     
   39   20   40 1     
   40   20   41 1     
   41   21   22 1     
   42   21   42 1     
   43   21   43 1     
   44   22   23 1     
   45   22   44 1     
   46   22   45 1     
   47   23   24 1     
   48   23   46 1     
   49   23   47 1     
   50   24   48 1     
   51   24   49 1     
   52    3   50 1     
   53    3   51 1     
   54    9   52 1     
   55    9   53 1     
   56   15   54 1     
   57   15   55 1     
   58   18   56 1     
   59   18   57 1     
@<TRIPOS>SUBSTRUCTURE
      1 S1             1
@<TRIPOS>SET
LONE_PAIRS      STATIC     ATOMS    <user>   **** ""
8 50 51 52 53 54 55 56 57
DONOR_HYDROGENS      STATIC     ATOMS    <user>   **** ""
2 35 25
ATOM$BLUE        STATIC     ATOMS    COLORGROUP SYSTEM
8 50 51 52 53 54 55 56 57
ATOM$RED        STATIC     ATOMS    COLORGROUP SYSTEM
2 35 25
