AV-unprocessed.smi:3281|AV-procd|sdf|12556|dock1
  -GOLD-   2272018473D 1   1.00000     0.00000
 Structure written by MMmdl.
 37 38  0  0  0  0  0  0  0  0  2 V2000
  144.2560  131.6300  150.6878 C   0  0  0  0  0  0  0  0  0  0  0  0
  143.9443  133.0116  150.1029 C   0  0  0  0  0  0  0  0  0  0  0  0
  144.1440  134.1230  151.0799 C   0  0  0  0  0  0  0  0  0  0  0  0
  143.5644  134.2656  152.3164 C   0  0  0  0  0  0  0  0  0  0  0  0
  143.9600  135.4204  152.9958 N   0  0  0  0  0  0  0  0  0  0  0  0
  144.8143  136.1611  152.2867 C   0  0  0  0  0  0  0  0  0  0  0  0
  145.4214  137.4265  152.7920 C   0  0  0  0  0  0  0  0  0  0  0  0
  146.2012  138.1736  151.7028 C   0  0  0  0  0  0  0  0  0  0  0  0
  146.3369  139.6064  152.0388 N   0  3  0  0  0  0  0  0  0  0  0  0
  147.0231  139.8973  153.3178 C   0  0  2  0  0  0  0  0  0  0  0  0
  147.0983  141.4186  153.5784 C   0  0  0  0  0  0  0  0  0  0  0  0
  147.7650  141.7633  154.9209 C   0  0  0  0  0  0  0  0  0  0  0  0
  149.2109  141.2577  155.0086 C   0  0  0  0  0  0  0  0  0  0  0  0
  149.2762  139.4511  154.8827 S   0  0  0  0  0  0  0  0  0  0  0  0
  148.4267  139.2653  153.2916 C   0  0  0  0  0  0  0  0  0  0  0  0
  145.2142  135.4552  150.7258 S   0  0  0  0  0  0  0  0  0  0  0  0
  144.1002  130.8492  149.9431 H   0  0  0  0  0  0  0  0  0  0  0  0
  143.6146  131.4079  151.5411 H   0  0  0  0  0  0  0  0  0  0  0  0
  145.2922  131.5699  151.0221 H   0  0  0  0  0  0  0  0  0  0  0  0
  144.5705  133.1799  149.2261 H   0  0  0  0  0  0  0  0  0  0  0  0
  142.9147  133.0272  149.7445 H   0  0  0  0  0  0  0  0  0  0  0  0
  142.8646  133.5937  152.7912 H   0  0  0  0  0  0  0  0  0  0  0  0
  144.6252  138.0588  153.1866 H   0  0  0  0  0  0  0  0  0  0  0  0
  146.0777  137.1894  153.6307 H   0  0  0  0  0  0  0  0  0  0  0  0
  147.1876  137.7243  151.5875 H   0  0  0  0  0  0  0  0  0  0  0  0
  145.6861  138.0738  150.7464 H   0  0  0  0  0  0  0  0  0  0  0  0
  146.8786  140.0338  151.3011 H   0  0  0  0  0  0  0  0  0  0  0  0
  146.4556  139.4225  154.1201 H   0  0  0  0  0  0  0  0  0  0  0  0
  147.6401  141.9070  152.7671 H   0  0  0  0  0  0  0  0  0  0  0  0
  146.0982  141.8510  153.5788 H   0  0  0  0  0  0  0  0  0  0  0  0
  147.7557  142.8449  155.0585 H   0  0  0  0  0  0  0  0  0  0  0  0
  147.1794  141.3473  155.7419 H   0  0  0  0  0  0  0  0  0  0  0  0
  149.8168  141.6937  154.2135 H   0  0  0  0  0  0  0  0  0  0  0  0
  149.6602  141.5588  155.9552 H   0  0  0  0  0  0  0  0  0  0  0  0
  148.3601  138.2002  153.0673 H   0  0  0  0  0  0  0  0  0  0  0  0
  149.0385  139.7180  152.5103 H   0  0  0  0  0  0  0  0  0  0  0  0
  145.4225  140.0350  152.0524 H   0  0  0  0  0  0  0  0  0  0  0  0
  1  2  1  0  0  0  0
  1 17  1  0  0  0  0
  1 18  1  0  0  0  0
  1 19  1  0  0  0  0
  2  3  1  0  0  0  0
  2 20  1  0  0  0  0
  2 21  1  0  0  0  0
  3 16  1  0  0  0  0
  3  4  2  0  0  0  0
  4  5  1  0  0  0  0
  4 22  1  0  0  0  0
  5  6  2  0  0  0  0
  6  7  1  0  0  0  0
  6 16  1  0  0  0  0
  7  8  1  0  0  0  0
  7 23  1  0  0  0  0
  7 24  1  0  0  0  0
  8  9  1  0  0  0  0
  8 25  1  0  0  0  0
  8 26  1  0  0  0  0
  9 10  1  0  0  0  0
  9 27  1  0  0  0  0
  9 37  1  0  0  0  0
 10 15  1  0  0  0  0
 10 11  1  0  0  0  0
 10 28  1  0  0  0  0
 11 12  1  0  0  0  0
 11 29  1  0  0  0  0
 11 30  1  0  0  0  0
 12 13  1  0  0  0  0
 12 31  1  0  0  0  0
 12 32  1  0  0  0  0
 13 14  1  0  0  0  0
 13 33  1  0  0  0  0
 13 34  1  0  0  0  0
 14 15  1  0  0  0  0
 15 35  1  0  0  0  0
 15 36  1  0  0  0  0
M  CHG  1   9   1
M  END
> <s_m_source_file>
AV-unprocessed.smi

> <i_m_source_file_index>
3281

> <i_lp_mmshare_version>
43012

> <i_f3d_flags>
0

> <s_epik_input>
W0NIM11bQ0gyXWMxW2NIXW5jKHMxKVtDSDJdW0NIMl1bTkhdW0NAQEhdMltDSDJdW0NIMl1bQ0gyXVNbQ0gyXTI=

> <s_epik_cmdline>
J2VwaWtfcHl0aG9uJywgJy1waCcsICc3LjAnLCAnLXRuJywgJzgnLCAnLW1hJywgJzIwMCcsICctbWV0YWxfYmluZGluZycsICctaW1hZScsICc8aW5maWxlLm1hZT4nLCAnLW9tYWUnLCAnPG91dGZpbGUubWFlPic=

> <r_epik_Ionization_Penalty>
0.00827702

> <r_epik_Ionization_Penalty_Charging>
0.00826679

> <r_epik_Ionization_Penalty_Neutral>
1.02314e-05

> <r_epik_State_Penalty>
0.00622064

> <r_epik_Charging_Adjusted_Penalty>
0.0144874

> <i_epik_Tot_Q>
1

> <i_epik_Tot_abs_Q>
1

> <r_epik_Metal_State_Penalty>
0.0062521

> <b_epik_Metal_Only>
0

> <s_lp_Force_Field>
OPLS_2005

> <r_lp_Energy>
-1.10641

> <b_lp_Chiralities_Consistent>
1

> <s_lp_Variant>
AV-unprocessed.smi:3281-1

> <Gold.Version>
5.8.1

> <Gold.Id.Protein>
6NUR|6NUR_protein|mol2

> <Gold.PLP.Fitness>
40.8078

> <Gold.PLP.PLP>
-32.1671

> <Gold.PLP.part.hbond>
-1.0000

> <Gold.PLP.part.metal>
0.0000

> <Gold.PLP.part.buried>
1.1548

> <Gold.PLP.part.nonpolar>
-33.0632

> <Gold.PLP.part.repulsive>
0.1063

> <Gold.PLP.ligand.clash>
0.0000

> <Gold.PLP.ligand.torsion>
0.2208

> <Gold.PLP.Chemscore.Hbond>
2.0000

> <Gold.PLP.Chemscore.CHOScore>
1.0000

> <Gold.PLP.Chemscore.Metal>
0.0000

> <Gold.Chemscore.Hbonds>
donor molecule, donor type, donor heavy atom, donor atom, acceptor molecule, acceptor atom, score
      L1  H     9    37       P1 10175  2.00
      L1  C     4    22       P1 10957  0.58

> <Gold.PLP.Chemscore.Internal.Correction>
0.0823

> <Gold.Rescore>
     Score         DG    S(hbond)    S(metal)    S(lipo)     H(rot)  DE(clash)    DE(int)     intcor
     14.89     -17.02       0.96        0.00     101.46       1.38       1.97       0.16       ----

> <Gold.Chemscore.Fitness>
14.8925

> <Gold.Chemscore.DG>
-17.0230

> <Gold.Chemscore.ZeroCoef>
-5.4800

> <Gold.Chemscore.Hbond>
0.9570

> <Gold.Chemscore.Metal>
0.0000

> <Gold.Chemscore.Lipo>
101.4598

> <Gold.Chemscore.Internal_Hbond>
0.0000

> <Gold.Chemscore.DEClash>
1.9690

> <Gold.Chemscore.DEInternal>
0.1615

> <Gold.Chemscore.Rot>
1.3767

> <Gold.Chemscore.Internal.Correction>
   9.000000E+99

> <Gold.Chemscore.Hbonds>
donor molecule, donor type, donor heavy atom, donor atom, acceptor molecule, acceptor atom, score
      L1  H     9    37       P1 10175  0.60

> <Gold.Chemscore.Hbond.Weighted>
-3.1965

> <Gold.Chemscore.Metal.Weighted>
-0.0000

> <Gold.Chemscore.Lipo.Weighted>
-11.8708

> <Gold.Chemscore.Internal_Hbond.Weighted>
0.0000

> <Gold.Chemscore.DEClash.Weighted>
1.9690

> <Gold.Chemscore.DEInternal.Weighted>
0.1615

> <Gold.Chemscore.Rot.Weighted>
3.5243

> <Gold.Chemscore.Internal.Correction.Weighted>
   9.000000E+99

> <Gold.Protein.RotatedTorsions>
[ 6907 6896 6895 6894 ] final   73.02 input  -60.11 | X-H torsion
[ 7974 7965 7964 7962 ] final  -92.36 input  175.53 | X-H torsion
[ 8008 7997 7996 7995 ] final  173.41 input   59.86 | X-H torsion
[ 10167 10162 10161 10158 ] final  -69.72 input  -65.29 | X-H torsion
[ 10718 10713 10712 10709 ] final   78.74 input   66.30 | X-H torsion
[ 10763 10752 10751 10750 ] final -158.72 input  -60.55 | X-H torsion
[ 11005 11000 10999 10996 ] final  -26.55 input  -57.11 | X-H torsion

> <Gold.Protein.ActiveResidues>
 VAL166  LYS551  ARG553  GLY616  TRP617  ASP618  TYR619  PRO620  LYS621  CYS622 
 ASP623  PHE694  ASN695  SER759  ASP760  ASP761  ALA762  ILE779  LEU786  VAL792 
 PHE793  MET794  SER795  GLU796  ALA797  LYS798  CYS799  TRP800  GLU811  SER814 

> <Gold.Protein.RotatedAtoms>
  152.4900  134.4484  159.9566 H   0  0  0  0  0  0  0  0  0  0  0  0  # atno 6907 bound_to 6896
  151.4473  133.3621  159.2798 H   0  0  0  0  0  0  0  0  0  0  0  0  # atno 6908 bound_to 6896
  150.9046  134.8484  159.7444 H   0  0  0  0  0  0  0  0  0  0  0  0  # atno 6909 bound_to 6896
  145.4008  140.9537  143.2288 H   0  0  0  0  0  0  0  0  0  0  0  0  # atno 7974 bound_to 7965
  156.1078  140.1461  156.9381 H   0  0  0  0  0  0  0  0  0  0  0  0  # atno 8008 bound_to 7997
  154.4746  140.0899  156.7273 H   0  0  0  0  0  0  0  0  0  0  0  0  # atno 8009 bound_to 7997
  155.4650  140.3439  155.4320 H   0  0  0  0  0  0  0  0  0  0  0  0  # atno 8010 bound_to 7997
  140.5408  143.2315  151.7092 H   0  0  0  0  0  0  0  0  0  0  0  0  # atno 10167 bound_to 10162
  157.6754  130.9882  150.1830 H   0  0  0  0  0  0  0  0  0  0  0  0  # atno 10718 bound_to 10713
  154.7534  135.3098  154.8516 H   0  0  0  0  0  0  0  0  0  0  0  0  # atno 10763 bound_to 10752
  153.9297  135.6786  153.4750 H   0  0  0  0  0  0  0  0  0  0  0  0  # atno 10764 bound_to 10752
  153.1130  135.4857  154.8996 H   0  0  0  0  0  0  0  0  0  0  0  0  # atno 10765 bound_to 10752
  140.9039  133.7505  156.0580 H   0  0  0  0  0  0  0  0  0  0  0  0  # atno 11005 bound_to 11000
  144.8375  139.5526  143.6915 LP  0  0  0  0  0  0  0  0  0  0  0  0  # atno 17320 bound_to 7965
  146.2752  139.6736  142.9268 LP  0  0  0  0  0  0  0  0  0  0  0  0  # atno 17321 bound_to 7965
  139.4988  144.3971  152.0220 LP  0  0  0  0  0  0  0  0  0  0  0  0  # atno 17342 bound_to 10162
  140.3080  144.3571  150.6042 LP  0  0  0  0  0  0  0  0  0  0  0  0  # atno 17343 bound_to 10162
  156.2558  130.3705  149.8183 LP  0  0  0  0  0  0  0  0  0  0  0  0  # atno 17370 bound_to 10713
  156.5942  130.8519  151.3416 LP  0  0  0  0  0  0  0  0  0  0  0  0  # atno 17371 bound_to 10713
  140.8195  134.3305  157.5386 LP  0  0  0  0  0  0  0  0  0  0  0  0  # atno 17394 bound_to 11000
  139.8746  134.9301  156.3494 LP  0  0  0  0  0  0  0  0  0  0  0  0  # atno 17395 bound_to 11000

$$$$
