AV-unprocessed.smi:3156|AV-procd|sdf|12032|dock5
  -GOLD-   2272017453D 1   1.00000     0.00000
 Structure written by MMmdl.
 41 42  0  0  0  0  0  0  0  0  2 V2000
  153.4377  138.2761  157.3948 C   0  0  0  0  0  0  0  0  0  0  0  0
  152.0943  138.9468  157.0561 C   0  0  1  0  0  0  0  0  0  0  0  0
  152.1858  140.3853  157.3918 N   0  3  0  0  0  0  0  0  0  0  0  0
  151.8061  140.7285  158.7784 C   0  0  0  0  0  0  0  0  0  0  0  0
  152.2630  142.1469  159.1502 C   0  0  1  0  0  0  0  0  0  0  0  0
  151.6399  143.2262  158.2401 C   0  0  0  0  0  0  0  0  0  0  0  0
  152.0423  144.6285  158.7113 C   0  0  0  0  0  0  0  0  0  0  0  0
  151.7068  144.7903  160.1974 C   0  0  0  0  0  0  0  0  0  0  0  0
  152.3158  143.6372  161.0104 C   0  0  0  0  0  0  0  0  0  0  0  0
  151.8622  142.3880  160.4967 O   0  0  0  0  0  0  0  0  0  0  0  0
  151.6826  138.7596  155.5699 C   0  0  2  0  0  0  0  0  0  0  0  0
  152.8351  139.0322  154.5843 C   0  0  0  0  0  0  0  0  0  0  0  0
  150.5261  139.5728  155.2157 N   0  0  0  0  0  0  0  0  0  0  0  0
  149.2580  139.1514  154.8710 C   0  0  0  0  0  0  0  0  0  0  0  0
  148.5130  140.2664  154.6137 C   0  0  0  0  0  0  0  0  0  0  0  0
  149.4234  141.3384  154.8273 C   0  0  0  0  0  0  0  0  0  0  0  0
  150.6266  140.9211  155.1858 N   0  0  0  0  0  0  0  0  0  0  0  0
  153.3966  137.1944  157.2662 H   0  0  0  0  0  0  0  0  0  0  0  0
  153.7155  138.4621  158.4328 H   0  0  0  0  0  0  0  0  0  0  0  0
  154.2408  138.6565  156.7626 H   0  0  0  0  0  0  0  0  0  0  0  0
  151.3373  138.4818  157.6907 H   0  0  0  0  0  0  0  0  0  0  0  0
  153.1411  140.6813  157.2508 H   0  0  0  0  0  0  0  0  0  0  0  0
  150.7281  140.6337  158.9122 H   0  0  0  0  0  0  0  0  0  0  0  0
  152.2736  140.0052  159.4478 H   0  0  0  0  0  0  0  0  0  0  0  0
  153.3523  142.1947  159.0965 H   0  0  0  0  0  0  0  0  0  0  0  0
  151.9505  143.0820  157.2049 H   0  0  0  0  0  0  0  0  0  0  0  0
  150.5528  143.1368  158.2543 H   0  0  0  0  0  0  0  0  0  0  0  0
  153.1123  144.7754  158.5582 H   0  0  0  0  0  0  0  0  0  0  0  0
  151.5326  145.3903  158.1205 H   0  0  0  0  0  0  0  0  0  0  0  0
  152.0747  145.7484  160.5657 H   0  0  0  0  0  0  0  0  0  0  0  0
  150.6244  144.7988  160.3311 H   0  0  0  0  0  0  0  0  0  0  0  0
  153.4059  143.6782  160.9879 H   0  0  0  0  0  0  0  0  0  0  0  0
  152.0170  143.7175  162.0557 H   0  0  0  0  0  0  0  0  0  0  0  0
  151.3810  137.7193  155.4367 H   0  0  0  0  0  0  0  0  0  0  0  0
  153.6553  138.3274  154.7213 H   0  0  0  0  0  0  0  0  0  0  0  0
  153.2367  140.0387  154.7065 H   0  0  0  0  0  0  0  0  0  0  0  0
  152.4973  138.9338  153.5520 H   0  0  0  0  0  0  0  0  0  0  0  0
  148.9935  138.1047  154.8373 H   0  0  0  0  0  0  0  0  0  0  0  0
  147.4758  140.3099  154.3156 H   0  0  0  0  0  0  0  0  0  0  0  0
  149.2480  142.3998  154.7318 H   0  0  0  0  0  0  0  0  0  0  0  0
  151.5940  140.8981  156.7539 H   0  0  0  0  0  0  0  0  0  0  0  0
  1  2  1  0  0  0  0
  1 18  1  0  0  0  0
  1 19  1  0  0  0  0
  1 20  1  0  0  0  0
  2  3  1  0  0  0  0
  2 11  1  0  0  0  0
  2 21  1  0  0  0  0
  3  4  1  0  0  0  0
  3 22  1  0  0  0  0
  3 41  1  0  0  0  0
  4  5  1  0  0  0  0
  4 23  1  0  0  0  0
  4 24  1  0  0  0  0
  5 10  1  0  0  0  0
  5  6  1  0  0  0  0
  5 25  1  0  0  0  0
  6  7  1  0  0  0  0
  6 26  1  0  0  0  0
  6 27  1  0  0  0  0
  7  8  1  0  0  0  0
  7 28  1  0  0  0  0
  7 29  1  0  0  0  0
  8  9  1  0  0  0  0
  8 30  1  0  0  0  0
  8 31  1  0  0  0  0
  9 10  1  0  0  0  0
  9 32  1  0  0  0  0
  9 33  1  0  0  0  0
 11 12  1  0  0  0  0
 11 13  1  0  0  0  0
 11 34  1  0  0  0  0
 12 35  1  0  0  0  0
 12 36  1  0  0  0  0
 12 37  1  0  0  0  0
 13 17  1  0  0  0  0
 13 14  1  0  0  0  0
 14 15  2  0  0  0  0
 14 38  1  0  0  0  0
 15 16  1  0  0  0  0
 15 39  1  0  0  0  0
 16 17  2  0  0  0  0
 16 40  1  0  0  0  0
M  CHG  1   3   1
M  END
> <s_m_source_file>
AV-unprocessed.smi

> <i_m_source_file_index>
3156

> <i_lp_mmshare_version>
43012

> <i_f3d_flags>
0

> <s_epik_input>
bjFbY0hdW2NIXVtjSF1uMVtDQEBIXShbQ0gzXSlbQ0BIXShbQ0gzXSlbTkhdW0NIMl1bQ0BASF0yW0NIMl1bQ0gyXVtDSDJdW0NIMl1PMg==

> <s_epik_cmdline>
J2VwaWtfcHl0aG9uJywgJy1waCcsICc3LjAnLCAnLXRuJywgJzgnLCAnLW1hJywgJzIwMCcsICctbWV0YWxfYmluZGluZycsICctaW1hZScsICc8aW5maWxlLm1hZT4nLCAnLW9tYWUnLCAnPG91dGZpbGUubWFlPic=

> <r_lp_tautomer_probability>
1

> <r_epik_Ionization_Penalty>
0.00658015

> <r_epik_Ionization_Penalty_Charging>
0.00656881

> <r_epik_Ionization_Penalty_Neutral>
1.13431e-05

> <r_epik_State_Penalty>
0.0048654

> <r_epik_Charging_Adjusted_Penalty>
0.0114342

> <i_epik_Tot_Q>
1

> <i_epik_Tot_abs_Q>
1

> <r_epik_Metal_State_Penalty>
-0

> <b_epik_Metal_Only>
0

> <s_lp_Force_Field>
OPLS_2005

> <r_lp_Energy>
19.0125

> <b_lp_Chiralities_Consistent>
1

> <s_lp_Variant>
AV-unprocessed.smi:3156-4

> <Gold.Version>
5.8.1

> <Gold.Id.Protein>
6NUR|6NUR_protein|mol2

> <Gold.PLP.Fitness>
41.9572

> <Gold.PLP.PLP>
-38.2866

> <Gold.PLP.part.hbond>
-1.7147

> <Gold.PLP.part.metal>
0.0000

> <Gold.PLP.part.buried>
-4.3291

> <Gold.PLP.part.nonpolar>
-32.9586

> <Gold.PLP.part.repulsive>
0.2055

> <Gold.PLP.ligand.clash>
0.0000

> <Gold.PLP.ligand.torsion>
0.6569

> <Gold.PLP.Chemscore.Hbond>
0.6331

> <Gold.PLP.Chemscore.CHOScore>
1.0000

> <Gold.PLP.Chemscore.Metal>
0.0000

> <Gold.Chemscore.Hbonds>
donor molecule, donor type, donor heavy atom, donor atom, acceptor molecule, acceptor atom, score
      P1  H  7989  7998       L1    17  0.50
      L1  C    16    40       P1  8028  1.00

> <Gold.PLP.Chemscore.Internal.Correction>
0.0850

> <Gold.Rescore>
     Score         DG    S(hbond)    S(metal)    S(lipo)     H(rot)  DE(clash)    DE(int)     intcor
     13.98     -16.43       0.70        0.00     108.40       1.59       0.32       2.13       ----

> <Gold.Chemscore.Fitness>
13.9818

> <Gold.Chemscore.DG>
-16.4267

> <Gold.Chemscore.ZeroCoef>
-5.4800

> <Gold.Chemscore.Hbond>
0.7017

> <Gold.Chemscore.Metal>
0.0000

> <Gold.Chemscore.Lipo>
108.4050

> <Gold.Chemscore.Internal_Hbond>
0.0000

> <Gold.Chemscore.DEClash>
0.3152

> <Gold.Chemscore.DEInternal>
2.1297

> <Gold.Chemscore.Rot>
1.5938

> <Gold.Chemscore.Internal.Correction>
   9.000000E+99

> <Gold.Chemscore.Hbonds>
donor molecule, donor type, donor heavy atom, donor atom, acceptor molecule, acceptor atom, score
      P1  H  7989  7998       L1    17  0.02

> <Gold.Chemscore.Hbond.Weighted>
-2.3436

> <Gold.Chemscore.Metal.Weighted>
-0.0000

> <Gold.Chemscore.Lipo.Weighted>
-12.6834

> <Gold.Chemscore.Internal_Hbond.Weighted>
0.0000

> <Gold.Chemscore.DEClash.Weighted>
0.3152

> <Gold.Chemscore.DEInternal.Weighted>
2.1297

> <Gold.Chemscore.Rot.Weighted>
4.0802

> <Gold.Chemscore.Internal.Correction.Weighted>
   9.000000E+99

> <Gold.Protein.RotatedTorsions>
[ 6907 6896 6895 6894 ] final -111.84 input  -60.11 | X-H torsion
[ 7974 7965 7964 7962 ] final  179.90 input  175.53 | X-H torsion
[ 8008 7997 7996 7995 ] final  -67.15 input   59.86 | X-H torsion
[ 10167 10162 10161 10158 ] final  -18.30 input  -65.29 | X-H torsion
[ 10718 10713 10712 10709 ] final   29.55 input   66.30 | X-H torsion
[ 10763 10752 10751 10750 ] final  105.40 input  -60.55 | X-H torsion
[ 11005 11000 10999 10996 ] final  -51.90 input  -57.11 | X-H torsion

> <Gold.Protein.ActiveResidues>
 VAL166  LYS551  ARG553  GLY616  TRP617  ASP618  TYR619  PRO620  LYS621  CYS622 
 ASP623  PHE694  ASN695  SER759  ASP760  ASP761  ALA762  ILE779  LEU786  VAL792 
 PHE793  MET794  SER795  GLU796  ALA797  LYS798  CYS799  TRP800  GLU811  SER814 

> <Gold.Protein.RotatedAtoms>
  150.7717  133.9176  159.3388 H   0  0  0  0  0  0  0  0  0  0  0  0  # atno 6907 bound_to 6896
  151.7061  135.0919  160.0269 H   0  0  0  0  0  0  0  0  0  0  0  0  # atno 6908 bound_to 6896
  152.3738  133.6416  159.6143 H   0  0  0  0  0  0  0  0  0  0  0  0  # atno 6909 bound_to 6896
  144.7141  140.0618  143.6432 H   0  0  0  0  0  0  0  0  0  0  0  0  # atno 7974 bound_to 7965
  154.4781  140.0898  156.7311 H   0  0  0  0  0  0  0  0  0  0  0  0  # atno 8008 bound_to 7997
  155.4543  140.3458  155.4286 H   0  0  0  0  0  0  0  0  0  0  0  0  # atno 8009 bound_to 7997
  156.1148  140.1458  156.9276 H   0  0  0  0  0  0  0  0  0  0  0  0  # atno 8010 bound_to 7997
  140.7257  143.4930  150.9967 H   0  0  0  0  0  0  0  0  0  0  0  0  # atno 10167 bound_to 10162
  157.2480  130.7101  149.6391 H   0  0  0  0  0  0  0  0  0  0  0  0  # atno 10718 bound_to 10713
  153.3789  135.3911  155.1842 H   0  0  0  0  0  0  0  0  0  0  0  0  # atno 10763 bound_to 10752
  154.8705  135.3720  154.4883 H   0  0  0  0  0  0  0  0  0  0  0  0  # atno 10764 bound_to 10752
  153.5357  135.7085  153.5722 H   0  0  0  0  0  0  0  0  0  0  0  0  # atno 10765 bound_to 10752
  141.0896  133.6635  156.3945 H   0  0  0  0  0  0  0  0  0  0  0  0  # atno 11005 bound_to 11000
  145.9858  139.2976  143.1014 LP  0  0  0  0  0  0  0  0  0  0  0  0  # atno 17320 bound_to 7965
  145.8959  140.9274  143.0528 LP  0  0  0  0  0  0  0  0  0  0  0  0  # atno 17321 bound_to 7965
  139.8636  143.7283  152.3172 LP  0  0  0  0  0  0  0  0  0  0  0  0  # atno 17342 bound_to 10162
  139.7507  144.7535  151.0511 LP  0  0  0  0  0  0  0  0  0  0  0  0  # atno 17343 bound_to 10162
  155.9667  130.4436  150.5430 LP  0  0  0  0  0  0  0  0  0  0  0  0  # atno 17370 bound_to 10713
  157.3308  131.0699  151.1862 LP  0  0  0  0  0  0  0  0  0  0  0  0  # atno 17371 bound_to 10713
  140.5284  134.6236  157.5342 LP  0  0  0  0  0  0  0  0  0  0  0  0  # atno 17394 bound_to 11000
  139.9719  134.7279  156.0025 LP  0  0  0  0  0  0  0  0  0  0  0  0  # atno 17395 bound_to 11000

$$$$
