#       Name:                AV-unprocessed.smi:1780
#       Creating user name   scv26
#       Creation time:       Fri Mar 27 08:42:40 2020


#       File generated by GOLD software.
#

@<TRIPOS>MOLECULE
AV-unprocessed.smi:1780
    49    50     1
SMALL
NO_CHARGES


@<TRIPOS>ATOM
      1 ****        -6.1116   3.4010  -0.6722 C.3            1 S1                 0.0000
      2 ****        -5.5872   3.0797   0.7323 C.3            1 S1                 0.0000
      3 ****        -4.9680   1.7698   0.7886 N.pl3          1 S1                 0.0000
      4 ****        -3.6222   1.4612   0.7779 C.2            1 S1                 0.0000
      5 ****        -3.5551   0.0983   0.8455 C.2            1 S1                 0.0000
      6 ****        -2.4166  -0.7466   0.8684 N.am           1 S1                 0.0000
      7 ****        -1.1260  -0.3757   0.8536 C.2            1 S1                 0.0000
      8 ****        -0.7220   0.7856   0.7883 O.2            1 S1                 0.0000
      9 ****        -0.3117  -1.4386   0.9186 N.am           1 S1                 0.0000
     10 ****         1.1472  -1.3748   0.9453 C.3            1 S1                 0.0000
     11 ****         1.7763  -1.0846  -0.4473 C.3            1 S1                 0.0000
     12 ****         1.2879  -2.1271  -1.4802 C.3            1 S1                 0.0000
     13 ****         3.2761  -1.0306  -0.4275 N.4            1 S1                 1.0000
     14 ****         3.8442  -0.3929  -1.6476 C.3            1 S1                 0.0000
     15 ****         5.3811  -0.4204  -1.6285 C.3            1 S1                 0.0000
     16 ****         5.8526   0.2392  -0.4637 O.3            1 S1                 0.0000
     17 ****         5.4134  -0.4159   0.7162 C.3            1 S1                 0.0000
     18 ****         3.8765  -0.4036   0.7832 C.3            1 S1                 0.0000
     19 ****        -4.8996  -0.3535   0.8934 C.2            1 S1                 0.0000
     20 ****        -5.7482   0.6628   0.8590 N.2            1 S1                 0.0000
     21 ****        -6.5577   4.3950  -0.7015 H              1 S1                 0.0000
     22 ****        -6.8732   2.6857  -0.9835 H              1 S1                 0.0000
     23 ****        -5.3068   3.3754  -1.4074 H              1 S1                 0.0000
     24 ****        -4.8532   3.8256   1.0391 H              1 S1                 0.0000
     25 ****        -6.3996   3.1168   1.4594 H              1 S1                 0.0000
     26 ****        -2.8596   2.2240   0.7240 H              1 S1                 0.0000
     27 ****        -2.6068  -1.7367   0.9196 H              1 S1                 0.0000
     28 ****        -0.7297  -2.3564   0.9674 H              1 S1                 0.0000
     29 ****         1.4187  -0.6099   1.6739 H              1 S1                 0.0000
     30 ****         1.5176  -2.3243   1.3333 H              1 S1                 0.0000
     31 ****         1.4224  -0.1015  -0.7620 H              1 S1                 0.0000
     32 ****         0.2000  -2.1741  -1.5262 H              1 S1                 0.0000
     33 ****         1.6482  -3.1255  -1.2306 H              1 S1                 0.0000
     34 ****         1.6132  -1.9012  -2.4938 H              1 S1                 0.0000
     35 ****         3.5087  -0.8983  -2.5508 H              1 S1                 0.0000
     36 ****         3.4966   0.6393  -1.7147 H              1 S1                 0.0000
     37 ****         5.7551  -1.4449  -1.6639 H              1 S1                 0.0000
     38 ****         5.7758   0.0926  -2.5057 H              1 S1                 0.0000
     39 ****         5.7956  -1.4376   0.7441 H              1 S1                 0.0000
     40 ****         5.8297   0.1011   1.5811 H              1 S1                 0.0000
     41 ****         3.5128   0.6202   0.8844 H              1 S1                 0.0000
     42 ****         3.5926  -0.9456   1.6844 H              1 S1                 0.0000
     43 ****        -5.2806  -1.3623   0.9522 H              1 S1                 0.0000
     44 ****         3.5930  -1.9897  -0.4245 H              1 S1                 0.0000
     45 ****        -1.3760   1.5406   0.7410 LP             1 S1                 0.0000
     46 ****         0.2601   0.9737   0.7825 LP             1 S1                 0.0000
     47 ****         5.5102   1.1787  -0.4608 LP             1 S1                 0.0000
     48 ****         6.8525   0.2488  -0.4775 LP             1 S1                 0.0000
     49 ****        -6.7472   0.6226   0.8803 LP             1 S1                 0.0000
@<TRIPOS>BOND
    1    1    2 1     
    2    1   21 1     
    3    1   22 1     
    4    1   23 1     
    5    2    3 1     
    6    2   24 1     
    7    2   25 1     
    8    3   20 1     
    9    3    4 1     
   10    4    5 2     
   11    4   26 1     
   12    5    6 1     
   13    5   19 1     
   14    6    7 am    
   15    6   27 1     
   16    7    8 2     
   17    7    9 am    
   18    9   10 1     
   19    9   28 1     
   20   10   11 1     
   21   10   29 1     
   22   10   30 1     
   23   11   12 1     
   24   11   13 1     
   25   11   31 1     
   26   12   32 1     
   27   12   33 1     
   28   12   34 1     
   29   13   18 1     
   30   13   14 1     
   31   13   44 1     
   32   14   15 1     
   33   14   35 1     
   34   14   36 1     
   35   15   16 1     
   36   15   37 1     
   37   15   38 1     
   38   16   17 1     
   39   17   18 1     
   40   17   39 1     
   41   17   40 1     
   42   18   41 1     
   43   18   42 1     
   44   19   20 2     
   45   19   43 1     
   46    8   45 1     
   47    8   46 1     
   48   16   47 1     
   49   16   48 1     
   50   20   49 1     
@<TRIPOS>SUBSTRUCTURE
      1 S1             1
@<TRIPOS>SET
LONE_PAIRS      STATIC     ATOMS    <user>   **** ""
5 45 46 47 48 49
DONOR_HYDROGENS      STATIC     ATOMS    <user>   **** ""
3 27 28 44
ATOM$BLUE        STATIC     ATOMS    COLORGROUP SYSTEM
5 45 46 47 48 49
ATOM$RED        STATIC     ATOMS    COLORGROUP SYSTEM
3 27 28 44
