AV-unprocessed.smi:1824|AV-procd|sdf|7406|dock1
  -GOLD-   22720 9 83D 1   1.00000     0.00000
 Structure written by MMmdl.
 45 47  0  0  0  0  0  0  0  0  2 V2000
  145.7427  143.1234  157.2379 C   0  0  0  0  0  0  0  0  0  0  0  0
  144.9847  142.7218  155.9599 C   0  0  1  0  0  0  0  0  0  0  0  0
  145.9114  142.3346  154.7912 C   0  0  0  0  0  0  0  0  0  0  0  0
  146.5305  141.0063  155.0218 N   0  3  2  0  0  0  0  0  0  0  0  0
  147.4957  140.6062  153.9662 C   0  0  0  0  0  0  0  0  0  0  0  0
  148.9409  140.5216  154.4961 C   0  0  1  0  0  0  0  0  0  0  0  0
  149.8328  140.7950  153.4316 O   0  0  0  0  0  0  0  0  0  0  0  0
  149.1920  141.5160  155.6462 C   0  0  0  0  0  0  0  0  0  0  0  0
  150.3953  141.2027  156.3969 N   0  0  0  0  0  0  0  0  0  0  0  0
  151.2976  140.2430  156.1151 C   0  0  0  0  0  0  0  0  0  0  0  0
  152.3386  140.1258  156.9340 N   0  0  0  0  0  0  0  0  0  0  0  0
  152.0838  141.1263  157.8559 C   0  0  0  0  0  0  0  0  0  0  0  0
  152.8172  141.5341  158.9930 C   0  0  0  0  0  0  0  0  0  0  0  0
  152.3580  142.5991  159.7957 C   0  0  0  0  0  0  0  0  0  0  0  0
  153.0747  142.9791  160.8801 F   0  0  0  0  0  0  0  0  0  0  0  0
  151.1592  143.2700  159.4750 C   0  0  0  0  0  0  0  0  0  0  0  0
  150.7260  144.2922  160.2501 F   0  0  0  0  0  0  0  0  0  0  0  0
  150.4104  142.8800  158.3481 C   0  0  0  0  0  0  0  0  0  0  0  0
  150.8735  141.8185  157.5490 C   0  0  0  0  0  0  0  0  0  0  0  0
  145.4826  139.9872  155.2580 C   0  0  0  0  0  0  0  0  0  0  0  0
  144.5949  140.3983  156.4469 C   0  0  2  0  0  0  0  0  0  0  0  0
  143.4415  139.4141  156.6717 C   0  0  0  0  0  0  0  0  0  0  0  0
  144.0328  141.6844  156.1971 O   0  0  0  0  0  0  0  0  0  0  0  0
  146.3642  144.0010  157.0586 H   0  0  0  0  0  0  0  0  0  0  0  0
  146.3991  142.3318  157.5984 H   0  0  0  0  0  0  0  0  0  0  0  0
  145.0472  143.3729  158.0396 H   0  0  0  0  0  0  0  0  0  0  0  0
  144.4089  143.5943  155.6499 H   0  0  0  0  0  0  0  0  0  0  0  0
  145.3354  142.3020  153.8647 H   0  0  0  0  0  0  0  0  0  0  0  0
  146.6720  143.1032  154.6582 H   0  0  0  0  0  0  0  0  0  0  0  0
  147.2174  139.6320  153.5605 H   0  0  0  0  0  0  0  0  0  0  0  0
  147.4311  141.3100  153.1351 H   0  0  0  0  0  0  0  0  0  0  0  0
  149.1513  139.5166  154.8607 H   0  0  0  0  0  0  0  0  0  0  0  0
  149.6856  140.1657  152.7418 H   0  0  0  0  0  0  0  0  0  0  0  0
  149.2715  142.5352  155.2655 H   0  0  0  0  0  0  0  0  0  0  0  0
  148.3492  141.5083  156.3386 H   0  0  0  0  0  0  0  0  0  0  0  0
  151.1849  139.5950  155.2580 H   0  0  0  0  0  0  0  0  0  0  0  0
  153.7364  141.0280  159.2484 H   0  0  0  0  0  0  0  0  0  0  0  0
  149.4931  143.3932  158.1013 H   0  0  0  0  0  0  0  0  0  0  0  0
  144.8812  139.8657  154.3553 H   0  0  0  0  0  0  0  0  0  0  0  0
  145.9459  139.0221  155.4673 H   0  0  0  0  0  0  0  0  0  0  0  0
  145.1938  140.4285  157.3575 H   0  0  0  0  0  0  0  0  0  0  0  0
  143.8152  138.4111  156.8789 H   0  0  0  0  0  0  0  0  0  0  0  0
  142.7938  139.3558  155.7965 H   0  0  0  0  0  0  0  0  0  0  0  0
  142.8277  139.7204  157.5192 H   0  0  0  0  0  0  0  0  0  0  0  0
  147.0613  141.0698  155.8792 H   0  0  0  0  0  0  0  0  0  0  0  0
  1  2  1  0  0  0  0
  1 24  1  0  0  0  0
  1 25  1  0  0  0  0
  1 26  1  0  0  0  0
  2 23  1  0  0  0  0
  2  3  1  0  0  0  0
  2 27  1  0  0  0  0
  3  4  1  0  0  0  0
  3 28  1  0  0  0  0
  3 29  1  0  0  0  0
  4  5  1  0  0  0  0
  4 20  1  0  0  0  0
  4 45  1  0  0  0  0
  5  6  1  0  0  0  0
  5 30  1  0  0  0  0
  5 31  1  0  0  0  0
  6  7  1  0  0  0  0
  6  8  1  0  0  0  0
  6 32  1  0  0  0  0
  7 33  1  0  0  0  0
  8  9  1  0  0  0  0
  8 34  1  0  0  0  0
  8 35  1  0  0  0  0
  9 19  1  0  0  0  0
  9 10  1  0  0  0  0
 10 11  2  0  0  0  0
 10 36  1  0  0  0  0
 11 12  1  0  0  0  0
 12 19  2  0  0  0  0
 12 13  1  0  0  0  0
 13 14  2  0  0  0  0
 13 37  1  0  0  0  0
 14 15  1  0  0  0  0
 14 16  1  0  0  0  0
 16 17  1  0  0  0  0
 16 18  2  0  0  0  0
 18 19  1  0  0  0  0
 18 38  1  0  0  0  0
 20 21  1  0  0  0  0
 20 39  1  0  0  0  0
 20 40  1  0  0  0  0
 21 22  1  0  0  0  0
 21 23  1  0  0  0  0
 21 41  1  0  0  0  0
 22 42  1  0  0  0  0
 22 43  1  0  0  0  0
 22 44  1  0  0  0  0
M  CHG  1   4   1
M  END
> <s_m_source_file>
AV-unprocessed.smi

> <i_m_source_file_index>
1824

> <i_lp_mmshare_version>
43012

> <i_f3d_flags>
0

> <s_epik_input>
W0NIM11bQ0BASF0xW0NIMl1OKFtDSDJdW0NASF0oTzEpW0NIM10pW0NIMl1bQ0BIXShbT0hdKVtDSDJdbihbY0hdbjIpYyhjMjMpW2NIXWMoRiljKEYpW2NIXTM=

> <s_epik_cmdline>
J2VwaWtfcHl0aG9uJywgJy1waCcsICc3LjAnLCAnLXRuJywgJzgnLCAnLW1hJywgJzIwMCcsICctbWV0YWxfYmluZGluZycsICctaW1hZScsICc8aW5maWxlLm1hZT4nLCAnLW9tYWUnLCAnPG91dGZpbGUubWFlPic=

> <r_epik_Ionization_Penalty>
0.61967

> <r_epik_Ionization_Penalty_Charging>
0.608065

> <r_epik_Ionization_Penalty_Neutral>
0.0116057

> <r_epik_State_Penalty>
0.664205

> <r_epik_Charging_Adjusted_Penalty>
1.27227

> <i_epik_Tot_Q>
1

> <i_epik_Tot_abs_Q>
1

> <r_epik_Metal_State_Penalty>
0.654947

> <b_epik_Metal_Only>
0

> <s_lp_Force_Field>
OPLS_2005

> <r_lp_Energy>
22.8883

> <b_lp_Chiralities_Consistent>
1

> <s_lp_Variant>
AV-unprocessed.smi:1824-14

> <Gold.Version>
5.8.1

> <Gold.Id.Protein>
6NUR|6NUR_protein|mol2

> <Gold.PLP.Fitness>
45.5296

> <Gold.PLP.PLP>
-38.4314

> <Gold.PLP.part.hbond>
-3.0741

> <Gold.PLP.part.metal>
0.0000

> <Gold.PLP.part.buried>
-4.4281

> <Gold.PLP.part.nonpolar>
-30.4812

> <Gold.PLP.part.repulsive>
0.0888

> <Gold.PLP.ligand.clash>
0.0000

> <Gold.PLP.ligand.torsion>
1.2457

> <Gold.PLP.Chemscore.Hbond>
3.1113

> <Gold.PLP.Chemscore.CHOScore>
0.0000

> <Gold.PLP.Chemscore.Metal>
0.0000

> <Gold.Chemscore.Hbonds>
donor molecule, donor type, donor heavy atom, donor atom, acceptor molecule, acceptor atom, score
      L1  H     7    33       P1  7957  0.83
      P1  H  7989  7998       L1     7  0.32
      P1  H  7997  8008       L1    11  0.96
      P1  H  8011  8017       L1     7  0.90

> <Gold.PLP.Chemscore.Internal.Correction>
0.2559

> <Gold.Rescore>
     Score         DG    S(hbond)    S(metal)    S(lipo)     H(rot)  DE(clash)    DE(int)     intcor
     14.69     -16.06       2.00        0.00      84.03       2.33       0.15       1.22       ----

> <Gold.Chemscore.Fitness>
14.6914

> <Gold.Chemscore.DG>
-16.0556

> <Gold.Chemscore.ZeroCoef>
-5.4800

> <Gold.Chemscore.Hbond>
2.0049

> <Gold.Chemscore.Metal>
0.0000

> <Gold.Chemscore.Lipo>
84.0293

> <Gold.Chemscore.Internal_Hbond>
0.0000

> <Gold.Chemscore.DEClash>
0.1473

> <Gold.Chemscore.DEInternal>
1.2169

> <Gold.Chemscore.Rot>
2.3251

> <Gold.Chemscore.Internal.Correction>
   9.000000E+99

> <Gold.Chemscore.Hbonds>
donor molecule, donor type, donor heavy atom, donor atom, acceptor molecule, acceptor atom, score
      L1  H     7    33       P1  7957  0.81
      P1  H  7989  7998       L1     7  0.11
      P1  H  7997  8008       L1    11  0.59
      P1  H  8011  8017       L1     7  0.17

> <Gold.Chemscore.Hbond.Weighted>
-6.6965

> <Gold.Chemscore.Metal.Weighted>
-0.0000

> <Gold.Chemscore.Lipo.Weighted>
-9.8314

> <Gold.Chemscore.Internal_Hbond.Weighted>
0.0000

> <Gold.Chemscore.DEClash.Weighted>
0.1473

> <Gold.Chemscore.DEInternal.Weighted>
1.2169

> <Gold.Chemscore.Rot.Weighted>
5.9523

> <Gold.Chemscore.Internal.Correction.Weighted>
   9.000000E+99

> <Gold.Protein.RotatedTorsions>
[ 6907 6896 6895 6894 ] final  111.63 input  -60.11 | X-H torsion
[ 7974 7965 7964 7962 ] final   50.96 input  175.53 | X-H torsion
[ 8008 7997 7996 7995 ] final  -54.24 input   59.86 | X-H torsion
[ 10167 10162 10161 10158 ] final    6.30 input  -65.29 | X-H torsion
[ 10718 10713 10712 10709 ] final -139.23 input   66.30 | X-H torsion
[ 10763 10752 10751 10750 ] final -103.68 input  -60.55 | X-H torsion
[ 11005 11000 10999 10996 ] final -175.42 input  -57.11 | X-H torsion

> <Gold.Protein.ActiveResidues>
 VAL166  LYS551  ARG553  GLY616  TRP617  ASP618  TYR619  PRO620  LYS621  CYS622 
 ASP623  PHE694  ASN695  SER759  ASP760  ASP761  ALA762  ILE779  LEU786  VAL792 
 PHE793  MET794  SER795  GLU796  ALA797  LYS798  CYS799  TRP800  GLU811  SER814 

> <Gold.Protein.RotatedAtoms>
  152.4959  133.8630  159.7259 H   0  0  0  0  0  0  0  0  0  0  0  0  # atno 6907 bound_to 6896
  150.9137  133.6957  159.2855 H   0  0  0  0  0  0  0  0  0  0  0  0  # atno 6908 bound_to 6896
  151.4358  135.1019  159.9708 H   0  0  0  0  0  0  0  0  0  0  0  0  # atno 6909 bound_to 6896
  145.9961  139.4390  143.0044 H   0  0  0  0  0  0  0  0  0  0  0  0  # atno 7974 bound_to 7965
  154.4157  140.1181  156.5284 H   0  0  0  0  0  0  0  0  0  0  0  0  # atno 8008 bound_to 7997
  155.6631  140.3496  155.4771 H   0  0  0  0  0  0  0  0  0  0  0  0  # atno 8009 bound_to 7997
  155.9697  140.1139  157.0813 H   0  0  0  0  0  0  0  0  0  0  0  0  # atno 8010 bound_to 7997
  140.6435  143.7718  150.7463 H   0  0  0  0  0  0  0  0  0  0  0  0  # atno 10167 bound_to 10162
  156.3084  130.7468  151.1537 H   0  0  0  0  0  0  0  0  0  0  0  0  # atno 10718 bound_to 10713
  154.7824  135.4814  153.9873 H   0  0  0  0  0  0  0  0  0  0  0  0  # atno 10763 bound_to 10752
  153.1512  135.6791  153.8886 H   0  0  0  0  0  0  0  0  0  0  0  0  # atno 10764 bound_to 10752
  153.8529  135.3165  155.3412 H   0  0  0  0  0  0  0  0  0  0  0  0  # atno 10765 bound_to 10752
  140.4635  134.6232  157.4853 H   0  0  0  0  0  0  0  0  0  0  0  0  # atno 11005 bound_to 11000
  145.7558  140.9955  143.1226 LP  0  0  0  0  0  0  0  0  0  0  0  0  # atno 17320 bound_to 7965
  144.6904  139.9269  143.7470 LP  0  0  0  0  0  0  0  0  0  0  0  0  # atno 17321 bound_to 7965
  140.1354  143.4488  152.2228 LP  0  0  0  0  0  0  0  0  0  0  0  0  # atno 17342 bound_to 10162
  139.5645  144.7426  151.4062 LP  0  0  0  0  0  0  0  0  0  0  0  0  # atno 17343 bound_to 10162
  157.7385  131.0540  150.5291 LP  0  0  0  0  0  0  0  0  0  0  0  0  # atno 17370 bound_to 10713
  156.5427  130.4212  149.6146 LP  0  0  0  0  0  0  0  0  0  0  0  0  # atno 17371 bound_to 10713
  139.9930  134.6956  155.9657 LP  0  0  0  0  0  0  0  0  0  0  0  0  # atno 17394 bound_to 11000
  141.1610  133.6539  156.4319 LP  0  0  0  0  0  0  0  0  0  0  0  0  # atno 17395 bound_to 11000

$$$$
