AV-unprocessed.smi:1762|AV-procd|sdf|7114|dock3
  -GOLD-   22720 8343D 1   1.00000     0.00000
 Structure written by MMmdl.
 53 54  0  0  0  0  0  0  0  0  2 V2000
  153.3970  138.3481  155.5048 C   0  0  0  0  0  0  0  0  0  0  0  0
  151.9338  137.9041  155.6073 C   0  0  1  0  0  0  0  0  0  0  0  0
  151.2091  137.9868  154.2458 C   0  0  0  0  0  0  0  0  0  0  0  0
  149.8136  137.4668  154.3343 N   0  3  2  0  0  0  0  0  0  0  0  0
  148.8289  138.4032  154.9847 C   0  0  1  0  0  0  0  0  0  0  0  0
  149.4082  139.8301  155.0934 C   0  0  0  0  0  0  0  0  0  0  0  0
  149.6186  140.4915  154.0761 O   0  0  0  0  0  0  0  0  0  0  0  0
  149.6664  140.2854  156.3299 N   0  0  0  0  0  0  0  0  0  0  0  0
  150.2323  141.5940  156.6365 C   0  0  0  0  0  0  0  0  0  0  0  0
  151.2877  141.5053  157.7520 C   0  0  0  0  0  0  0  0  0  0  0  0
  151.2630  142.7167  158.6652 C   0  0  0  0  0  0  0  0  0  0  0  0
  152.0680  142.7641  159.8235 C   0  0  0  0  0  0  0  0  0  0  0  0
  152.0026  143.9105  160.6393 C   0  0  0  0  0  0  0  0  0  0  0  0
  151.1387  144.9590  160.2683 C   0  0  0  0  0  0  0  0  0  0  0  0
  150.3755  144.8141  159.0927 C   0  0  0  0  0  0  0  0  0  0  0  0
  150.4310  143.7195  158.3032 N   0  0  0  0  0  0  0  0  0  0  0  0
  147.4234  138.4281  154.2946 C   0  0  0  0  0  0  0  0  0  0  0  0
  147.4441  138.9485  152.8421 C   0  0  0  0  0  0  0  0  0  0  0  0
  146.3552  139.1819  155.1116 C   0  0  0  0  0  0  0  0  0  0  0  0
  149.8717  136.0815  154.8772 C   0  0  0  0  0  0  0  0  0  0  0  0
  150.5948  136.0439  156.2387 C   0  0  1  0  0  0  0  0  0  0  0  0
  150.7100  134.6186  156.7897 C   0  0  0  0  0  0  0  0  0  0  0  0
  151.9122  136.5576  156.0699 O   0  0  0  0  0  0  0  0  0  0  0  0
  153.4699  139.3832  155.1705 H   0  0  0  0  0  0  0  0  0  0  0  0
  153.9506  137.7286  154.7986 H   0  0  0  0  0  0  0  0  0  0  0  0
  153.8950  138.2765  156.4721 H   0  0  0  0  0  0  0  0  0  0  0  0
  151.4390  138.5424  156.3403 H   0  0  0  0  0  0  0  0  0  0  0  0
  151.2494  139.0027  153.8546 H   0  0  0  0  0  0  0  0  0  0  0  0
  151.7468  137.3786  153.5168 H   0  0  0  0  0  0  0  0  0  0  0  0
  148.6660  138.0453  156.0016 H   0  0  0  0  0  0  0  0  0  0  0  0
  149.4599  139.6838  157.1143 H   0  0  0  0  0  0  0  0  0  0  0  0
  150.6613  142.0362  155.7355 H   0  0  0  0  0  0  0  0  0  0  0  0
  149.4193  142.2506  156.9474 H   0  0  0  0  0  0  0  0  0  0  0  0
  151.1267  140.6044  158.3458 H   0  0  0  0  0  0  0  0  0  0  0  0
  152.2862  141.4131  157.3222 H   0  0  0  0  0  0  0  0  0  0  0  0
  152.7198  141.9430  160.0837 H   0  0  0  0  0  0  0  0  0  0  0  0
  152.6037  143.9837  161.5337 H   0  0  0  0  0  0  0  0  0  0  0  0
  151.0623  145.8526  160.8700 H   0  0  0  0  0  0  0  0  0  0  0  0
  149.7022  145.5978  158.7784 H   0  0  0  0  0  0  0  0  0  0  0  0
  147.0515  137.4050  154.2677 H   0  0  0  0  0  0  0  0  0  0  0  0
  147.7020  140.0064  152.7948 H   0  0  0  0  0  0  0  0  0  0  0  0
  146.4648  138.8346  152.3767 H   0  0  0  0  0  0  0  0  0  0  0  0
  148.1584  138.4071  152.2226 H   0  0  0  0  0  0  0  0  0  0  0  0
  146.5382  140.2567  155.1353 H   0  0  0  0  0  0  0  0  0  0  0  0
  146.3211  138.8241  156.1410 H   0  0  0  0  0  0  0  0  0  0  0  0
  145.3633  139.0346  154.6834 H   0  0  0  0  0  0  0  0  0  0  0  0
  148.8933  135.6102  154.9346 H   0  0  0  0  0  0  0  0  0  0  0  0
  150.4279  135.4690  154.1658 H   0  0  0  0  0  0  0  0  0  0  0  0
  150.0585  136.6513  156.9691 H   0  0  0  0  0  0  0  0  0  0  0  0
  149.7252  134.1785  156.9487 H   0  0  0  0  0  0  0  0  0  0  0  0
  151.2345  134.6121  157.7455 H   0  0  0  0  0  0  0  0  0  0  0  0
  151.2589  133.9724  156.1042 H   0  0  0  0  0  0  0  0  0  0  0  0
  149.4870  137.3776  153.3822 H   0  0  0  0  0  0  0  0  0  0  0  0
  1  2  1  0  0  0  0
  1 24  1  0  0  0  0
  1 25  1  0  0  0  0
  1 26  1  0  0  0  0
  2 23  1  0  0  0  0
  2  3  1  0  0  0  0
  2 27  1  0  0  0  0
  3  4  1  0  0  0  0
  3 28  1  0  0  0  0
  3 29  1  0  0  0  0
  4  5  1  0  0  0  0
  4 20  1  0  0  0  0
  4 53  1  0  0  0  0
  5  6  1  0  0  0  0
  5 17  1  0  0  0  0
  5 30  1  0  0  0  0
  6  7  2  0  0  0  0
  6  8  1  0  0  0  0
  8  9  1  0  0  0  0
  8 31  1  0  0  0  0
  9 10  1  0  0  0  0
  9 32  1  0  0  0  0
  9 33  1  0  0  0  0
 10 11  1  0  0  0  0
 10 34  1  0  0  0  0
 10 35  1  0  0  0  0
 11 16  1  0  0  0  0
 11 12  2  0  0  0  0
 12 13  1  0  0  0  0
 12 36  1  0  0  0  0
 13 14  2  0  0  0  0
 13 37  1  0  0  0  0
 14 15  1  0  0  0  0
 14 38  1  0  0  0  0
 15 16  2  0  0  0  0
 15 39  1  0  0  0  0
 17 18  1  0  0  0  0
 17 19  1  0  0  0  0
 17 40  1  0  0  0  0
 18 41  1  0  0  0  0
 18 42  1  0  0  0  0
 18 43  1  0  0  0  0
 19 44  1  0  0  0  0
 19 45  1  0  0  0  0
 19 46  1  0  0  0  0
 20 21  1  0  0  0  0
 20 47  1  0  0  0  0
 20 48  1  0  0  0  0
 21 22  1  0  0  0  0
 21 23  1  0  0  0  0
 21 49  1  0  0  0  0
 22 50  1  0  0  0  0
 22 51  1  0  0  0  0
 22 52  1  0  0  0  0
M  CHG  1   4   1
M  END
> <s_m_source_file>
AV-unprocessed.smi

> <i_m_source_file_index>
1762

> <i_lp_mmshare_version>
43012

> <i_f3d_flags>
0

> <s_epik_input>
W0NIM11bQ0BASF0xW0NIMl1OKFtDSDJdW0NASF0oTzEpW0NIM10pW0NAQEhdKFtDSF0oW0NIM10pW0NIM10pQyg9TylbTkhdW0NIMl1bQ0gyXWMyW2NIXVtjSF1bY0hdW2NIXW4y

> <s_epik_cmdline>
J2VwaWtfcHl0aG9uJywgJy1waCcsICc3LjAnLCAnLXRuJywgJzgnLCAnLW1hJywgJzIwMCcsICctbWV0YWxfYmluZGluZycsICctaW1hZScsICc8aW5maWxlLm1hZT4nLCAnLW9tYWUnLCAnPG91dGZpbGUubWFlPic=

> <r_epik_Ionization_Penalty>
2.27005

> <r_epik_Ionization_Penalty_Charging>
2.24983

> <r_epik_Ionization_Penalty_Neutral>
0.0202209

> <r_epik_State_Penalty>
2.40228

> <r_epik_Charging_Adjusted_Penalty>
4.65211

> <i_epik_Tot_Q>
1

> <i_epik_Tot_abs_Q>
1

> <r_epik_Metal_State_Penalty>
2.40762

> <b_epik_Metal_Only>
0

> <s_lp_Force_Field>
OPLS_2005

> <r_lp_Energy>
25.1603

> <b_lp_Chiralities_Consistent>
1

> <s_lp_Variant>
AV-unprocessed.smi:1762-16

> <Gold.Version>
5.8.1

> <Gold.Id.Protein>
6NUR|6NUR_protein|mol2

> <Gold.PLP.Fitness>
47.3361

> <Gold.PLP.PLP>
-37.8402

> <Gold.PLP.part.hbond>
-3.0000

> <Gold.PLP.part.metal>
0.0000

> <Gold.PLP.part.buried>
-3.0695

> <Gold.PLP.part.nonpolar>
-33.8865

> <Gold.PLP.part.repulsive>
1.9935

> <Gold.PLP.ligand.clash>
1.3413

> <Gold.PLP.ligand.torsion>
1.5666

> <Gold.PLP.Chemscore.Hbond>
3.5220

> <Gold.PLP.Chemscore.CHOScore>
1.0000

> <Gold.PLP.Chemscore.Metal>
0.0000

> <Gold.Chemscore.Hbonds>
donor molecule, donor type, donor heavy atom, donor atom, acceptor molecule, acceptor atom, score
      L1  H     4    53       P1  7948  1.98
      P1  H  7989  7998       L1     7  0.54
      P1  H 10752 10765       L1    23  0.99
      L1  C    15    39       P1  8029  1.00

> <Gold.PLP.Chemscore.Internal.Correction>
0.4044

> <Gold.Rescore>
     Score         DG    S(hbond)    S(metal)    S(lipo)     H(rot)  DE(clash)    DE(int)     intcor
     17.25     -20.81       1.72        0.00     118.34       1.66       0.66       2.89       ----

> <Gold.Chemscore.Fitness>
17.2525

> <Gold.Chemscore.DG>
-20.8092

> <Gold.Chemscore.ZeroCoef>
-5.4800

> <Gold.Chemscore.Hbond>
1.7192

> <Gold.Chemscore.Metal>
0.0000

> <Gold.Chemscore.Lipo>
118.3387

> <Gold.Chemscore.Internal_Hbond>
0.0000

> <Gold.Chemscore.DEClash>
0.6650

> <Gold.Chemscore.DEInternal>
2.8917

> <Gold.Chemscore.Rot>
1.6635

> <Gold.Chemscore.Internal.Correction>
   9.000000E+99

> <Gold.Chemscore.Hbonds>
donor molecule, donor type, donor heavy atom, donor atom, acceptor molecule, acceptor atom, score
      L1  H     4    53       P1  7948  0.85
      P1  H  7989  7998       L1     7  0.52
      P1  H 10752 10765       L1    23  0.35

> <Gold.Chemscore.Hbond.Weighted>
-5.7422

> <Gold.Chemscore.Metal.Weighted>
-0.0000

> <Gold.Chemscore.Lipo.Weighted>
-13.8456

> <Gold.Chemscore.Internal_Hbond.Weighted>
0.0000

> <Gold.Chemscore.DEClash.Weighted>
0.6650

> <Gold.Chemscore.DEInternal.Weighted>
2.8917

> <Gold.Chemscore.Rot.Weighted>
4.2586

> <Gold.Chemscore.Internal.Correction.Weighted>
   9.000000E+99

> <Gold.Protein.RotatedTorsions>
[ 6907 6896 6895 6894 ] final -104.91 input  -60.11 | X-H torsion
[ 7974 7965 7964 7962 ] final   64.73 input  175.53 | X-H torsion
[ 8008 7997 7996 7995 ] final  -19.73 input   59.86 | X-H torsion
[ 10167 10162 10161 10158 ] final   37.94 input  -65.29 | X-H torsion
[ 10718 10713 10712 10709 ] final   34.15 input   66.30 | X-H torsion
[ 10763 10752 10751 10750 ] final -175.04 input  -60.55 | X-H torsion
[ 11005 11000 10999 10996 ] final   91.48 input  -57.11 | X-H torsion

> <Gold.Protein.ActiveResidues>
 VAL166  LYS551  ARG553  GLY616  TRP617  ASP618  TYR619  PRO620  LYS621  CYS622 
 ASP623  PHE694  ASN695  SER759  ASP760  ASP761  ALA762  ILE779  LEU786  VAL792 
 PHE793  MET794  SER795  GLU796  ALA797  LYS798  CYS799  TRP800  GLU811  SER814 

> <Gold.Protein.RotatedAtoms>
  150.7310  134.0206  159.3699 H   0  0  0  0  0  0  0  0  0  0  0  0  # atno 6907 bound_to 6896
  151.8170  135.0661  160.0429 H   0  0  0  0  0  0  0  0  0  0  0  0  # atno 6908 bound_to 6896
  152.3031  133.5639  159.5668 H   0  0  0  0  0  0  0  0  0  0  0  0  # atno 6909 bound_to 6896
  145.8468  139.3229  143.0899 H   0  0  0  0  0  0  0  0  0  0  0  0  # atno 7974 bound_to 7965
  154.4817  140.2081  155.9749 H   0  0  0  0  0  0  0  0  0  0  0  0  # atno 8008 bound_to 7997
  156.1175  140.3219  155.8129 H   0  0  0  0  0  0  0  0  0  0  0  0  # atno 8009 bound_to 7997
  155.4527  140.0518  157.2990 H   0  0  0  0  0  0  0  0  0  0  0  0  # atno 8010 bound_to 7997
  140.3984  144.1757  150.6133 H   0  0  0  0  0  0  0  0  0  0  0  0  # atno 10167 bound_to 10162
  157.3068  130.7379  149.6700 H   0  0  0  0  0  0  0  0  0  0  0  0  # atno 10718 bound_to 10713
  154.5891  135.2843  155.0654 H   0  0  0  0  0  0  0  0  0  0  0  0  # atno 10763 bound_to 10752
  154.1962  135.6432  153.5077 H   0  0  0  0  0  0  0  0  0  0  0  0  # atno 10764 bound_to 10752
  153.0115  135.5458  154.6570 H   0  0  0  0  0  0  0  0  0  0  0  0  # atno 10765 bound_to 10752
  139.8838  134.8676  156.3434 H   0  0  0  0  0  0  0  0  0  0  0  0  # atno 11005 bound_to 11000
  145.9403  140.8984  143.0311 LP  0  0  0  0  0  0  0  0  0  0  0  0  # atno 17320 bound_to 7965
  144.6731  140.1539  143.7428 LP  0  0  0  0  0  0  0  0  0  0  0  0  # atno 17321 bound_to 7965
  140.4766  143.2394  151.9014 LP  0  0  0  0  0  0  0  0  0  0  0  0  # atno 17342 bound_to 10162
  139.4785  144.5314  151.8661 LP  0  0  0  0  0  0  0  0  0  0  0  0  # atno 17343 bound_to 10162
  155.9675  130.4263  150.4694 LP  0  0  0  0  0  0  0  0  0  0  0  0  # atno 17370 bound_to 10713
  157.2685  131.0582  151.2275 LP  0  0  0  0  0  0  0  0  0  0  0  0  # atno 17371 bound_to 10713
  140.9643  133.7368  156.0445 LP  0  0  0  0  0  0  0  0  0  0  0  0  # atno 17394 bound_to 11000
  140.7950  134.3574  157.5455 LP  0  0  0  0  0  0  0  0  0  0  0  0  # atno 17395 bound_to 11000

$$$$
