AV-unprocessed.smi:2087|AV-procd|sdf|8521|dock1
  -GOLD-   2272011233D 1   1.00000     0.00000
 Structure written by MMmdl.
 51 52  0  0  0  0  0  0  0  0  2 V2000
  145.4888  135.4509  150.8942 C   0  0  0  0  0  0  0  0  0  0  0  0
  145.1631  135.7973  152.3549 C   0  0  0  0  0  0  0  0  0  0  0  0
  143.6544  135.6515  152.6166 C   0  0  0  0  0  0  0  0  0  0  0  0
  145.6748  137.2119  152.7042 C   0  0  0  0  0  0  0  0  0  0  0  0
  146.9479  137.1975  153.4754 N   0  3  2  0  0  0  0  0  0  0  0  0
  146.9674  136.1978  154.5703 C   0  0  0  0  0  0  0  0  0  0  0  0
  146.1699  136.6942  155.7885 C   0  0  0  0  0  0  0  0  0  0  0  0
  146.7038  137.9378  156.2246 O   0  0  0  0  0  0  0  0  0  0  0  0
  146.6004  138.9572  155.2361 C   0  0  1  0  0  0  0  0  0  0  0  0
  147.1355  140.2571  155.8569 C   0  0  0  0  0  0  0  0  0  0  0  0
  148.5174  140.1080  156.2961 N   0  0  0  0  0  0  0  0  0  0  0  0
  149.5851  140.5030  155.5890 C   0  0  0  0  0  0  0  0  0  0  0  0
  149.4989  141.0518  154.4898 O   0  0  0  0  0  0  0  0  0  0  0  0
  150.9526  140.2554  156.2406 C   0  0  0  0  0  0  0  0  0  0  0  0
  151.2115  141.1314  157.3905 N   0  0  0  0  0  0  0  0  0  0  0  0
  150.4548  142.2766  157.5618 C   0  0  0  0  0  0  0  0  0  0  0  0
  150.6363  143.1439  158.5813 C   0  0  0  0  0  0  0  0  0  0  0  0
  151.6672  142.9110  159.5849 C   0  0  0  0  0  0  0  0  0  0  0  0
  151.8818  143.6764  160.5260 O   0  0  0  0  0  0  0  0  0  0  0  0
  152.4198  141.7295  159.3933 N   0  0  0  0  0  0  0  0  0  0  0  0
  153.4648  141.4634  160.3599 C   0  0  0  0  0  0  0  0  0  0  0  0
  152.2337  140.8303  158.3172 C   0  0  0  0  0  0  0  0  0  0  0  0
  152.9273  139.8212  158.1711 O   0  0  0  0  0  0  0  0  0  0  0  0
  147.3908  138.5240  153.9775 C   0  0  0  0  0  0  0  0  0  0  0  0
  144.9928  136.1331  150.2029 H   0  0  0  0  0  0  0  0  0  0  0  0
  145.1674  134.4380  150.6491 H   0  0  0  0  0  0  0  0  0  0  0  0
  146.5613  135.5075  150.7055 H   0  0  0  0  0  0  0  0  0  0  0  0
  145.6818  135.0643  152.9716 H   0  0  0  0  0  0  0  0  0  0  0  0
  143.0778  136.3651  152.0269 H   0  0  0  0  0  0  0  0  0  0  0  0
  143.4127  135.8147  153.6672 H   0  0  0  0  0  0  0  0  0  0  0  0
  143.3071  134.6509  152.3574 H   0  0  0  0  0  0  0  0  0  0  0  0
  145.7942  137.8070  151.7988 H   0  0  0  0  0  0  0  0  0  0  0  0
  144.9036  137.7136  153.2905 H   0  0  0  0  0  0  0  0  0  0  0  0
  146.5902  135.2352  154.2229 H   0  0  0  0  0  0  0  0  0  0  0  0
  148.0047  136.0306  154.8636 H   0  0  0  0  0  0  0  0  0  0  0  0
  145.1088  136.7962  155.5557 H   0  0  0  0  0  0  0  0  0  0  0  0
  146.2469  135.9750  156.6040 H   0  0  0  0  0  0  0  0  0  0  0  0
  145.5472  139.1028  154.9910 H   0  0  0  0  0  0  0  0  0  0  0  0
  147.0901  141.0643  155.1244 H   0  0  0  0  0  0  0  0  0  0  0  0
  146.5029  140.5533  156.6955 H   0  0  0  0  0  0  0  0  0  0  0  0
  148.6746  139.6647  157.1896 H   0  0  0  0  0  0  0  0  0  0  0  0
  150.9952  139.2110  156.5523 H   0  0  0  0  0  0  0  0  0  0  0  0
  151.7428  140.3723  155.4966 H   0  0  0  0  0  0  0  0  0  0  0  0
  149.6804  142.4950  156.8407 H   0  0  0  0  0  0  0  0  0  0  0  0
  150.0128  144.0229  158.6535 H   0  0  0  0  0  0  0  0  0  0  0  0
  153.8518  140.4505  160.2524 H   0  0  0  0  0  0  0  0  0  0  0  0
  153.0332  141.5690  161.3571 H   0  0  0  0  0  0  0  0  0  0  0  0
  154.2527  142.1980  160.1865 H   0  0  0  0  0  0  0  0  0  0  0  0
  148.4500  138.4492  154.2275 H   0  0  0  0  0  0  0  0  0  0  0  0
  147.3213  139.2772  153.1942 H   0  0  0  0  0  0  0  0  0  0  0  0
  147.6474  136.8915  152.8139 H   0  0  0  0  0  0  0  0  0  0  0  0
  1  2  1  0  0  0  0
  1 25  1  0  0  0  0
  1 26  1  0  0  0  0
  1 27  1  0  0  0  0
  2  3  1  0  0  0  0
  2  4  1  0  0  0  0
  2 28  1  0  0  0  0
  3 29  1  0  0  0  0
  3 30  1  0  0  0  0
  3 31  1  0  0  0  0
  4  5  1  0  0  0  0
  4 32  1  0  0  0  0
  4 33  1  0  0  0  0
  5 24  1  0  0  0  0
  5  6  1  0  0  0  0
  5 51  1  0  0  0  0
  6  7  1  0  0  0  0
  6 34  1  0  0  0  0
  6 35  1  0  0  0  0
  7  8  1  0  0  0  0
  7 36  1  0  0  0  0
  7 37  1  0  0  0  0
  8  9  1  0  0  0  0
  9 10  1  0  0  0  0
  9 24  1  0  0  0  0
  9 38  1  0  0  0  0
 10 11  1  0  0  0  0
 10 39  1  0  0  0  0
 10 40  1  0  0  0  0
 11 12  1  0  0  0  0
 11 41  1  0  0  0  0
 12 13  2  0  0  0  0
 12 14  1  0  0  0  0
 14 15  1  0  0  0  0
 14 42  1  0  0  0  0
 14 43  1  0  0  0  0
 15 22  1  0  0  0  0
 15 16  1  0  0  0  0
 16 17  2  0  0  0  0
 16 44  1  0  0  0  0
 17 18  1  0  0  0  0
 17 45  1  0  0  0  0
 18 19  2  0  0  0  0
 18 20  1  0  0  0  0
 20 21  1  0  0  0  0
 20 22  1  0  0  0  0
 21 46  1  0  0  0  0
 21 47  1  0  0  0  0
 21 48  1  0  0  0  0
 22 23  2  0  0  0  0
 24 49  1  0  0  0  0
 24 50  1  0  0  0  0
M  CHG  1   5   1
M  END
> <s_m_source_file>
AV-unprocessed.smi

> <i_m_source_file_index>
2087

> <i_lp_mmshare_version>
43012

> <i_f3d_flags>
0

> <s_epik_input>
W0NIM11bQ0hdKFtDSDNdKVtDSDJdTjFbQ0gyXVtDSDJdT1tDQEhdKFtDSDJdMSlbQ0gyXVtOSF1DKD1PKVtDSDJdbjJbY0hdW2NIXWMoPU8pbihbQ0gzXSljMj1P

> <s_epik_cmdline>
J2VwaWtfcHl0aG9uJywgJy1waCcsICc3LjAnLCAnLXRuJywgJzgnLCAnLW1hJywgJzIwMCcsICctbWV0YWxfYmluZGluZycsICctaW1hZScsICc8aW5maWxlLm1hZT4nLCAnLW9tYWUnLCAnPG91dGZpbGUubWFlPic=

> <r_lp_tautomer_probability>
1

> <r_epik_Ionization_Penalty>
0.097593

> <r_epik_Ionization_Penalty_Charging>
0.097593

> <r_epik_Ionization_Penalty_Neutral>
6.27044e-08

> <r_epik_State_Penalty>
0.0877056

> <r_epik_Charging_Adjusted_Penalty>
0.185299

> <i_epik_Tot_Q>
1

> <i_epik_Tot_abs_Q>
1

> <r_epik_Metal_State_Penalty>
0.0877109

> <b_epik_Metal_Only>
0

> <s_lp_Force_Field>
OPLS_2005

> <r_lp_Energy>
29.4179

> <b_lp_Chiralities_Consistent>
1

> <s_lp_Variant>
AV-unprocessed.smi:2087-2

> <Gold.Version>
5.8.1

> <Gold.Id.Protein>
6NUR|6NUR_protein|mol2

> <Gold.PLP.Fitness>
50.3178

> <Gold.PLP.PLP>
-37.6977

> <Gold.PLP.part.hbond>
-3.9876

> <Gold.PLP.part.metal>
0.0000

> <Gold.PLP.part.buried>
-4.6046

> <Gold.PLP.part.nonpolar>
-31.3736

> <Gold.PLP.part.repulsive>
0.3249

> <Gold.PLP.ligand.clash>
0.0000

> <Gold.PLP.ligand.torsion>
1.1932

> <Gold.PLP.Chemscore.Hbond>
3.9526

> <Gold.PLP.Chemscore.CHOScore>
1.0000

> <Gold.PLP.Chemscore.Metal>
0.0000

> <Gold.Chemscore.Hbonds>
donor molecule, donor type, donor heavy atom, donor atom, acceptor molecule, acceptor atom, score
      L1  H     5    51       P1  7948  2.00
      P1  H  7989  7998       L1    13  0.12
      P1  H  7997  8008       L1    23  1.00
      L1  C    16    44       P1  8028  0.73

> <Gold.PLP.Chemscore.Internal.Correction>
0.1485

> <Gold.Rescore>
     Score         DG    S(hbond)    S(metal)    S(lipo)     H(rot)  DE(clash)    DE(int)     intcor
     14.80     -17.53       2.82        0.00      71.02       2.22       1.05       1.68       ----

> <Gold.Chemscore.Fitness>
14.8017

> <Gold.Chemscore.DG>
-17.5263

> <Gold.Chemscore.ZeroCoef>
-5.4800

> <Gold.Chemscore.Hbond>
2.8241

> <Gold.Chemscore.Metal>
0.0000

> <Gold.Chemscore.Lipo>
71.0209

> <Gold.Chemscore.Internal_Hbond>
0.0000

> <Gold.Chemscore.DEClash>
1.0496

> <Gold.Chemscore.DEInternal>
1.6751

> <Gold.Chemscore.Rot>
2.2249

> <Gold.Chemscore.Internal.Correction>
   9.000000E+99

> <Gold.Chemscore.Hbonds>
donor molecule, donor type, donor heavy atom, donor atom, acceptor molecule, acceptor atom, score
      L1  H     5    51       P1  7948  1.00
      P1  H  7989  7998       L1    13  0.08
      P1  H  7997  8008       L1    23  0.84

> <Gold.Chemscore.Hbond.Weighted>
-9.4326

> <Gold.Chemscore.Metal.Weighted>
-0.0000

> <Gold.Chemscore.Lipo.Weighted>
-8.3094

> <Gold.Chemscore.Internal_Hbond.Weighted>
0.0000

> <Gold.Chemscore.DEClash.Weighted>
1.0496

> <Gold.Chemscore.DEInternal.Weighted>
1.6751

> <Gold.Chemscore.Rot.Weighted>
5.6957

> <Gold.Chemscore.Internal.Correction.Weighted>
   9.000000E+99

> <Gold.Protein.RotatedTorsions>
[ 6907 6896 6895 6894 ] final  -17.23 input  -60.11 | X-H torsion
[ 7974 7965 7964 7962 ] final   73.74 input  175.53 | X-H torsion
[ 8008 7997 7996 7995 ] final  -78.42 input   59.86 | X-H torsion
[ 10167 10162 10161 10158 ] final  -36.19 input  -65.29 | X-H torsion
[ 10718 10713 10712 10709 ] final   18.52 input   66.30 | X-H torsion
[ 10763 10752 10751 10750 ] final -121.18 input  -60.55 | X-H torsion
[ 11005 11000 10999 10996 ] final   28.29 input  -57.11 | X-H torsion

> <Gold.Protein.ActiveResidues>
 VAL166  LYS551  ARG553  GLY616  TRP617  ASP618  TYR619  PRO620  LYS621  CYS622 
 ASP623  PHE694  ASN695  SER759  ASP760  ASP761  ALA762  ILE779  LEU786  VAL792 
 PHE793  MET794  SER795  GLU796  ALA797  LYS798  CYS799  TRP800  GLU811  SER814 

> <Gold.Protein.RotatedAtoms>
  151.2965  135.0757  159.9222 H   0  0  0  0  0  0  0  0  0  0  0  0  # atno 6907 bound_to 6896
  152.5306  133.9877  159.7846 H   0  0  0  0  0  0  0  0  0  0  0  0  # atno 6908 bound_to 6896
  151.0156  133.5873  159.2708 H   0  0  0  0  0  0  0  0  0  0  0  0  # atno 6909 bound_to 6896
  145.7370  139.2706  143.1508 H   0  0  0  0  0  0  0  0  0  0  0  0  # atno 7974 bound_to 7965
  154.5688  140.0694  156.8933 H   0  0  0  0  0  0  0  0  0  0  0  0  # atno 8008 bound_to 7997
  155.2673  140.3362  155.4250 H   0  0  0  0  0  0  0  0  0  0  0  0  # atno 8009 bound_to 7997
  156.2102  140.1756  156.7697 H   0  0  0  0  0  0  0  0  0  0  0  0  # atno 8010 bound_to 7997
  140.7148  143.3425  151.2326 H   0  0  0  0  0  0  0  0  0  0  0  0  # atno 10167 bound_to 10162
  157.0974  130.6453  149.5864 H   0  0  0  0  0  0  0  0  0  0  0  0  # atno 10718 bound_to 10713
  154.8662  135.4177  154.2578 H   0  0  0  0  0  0  0  0  0  0  0  0  # atno 10763 bound_to 10752
  153.3512  135.6999  153.6793 H   0  0  0  0  0  0  0  0  0  0  0  0  # atno 10764 bound_to 10752
  153.5731  135.3587  155.2818 H   0  0  0  0  0  0  0  0  0  0  0  0  # atno 10765 bound_to 10752
  140.3171  134.2584  155.7723 H   0  0  0  0  0  0  0  0  0  0  0  0  # atno 11005 bound_to 11000
  146.0484  140.8095  142.9794 LP  0  0  0  0  0  0  0  0  0  0  0  0  # atno 17320 bound_to 7965
  144.6879  140.3015  143.7262 LP  0  0  0  0  0  0  0  0  0  0  0  0  # atno 17321 bound_to 7965
  139.6937  143.9650  152.2872 LP  0  0  0  0  0  0  0  0  0  0  0  0  # atno 17342 bound_to 10162
  139.9319  144.6736  150.8354 LP  0  0  0  0  0  0  0  0  0  0  0  0  # atno 17343 bound_to 10162
  155.9882  130.4925  150.7160 LP  0  0  0  0  0  0  0  0  0  0  0  0  # atno 17370 bound_to 10713
  157.4669  131.0889  151.0684 LP  0  0  0  0  0  0  0  0  0  0  0  0  # atno 17371 bound_to 10713
  141.2095  133.7747  156.9993 LP  0  0  0  0  0  0  0  0  0  0  0  0  # atno 17394 bound_to 11000
  140.0974  134.9556  157.1870 LP  0  0  0  0  0  0  0  0  0  0  0  0  # atno 17395 bound_to 11000

$$$$
