#       Name:                AV-unprocessed.smi:3239
#       Creating user name   scv26
#       Creation time:       Fri Mar 27 18:24:04 2020


#       File generated by GOLD software.
#

@<TRIPOS>MOLECULE
AV-unprocessed.smi:3239
    40    40     1
SMALL
NO_CHARGES


@<TRIPOS>ATOM
      1 ****        -3.5225   5.9622   2.1524 C.1            1 S1                 0.0000
      2 ****        -3.8621   5.2009   1.2601 C.1            1 S1                 0.0000
      3 ****        -4.2523   4.2822   0.1766 C.3            1 S1                 0.0000
      4 ****        -3.4119   3.0916   0.1158 N.am           1 S1                 0.0000
      5 ****        -2.2473   2.9972  -0.5483 C.2            1 S1                 0.0000
      6 ****        -1.7431   3.9304  -1.1733 O.2            1 S1                 0.0000
      7 ****        -1.5366   1.6803  -0.4292 C.ar           1 S1                 0.0000
      8 ****        -2.2421   0.4607  -0.3224 C.ar           1 S1                 0.0000
      9 ****        -1.5174  -0.7443  -0.2404 C.ar           1 S1                 0.0000
     10 ****        -0.1084  -0.6964  -0.2747 C.ar           1 S1                 0.0000
     11 ****         0.6047  -1.9016  -0.1877 N.pl3          1 S1                 0.0000
     12 ****         2.0594  -1.9543  -0.2976 C.3            1 S1                 0.0000
     13 ****         2.5044  -1.8497  -1.7672 C.3            1 S1                 0.0000
     14 ****         2.5868  -3.2399   0.3581 C.3            1 S1                 0.0000
     15 ****         4.0022  -3.1875   0.4309 O.3            1 S1                 0.0000
     16 ****         4.5595  -4.3422   1.0336 C.3            1 S1                 0.0000
     17 ****         0.5727   0.4682  -0.3845 N.ar           1 S1                 0.0000
     18 ****        -0.1264   1.6203  -0.4662 C.ar           1 S1                 0.0000
     19 ****        -3.2206   6.6275   2.9299 H              1 S1                 0.0000
     20 ****        -5.2844   3.9774   0.3499 H              1 S1                 0.0000
     21 ****        -4.2329   4.8275  -0.7682 H              1 S1                 0.0000
     22 ****        -3.7351   2.2812   0.6239 H              1 S1                 0.0000
     23 ****        -3.3222   0.4367  -0.3072 H              1 S1                 0.0000
     24 ****        -2.0384  -1.6869  -0.1561 H              1 S1                 0.0000
     25 ****         0.0977  -2.7722  -0.1198 H              1 S1                 0.0000
     26 ****         2.4764  -1.1134   0.2578 H              1 S1                 0.0000
     27 ****         3.5912  -1.8660  -1.8517 H              1 S1                 0.0000
     28 ****         2.1597  -0.9226  -2.2255 H              1 S1                 0.0000
     29 ****         2.1128  -2.6772  -2.3597 H              1 S1                 0.0000
     30 ****         2.1812  -3.3355   1.3668 H              1 S1                 0.0000
     31 ****         2.2662  -4.1170  -0.2071 H              1 S1                 0.0000
     32 ****         5.6451  -4.2498   1.0663 H              1 S1                 0.0000
     33 ****         4.3153  -5.2408   0.4655 H              1 S1                 0.0000
     34 ****         4.2014  -4.4660   2.0565 H              1 S1                 0.0000
     35 ****         0.4655   2.5194  -0.5587 H              1 S1                 0.0000
     36 ****        -2.2035   4.8175  -1.2051 LP             1 S1                 0.0000
     37 ****        -0.8730   3.8013  -1.6491 LP             1 S1                 0.0000
     38 ****         4.2659  -2.3866   0.9685 LP             1 S1                 0.0000
     39 ****         4.3677  -3.1019  -0.4959 LP             1 S1                 0.0000
     40 ****         1.5725   0.4751  -0.4046 LP             1 S1                 0.0000
@<TRIPOS>BOND
    1    1    2 3     
    2    1   19 1     
    3    2    3 1     
    4    3    4 1     
    5    3   20 1     
    6    3   21 1     
    7    4    5 am    
    8    4   22 1     
    9    5    6 2     
   10    5    7 1     
   11    7   18 ar    
   12    7    8 ar    
   13    8    9 ar    
   14    8   23 1     
   15    9   10 ar    
   16    9   24 1     
   17   10   11 1     
   18   10   17 ar    
   19   11   12 1     
   20   11   25 1     
   21   12   13 1     
   22   12   14 1     
   23   12   26 1     
   24   13   27 1     
   25   13   28 1     
   26   13   29 1     
   27   14   15 1     
   28   14   30 1     
   29   14   31 1     
   30   15   16 1     
   31   16   32 1     
   32   16   33 1     
   33   16   34 1     
   34   17   18 ar    
   35   18   35 1     
   36    6   36 1     
   37    6   37 1     
   38   15   38 1     
   39   15   39 1     
   40   17   40 1     
@<TRIPOS>SUBSTRUCTURE
      1 S1             1
@<TRIPOS>SET
LONE_PAIRS      STATIC     ATOMS    <user>   **** ""
5 36 37 38 39 40
DONOR_HYDROGENS      STATIC     ATOMS    <user>   **** ""
2 22 25
ATOM$BLUE        STATIC     ATOMS    COLORGROUP SYSTEM
5 36 37 38 39 40
ATOM$RED        STATIC     ATOMS    COLORGROUP SYSTEM
2 22 25
