AV-unprocessed.smi:240|AV-procd|sdf|1824|dock2
  -GOLD-   2262020423D 1   1.00000     0.00000
 Structure written by MMmdl.
 55 59  0  0  0  0  0  0  0  0  1 V2000
  146.8572  139.5574  156.3454 O   0  0  0  0  0  0  0  0  0  0  0  0
  147.3210  140.6668  155.6037 C   0  0  2  0  0  0  0  0  0  0  0  0
  146.8034  140.6347  154.1644 C   0  0  0  0  0  0  0  0  0  0  0  0
  147.8116  141.4644  153.3580 C   0  0  0  0  0  0  0  0  0  0  0  0
  149.0816  141.5670  154.2186 C   0  0  0  0  0  0  0  0  0  0  0  0
  148.8454  140.6546  155.4345 C   0  0  1  0  0  0  0  0  0  0  0  0
  149.6807  140.9789  156.7112 C   0  0  2  0  0  0  0  0  0  0  0  0
  149.3969  142.3822  157.3053 C   0  0  0  0  0  0  0  0  0  0  0  0
  150.1779  142.5891  158.4768 O   0  0  0  0  0  0  0  0  0  0  0  0
  151.5710  142.5448  158.2000 C   0  0  0  0  0  0  0  0  0  0  0  0
  151.9297  141.1496  157.6724 C   0  0  0  0  0  0  0  0  0  0  0  0
  151.1275  140.8296  156.4975 N   0  0  0  0  0  0  0  0  0  0  0  0
  151.5490  139.6762  155.9312 C   0  0  0  0  0  0  0  0  0  0  0  0
  152.7365  139.7102  155.2783 N   0  0  0  0  0  0  0  0  0  0  0  0
  153.2014  138.6096  154.6798 C   0  0  0  0  0  0  0  0  0  0  0  0
  152.6488  137.3960  154.6177 N   0  0  0  0  0  0  0  0  0  0  0  0
  151.4591  137.3567  155.2838 C   0  0  0  0  0  0  0  0  0  0  0  0
  150.8424  138.4405  155.9697 C   0  0  0  0  0  0  0  0  0  0  0  0
  149.6445  138.0221  156.5362 N   0  0  0  0  0  0  0  0  0  0  0  0
  149.5536  136.7654  156.1968 C   0  0  0  0  0  0  0  0  0  0  0  0
  150.5953  136.2859  155.4352 N   0  0  0  0  0  0  0  0  0  0  0  0
  150.7426  134.9355  154.9146 C   0  0  0  0  0  0  0  0  0  0  0  0
  149.4053  134.1634  154.8319 C   0  0  1  0  0  0  0  0  0  0  0  0
  148.4780  134.9282  154.0805 O   0  0  0  0  0  0  0  0  0  0  0  0
  149.5200  132.7806  154.1964 C   0  0  0  0  0  0  0  0  0  0  0  0
  148.4422  131.9846  154.9186 C   0  0  0  0  0  0  0  0  0  0  0  0
  148.5486  132.4604  156.2495 O   0  0  0  0  0  0  0  0  0  0  0  0
  148.7839  133.8647  156.2110 C   0  0  0  0  0  0  0  0  0  0  0  0
  147.5960  139.1486  156.7698 H   0  0  0  0  0  0  0  0  0  0  0  0
  146.9815  141.5876  156.0771 H   0  0  0  0  0  0  0  0  0  0  0  0
  146.8051  139.6100  153.7889 H   0  0  0  0  0  0  0  0  0  0  0  0
  145.7845  141.0137  154.0784 H   0  0  0  0  0  0  0  0  0  0  0  0
  148.0171  140.9960  152.3949 H   0  0  0  0  0  0  0  0  0  0  0  0
  147.4160  142.4607  153.1574 H   0  0  0  0  0  0  0  0  0  0  0  0
  149.9723  141.2727  153.6627 H   0  0  0  0  0  0  0  0  0  0  0  0
  149.2219  142.6039  154.5202 H   0  0  0  0  0  0  0  0  0  0  0  0
  149.0934  139.6427  155.1102 H   0  0  0  0  0  0  0  0  0  0  0  0
  149.3917  140.2597  157.4779 H   0  0  0  0  0  0  0  0  0  0  0  0
  149.6058  143.1782  156.5908 H   0  0  0  0  0  0  0  0  0  0  0  0
  148.3515  142.4790  157.5942 H   0  0  0  0  0  0  0  0  0  0  0  0
  151.8400  143.3184  157.4788 H   0  0  0  0  0  0  0  0  0  0  0  0
  152.1233  142.7543  159.1160 H   0  0  0  0  0  0  0  0  0  0  0  0
  152.9913  141.1125  157.4231 H   0  0  0  0  0  0  0  0  0  0  0  0
  151.7548  140.4038  158.4494 H   0  0  0  0  0  0  0  0  0  0  0  0
  154.1505  138.7176  154.1757 H   0  0  0  0  0  0  0  0  0  0  0  0
  148.7145  136.1505  156.4883 H   0  0  0  0  0  0  0  0  0  0  0  0
  151.1999  134.9991  153.9264 H   0  0  0  0  0  0  0  0  0  0  0  0
  151.4525  134.3990  155.5454 H   0  0  0  0  0  0  0  0  0  0  0  0
  148.7960  134.9962  153.1931 H   0  0  0  0  0  0  0  0  0  0  0  0
  149.4045  132.7807  153.1115 H   0  0  0  0  0  0  0  0  0  0  0  0
  150.4903  132.3390  154.4267 H   0  0  0  0  0  0  0  0  0  0  0  0
  147.4513  132.2116  154.5221 H   0  0  0  0  0  0  0  0  0  0  0  0
  148.6019  130.9077  154.8611 H   0  0  0  0  0  0  0  0  0  0  0  0
  149.4463  134.1367  157.0333 H   0  0  0  0  0  0  0  0  0  0  0  0
  147.8431  134.3967  156.3622 H   0  0  0  0  0  0  0  0  0  0  0  0
  1  2  1  0  0  0  0
  1 29  1  0  0  0  0
  2  6  1  0  0  0  0
  2  3  1  0  0  0  0
  2 30  1  0  0  0  0
  3  4  1  0  0  0  0
  3 31  1  0  0  0  0
  3 32  1  0  0  0  0
  4  5  1  0  0  0  0
  4 33  1  0  0  0  0
  4 34  1  0  0  0  0
  5  6  1  0  0  0  0
  5 35  1  0  0  0  0
  5 36  1  0  0  0  0
  6  7  1  0  0  0  0
  6 37  1  0  0  0  0
  7 12  1  0  0  0  0
  7  8  1  0  0  0  0
  7 38  1  0  0  0  0
  8  9  1  0  0  0  0
  8 39  1  0  0  0  0
  8 40  1  0  0  0  0
  9 10  1  0  0  0  0
 10 11  1  0  0  0  0
 10 41  1  0  0  0  0
 10 42  1  0  0  0  0
 11 12  1  0  0  0  0
 11 43  1  0  0  0  0
 11 44  1  0  0  0  0
 12 13  1  0  0  0  0
 13 18  1  0  0  0  0
 13 14  2  0  0  0  0
 14 15  1  0  0  0  0
 15 16  2  0  0  0  0
 15 45  1  0  0  0  0
 16 17  1  0  0  0  0
 17 21  1  0  0  0  0
 17 18  2  0  0  0  0
 18 19  1  0  0  0  0
 19 20  2  0  0  0  0
 20 21  1  0  0  0  0
 20 46  1  0  0  0  0
 21 22  1  0  0  0  0
 22 23  1  0  0  0  0
 22 47  1  0  0  0  0
 22 48  1  0  0  0  0
 23 28  1  0  0  0  0
 23 24  1  0  0  0  0
 23 25  1  0  0  0  0
 24 49  1  0  0  0  0
 25 26  1  0  0  0  0
 25 50  1  0  0  0  0
 25 51  1  0  0  0  0
 26 27  1  0  0  0  0
 26 52  1  0  0  0  0
 26 53  1  0  0  0  0
 27 28  1  0  0  0  0
 28 54  1  0  0  0  0
 28 55  1  0  0  0  0
M  END
> <s_m_source_file>
AV-unprocessed.smi

> <i_m_source_file_index>
240

> <i_lp_mmshare_version>
43012

> <i_f3d_flags>
0

> <s_epik_input>
W09IXVtDQEBIXTFbQ0gyXVtDSDJdW0NIMl1bQ0BIXTFbQ0BASF0yW0NIMl1PW0NIMl1bQ0gyXU4yYyhuW2NIXW4zKWMoYzM0KW5bY0hdbjRbQ0gyXVtDQEBdNShbT0hdKVtDSDJdW0NIMl1PW0NIMl01

> <s_epik_cmdline>
J2VwaWtfcHl0aG9uJywgJy1waCcsICc3LjAnLCAnLXRuJywgJzgnLCAnLW1hJywgJzIwMCcsICctbWV0YWxfYmluZGluZycsICctaW1hZScsICc8aW5maWxlLm1hZT4nLCAnLW9tYWUnLCAnPG91dGZpbGUubWFlPic=

> <r_lp_tautomer_probability>
1

> <r_epik_Ionization_Penalty>
0.000130618

> <r_epik_Ionization_Penalty_Charging>
0

> <r_epik_Ionization_Penalty_Neutral>
0.000130618

> <r_epik_State_Penalty>
-0

> <r_epik_Charging_Adjusted_Penalty>
0

> <i_epik_Tot_Q>
0

> <i_epik_Tot_abs_Q>
0

> <r_epik_Metal_State_Penalty>
-0

> <b_epik_Metal_Only>
0

> <s_lp_Force_Field>
OPLS_2005

> <r_lp_Energy>
60.7436

> <b_lp_Chiralities_Consistent>
1

> <s_lp_Variant>
AV-unprocessed.smi:240-1

> <Gold.Version>
5.8.1

> <Gold.Id.Protein>
6NUR|6NUR_protein|mol2

> <Gold.PLP.Fitness>
44.9531

> <Gold.PLP.PLP>
-37.6188

> <Gold.PLP.part.hbond>
-4.0499

> <Gold.PLP.part.metal>
0.0000

> <Gold.PLP.part.buried>
-6.2278

> <Gold.PLP.part.nonpolar>
-27.7905

> <Gold.PLP.part.repulsive>
0.1897

> <Gold.PLP.ligand.clash>
0.0000

> <Gold.PLP.ligand.torsion>
0.7945

> <Gold.PLP.Chemscore.Hbond>
2.9098

> <Gold.PLP.Chemscore.CHOScore>
0.0000

> <Gold.PLP.Chemscore.Metal>
0.0000

> <Gold.Chemscore.Hbonds>
donor molecule, donor type, donor heavy atom, donor atom, acceptor molecule, acceptor atom, score
      L1  H    24    49       P1  7948  0.83
      P1  H  7989  7998       L1    14  0.04
      P1  H  7997  8009       L1    14  0.70
      P1  H 10752 10765       L1    16  0.51

> <Gold.PLP.Chemscore.Internal.Correction>
0.1939

> <Gold.Rescore>
     Score         DG    S(hbond)    S(metal)    S(lipo)     H(rot)  DE(clash)    DE(int)     intcor
      8.47     -14.65       2.22        0.00      80.77       3.00       1.28       4.90       ----

> <Gold.Chemscore.Fitness>
8.4655

> <Gold.Chemscore.DG>
-14.6523

> <Gold.Chemscore.ZeroCoef>
-5.4800

> <Gold.Chemscore.Hbond>
2.2191

> <Gold.Chemscore.Metal>
0.0000

> <Gold.Chemscore.Lipo>
80.7733

> <Gold.Chemscore.Internal_Hbond>
0.0000

> <Gold.Chemscore.DEClash>
1.2825

> <Gold.Chemscore.DEInternal>
4.9042

> <Gold.Chemscore.Rot>
3.0039

> <Gold.Chemscore.Internal.Correction>
   9.000000E+99

> <Gold.Chemscore.Hbonds>
donor molecule, donor type, donor heavy atom, donor atom, acceptor molecule, acceptor atom, score
      L1  H    24    49       P1  7948  0.33
      P1  H  7997  8009       L1    14  0.07
      P1  H 10752 10765       L1    16  0.26

> <Gold.Chemscore.Hbond.Weighted>
-7.4117

> <Gold.Chemscore.Metal.Weighted>
-0.0000

> <Gold.Chemscore.Lipo.Weighted>
-9.4505

> <Gold.Chemscore.Internal_Hbond.Weighted>
0.0000

> <Gold.Chemscore.DEClash.Weighted>
1.2825

> <Gold.Chemscore.DEInternal.Weighted>
4.9042

> <Gold.Chemscore.Rot.Weighted>
7.6899

> <Gold.Chemscore.Internal.Correction.Weighted>
   9.000000E+99

> <Gold.Protein.RotatedTorsions>
[ 6907 6896 6895 6894 ] final  -58.35 input  -60.11 | X-H torsion
[ 7974 7965 7964 7962 ] final  -45.84 input  175.53 | X-H torsion
[ 8008 7997 7996 7995 ] final -143.68 input   59.86 | X-H torsion
[ 10167 10162 10161 10158 ] final  -84.57 input  -65.29 | X-H torsion
[ 10718 10713 10712 10709 ] final -172.96 input   66.30 | X-H torsion
[ 10763 10752 10751 10750 ] final  155.63 input  -60.55 | X-H torsion
[ 11005 11000 10999 10996 ] final -135.46 input  -57.11 | X-H torsion

> <Gold.Protein.ActiveResidues>
 VAL166  LYS551  ARG553  GLY616  TRP617  ASP618  TYR619  PRO620  LYS621  CYS622 
 ASP623  PHE694  ASN695  SER759  ASP760  ASP761  ALA762  ILE779  LEU786  VAL792 
 PHE793  MET794  SER795  GLU796  ALA797  LYS798  CYS799  TRP800  GLU811  SER814 

> <Gold.Protein.RotatedAtoms>
  150.8013  134.7109  159.6602 H   0  0  0  0  0  0  0  0  0  0  0  0  # atno 6907 bound_to 6896
  152.4130  134.6087  160.0029 H   0  0  0  0  0  0  0  0  0  0  0  0  # atno 6908 bound_to 6896
  151.6324  133.3294  159.3148 H   0  0  0  0  0  0  0  0  0  0  0  0  # atno 6909 bound_to 6896
  145.9780  140.7314  142.9377 H   0  0  0  0  0  0  0  0  0  0  0  0  # atno 7974 bound_to 7965
  155.5146  140.0586  157.2917 H   0  0  0  0  0  0  0  0  0  0  0  0  # atno 8008 bound_to 7997
  154.4539  140.1963  156.0383 H   0  0  0  0  0  0  0  0  0  0  0  0  # atno 8009 bound_to 7997
  156.0761  140.3253  155.7639 H   0  0  0  0  0  0  0  0  0  0  0  0  # atno 8010 bound_to 7997
  140.4119  143.2619  151.9006 H   0  0  0  0  0  0  0  0  0  0  0  0  # atno 10167 bound_to 10162
  156.7633  130.9421  151.3118 H   0  0  0  0  0  0  0  0  0  0  0  0  # atno 10718 bound_to 10713
  154.1715  135.2804  155.3079 H   0  0  0  0  0  0  0  0  0  0  0  0  # atno 10763 bound_to 10752
  154.6071  135.5511  153.7438 H   0  0  0  0  0  0  0  0  0  0  0  0  # atno 10764 bound_to 10752
  153.0163  135.6406  154.1855 H   0  0  0  0  0  0  0  0  0  0  0  0  # atno 10765 bound_to 10752
  140.8896  134.1828  157.4536 H   0  0  0  0  0  0  0  0  0  0  0  0  # atno 11005 bound_to 11000
  144.6854  140.2860  143.7285 LP  0  0  0  0  0  0  0  0  0  0  0  0  # atno 17320 bound_to 7965
  145.7811  139.1891  143.2157 LP  0  0  0  0  0  0  0  0  0  0  0  0  # atno 17321 bound_to 7965
  139.4782  144.5527  151.8360 LP  0  0  0  0  0  0  0  0  0  0  0  0  # atno 17342 bound_to 10162
  140.4628  144.1698  150.5908 LP  0  0  0  0  0  0  0  0  0  0  0  0  # atno 17343 bound_to 10162
  157.6724  130.9063  150.0072 LP  0  0  0  0  0  0  0  0  0  0  0  0  # atno 17370 bound_to 10713
  156.1325  130.3643  149.9710 LP  0  0  0  0  0  0  0  0  0  0  0  0  # atno 17371 bound_to 10713
  139.8728  134.9853  156.5275 LP  0  0  0  0  0  0  0  0  0  0  0  0  # atno 17394 bound_to 11000
  140.8362  133.8240  155.9031 LP  0  0  0  0  0  0  0  0  0  0  0  0  # atno 17395 bound_to 11000

$$$$
