#       Name:                AV-unprocessed.smi:2347
#       Creating user name   scv26
#       Creation time:       Fri Mar 27 12:59:42 2020


#       File generated by GOLD software.
#

@<TRIPOS>MOLECULE
AV-unprocessed.smi:2347
    46    48     1
SMALL
NO_CHARGES


@<TRIPOS>ATOM
      1 ****        -3.1769   1.3237   0.3655 O.2            1 S1                 0.0000
      2 ****        -3.4919   0.2142   0.7958 C.2            1 S1                 0.0000
      3 ****        -2.6397  -0.8018   1.0166 N.am           1 S1                 0.0000
      4 ****        -1.2289  -0.8207   0.8464 C.ar           1 S1                 0.0000
      5 ****        -0.4089   0.3319   0.8851 C.ar           1 S1                 0.0000
      6 ****         0.9815   0.1833   0.7230 C.ar           1 S1                 0.0000
      7 ****         1.5105  -1.1119   0.5245 C.ar           1 S1                 0.0000
      8 ****         2.9894  -1.3171   0.3669 C.2            1 S1                 0.0000
      9 ****         3.5824  -1.9827   1.2169 O.2            1 S1                 0.0000
     10 ****         3.6099  -0.7609  -0.7050 N.am           1 S1                 0.0000
     11 ****         5.0703  -0.7899  -0.8681 C.3            1 S1                 0.0000
     12 ****         5.6083   0.6526  -0.8500 C.3            1 S1                 0.0000
     13 ****         4.9279   1.5096  -1.9327 C.3            1 S1                 0.0000
     14 ****         3.3943   1.3959  -1.8611 C.3            1 S1                 0.0000
     15 ****         2.9537  -0.0793  -1.8321 C.3            1 S1                 0.0000
     16 ****         0.7344  -2.2188   0.5143 N.ar           1 S1                 0.0000
     17 ****        -0.5976  -2.0695   0.6724 C.ar           1 S1                 0.0000
     18 ****        -4.7516  -0.1386   1.0869 N.am           1 S1                 0.0000
     19 ****        -5.8993   0.6983   0.9440 C.3            1 S1                 0.0000
     20 ****        -6.9819   0.5965   1.9966 C.3            1 S1                 0.0000
     21 ****        -7.2197   0.0310   0.6238 C.3            1 S1                 0.0000
     22 ****        -3.0559  -1.6822   1.2828 H              1 S1                 0.0000
     23 ****        -0.8134   1.3181   1.0527 H              1 S1                 0.0000
     24 ****         1.6271   1.0485   0.7579 H              1 S1                 0.0000
     25 ****         5.5740  -1.3725  -0.0959 H              1 S1                 0.0000
     26 ****         5.3183  -1.2726  -1.8145 H              1 S1                 0.0000
     27 ****         5.4307   1.0948   0.1313 H              1 S1                 0.0000
     28 ****         6.6884   0.6524  -0.9987 H              1 S1                 0.0000
     29 ****         5.2348   2.5516  -1.8383 H              1 S1                 0.0000
     30 ****         5.2649   1.1762  -2.9151 H              1 S1                 0.0000
     31 ****         3.0325   1.9060  -0.9679 H              1 S1                 0.0000
     32 ****         2.9430   1.9058  -2.7127 H              1 S1                 0.0000
     33 ****         3.2510  -0.5696  -2.7603 H              1 S1                 0.0000
     34 ****         1.8667  -0.1459  -1.8129 H              1 S1                 0.0000
     35 ****        -1.1789  -2.9801   0.6540 H              1 S1                 0.0000
     36 ****        -4.9141  -1.0735   1.4312 H              1 S1                 0.0000
     37 ****        -5.7478   1.6842   0.5064 H              1 S1                 0.0000
     38 ****        -6.8360  -0.1097   2.8118 H              1 S1                 0.0000
     39 ****        -7.5088   1.5109   2.2622 H              1 S1                 0.0000
     40 ****        -7.9076   0.5662  -0.0275 H              1 S1                 0.0000
     41 ****        -7.2338  -1.0529   0.5245 H              1 S1                 0.0000
     42 ****        -2.2209   1.5239   0.1513 LP             1 S1                 0.0000
     43 ****        -3.8771   2.0247   0.2302 LP             1 S1                 0.0000
     44 ****         3.0787  -2.3714   1.9884 LP             1 S1                 0.0000
     45 ****         4.5674  -2.1344   1.1354 LP             1 S1                 0.0000
     46 ****         1.1373  -3.1259   0.3926 LP             1 S1                 0.0000
@<TRIPOS>BOND
    1    1    2 2     
    2    2    3 am    
    3    2   18 am    
    4    3    4 1     
    5    3   22 1     
    6    4   17 ar    
    7    4    5 ar    
    8    5    6 ar    
    9    5   23 1     
   10    6    7 ar    
   11    6   24 1     
   12    7    8 1     
   13    7   16 ar    
   14    8    9 2     
   15    8   10 am    
   16   10   15 1     
   17   10   11 1     
   18   11   12 1     
   19   11   25 1     
   20   11   26 1     
   21   12   13 1     
   22   12   27 1     
   23   12   28 1     
   24   13   14 1     
   25   13   29 1     
   26   13   30 1     
   27   14   15 1     
   28   14   31 1     
   29   14   32 1     
   30   15   33 1     
   31   15   34 1     
   32   16   17 ar    
   33   17   35 1     
   34   18   19 1     
   35   18   36 1     
   36   19   21 1     
   37   19   20 1     
   38   19   37 1     
   39   20   21 1     
   40   20   38 1     
   41   20   39 1     
   42   21   40 1     
   43   21   41 1     
   44    1   42 1     
   45    1   43 1     
   46    9   44 1     
   47    9   45 1     
   48   16   46 1     
@<TRIPOS>SUBSTRUCTURE
      1 S1             1
@<TRIPOS>SET
LONE_PAIRS      STATIC     ATOMS    <user>   **** ""
5 42 43 44 45 46
DONOR_HYDROGENS      STATIC     ATOMS    <user>   **** ""
2 22 36
ATOM$BLUE        STATIC     ATOMS    COLORGROUP SYSTEM
5 42 43 44 45 46
ATOM$RED        STATIC     ATOMS    COLORGROUP SYSTEM
2 22 36
