#       Name:                AV-unprocessed.smi:580
#       Creating user name   scv26
#       Creation time:       Thu Mar 26 23:49:33 2020


#       File generated by GOLD software.
#

@<TRIPOS>MOLECULE
AV-unprocessed.smi:580
    41    42     1
SMALL
NO_CHARGES


@<TRIPOS>ATOM
      1 ****        -6.6298  -1.4647  -0.4745 C.3            1 S1                 0.0000
      2 ****        -5.3236  -0.7639  -0.3208 C.2            1 S1                 0.0000
      3 ****        -4.0739  -1.1920   0.0296 C.2            1 S1                 0.0000
      4 ****        -3.3019  -0.0010  -0.0218 C.2            1 S1                 0.0000
      5 ****        -1.9172  -0.0180   0.2842 N.am           1 S1                 0.0000
      6 ****        -1.0609   1.0175   0.2649 C.2            1 S1                 0.0000
      7 ****        -1.3525   2.1738  -0.0421 O.2            1 S1                 0.0000
      8 ****         0.1733   0.6338   0.6219 N.am           1 S1                 0.0000
      9 ****         1.3445   1.5059   0.6987 C.3            1 S1                 0.0000
     10 ****         1.9742   1.7279  -0.6926 C.3            1 S1                 0.0000
     11 ****         2.6481   0.4557  -1.2362 C.3            1 S1                 0.0000
     12 ****         3.6944  -0.0987  -0.2505 C.3            1 S1                 0.0000
     13 ****         4.3622  -1.3691  -0.7953 C.3            1 S1                 0.0000
     14 ****         3.0562  -0.3460   1.1297 C.3            1 S1                 0.0000
     15 ****         2.3796   0.9226   1.6799 C.3            1 S1                 0.0000
     16 ****        -4.0156   1.0585  -0.3709 N.2            1 S1                 0.0000
     17 ****        -5.3151   0.5750  -0.5639 O.3            1 S1                 0.0000
     18 ****        -6.4859  -2.5420  -0.5591 H              1 S1                 0.0000
     19 ****        -7.1510  -1.1232  -1.3690 H              1 S1                 0.0000
     20 ****        -7.2724  -1.2756   0.3854 H              1 S1                 0.0000
     21 ****        -3.7652  -2.1959   0.2810 H              1 S1                 0.0000
     22 ****        -1.5381  -0.9154   0.5478 H              1 S1                 0.0000
     23 ****         0.3190  -0.3372   0.8558 H              1 S1                 0.0000
     24 ****         1.0214   2.4715   1.0921 H              1 S1                 0.0000
     25 ****         1.2244   2.0846  -1.3997 H              1 S1                 0.0000
     26 ****         2.7200   2.5208  -0.6224 H              1 S1                 0.0000
     27 ****         1.8903  -0.3026  -1.4374 H              1 S1                 0.0000
     28 ****         3.1201   0.6771  -2.1941 H              1 S1                 0.0000
     29 ****         4.4737   0.6553  -0.1296 H              1 S1                 0.0000
     30 ****         3.6348  -2.1685  -0.9406 H              1 S1                 0.0000
     31 ****         5.1270  -1.7354  -0.1099 H              1 S1                 0.0000
     32 ****         4.8442  -1.1789  -1.7547 H              1 S1                 0.0000
     33 ****         2.3238  -1.1512   1.0589 H              1 S1                 0.0000
     34 ****         3.8157  -0.6858   1.8346 H              1 S1                 0.0000
     35 ****         3.1449   1.6742   1.8781 H              1 S1                 0.0000
     36 ****         1.9106   0.7095   2.6412 H              1 S1                 0.0000
     37 ****        -2.2907   2.4002  -0.3037 LP             1 S1                 0.0000
     38 ****        -0.6511   2.8865  -0.0297 LP             1 S1                 0.0000
     39 ****        -3.6955   2.0003  -0.4742 LP             1 S1                 0.0000
     40 ****        -5.9420   1.0351   0.0649 LP             1 S1                 0.0000
     41 ****        -5.6018   0.7477  -1.5062 LP             1 S1                 0.0000
@<TRIPOS>BOND
    1    1    2 1     
    2    1   18 1     
    3    1   19 1     
    4    1   20 1     
    5    2   17 1     
    6    2    3 2     
    7    3    4 1     
    8    3   21 1     
    9    4    5 1     
   10    4   16 2     
   11    5    6 am    
   12    5   22 1     
   13    6    7 2     
   14    6    8 am    
   15    8    9 1     
   16    8   23 1     
   17    9   15 1     
   18    9   10 1     
   19    9   24 1     
   20   10   11 1     
   21   10   25 1     
   22   10   26 1     
   23   11   12 1     
   24   11   27 1     
   25   11   28 1     
   26   12   13 1     
   27   12   14 1     
   28   12   29 1     
   29   13   30 1     
   30   13   31 1     
   31   13   32 1     
   32   14   15 1     
   33   14   33 1     
   34   14   34 1     
   35   15   35 1     
   36   15   36 1     
   37   16   17 1     
   38    7   37 1     
   39    7   38 1     
   40   16   39 1     
   41   17   40 1     
   42   17   41 1     
@<TRIPOS>SUBSTRUCTURE
      1 S1             1
@<TRIPOS>SET
LONE_PAIRS      STATIC     ATOMS    <user>   **** ""
5 37 38 39 40 41
DONOR_HYDROGENS      STATIC     ATOMS    <user>   **** ""
2 22 23
ATOM$BLUE        STATIC     ATOMS    COLORGROUP SYSTEM
5 37 38 39 40 41
ATOM$RED        STATIC     ATOMS    COLORGROUP SYSTEM
2 22 23
