AV-unprocessed.smi:249|AV-procd|sdf|1919|dock4
  -GOLD-   2262021 23D 1   1.00000     0.00000
 Structure written by MMmdl.
 64 67  0  0  0  0  0  0  0  0  2 V2000
  151.9319  145.6187  159.3828 C   0  0  0  0  0  0  0  0  0  0  0  0
  152.6630  144.2692  159.4726 C   0  0  0  0  0  0  0  0  0  0  0  0
  151.7520  143.0929  159.3645 N   0  3  1  0  0  0  0  0  0  0  0  0
  150.6684  143.3278  158.3663 C   0  0  0  0  0  0  0  0  0  0  0  0
  149.6769  142.1555  158.2917 C   0  0  0  0  0  0  0  0  0  0  0  0
  150.3879  140.8390  157.9387 C   0  0  1  0  0  0  0  0  0  0  0  0
  150.9229  140.8444  156.5667 N   0  0  0  0  0  0  0  0  0  0  0  0
  150.2296  141.6551  155.5710 C   0  0  0  0  0  0  0  0  0  0  0  0
  151.2669  139.6451  156.0454 C   0  0  0  0  0  0  0  0  0  0  0  0
  152.5735  139.4589  155.7350 N   0  0  0  0  0  0  0  0  0  0  0  0
  152.9794  138.2881  155.2345 C   0  0  0  0  0  0  0  0  0  0  0  0
  152.2576  137.1954  154.9768 N   0  0  0  0  0  0  0  0  0  0  0  0
  150.9414  137.3853  155.2796 C   0  0  0  0  0  0  0  0  0  0  0  0
  150.3616  138.5735  155.8049 C   0  0  0  0  0  0  0  0  0  0  0  0
  148.9934  138.3997  155.9756 N   0  0  0  0  0  0  0  0  0  0  0  0
  148.7787  137.1716  155.5896 C   0  0  0  0  0  0  0  0  0  0  0  0
  149.8963  136.4849  155.1727 N   0  0  0  0  0  0  0  0  0  0  0  0
  149.9454  135.1047  154.7229 C   0  0  0  0  0  0  0  0  0  0  0  0
  148.7758  134.2460  155.2679 C   0  0  1  0  0  0  0  0  0  0  0  0
  147.4671  134.5675  154.5072 C   0  0  0  0  0  0  0  0  0  0  0  0
  147.6101  134.2965  153.1282 O   0  0  0  0  0  0  0  0  0  0  0  0
  149.1216  132.7290  155.3115 C   0  0  2  0  0  0  0  0  0  0  0  0
  150.2703  132.3142  156.2305 C   0  0  0  0  0  0  0  0  0  0  0  0
  151.0229  131.2475  155.4306 C   0  0  0  0  0  0  0  0  0  0  0  0
  150.1426  130.8913  154.3750 O   0  0  0  0  0  0  0  0  0  0  0  0
  149.4823  132.0791  153.9727 C   0  0  0  0  0  0  0  0  0  0  0  0
  151.4626  140.6237  159.0268 C   0  0  0  0  0  0  0  0  0  0  0  0
  152.4660  141.7965  159.1219 C   0  0  2  0  0  0  0  0  0  0  0  0
  153.5039  141.4633  160.2143 C   0  0  0  0  0  0  0  0  0  0  0  0
  152.6115  146.4354  159.6281 H   0  0  0  0  0  0  0  0  0  0  0  0
  151.0980  145.6640  160.0839 H   0  0  0  0  0  0  0  0  0  0  0  0
  151.5494  145.8185  158.3824 H   0  0  0  0  0  0  0  0  0  0  0  0
  153.4423  144.2068  158.7116 H   0  0  0  0  0  0  0  0  0  0  0  0
  153.1705  144.2715  160.4340 H   0  0  0  0  0  0  0  0  0  0  0  0
  150.1010  144.2198  158.6256 H   0  0  0  0  0  0  0  0  0  0  0  0
  151.1094  143.5120  157.3855 H   0  0  0  0  0  0  0  0  0  0  0  0
  149.1791  142.0491  159.2565 H   0  0  0  0  0  0  0  0  0  0  0  0
  148.8823  142.3774  157.5794 H   0  0  0  0  0  0  0  0  0  0  0  0
  149.6554  140.0340  158.0051 H   0  0  0  0  0  0  0  0  0  0  0  0
  150.5258  141.3986  154.5521 H   0  0  0  0  0  0  0  0  0  0  0  0
  150.4593  142.7103  155.7176 H   0  0  0  0  0  0  0  0  0  0  0  0
  149.1500  141.5240  155.6526 H   0  0  0  0  0  0  0  0  0  0  0  0
  154.0341  138.2140  155.0137 H   0  0  0  0  0  0  0  0  0  0  0  0
  147.7951  136.7247  155.6112 H   0  0  0  0  0  0  0  0  0  0  0  0
  149.9402  135.1146  153.6327 H   0  0  0  0  0  0  0  0  0  0  0  0
  150.9011  134.6721  155.0204 H   0  0  0  0  0  0  0  0  0  0  0  0
  148.6188  134.5431  156.3063 H   0  0  0  0  0  0  0  0  0  0  0  0
  146.6299  133.9854  154.8920 H   0  0  0  0  0  0  0  0  0  0  0  0
  147.1935  135.6164  154.5986 H   0  0  0  0  0  0  0  0  0  0  0  0
  148.0987  135.0015  152.7318 H   0  0  0  0  0  0  0  0  0  0  0  0
  148.2405  132.1823  155.6487 H   0  0  0  0  0  0  0  0  0  0  0  0
  150.9365  133.1349  156.4936 H   0  0  0  0  0  0  0  0  0  0  0  0
  149.8808  131.9007  157.1609 H   0  0  0  0  0  0  0  0  0  0  0  0
  151.9382  131.6637  155.0072 H   0  0  0  0  0  0  0  0  0  0  0  0
  151.2909  130.3806  156.0349 H   0  0  0  0  0  0  0  0  0  0  0  0
  148.6043  131.8608  153.3643 H   0  0  0  0  0  0  0  0  0  0  0  0
  150.1691  132.6784  153.3766 H   0  0  0  0  0  0  0  0  0  0  0  0
  150.9644  140.5056  159.9902 H   0  0  0  0  0  0  0  0  0  0  0  0
  151.9933  139.6844  158.8699 H   0  0  0  0  0  0  0  0  0  0  0  0
  152.9957  141.8774  158.1715 H   0  0  0  0  0  0  0  0  0  0  0  0
  153.8819  140.4474  160.0952 H   0  0  0  0  0  0  0  0  0  0  0  0
  153.0697  141.5356  161.2122 H   0  0  0  0  0  0  0  0  0  0  0  0
  154.3777  142.1122  160.1725 H   0  0  0  0  0  0  0  0  0  0  0  0
  151.3000  142.9975  160.2626 H   0  0  0  0  0  0  0  0  0  0  0  0
  1  2  1  0  0  0  0
  1 30  1  0  0  0  0
  1 31  1  0  0  0  0
  1 32  1  0  0  0  0
  2  3  1  0  0  0  0
  2 33  1  0  0  0  0
  2 34  1  0  0  0  0
  3 28  1  0  0  0  0
  3  4  1  0  0  0  0
  3 64  1  0  0  0  0
  4  5  1  0  0  0  0
  4 35  1  0  0  0  0
  4 36  1  0  0  0  0
  5  6  1  0  0  0  0
  5 37  1  0  0  0  0
  5 38  1  0  0  0  0
  6  7  1  0  0  0  0
  6 27  1  0  0  0  0
  6 39  1  0  0  0  0
  7  8  1  0  0  0  0
  7  9  1  0  0  0  0
  8 40  1  0  0  0  0
  8 41  1  0  0  0  0
  8 42  1  0  0  0  0
  9 14  1  0  0  0  0
  9 10  2  0  0  0  0
 10 11  1  0  0  0  0
 11 12  2  0  0  0  0
 11 43  1  0  0  0  0
 12 13  1  0  0  0  0
 13 17  1  0  0  0  0
 13 14  2  0  0  0  0
 14 15  1  0  0  0  0
 15 16  2  0  0  0  0
 16 17  1  0  0  0  0
 16 44  1  0  0  0  0
 17 18  1  0  0  0  0
 18 19  1  0  0  0  0
 18 45  1  0  0  0  0
 18 46  1  0  0  0  0
 19 20  1  0  0  0  0
 19 22  1  0  0  0  0
 19 47  1  0  0  0  0
 20 21  1  0  0  0  0
 20 48  1  0  0  0  0
 20 49  1  0  0  0  0
 21 50  1  0  0  0  0
 22 26  1  0  0  0  0
 22 23  1  0  0  0  0
 22 51  1  0  0  0  0
 23 24  1  0  0  0  0
 23 52  1  0  0  0  0
 23 53  1  0  0  0  0
 24 25  1  0  0  0  0
 24 54  1  0  0  0  0
 24 55  1  0  0  0  0
 25 26  1  0  0  0  0
 26 56  1  0  0  0  0
 26 57  1  0  0  0  0
 27 28  1  0  0  0  0
 27 58  1  0  0  0  0
 27 59  1  0  0  0  0
 28 29  1  0  0  0  0
 28 60  1  0  0  0  0
 29 61  1  0  0  0  0
 29 62  1  0  0  0  0
 29 63  1  0  0  0  0
M  CHG  1   3   1
M  END
> <s_m_source_file>
AV-unprocessed.smi

> <i_m_source_file_index>
249

> <i_lp_mmshare_version>
43012

> <i_f3d_flags>
0

> <s_epik_input>
W0NIM11bQ0gyXU4xW0NIMl1bQ0gyXVtDQEhdKFtDSDJdW0NASF0xW0NIM10pTihbQ0gzXSljKG5bY0hdbjIpYyhjMjMpbltjSF1uM1tDSDJdW0NASF0oW0NIMl1bT0hdKVtDQEBIXTRbQ0gyXVtDSDJdT1tDSDJdNA==

> <s_epik_cmdline>
J2VwaWtfcHl0aG9uJywgJy1waCcsICc3LjAnLCAnLXRuJywgJzgnLCAnLW1hJywgJzIwMCcsICctbWV0YWxfYmluZGluZycsICctaW1hZScsICc8aW5maWxlLm1hZT4nLCAnLW9tYWUnLCAnPG91dGZpbGUubWFlPic=

> <r_lp_tautomer_probability>
1

> <r_epik_Ionization_Penalty>
0.00294688

> <r_epik_Ionization_Penalty_Charging>
0.00169971

> <r_epik_Ionization_Penalty_Neutral>
0.00124717

> <r_epik_State_Penalty>
-0

> <r_epik_Charging_Adjusted_Penalty>
0.00169971

> <i_epik_Tot_Q>
1

> <i_epik_Tot_abs_Q>
1

> <r_epik_Metal_State_Penalty>
-0

> <b_epik_Metal_Only>
0

> <s_lp_Force_Field>
OPLS_2005

> <r_lp_Energy>
56.7339

> <b_lp_Chiralities_Consistent>
1

> <s_lp_Variant>
AV-unprocessed.smi:249-22

> <Gold.Version>
5.8.1

> <Gold.Id.Protein>
6NUR|6NUR_protein|mol2

> <Gold.PLP.Fitness>
52.8819

> <Gold.PLP.PLP>
-46.8254

> <Gold.PLP.part.hbond>
-3.0000

> <Gold.PLP.part.metal>
0.0000

> <Gold.PLP.part.buried>
-5.9848

> <Gold.PLP.part.nonpolar>
-38.4060

> <Gold.PLP.part.repulsive>
0.2425

> <Gold.PLP.ligand.clash>
0.0000

> <Gold.PLP.ligand.torsion>
1.4315

> <Gold.PLP.Chemscore.Hbond>
2.7417

> <Gold.PLP.Chemscore.CHOScore>
0.0000

> <Gold.PLP.Chemscore.Metal>
0.0000

> <Gold.Chemscore.Hbonds>
donor molecule, donor type, donor heavy atom, donor atom, acceptor molecule, acceptor atom, score
      L1  H    21    50       P1  7948  1.00
      P1  H  7997  8008       L1    10  0.90
      P1  H 10752 10765       L1    12  0.78

> <Gold.PLP.Chemscore.Internal.Correction>
0.6944

> <Gold.Rescore>
     Score         DG    S(hbond)    S(metal)    S(lipo)     H(rot)  DE(clash)    DE(int)     intcor
     16.97     -18.60       2.27        0.00     110.76       2.90       0.10       1.54       ----

> <Gold.Chemscore.Fitness>
16.9685

> <Gold.Chemscore.DG>
-18.6025

> <Gold.Chemscore.ZeroCoef>
-5.4800

> <Gold.Chemscore.Hbond>
2.2723

> <Gold.Chemscore.Metal>
0.0000

> <Gold.Chemscore.Lipo>
110.7568

> <Gold.Chemscore.Internal_Hbond>
0.0000

> <Gold.Chemscore.DEClash>
0.0983

> <Gold.Chemscore.DEInternal>
1.5358

> <Gold.Chemscore.Rot>
2.9006

> <Gold.Chemscore.Internal.Correction>
   9.000000E+99

> <Gold.Chemscore.Hbonds>
donor molecule, donor type, donor heavy atom, donor atom, acceptor molecule, acceptor atom, score
      L1  H    21    50       P1  7948  0.88
      P1  H  7997  8008       L1    10  0.16
      P1  H 10752 10765       L1    12  0.77

> <Gold.Chemscore.Hbond.Weighted>
-7.5896

> <Gold.Chemscore.Metal.Weighted>
-0.0000

> <Gold.Chemscore.Lipo.Weighted>
-12.9585

> <Gold.Chemscore.Internal_Hbond.Weighted>
0.0000

> <Gold.Chemscore.DEClash.Weighted>
0.0983

> <Gold.Chemscore.DEInternal.Weighted>
1.5358

> <Gold.Chemscore.Rot.Weighted>
7.4256

> <Gold.Chemscore.Internal.Correction.Weighted>
   9.000000E+99

> <Gold.Protein.RotatedTorsions>
[ 6907 6896 6895 6894 ] final  -94.25 input  -60.11 | X-H torsion
[ 7974 7965 7964 7962 ] final -109.79 input  175.53 | X-H torsion
[ 8008 7997 7996 7995 ] final  -52.40 input   59.86 | X-H torsion
[ 10167 10162 10161 10158 ] final  -46.76 input  -65.29 | X-H torsion
[ 10718 10713 10712 10709 ] final  136.68 input   66.30 | X-H torsion
[ 10763 10752 10751 10750 ] final  175.92 input  -60.55 | X-H torsion
[ 11005 11000 10999 10996 ] final  160.44 input  -57.11 | X-H torsion

> <Gold.Protein.ActiveResidues>
 VAL166  LYS551  ARG553  GLY616  TRP617  ASP618  TYR619  PRO620  LYS621  CYS622 
 ASP623  PHE694  ASN695  SER759  ASP760  ASP761  ALA762  ILE779  LEU786  VAL792 
 PHE793  MET794  SER795  GLU796  ALA797  LYS798  CYS799  TRP800  GLU811  SER814 

> <Gold.Protein.RotatedAtoms>
  150.6938  134.1841  159.4259 H   0  0  0  0  0  0  0  0  0  0  0  0  # atno 6907 bound_to 6896
  151.9814  135.0024  160.0567 H   0  0  0  0  0  0  0  0  0  0  0  0  # atno 6908 bound_to 6896
  152.1751  133.4635  159.4966 H   0  0  0  0  0  0  0  0  0  0  0  0  # atno 6909 bound_to 6896
  145.1762  140.8949  143.3506 H   0  0  0  0  0  0  0  0  0  0  0  0  # atno 7974 bound_to 7965
  154.4106  140.1224  156.4986 H   0  0  0  0  0  0  0  0  0  0  0  0  # atno 8008 bound_to 7997
  155.6918  140.3495  155.4877 H   0  0  0  0  0  0  0  0  0  0  0  0  # atno 8009 bound_to 7997
  155.9462  140.1096  157.1005 H   0  0  0  0  0  0  0  0  0  0  0  0  # atno 8010 bound_to 7997
  140.6804  143.2815  151.3830 H   0  0  0  0  0  0  0  0  0  0  0  0  # atno 10167 bound_to 10162
  157.4441  131.1060  151.0109 H   0  0  0  0  0  0  0  0  0  0  0  0  # atno 10718 bound_to 10713
  154.4742  135.2772  155.1620 H   0  0  0  0  0  0  0  0  0  0  0  0  # atno 10763 bound_to 10752
  154.3356  135.6181  153.5576 H   0  0  0  0  0  0  0  0  0  0  0  0  # atno 10764 bound_to 10752
  152.9867  135.5776  154.5129 H   0  0  0  0  0  0  0  0  0  0  0  0  # atno 10765 bound_to 10752
  140.2060  134.8303  157.3069 H   0  0  0  0  0  0  0  0  0  0  0  0  # atno 11005 bound_to 11000
  145.0182  139.3448  143.6085 LP  0  0  0  0  0  0  0  0  0  0  0  0  # atno 17320 bound_to 7965
  146.3460  139.9472  142.8733 LP  0  0  0  0  0  0  0  0  0  0  0  0  # atno 17321 bound_to 7965
  139.6122  144.1075  152.2310 LP  0  0  0  0  0  0  0  0  0  0  0  0  # atno 17342 bound_to 10162
  140.0493  144.5946  150.7349 LP  0  0  0  0  0  0  0  0  0  0  0  0  # atno 17343 bound_to 10162
  157.0962  130.5963  149.5450 LP  0  0  0  0  0  0  0  0  0  0  0  0  # atno 17370 bound_to 10713
  155.9960  130.5028  150.7481 LP  0  0  0  0  0  0  0  0  0  0  0  0  # atno 17371 bound_to 10713
  140.2002  134.4263  155.7667 LP  0  0  0  0  0  0  0  0  0  0  0  0  # atno 17394 bound_to 11000
  141.2227  133.7068  156.8172 LP  0  0  0  0  0  0  0  0  0  0  0  0  # atno 17395 bound_to 11000

$$$$
