AV-unprocessed.smi:356|AV-procd|sdf|2413|dock6
  -GOLD-   2262022343D 1   1.00000     0.00000
 Structure written by MMmdl.
 42 44  0  0  0  0  0  0  0  0  2 V2000
  149.4675  140.9889  155.0637 C   0  0  0  0  0  0  0  0  0  0  0  0
  150.1992  141.6611  156.1765 C   0  0  0  0  0  0  0  0  0  0  0  0
  150.1506  142.9889  156.4811 N   0  3  0  0  0  0  0  0  0  0  0  0
  150.9652  143.2505  157.5840 C   0  0  0  0  0  0  0  0  0  0  0  0
  151.2377  144.4384  158.2557 C   0  0  0  0  0  0  0  0  0  0  0  0
  152.1211  144.3568  159.3523 C   0  0  0  0  0  0  0  0  0  0  0  0
  152.6961  143.1298  159.7429 C   0  0  0  0  0  0  0  0  0  0  0  0
  152.4126  141.9320  159.0539 C   0  0  0  0  0  0  0  0  0  0  0  0
  151.5380  142.0219  157.9716 C   0  0  0  0  0  0  0  0  0  0  0  0
  151.0362  141.0709  157.0772 N   0  0  0  0  0  0  0  0  0  0  0  0
  151.4452  139.6649  157.2185 C   0  0  0  0  0  0  0  0  0  0  0  0
  151.6640  138.9636  155.8634 C   0  0  1  0  0  0  0  0  0  0  0  0
  152.7855  139.5357  155.2201 O   0  0  0  0  0  0  0  0  0  0  0  0
  151.9207  137.4548  156.0456 C   0  0  0  0  0  0  0  0  0  0  0  0
  150.7603  136.6605  156.4541 N   0  0  0  0  0  0  0  0  0  0  0  0
  150.3332  136.9395  157.8246 C   0  0  0  0  0  0  0  0  0  0  0  0
  149.1347  136.0690  158.2418 C   0  0  0  0  0  0  0  0  0  0  0  0
  149.4622  134.6929  158.0824 O   0  0  0  0  0  0  0  0  0  0  0  0
  149.8372  134.3703  156.7476 C   0  0  0  0  0  0  0  0  0  0  0  0
  151.0399  135.2334  156.3294 C   0  0  0  0  0  0  0  0  0  0  0  0
  148.8527  141.7065  154.5200 H   0  0  0  0  0  0  0  0  0  0  0  0
  148.8196  140.2057  155.4571 H   0  0  0  0  0  0  0  0  0  0  0  0
  150.1743  140.5388  154.3664 H   0  0  0  0  0  0  0  0  0  0  0  0
  150.7985  145.3794  157.9585 H   0  0  0  0  0  0  0  0  0  0  0  0
  152.3627  145.2532  159.9050 H   0  0  0  0  0  0  0  0  0  0  0  0
  153.3684  143.1066  160.5884 H   0  0  0  0  0  0  0  0  0  0  0  0
  152.8573  140.9968  159.3605 H   0  0  0  0  0  0  0  0  0  0  0  0
  152.3625  139.6439  157.8083 H   0  0  0  0  0  0  0  0  0  0  0  0
  150.6903  139.1447  157.8095 H   0  0  0  0  0  0  0  0  0  0  0  0
  150.7877  139.1332  155.2397 H   0  0  0  0  0  0  0  0  0  0  0  0
  152.5918  139.6093  154.2976 H   0  0  0  0  0  0  0  0  0  0  0  0
  152.3085  137.0648  155.1031 H   0  0  0  0  0  0  0  0  0  0  0  0
  152.7213  137.3144  156.7735 H   0  0  0  0  0  0  0  0  0  0  0  0
  151.1613  136.7655  158.5133 H   0  0  0  0  0  0  0  0  0  0  0  0
  150.0511  137.9858  157.9315 H   0  0  0  0  0  0  0  0  0  0  0  0
  148.8753  136.2553  159.2840 H   0  0  0  0  0  0  0  0  0  0  0  0
  148.2543  136.3117  157.6444 H   0  0  0  0  0  0  0  0  0  0  0  0
  150.0931  133.3119  156.6949 H   0  0  0  0  0  0  0  0  0  0  0  0
  148.9933  134.5308  156.0749 H   0  0  0  0  0  0  0  0  0  0  0  0
  151.3082  134.9972  155.2992 H   0  0  0  0  0  0  0  0  0  0  0  0
  151.9022  134.9701  156.9441 H   0  0  0  0  0  0  0  0  0  0  0  0
  149.5980  143.6651  155.9698 H   0  0  0  0  0  0  0  0  0  0  0  0
  1  2  1  0  0  0  0
  1 21  1  0  0  0  0
  1 22  1  0  0  0  0
  1 23  1  0  0  0  0
  2 10  1  0  0  0  0
  2  3  2  0  0  0  0
  3  4  1  0  0  0  0
  3 42  1  0  0  0  0
  4  9  2  0  0  0  0
  4  5  1  0  0  0  0
  5  6  2  0  0  0  0
  5 24  1  0  0  0  0
  6  7  1  0  0  0  0
  6 25  1  0  0  0  0
  7  8  2  0  0  0  0
  7 26  1  0  0  0  0
  8  9  1  0  0  0  0
  8 27  1  0  0  0  0
  9 10  1  0  0  0  0
 10 11  1  0  0  0  0
 11 12  1  0  0  0  0
 11 28  1  0  0  0  0
 11 29  1  0  0  0  0
 12 13  1  0  0  0  0
 12 14  1  0  0  0  0
 12 30  1  0  0  0  0
 13 31  1  0  0  0  0
 14 15  1  0  0  0  0
 14 32  1  0  0  0  0
 14 33  1  0  0  0  0
 15 20  1  0  0  0  0
 15 16  1  0  0  0  0
 16 17  1  0  0  0  0
 16 34  1  0  0  0  0
 16 35  1  0  0  0  0
 17 18  1  0  0  0  0
 17 36  1  0  0  0  0
 17 37  1  0  0  0  0
 18 19  1  0  0  0  0
 19 20  1  0  0  0  0
 19 38  1  0  0  0  0
 19 39  1  0  0  0  0
 20 40  1  0  0  0  0
 20 41  1  0  0  0  0
M  CHG  1   3   1
M  END
> <s_m_source_file>
AV-unprocessed.smi

> <i_m_source_file_index>
356

> <i_lp_mmshare_version>
43012

> <i_f3d_flags>
0

> <s_epik_input>
W2NIXTFbY0hdW2NIXVtjSF1jKGMxMiluKGMobjIpW0NIM10pW0NIMl1bQ0BIXShbT0hdKVtDSDJdTjNbQ0gyXVtDSDJdT1tDSDJdW0NIMl0z

> <s_epik_cmdline>
J2VwaWtfcHl0aG9uJywgJy1waCcsICc3LjAnLCAnLXRuJywgJzgnLCAnLW1hJywgJzIwMCcsICctbWV0YWxfYmluZGluZycsICctaW1hZScsICc8aW5maWxlLm1hZT4nLCAnLW9tYWUnLCAnPG91dGZpbGUubWFlPic=

> <r_epik_Ionization_Penalty>
1.35865

> <r_epik_Ionization_Penalty_Charging>
1.14429

> <r_epik_Ionization_Penalty_Neutral>
0.214359

> <r_epik_State_Penalty>
1.39809

> <r_epik_Charging_Adjusted_Penalty>
2.54238

> <i_epik_Tot_Q>
1

> <i_epik_Tot_abs_Q>
1

> <r_epik_Metal_State_Penalty>
5.40564

> <b_epik_Metal_Only>
0

> <s_lp_Force_Field>
OPLS_2005

> <r_lp_Energy>
32.3817

> <b_lp_Chiralities_Consistent>
1

> <s_lp_Variant>
AV-unprocessed.smi:356-6

> <Gold.Version>
5.8.1

> <Gold.Id.Protein>
6NUR|6NUR_protein|mol2

> <Gold.PLP.Fitness>
51.1398

> <Gold.PLP.PLP>
-40.0369

> <Gold.PLP.part.hbond>
-2.8891

> <Gold.PLP.part.metal>
0.0000

> <Gold.PLP.part.buried>
-5.3874

> <Gold.PLP.part.nonpolar>
-32.3912

> <Gold.PLP.part.repulsive>
0.0770

> <Gold.PLP.ligand.clash>
0.0000

> <Gold.PLP.ligand.torsion>
0.4520

> <Gold.PLP.Chemscore.Hbond>
4.0000

> <Gold.PLP.Chemscore.CHOScore>
0.0000

> <Gold.PLP.Chemscore.Metal>
0.0000

> <Gold.Chemscore.Hbonds>
donor molecule, donor type, donor heavy atom, donor atom, acceptor molecule, acceptor atom, score
      L1  H     3    42       P1  8028  0.88
      P1  H  6896  6909       L1    18  1.00
      P1  H  7997  8008       L1    13  1.00

> <Gold.PLP.Chemscore.Internal.Correction>
0.0070

> <Gold.Rescore>
     Score         DG    S(hbond)    S(metal)    S(lipo)     H(rot)  DE(clash)    DE(int)     intcor
     20.40     -21.91       2.82        0.00     104.94       2.05       0.01       1.50       ----

> <Gold.Chemscore.Fitness>
20.3997

> <Gold.Chemscore.DG>
-21.9097

> <Gold.Chemscore.ZeroCoef>
-5.4800

> <Gold.Chemscore.Hbond>
2.8171

> <Gold.Chemscore.Metal>
0.0000

> <Gold.Chemscore.Lipo>
104.9428

> <Gold.Chemscore.Internal_Hbond>
0.0000

> <Gold.Chemscore.DEClash>
0.0147

> <Gold.Chemscore.DEInternal>
1.4953

> <Gold.Chemscore.Rot>
2.0539

> <Gold.Chemscore.Internal.Correction>
   9.000000E+99

> <Gold.Chemscore.Hbonds>
donor molecule, donor type, donor heavy atom, donor atom, acceptor molecule, acceptor atom, score
      L1  H     3    42       P1  8028  0.43
      P1  H  6896  6909       L1    18  0.72
      P1  H  7997  8008       L1    13  0.98

> <Gold.Chemscore.Hbond.Weighted>
-9.4092

> <Gold.Chemscore.Metal.Weighted>
-0.0000

> <Gold.Chemscore.Lipo.Weighted>
-12.2783

> <Gold.Chemscore.Internal_Hbond.Weighted>
0.0000

> <Gold.Chemscore.DEClash.Weighted>
0.0147

> <Gold.Chemscore.DEInternal.Weighted>
1.4953

> <Gold.Chemscore.Rot.Weighted>
5.2579

> <Gold.Chemscore.Internal.Correction.Weighted>
   9.000000E+99

> <Gold.Protein.RotatedTorsions>
[ 6907 6896 6895 6894 ] final   17.50 input  -60.11 | X-H torsion
[ 7974 7965 7964 7962 ] final  125.38 input  175.53 | X-H torsion
[ 8008 7997 7996 7995 ] final  -19.44 input   59.86 | X-H torsion
[ 10167 10162 10161 10158 ] final  -27.22 input  -65.29 | X-H torsion
[ 10718 10713 10712 10709 ] final -169.50 input   66.30 | X-H torsion
[ 10763 10752 10751 10750 ] final   74.92 input  -60.55 | X-H torsion
[ 11005 11000 10999 10996 ] final  121.59 input  -57.11 | X-H torsion

> <Gold.Protein.ActiveResidues>
 VAL166  LYS551  ARG553  GLY616  TRP617  ASP618  TYR619  PRO620  LYS621  CYS622 
 ASP623  PHE694  ASN695  SER759  ASP760  ASP761  ALA762  ILE779  LEU786  VAL792 
 PHE793  MET794  SER795  GLU796  ALA797  LYS798  CYS799  TRP800  GLU811  SER814 

> <Gold.Protein.RotatedAtoms>
  151.8506  135.0559  160.0458 H   0  0  0  0  0  0  0  0  0  0  0  0  # atno 6907 bound_to 6896
  152.2740  133.5403  159.5465 H   0  0  0  0  0  0  0  0  0  0  0  0  # atno 6908 bound_to 6896
  150.7162  134.0574  159.3862 H   0  0  0  0  0  0  0  0  0  0  0  0  # atno 6909 bound_to 6896
  145.0736  139.3711  143.4945 H   0  0  0  0  0  0  0  0  0  0  0  0  # atno 7974 bound_to 7965
  154.4836  140.2089  155.9706 H   0  0  0  0  0  0  0  0  0  0  0  0  # atno 8008 bound_to 7997
  156.1203  140.3214  155.8168 H   0  0  0  0  0  0  0  0  0  0  0  0  # atno 8009 bound_to 7997
  155.4480  140.0515  157.2995 H   0  0  0  0  0  0  0  0  0  0  0  0  # atno 8010 bound_to 7997
  140.7278  143.4112  151.1103 H   0  0  0  0  0  0  0  0  0  0  0  0  # atno 10167 bound_to 10162
  156.7125  130.9239  151.3090 H   0  0  0  0  0  0  0  0  0  0  0  0  # atno 10718 bound_to 10713
  153.0619  135.5008  154.8113 H   0  0  0  0  0  0  0  0  0  0  0  0  # atno 10763 bound_to 10752
  154.6896  135.2982  154.9501 H   0  0  0  0  0  0  0  0  0  0  0  0  # atno 10764 bound_to 10752
  154.0260  135.6736  153.4829 H   0  0  0  0  0  0  0  0  0  0  0  0  # atno 10765 bound_to 10752
  139.9232  134.9639  156.7982 H   0  0  0  0  0  0  0  0  0  0  0  0  # atno 11005 bound_to 11000
  146.3529  140.0493  142.8637 LP  0  0  0  0  0  0  0  0  0  0  0  0  # atno 17320 bound_to 7965
  145.1263  140.9492  143.4571 LP  0  0  0  0  0  0  0  0  0  0  0  0  # atno 17321 bound_to 7965
  139.7745  143.8445  152.3127 LP  0  0  0  0  0  0  0  0  0  0  0  0  # atno 17342 bound_to 10162
  139.8375  144.7225  150.9372 LP  0  0  0  0  0  0  0  0  0  0  0  0  # atno 17343 bound_to 10162
  157.6930  130.9253  150.0567 LP  0  0  0  0  0  0  0  0  0  0  0  0  # atno 17370 bound_to 10713
  156.1651  130.3645  149.9244 LP  0  0  0  0  0  0  0  0  0  0  0  0  # atno 17371 bound_to 10713
  140.6411  133.9817  155.7708 LP  0  0  0  0  0  0  0  0  0  0  0  0  # atno 17394 bound_to 11000
  141.0770  134.0120  157.3443 LP  0  0  0  0  0  0  0  0  0  0  0  0  # atno 17395 bound_to 11000

$$$$
