#       Name:                AV-unprocessed.smi:207
#       Creating user name   scv26
#       Creation time:       Thu Mar 26 19:52:02 2020


#       File generated by GOLD software.
#

@<TRIPOS>MOLECULE
AV-unprocessed.smi:207
    66    69     1
SMALL
NO_CHARGES


@<TRIPOS>ATOM
      1 ****        -3.3165  -0.6913  -2.8172 C.3            1 S1                 0.0000
      2 ****        -2.8626   0.0011  -1.5113 C.3            1 S1                 0.0000
      3 ****        -3.1568  -0.9331  -0.3138 C.3            1 S1                 0.0000
      4 ****        -1.3309   0.1997  -1.6459 C.3            1 S1                 0.0000
      5 ****        -0.7849   1.0512  -0.5965 N.3            1 S1                 0.0000
      6 ****         0.5583   0.9699  -0.4264 C.ar           1 S1                 0.0000
      7 ****         1.3375   2.0637  -0.6386 N.ar           1 S1                 0.0000
      8 ****         2.6617   1.9900  -0.4747 C.ar           1 S1                 0.0000
      9 ****         3.3993   0.9420  -0.1033 N.ar           1 S1                 0.0000
     10 ****         2.6224  -0.1568   0.1187 C.ar           1 S1                 0.0000
     11 ****         1.2080  -0.2301  -0.0224 C.ar           1 S1                 0.0000
     12 ****         0.7665  -1.5094   0.2937 N.2            1 S1                 0.0000
     13 ****         1.8578  -2.1559   0.6012 C.2            1 S1                 0.0000
     14 ****         3.0173  -1.4162   0.5369 N.pl3          1 S1                 0.0000
     15 ****         4.3655  -1.8759   0.8333 C.3            1 S1                 0.0000
     16 ****         4.7240  -1.9121   2.3354 C.3            1 S1                 0.0000
     17 ****         4.5717  -0.5139   2.9635 C.3            1 S1                 0.0000
     18 ****         3.2275  -0.2183   3.2878 O.3            1 S1                 0.0000
     19 ****         4.1576  -3.0880   3.1471 C.3            1 S1                 0.0000
     20 ****         5.4079  -3.8056   3.0950 O.3            1 S1                 0.0000
     21 ****         6.0623  -2.6095   2.6235 C.3            1 S1                 0.0000
     22 ****        -1.4126   2.3620  -0.5109 C.3            1 S1                 0.0000
     23 ****        -2.9252   2.2094  -0.3179 C.3            1 S1                 0.0000
     24 ****        -3.5426   1.3348  -1.3555 N.4            1 S1                 1.0000
     25 ****        -5.0267   1.2905  -1.2169 C.3            1 S1                 0.0000
     26 ****        -5.7001   2.4985  -1.8886 C.3            1 S1                 0.0000
     27 ****        -5.5382   2.4216  -3.2892 O.3            1 S1                 0.0000
     28 ****        -2.7120  -1.5768  -3.0181 H              1 S1                 0.0000
     29 ****        -3.2116  -0.0268  -3.6757 H              1 S1                 0.0000
     30 ****        -4.3501  -1.0321  -2.7869 H              1 S1                 0.0000
     31 ****        -2.6442  -1.8886  -0.4307 H              1 S1                 0.0000
     32 ****        -4.2199  -1.1529  -0.2170 H              1 S1                 0.0000
     33 ****        -2.8209  -0.5070   0.6314 H              1 S1                 0.0000
     34 ****        -0.8327  -0.7696  -1.6703 H              1 S1                 0.0000
     35 ****        -1.1052   0.6762  -2.6015 H              1 S1                 0.0000
     36 ****         3.2085   2.9014  -0.6674 H              1 S1                 0.0000
     37 ****         1.8430  -3.1970   0.8878 H              1 S1                 0.0000
     38 ****         4.4754  -2.8689   0.3953 H              1 S1                 0.0000
     39 ****         5.0690  -1.2414   0.2930 H              1 S1                 0.0000
     40 ****         5.1462  -0.4381   3.8870 H              1 S1                 0.0000
     41 ****         4.9567   0.2613   2.3005 H              1 S1                 0.0000
     42 ****         3.1948   0.6434   3.6748 H              1 S1                 0.0000
     43 ****         3.8856  -2.8291   4.1718 H              1 S1                 0.0000
     44 ****         3.3486  -3.6283   2.6573 H              1 S1                 0.0000
     45 ****         6.6715  -2.7886   1.7367 H              1 S1                 0.0000
     46 ****         6.6560  -2.1402   3.4096 H              1 S1                 0.0000
     47 ****        -0.9950   2.9291   0.3224 H              1 S1                 0.0000
     48 ****        -1.2051   2.9236  -1.4229 H              1 S1                 0.0000
     49 ****        -3.1251   1.7993   0.6727 H              1 S1                 0.0000
     50 ****        -3.3829   3.1979  -0.3373 H              1 S1                 0.0000
     51 ****        -5.4566   0.3878  -1.6445 H              1 S1                 0.0000
     52 ****        -5.2912   1.2577  -0.1589 H              1 S1                 0.0000
     53 ****        -6.7678   2.4962  -1.6686 H              1 S1                 0.0000
     54 ****        -5.3040   3.4460  -1.5245 H              1 S1                 0.0000
     55 ****        -6.0014   3.1439  -3.6868 H              1 S1                 0.0000
     56 ****        -3.3766   1.8018  -2.2359 H              1 S1                 0.0000
     57 ****        -1.0816   0.6392   0.2650 LP             1 S1                 0.0000
     58 ****         0.9178   2.9272  -0.9186 LP             1 S1                 0.0000
     59 ****         4.3939   0.9599  -0.0009 LP             1 S1                 0.0000
     60 ****        -0.1718  -1.8551   0.2871 LP             1 S1                 0.0000
     61 ****         2.8812  -0.8938   3.9388 LP             1 S1                 0.0000
     62 ****         2.6685  -0.2372   2.4588 LP             1 S1                 0.0000
     63 ****         5.4187  -4.5631   2.4422 LP             1 S1                 0.0000
     64 ****         5.7331  -4.1272   3.9842 LP             1 S1                 0.0000
     65 ****        -5.9116   1.5566  -3.6245 LP             1 S1                 0.0000
     66 ****        -4.5667   2.4769  -3.5195 LP             1 S1                 0.0000
@<TRIPOS>BOND
    1    1    2 1     
    2    1   28 1     
    3    1   29 1     
    4    1   30 1     
    5    2   24 1     
    6    2    3 1     
    7    2    4 1     
    8    3   31 1     
    9    3   32 1     
   10    3   33 1     
   11    4    5 1     
   12    4   34 1     
   13    4   35 1     
   14    5    6 1     
   15    5   22 1     
   16    6   11 ar    
   17    6    7 ar    
   18    7    8 ar    
   19    8    9 ar    
   20    8   36 1     
   21    9   10 ar    
   22   10   14 1     
   23   10   11 ar    
   24   11   12 1     
   25   12   13 2     
   26   13   14 1     
   27   13   37 1     
   28   14   15 1     
   29   15   16 1     
   30   15   38 1     
   31   15   39 1     
   32   16   21 1     
   33   16   17 1     
   34   16   19 1     
   35   17   18 1     
   36   17   40 1     
   37   17   41 1     
   38   18   42 1     
   39   19   20 1     
   40   19   43 1     
   41   19   44 1     
   42   20   21 1     
   43   21   45 1     
   44   21   46 1     
   45   22   23 1     
   46   22   47 1     
   47   22   48 1     
   48   23   24 1     
   49   23   49 1     
   50   23   50 1     
   51   24   25 1     
   52   24   56 1     
   53   25   26 1     
   54   25   51 1     
   55   25   52 1     
   56   26   27 1     
   57   26   53 1     
   58   26   54 1     
   59   27   55 1     
   60    5   57 1     
   61    7   58 1     
   62    9   59 1     
   63   12   60 1     
   64   18   61 1     
   65   18   62 1     
   66   20   63 1     
   67   20   64 1     
   68   27   65 1     
   69   27   66 1     
@<TRIPOS>SUBSTRUCTURE
      1 S1             1
@<TRIPOS>SET
LONE_PAIRS      STATIC     ATOMS    <user>   **** ""
10 57 58 59 60 61 62 63 64 65 66
DONOR_HYDROGENS      STATIC     ATOMS    <user>   **** ""
3 42 56 55
ATOM$BLUE        STATIC     ATOMS    COLORGROUP SYSTEM
10 57 58 59 60 61 62 63 64 65 66
ATOM$RED        STATIC     ATOMS    COLORGROUP SYSTEM
3 42 56 55
