AV-unprocessed.smi:1241|AV-procd|sdf|5215|dock3
  -GOLD-   22720 4313D 1   1.00000     0.00000
 Structure written by MMmdl.
 38 39  0  0  0  0  0  0  0  0  1 V2000
  147.6624  134.8491  159.9586 C   0  0  0  0  0  0  0  0  0  0  0  0
  148.7271  136.1783  159.2631 S   0  0  0  0  0  0  0  0  0  0  0  0
  149.0778  137.1024  160.3525 O   0  0  0  0  0  0  0  0  0  0  0  0
  149.7937  135.5459  158.4717 O   0  0  0  0  0  0  0  0  0  0  0  0
  147.6791  137.0265  158.1628 N   0  0  0  0  0  0  0  0  0  0  0  0
  148.2508  137.9524  157.1638 C   0  0  0  0  0  0  0  0  0  0  0  0
  148.3130  137.3165  155.7636 C   0  0  0  0  0  0  0  0  0  0  0  0
  146.9412  136.7714  155.3324 C   0  0  0  0  0  0  0  0  0  0  0  0
  147.0301  136.1063  154.0352 N   0  0  0  0  0  0  0  0  0  0  0  0
  146.0716  135.3394  153.4945 C   0  0  0  0  0  0  0  0  0  0  0  0
  144.9927  135.1152  154.0440 O   0  0  0  0  0  0  0  0  0  0  0  0
  146.4455  134.8668  152.2921 N   0  0  0  0  0  0  0  0  0  0  0  0
  145.7268  133.9957  151.4299 C   0  0  0  0  0  0  0  0  0  0  0  0
  146.5110  133.0194  150.7743 C   0  0  0  0  0  0  0  0  0  0  0  0
  145.8907  132.1032  149.9027 C   0  0  0  0  0  0  0  0  0  0  0  0
  144.5002  132.1861  149.7099 C   0  0  0  0  0  0  0  0  0  0  0  0
  143.7935  133.1877  150.4008 C   0  0  0  0  0  0  0  0  0  0  0  0
  144.3861  134.0672  151.2357 N   0  0  0  0  0  0  0  0  0  0  0  0
  146.4320  135.7850  156.3931 C   0  0  0  0  0  0  0  0  0  0  0  0
  146.3779  136.4391  157.7849 C   0  0  0  0  0  0  0  0  0  0  0  0
  148.2508  134.2498  160.6529 H   0  0  0  0  0  0  0  0  0  0  0  0
  147.2992  134.2071  159.1582 H   0  0  0  0  0  0  0  0  0  0  0  0
  146.8233  135.2886  160.4949 H   0  0  0  0  0  0  0  0  0  0  0  0
  147.6276  138.8467  157.1287 H   0  0  0  0  0  0  0  0  0  0  0  0
  149.2420  138.2822  157.4735 H   0  0  0  0  0  0  0  0  0  0  0  0
  148.6624  138.0601  155.0464 H   0  0  0  0  0  0  0  0  0  0  0  0
  149.0511  136.5151  155.7514 H   0  0  0  0  0  0  0  0  0  0  0  0
  146.2320  137.5989  155.2655 H   0  0  0  0  0  0  0  0  0  0  0  0
  147.8843  136.2388  153.5142 H   0  0  0  0  0  0  0  0  0  0  0  0
  147.3533  135.1549  151.9586 H   0  0  0  0  0  0  0  0  0  0  0  0
  147.5783  132.9687  150.9348 H   0  0  0  0  0  0  0  0  0  0  0  0
  146.4723  131.3498  149.3925 H   0  0  0  0  0  0  0  0  0  0  0  0
  143.9887  131.5008  149.0505 H   0  0  0  0  0  0  0  0  0  0  0  0
  142.7245  133.2847  150.2819 H   0  0  0  0  0  0  0  0  0  0  0  0
  145.4376  135.4282  156.1223 H   0  0  0  0  0  0  0  0  0  0  0  0
  147.0732  134.9046  156.4209 H   0  0  0  0  0  0  0  0  0  0  0  0
  146.0569  135.7139  158.5321 H   0  0  0  0  0  0  0  0  0  0  0  0
  145.6296  137.2324  157.7856 H   0  0  0  0  0  0  0  0  0  0  0  0
  1  2  1  0  0  0  0
  1 21  1  0  0  0  0
  1 22  1  0  0  0  0
  1 23  1  0  0  0  0
  2  3  2  0  0  0  0
  2  4  2  0  0  0  0
  2  5  1  0  0  0  0
  5 20  1  0  0  0  0
  5  6  1  0  0  0  0
  6  7  1  0  0  0  0
  6 24  1  0  0  0  0
  6 25  1  0  0  0  0
  7  8  1  0  0  0  0
  7 26  1  0  0  0  0
  7 27  1  0  0  0  0
  8  9  1  0  0  0  0
  8 19  1  0  0  0  0
  8 28  1  0  0  0  0
  9 10  1  0  0  0  0
  9 29  1  0  0  0  0
 10 11  2  0  0  0  0
 10 12  1  0  0  0  0
 12 13  1  0  0  0  0
 12 30  1  0  0  0  0
 13 18  1  0  0  0  0
 13 14  2  0  0  0  0
 14 15  1  0  0  0  0
 14 31  1  0  0  0  0
 15 16  2  0  0  0  0
 15 32  1  0  0  0  0
 16 17  1  0  0  0  0
 16 33  1  0  0  0  0
 17 18  2  0  0  0  0
 17 34  1  0  0  0  0
 19 20  1  0  0  0  0
 19 35  1  0  0  0  0
 19 36  1  0  0  0  0
 20 37  1  0  0  0  0
 20 38  1  0  0  0  0
M  END
> <s_m_source_file>
AV-unprocessed.smi

> <i_m_source_file_index>
1241

> <i_lp_mmshare_version>
43012

> <i_f3d_flags>
0

> <s_epik_input>
W0NIM11TKD1PKSg9TylOMVtDSDJdW0NIMl1bQ0hdKFtDSDJdW0NIMl0xKVtOSF1DKD1PKVtOSF1jMltjSF1bY0hdW2NIXVtjSF1uMg==

> <s_epik_cmdline>
J2VwaWtfcHl0aG9uJywgJy1waCcsICc3LjAnLCAnLXRuJywgJzgnLCAnLW1hJywgJzIwMCcsICctbWV0YWxfYmluZGluZycsICctaW1hZScsICc8aW5maWxlLm1hZT4nLCAnLW9tYWUnLCAnPG91dGZpbGUubWFlPic=

> <r_lp_tautomer_probability>
1

> <r_epik_Ionization_Penalty>
4.62702e-05

> <r_epik_Ionization_Penalty_Charging>
0

> <r_epik_Ionization_Penalty_Neutral>
4.62702e-05

> <r_epik_State_Penalty>
-0

> <r_epik_Charging_Adjusted_Penalty>
0

> <i_epik_Tot_Q>
0

> <i_epik_Tot_abs_Q>
0

> <r_epik_Metal_State_Penalty>
-0

> <b_epik_Metal_Only>
0

> <s_lp_Force_Field>
OPLS_2005

> <r_lp_Energy>
3.28241

> <b_lp_Chiralities_Consistent>
1

> <s_lp_Variant>
AV-unprocessed.smi:1241-1

> <Gold.Version>
5.8.1

> <Gold.Id.Protein>
6NUR|6NUR_protein|mol2

> <Gold.PLP.Fitness>
36.3165

> <Gold.PLP.PLP>
-23.8555

> <Gold.PLP.part.hbond>
-4.0688

> <Gold.PLP.part.metal>
0.0000

> <Gold.PLP.part.buried>
-4.1630

> <Gold.PLP.part.nonpolar>
-17.0379

> <Gold.PLP.part.repulsive>
0.2097

> <Gold.PLP.ligand.clash>
0.0000

> <Gold.PLP.ligand.torsion>
1.6599

> <Gold.PLP.Chemscore.Hbond>
3.5760

> <Gold.PLP.Chemscore.CHOScore>
1.0000

> <Gold.PLP.Chemscore.Metal>
0.0000

> <Gold.Chemscore.Hbonds>
donor molecule, donor type, donor heavy atom, donor atom, acceptor molecule, acceptor atom, score
      L1  H     9    29       P1  7948  1.00
      L1  H    12    30       P1  7948  1.00
      P1  H  6896  6908       L1     4  1.00
      P1  H  6931  6943       L1     3  0.59
      L1  C    17    34       P1 10186  1.00

> <Gold.PLP.Chemscore.Internal.Correction>
2.0529

> <Gold.Rescore>
     Score         DG    S(hbond)    S(metal)    S(lipo)     H(rot)  DE(clash)    DE(int)     intcor
     17.06     -20.74       3.68        0.00      47.10       1.00       0.06       3.61       ----

> <Gold.Chemscore.Fitness>
17.0623

> <Gold.Chemscore.DG>
-20.7363

> <Gold.Chemscore.ZeroCoef>
-5.4800

> <Gold.Chemscore.Hbond>
3.6842

> <Gold.Chemscore.Metal>
0.0000

> <Gold.Chemscore.Lipo>
47.1030

> <Gold.Chemscore.Internal_Hbond>
0.0000

> <Gold.Chemscore.DEClash>
0.0618

> <Gold.Chemscore.DEInternal>
3.6121

> <Gold.Chemscore.Rot>
1.0000

> <Gold.Chemscore.Internal.Correction>
   9.000000E+99

> <Gold.Chemscore.Hbonds>
donor molecule, donor type, donor heavy atom, donor atom, acceptor molecule, acceptor atom, score
      L1  H     9    29       P1  7948  0.95
      L1  H    12    30       P1  7948  0.96
      P1  H  6896  6908       L1     4  0.68
      P1  H  6931  6943       L1     3  0.58

> <Gold.Chemscore.Hbond.Weighted>
-12.3052

> <Gold.Chemscore.Metal.Weighted>
-0.0000

> <Gold.Chemscore.Lipo.Weighted>
-5.5111

> <Gold.Chemscore.Internal_Hbond.Weighted>
0.0000

> <Gold.Chemscore.DEClash.Weighted>
0.0618

> <Gold.Chemscore.DEInternal.Weighted>
3.6121

> <Gold.Chemscore.Rot.Weighted>
2.5600

> <Gold.Chemscore.Internal.Correction.Weighted>
   9.000000E+99

> <Gold.Protein.RotatedTorsions>
[ 6907 6896 6895 6894 ] final  161.47 input  -60.11 | X-H torsion
[ 7974 7965 7964 7962 ] final  -76.56 input  175.53 | X-H torsion
[ 8008 7997 7996 7995 ] final  -42.42 input   59.86 | X-H torsion
[ 10167 10162 10161 10158 ] final  138.11 input  -65.29 | X-H torsion
[ 10718 10713 10712 10709 ] final  179.51 input   66.30 | X-H torsion
[ 10763 10752 10751 10750 ] final -117.35 input  -60.55 | X-H torsion
[ 11005 11000 10999 10996 ] final   32.99 input  -57.11 | X-H torsion

> <Gold.Protein.ActiveResidues>
 VAL166  LYS551  ARG553  GLY616  TRP617  ASP618  TYR619  PRO620  LYS621  CYS622 
 ASP623  PHE694  ASN695  SER759  ASP760  ASP761  ALA762  ILE779  LEU786  VAL792 
 PHE793  MET794  SER795  GLU796  ALA797  LYS798  CYS799  TRP800  GLU811  SER814 

> <Gold.Protein.RotatedAtoms>
  151.9550  133.3677  159.4013 H   0  0  0  0  0  0  0  0  0  0  0  0  # atno 6907 bound_to 6896
  150.6974  134.4300  159.5253 H   0  0  0  0  0  0  0  0  0  0  0  0  # atno 6908 bound_to 6896
  152.1979  134.8614  160.0561 H   0  0  0  0  0  0  0  0  0  0  0  0  # atno 6909 bound_to 6896
  145.6112  140.9386  143.1188 H   0  0  0  0  0  0  0  0  0  0  0  0  # atno 7974 bound_to 7965
  154.3999  140.1474  156.3351 H   0  0  0  0  0  0  0  0  0  0  0  0  # atno 8008 bound_to 7997
  155.8407  140.3462  155.5609 H   0  0  0  0  0  0  0  0  0  0  0  0  # atno 8009 bound_to 7997
  155.8090  140.0881  157.1905 H   0  0  0  0  0  0  0  0  0  0  0  0  # atno 8010 bound_to 7997
  139.5121  144.6372  151.5665 H   0  0  0  0  0  0  0  0  0  0  0  0  # atno 10167 bound_to 10162
  156.8747  130.9796  151.3069 H   0  0  0  0  0  0  0  0  0  0  0  0  # atno 10718 bound_to 10713
  154.8551  135.4313  154.1965 H   0  0  0  0  0  0  0  0  0  0  0  0  # atno 10763 bound_to 10752
  153.3022  135.6969  153.7199 H   0  0  0  0  0  0  0  0  0  0  0  0  # atno 10764 bound_to 10752
  153.6324  135.3482  155.3020 H   0  0  0  0  0  0  0  0  0  0  0  0  # atno 10765 bound_to 10752
  140.2678  134.3117  155.7837 H   0  0  0  0  0  0  0  0  0  0  0  0  # atno 11005 bound_to 11000
  144.7269  139.7847  143.7361 LP  0  0  0  0  0  0  0  0  0  0  0  0  # atno 17320 bound_to 7965
  146.1503  139.4584  143.0053 LP  0  0  0  0  0  0  0  0  0  0  0  0  # atno 17321 bound_to 7965
  140.6125  143.9409  150.6464 LP  0  0  0  0  0  0  0  0  0  0  0  0  # atno 17342 bound_to 10162
  140.2657  143.3492  152.1283 LP  0  0  0  0  0  0  0  0  0  0  0  0  # atno 17343 bound_to 10162
  157.6175  130.8629  149.9053 LP  0  0  0  0  0  0  0  0  0  0  0  0  # atno 17370 bound_to 10713
  156.0708  130.3685  150.0780 LP  0  0  0  0  0  0  0  0  0  0  0  0  # atno 17371 bound_to 10713
  141.2182  133.7448  156.9287 LP  0  0  0  0  0  0  0  0  0  0  0  0  # atno 17394 bound_to 11000
  140.1402  134.9298  157.2457 LP  0  0  0  0  0  0  0  0  0  0  0  0  # atno 17395 bound_to 11000

$$$$
