AV-unprocessed.smi:2711|AV-procd|sdf|10472|dock4
  -GOLD-   2272014513D 1   1.00000     0.00000
 Structure written by MMmdl.
 34 35  0  0  0  0  0  0  0  0  1 V2000
  151.6107  140.8784  156.1950 C   0  0  0  0  0  0  0  0  0  0  0  0
  150.4553  140.4535  155.3533 C   0  0  0  0  0  0  0  0  0  0  0  0
  149.4184  141.2313  154.8977 C   0  0  0  0  0  0  0  0  0  0  0  0
  148.4847  140.5350  154.1269 N   0  0  0  0  0  0  0  0  0  0  0  0
  148.8067  139.2437  153.9953 C   0  0  0  0  0  0  0  0  0  0  0  0
  148.0404  138.2966  153.2662 N   0  0  0  0  0  0  0  0  0  0  0  0
  146.7049  138.1422  153.2523 C   0  0  0  0  0  0  0  0  0  0  0  0
  145.9026  138.8200  153.8952 O   0  0  0  0  0  0  0  0  0  0  0  0
  146.3395  137.1426  152.4354 N   0  0  0  0  0  0  0  0  0  0  0  0
  144.9607  136.7330  152.1734 C   0  0  0  0  0  0  0  0  0  0  0  0
  144.6599  135.2855  152.6057 C   0  0  0  0  0  0  0  0  0  0  0  0
  144.6633  134.9872  153.8016 O   0  0  0  0  0  0  0  0  0  0  0  0
  144.3830  134.3795  151.6450 N   0  0  0  0  0  0  0  0  0  0  0  0
  144.0749  132.9662  151.8645 C   0  0  0  0  0  0  0  0  0  0  0  0
  143.6573  132.4147  150.5005 C   0  0  0  0  0  0  0  0  0  0  0  0
  144.3264  133.3450  149.4985 C   0  0  0  0  0  0  0  0  0  0  0  0
  144.3777  134.6931  150.2173 C   0  0  0  0  0  0  0  0  0  0  0  0
  150.2926  138.7993  154.8202 S   0  0  0  0  0  0  0  0  0  0  0  0
  151.4321  141.8575  156.6406 H   0  0  0  0  0  0  0  0  0  0  0  0
  152.5209  140.9403  155.5982 H   0  0  0  0  0  0  0  0  0  0  0  0
  151.7842  140.1684  157.0038 H   0  0  0  0  0  0  0  0  0  0  0  0
  149.2660  142.2859  155.0739 H   0  0  0  0  0  0  0  0  0  0  0  0
  148.5711  137.6677  152.6820 H   0  0  0  0  0  0  0  0  0  0  0  0
  147.0632  136.6416  151.9415 H   0  0  0  0  0  0  0  0  0  0  0  0
  144.2996  137.4068  152.7187 H   0  0  0  0  0  0  0  0  0  0  0  0
  144.7386  136.8611  151.1129 H   0  0  0  0  0  0  0  0  0  0  0  0
  144.9696  132.4565  152.2244 H   0  0  0  0  0  0  0  0  0  0  0  0
  143.2805  132.8224  152.5977 H   0  0  0  0  0  0  0  0  0  0  0  0
  143.9391  131.3706  150.3617 H   0  0  0  0  0  0  0  0  0  0  0  0
  142.5739  132.4846  150.3947 H   0  0  0  0  0  0  0  0  0  0  0  0
  145.3416  132.9979  149.3011 H   0  0  0  0  0  0  0  0  0  0  0  0
  143.7985  133.3929  148.5456 H   0  0  0  0  0  0  0  0  0  0  0  0
  143.4896  135.2843  149.9892 H   0  0  0  0  0  0  0  0  0  0  0  0
  145.2548  135.2685  149.9164 H   0  0  0  0  0  0  0  0  0  0  0  0
  1  2  1  0  0  0  0
  1 19  1  0  0  0  0
  1 20  1  0  0  0  0
  1 21  1  0  0  0  0
  2 18  1  0  0  0  0
  2  3  2  0  0  0  0
  3  4  1  0  0  0  0
  3 22  1  0  0  0  0
  4  5  2  0  0  0  0
  5  6  1  0  0  0  0
  5 18  1  0  0  0  0
  6  7  1  0  0  0  0
  6 23  1  0  0  0  0
  7  8  2  0  0  0  0
  7  9  1  0  0  0  0
  9 10  1  0  0  0  0
  9 24  1  0  0  0  0
 10 11  1  0  0  0  0
 10 25  1  0  0  0  0
 10 26  1  0  0  0  0
 11 12  2  0  0  0  0
 11 13  1  0  0  0  0
 13 17  1  0  0  0  0
 13 14  1  0  0  0  0
 14 15  1  0  0  0  0
 14 27  1  0  0  0  0
 14 28  1  0  0  0  0
 15 16  1  0  0  0  0
 15 29  1  0  0  0  0
 15 30  1  0  0  0  0
 16 17  1  0  0  0  0
 16 31  1  0  0  0  0
 16 32  1  0  0  0  0
 17 33  1  0  0  0  0
 17 34  1  0  0  0  0
M  END
> <s_m_source_file>
AV-unprocessed.smi

> <i_m_source_file_index>
2711

> <i_lp_mmshare_version>
43012

> <i_f3d_flags>
0

> <s_epik_input>
W0NIM11jMVtjSF1uYyhzMSlbTkhdQyg9TylbTkhdW0NIMl1DKD1PKU4yW0NIMl1bQ0gyXVtDSDJdW0NIMl0y

> <s_epik_cmdline>
J2VwaWtfcHl0aG9uJywgJy1waCcsICc3LjAnLCAnLXRuJywgJzgnLCAnLW1hJywgJzIwMCcsICctbWV0YWxfYmluZGluZycsICctaW1hZScsICc8aW5maWxlLm1hZT4nLCAnLW9tYWUnLCAnPG91dGZpbGUubWFlPic=

> <r_lp_tautomer_probability>
1

> <r_epik_Ionization_Penalty>
0.000145478

> <r_epik_Ionization_Penalty_Charging>
0

> <r_epik_Ionization_Penalty_Neutral>
0.000145478

> <r_epik_State_Penalty>
-0

> <r_epik_Charging_Adjusted_Penalty>
0

> <i_epik_Tot_Q>
0

> <i_epik_Tot_abs_Q>
0

> <r_epik_Metal_State_Penalty>
0.0331427

> <b_epik_Metal_Only>
0

> <s_lp_Force_Field>
OPLS_2005

> <r_lp_Energy>
22.8553

> <b_lp_Chiralities_Consistent>
1

> <s_lp_Variant>
AV-unprocessed.smi:2711-1

> <Gold.Version>
5.8.1

> <Gold.Id.Protein>
6NUR|6NUR_protein|mol2

> <Gold.PLP.Fitness>
37.2124

> <Gold.PLP.PLP>
-29.1276

> <Gold.PLP.part.hbond>
-2.5593

> <Gold.PLP.part.metal>
0.0000

> <Gold.PLP.part.buried>
-0.4845

> <Gold.PLP.part.nonpolar>
-25.9843

> <Gold.PLP.part.repulsive>
0.5221

> <Gold.PLP.ligand.clash>
0.0000

> <Gold.PLP.ligand.torsion>
0.3946

> <Gold.PLP.Chemscore.Hbond>
1.9600

> <Gold.PLP.Chemscore.CHOScore>
0.9973

> <Gold.PLP.Chemscore.Metal>
0.0000

> <Gold.Chemscore.Hbonds>
donor molecule, donor type, donor heavy atom, donor atom, acceptor molecule, acceptor atom, score
      L1  H     6    23       P1  7948  1.00
      L1  H     9    24       P1  7948  0.94
      L1  C     3    22       P1  8028  1.00

> <Gold.PLP.Chemscore.Internal.Correction>
0.0021

> <Gold.Rescore>
     Score         DG    S(hbond)    S(metal)    S(lipo)     H(rot)  DE(clash)    DE(int)     intcor
     15.40     -15.81       1.97        0.00      61.00       1.32       0.00       0.40       ----

> <Gold.Chemscore.Fitness>
15.3981

> <Gold.Chemscore.DG>
-15.8066

> <Gold.Chemscore.ZeroCoef>
-5.4800

> <Gold.Chemscore.Hbond>
1.9681

> <Gold.Chemscore.Metal>
0.0000

> <Gold.Chemscore.Lipo>
61.0041

> <Gold.Chemscore.Internal_Hbond>
0.0000

> <Gold.Chemscore.DEClash>
0.0046

> <Gold.Chemscore.DEInternal>
0.4039

> <Gold.Chemscore.Rot>
1.3219

> <Gold.Chemscore.Internal.Correction>
   9.000000E+99

> <Gold.Chemscore.Hbonds>
donor molecule, donor type, donor heavy atom, donor atom, acceptor molecule, acceptor atom, score
      L1  H     6    23       P1  7948  0.99
      L1  H     9    24       P1  7948  0.91

> <Gold.Chemscore.Hbond.Weighted>
-6.5733

> <Gold.Chemscore.Metal.Weighted>
-0.0000

> <Gold.Chemscore.Lipo.Weighted>
-7.1375

> <Gold.Chemscore.Internal_Hbond.Weighted>
0.0000

> <Gold.Chemscore.DEClash.Weighted>
0.0046

> <Gold.Chemscore.DEInternal.Weighted>
0.4039

> <Gold.Chemscore.Rot.Weighted>
3.3841

> <Gold.Chemscore.Internal.Correction.Weighted>
   9.000000E+99

> <Gold.Protein.RotatedTorsions>
[ 6907 6896 6895 6894 ] final  130.24 input  -60.11 | X-H torsion
[ 7974 7965 7964 7962 ] final  136.44 input  175.53 | X-H torsion
[ 8008 7997 7996 7995 ] final  -96.24 input   59.86 | X-H torsion
[ 10167 10162 10161 10158 ] final   49.21 input  -65.29 | X-H torsion
[ 10718 10713 10712 10709 ] final   57.68 input   66.30 | X-H torsion
[ 10763 10752 10751 10750 ] final   47.83 input  -60.55 | X-H torsion
[ 11005 11000 10999 10996 ] final   30.38 input  -57.11 | X-H torsion

> <Gold.Protein.ActiveResidues>
 VAL166  LYS551  ARG553  GLY616  TRP617  ASP618  TYR619  PRO620  LYS621  CYS622 
 ASP623  PHE694  ASN695  SER759  ASP760  ASP761  ALA762  ILE779  LEU786  VAL792 
 PHE793  MET794  SER795  GLU796  ALA797  LYS798  CYS799  TRP800  GLU811  SER814 

> <Gold.Protein.RotatedAtoms>
  152.3546  133.6221  159.5969 H   0  0  0  0  0  0  0  0  0  0  0  0  # atno 6907 bound_to 6896
  150.7560  133.9521  159.3498 H   0  0  0  0  0  0  0  0  0  0  0  0  # atno 6908 bound_to 6896
  151.7368  135.0864  160.0360 H   0  0  0  0  0  0  0  0  0  0  0  0  # atno 6909 bound_to 6896
  144.9565  139.4759  143.5500 H   0  0  0  0  0  0  0  0  0  0  0  0  # atno 7974 bound_to 7965
  154.7719  140.0473  157.1058 H   0  0  0  0  0  0  0  0  0  0  0  0  # atno 8008 bound_to 7997
  154.9810  140.3101  155.4927 H   0  0  0  0  0  0  0  0  0  0  0  0  # atno 8009 bound_to 7997
  156.2922  140.2236  156.4909 H   0  0  0  0  0  0  0  0  0  0  0  0  # atno 8010 bound_to 7997
  140.2852  144.3110  150.6254 H   0  0  0  0  0  0  0  0  0  0  0  0  # atno 10167 bound_to 10162
  157.5534  130.8782  149.8998 H   0  0  0  0  0  0  0  0  0  0  0  0  # atno 10718 bound_to 10713
  152.9796  135.5964  154.3826 H   0  0  0  0  0  0  0  0  0  0  0  0  # atno 10763 bound_to 10752
  154.3489  135.2767  155.2384 H   0  0  0  0  0  0  0  0  0  0  0  0  # atno 10764 bound_to 10752
  154.4432  135.6008  153.6198 H   0  0  0  0  0  0  0  0  0  0  0  0  # atno 10765 bound_to 10752
  140.2949  134.2822  155.7767 H   0  0  0  0  0  0  0  0  0  0  0  0  # atno 11005 bound_to 11000
  146.3339  139.8685  142.8844 LP  0  0  0  0  0  0  0  0  0  0  0  0  # atno 17320 bound_to 7965
  145.2765  141.0125  143.3742 LP  0  0  0  0  0  0  0  0  0  0  0  0  # atno 17321 bound_to 7965
  140.5778  143.2175  151.7483 LP  0  0  0  0  0  0  0  0  0  0  0  0  # atno 17342 bound_to 10162
  139.4952  144.4124  152.0066 LP  0  0  0  0  0  0  0  0  0  0  0  0  # atno 17343 bound_to 10162
  156.0597  130.3702  150.1010 LP  0  0  0  0  0  0  0  0  0  0  0  0  # atno 17370 bound_to 10713
  156.9181  130.9674  151.3553 LP  0  0  0  0  0  0  0  0  0  0  0  0  # atno 17371 bound_to 10713
  141.2139  133.7609  156.9681 LP  0  0  0  0  0  0  0  0  0  0  0  0  # atno 17394 bound_to 11000
  140.1161  134.9446  157.2136 LP  0  0  0  0  0  0  0  0  0  0  0  0  # atno 17395 bound_to 11000

$$$$
