AV-unprocessed.smi:1047|AV-procd|sdf|4600|dock4
  -GOLD-   22720 3 93D 1   1.00000     0.00000
 Structure written by MMmdl.
 57 59  0  0  0  0  0  0  0  0  3 V2000
  147.1399  133.0521  152.3163 C   0  0  0  0  0  0  0  0  0  0  0  0
  146.0978  134.1312  151.9906 C   0  0  0  0  0  0  0  0  0  0  0  0
  146.4175  135.4377  152.6175 N   0  3  1  0  0  0  0  0  0  0  0  0
  145.4488  136.5108  152.2824 C   0  0  0  0  0  0  0  0  0  0  0  0
  145.8751  137.8401  152.9278 C   0  0  0  0  0  0  0  0  0  0  0  0
  145.9902  137.6792  154.3360 O   0  0  0  0  0  0  0  0  0  0  0  0
  146.9625  136.7013  154.6893 C   0  0  1  0  0  0  0  0  0  0  0  0
  147.1194  136.6843  156.2194 C   0  0  0  0  0  0  0  0  0  0  0  0
  147.4838  137.9971  156.7462 N   0  0  0  0  0  0  0  0  0  0  0  0
  148.6079  138.6139  156.0494 C   0  0  0  0  0  0  0  0  0  0  0  0
  149.9519  138.1450  156.6325 C   0  0  1  0  0  0  0  0  0  0  0  0
  150.1966  136.8240  156.1904 O   0  0  0  0  0  0  0  0  0  0  0  0
  151.1128  139.0558  156.1877 C   0  0  0  0  0  0  0  0  0  0  0  0
  150.7861  140.4862  156.2850 N   0  0  0  0  0  0  0  0  0  0  0  0
  150.0183  141.2565  155.4671 C   0  0  0  0  0  0  0  0  0  0  0  0
  150.0184  142.5206  155.9731 N   0  3  0  0  0  0  0  0  0  0  0  0
  150.7966  142.5586  157.1317 C   0  0  0  0  0  0  0  0  0  0  0  0
  151.0961  143.6089  157.9911 C   0  0  0  0  0  0  0  0  0  0  0  0
  151.9249  143.3202  159.0985 C   0  0  0  0  0  0  0  0  0  0  0  0
  152.2738  144.4470  160.0562 C   0  0  0  0  0  0  0  0  0  0  0  0
  152.4214  142.0089  159.3160 C   0  0  0  0  0  0  0  0  0  0  0  0
  153.3050  141.7073  160.5146 C   0  0  0  0  0  0  0  0  0  0  0  0
  152.1069  140.9548  158.4287 C   0  0  0  0  0  0  0  0  0  0  0  0
  151.2913  141.2563  157.3401 C   0  0  0  0  0  0  0  0  0  0  0  0
  146.5817  135.3321  154.0866 C   0  0  0  0  0  0  0  0  0  0  0  0
  146.8295  132.0873  151.9147 H   0  0  0  0  0  0  0  0  0  0  0  0
  147.2629  132.9362  153.3934 H   0  0  0  0  0  0  0  0  0  0  0  0
  148.1150  133.2809  151.8874 H   0  0  0  0  0  0  0  0  0  0  0  0
  145.9877  134.2486  150.9114 H   0  0  0  0  0  0  0  0  0  0  0  0
  145.1327  133.7849  152.3632 H   0  0  0  0  0  0  0  0  0  0  0  0
  145.3841  136.6429  151.2029 H   0  0  0  0  0  0  0  0  0  0  0  0
  144.4534  136.2303  152.6308 H   0  0  0  0  0  0  0  0  0  0  0  0
  146.8212  138.1892  152.5109 H   0  0  0  0  0  0  0  0  0  0  0  0
  145.1335  138.6121  152.7222 H   0  0  0  0  0  0  0  0  0  0  0  0
  147.9213  137.0119  154.2701 H   0  0  0  0  0  0  0  0  0  0  0  0
  146.1859  136.3511  156.6746 H   0  0  0  0  0  0  0  0  0  0  0  0
  147.8769  135.9493  156.4940 H   0  0  0  0  0  0  0  0  0  0  0  0
  146.6790  138.6150  156.7127 H   0  0  0  0  0  0  0  0  0  0  0  0
  148.5612  138.4108  154.9785 H   0  0  0  0  0  0  0  0  0  0  0  0
  148.5347  139.6968  156.1594 H   0  0  0  0  0  0  0  0  0  0  0  0
  149.9064  138.1450  157.7227 H   0  0  0  0  0  0  0  0  0  0  0  0
  151.0201  136.8089  155.7274 H   0  0  0  0  0  0  0  0  0  0  0  0
  152.0211  138.8501  156.7544 H   0  0  0  0  0  0  0  0  0  0  0  0
  151.3566  138.8579  155.1429 H   0  0  0  0  0  0  0  0  0  0  0  0
  149.5021  140.9253  154.5773 H   0  0  0  0  0  0  0  0  0  0  0  0
  150.7115  144.6037  157.8204 H   0  0  0  0  0  0  0  0  0  0  0  0
  153.3542  144.5833  160.1111 H   0  0  0  0  0  0  0  0  0  0  0  0
  151.9001  144.2291  161.0571 H   0  0  0  0  0  0  0  0  0  0  0  0
  151.8362  145.3928  159.7351 H   0  0  0  0  0  0  0  0  0  0  0  0
  153.5866  140.6543  160.5481 H   0  0  0  0  0  0  0  0  0  0  0  0
  152.7836  141.9414  161.4432 H   0  0  0  0  0  0  0  0  0  0  0  0
  154.2212  142.2965  160.4734 H   0  0  0  0  0  0  0  0  0  0  0  0
  152.4841  139.9575  158.5985 H   0  0  0  0  0  0  0  0  0  0  0  0
  145.6518  134.9623  154.5215 H   0  0  0  0  0  0  0  0  0  0  0  0
  147.3572  134.6010  154.3195 H   0  0  0  0  0  0  0  0  0  0  0  0
  147.3148  135.7229  152.2517 H   0  0  0  0  0  0  0  0  0  0  0  0
  149.5219  143.2979  155.5567 H   0  0  0  0  0  0  0  0  0  0  0  0
  1  2  1  0  0  0  0
  1 26  1  0  0  0  0
  1 27  1  0  0  0  0
  1 28  1  0  0  0  0
  2  3  1  0  0  0  0
  2 29  1  0  0  0  0
  2 30  1  0  0  0  0
  3 25  1  0  0  0  0
  3  4  1  0  0  0  0
  3 56  1  0  0  0  0
  4  5  1  0  0  0  0
  4 31  1  0  0  0  0
  4 32  1  0  0  0  0
  5  6  1  0  0  0  0
  5 33  1  0  0  0  0
  5 34  1  0  0  0  0
  6  7  1  0  0  0  0
  7  8  1  0  0  0  0
  7 25  1  0  0  0  0
  7 35  1  0  0  0  0
  8  9  1  0  0  0  0
  8 36  1  0  0  0  0
  8 37  1  0  0  0  0
  9 10  1  0  0  0  0
  9 38  1  0  0  0  0
 10 11  1  0  0  0  0
 10 39  1  0  0  0  0
 10 40  1  0  0  0  0
 11 12  1  0  0  0  0
 11 13  1  0  0  0  0
 11 41  1  0  0  0  0
 12 42  1  0  0  0  0
 13 14  1  0  0  0  0
 13 43  1  0  0  0  0
 13 44  1  0  0  0  0
 14 24  1  0  0  0  0
 14 15  1  0  0  0  0
 15 16  2  0  0  0  0
 15 45  1  0  0  0  0
 16 17  1  0  0  0  0
 16 57  1  0  0  0  0
 17 24  2  0  0  0  0
 17 18  1  0  0  0  0
 18 19  2  0  0  0  0
 18 46  1  0  0  0  0
 19 20  1  0  0  0  0
 19 21  1  0  0  0  0
 20 47  1  0  0  0  0
 20 48  1  0  0  0  0
 20 49  1  0  0  0  0
 21 22  1  0  0  0  0
 21 23  2  0  0  0  0
 22 50  1  0  0  0  0
 22 51  1  0  0  0  0
 22 52  1  0  0  0  0
 23 24  1  0  0  0  0
 23 53  1  0  0  0  0
 25 54  1  0  0  0  0
 25 55  1  0  0  0  0
M  CHG  1   3   1
M  CHG  1  16   1
M  END
> <s_m_source_file>
AV-unprocessed.smi

> <i_m_source_file_index>
1047

> <i_lp_mmshare_version>
43012

> <i_f3d_flags>
0

> <s_epik_input>
W0NIM11bQ0gyXU4xW0NIMl1bQ0gyXU9bQ0BIXShbQ0gyXTEpW0NIMl1bTkhdW0NIMl1bQ0BIXShbT0hdKVtDSDJdbihbY0hdbjIpYyhjMjMpW2NIXWMoW0NIM10pYyhbY0hdMylbQ0gzXQ==

> <s_epik_cmdline>
J2VwaWtfcHl0aG9uJywgJy1waCcsICc3LjAnLCAnLXRuJywgJzgnLCAnLW1hJywgJzIwMCcsICctbWV0YWxfYmluZGluZycsICctaW1hZScsICc8aW5maWxlLm1hZT4nLCAnLW9tYWUnLCAnPG91dGZpbGUubWFlPic=

> <r_epik_Ionization_Penalty>
2.03028

> <r_epik_Ionization_Penalty_Charging>
1.21256

> <r_epik_Ionization_Penalty_Neutral>
0.817715

> <r_epik_State_Penalty>
2.54959

> <r_epik_Charging_Adjusted_Penalty>
3.76215

> <i_epik_Tot_Q>
2

> <i_epik_Tot_abs_Q>
2

> <r_epik_Metal_State_Penalty>
6.52811

> <b_epik_Metal_Only>
0

> <s_lp_Force_Field>
OPLS_2005

> <r_lp_Energy>
36.9073

> <b_lp_Chiralities_Consistent>
1

> <s_lp_Variant>
AV-unprocessed.smi:1047-41

> <Gold.Version>
5.8.1

> <Gold.Id.Protein>
6NUR|6NUR_protein|mol2

> <Gold.PLP.Fitness>
50.8698

> <Gold.PLP.PLP>
-39.9194

> <Gold.PLP.part.hbond>
-2.0000

> <Gold.PLP.part.metal>
0.0000

> <Gold.PLP.part.buried>
-4.3416

> <Gold.PLP.part.nonpolar>
-33.9121

> <Gold.PLP.part.repulsive>
0.2418

> <Gold.PLP.ligand.clash>
0.0000

> <Gold.PLP.ligand.torsion>
0.6294

> <Gold.PLP.Chemscore.Hbond>
4.0000

> <Gold.PLP.Chemscore.CHOScore>
0.0000

> <Gold.PLP.Chemscore.Metal>
0.0000

> <Gold.Chemscore.Hbonds>
donor molecule, donor type, donor heavy atom, donor atom, acceptor molecule, acceptor atom, score
      L1  H     3    56       P1  7948  2.00
      L1  H    16    57       P1  8028  2.00

> <Gold.PLP.Chemscore.Internal.Correction>
0.2093

> <Gold.Rescore>
     Score         DG    S(hbond)    S(metal)    S(lipo)     H(rot)  DE(clash)    DE(int)     intcor
     17.61     -18.37       2.00        0.00     112.44       2.71       0.12       0.63       ----

> <Gold.Chemscore.Fitness>
17.6133

> <Gold.Chemscore.DG>
-18.3661

> <Gold.Chemscore.ZeroCoef>
-5.4800

> <Gold.Chemscore.Hbond>
1.9955

> <Gold.Chemscore.Metal>
0.0000

> <Gold.Chemscore.Lipo>
112.4423

> <Gold.Chemscore.Internal_Hbond>
0.0000

> <Gold.Chemscore.DEClash>
0.1179

> <Gold.Chemscore.DEInternal>
0.6349

> <Gold.Chemscore.Rot>
2.7088

> <Gold.Chemscore.Internal.Correction>
   9.000000E+99

> <Gold.Chemscore.Hbonds>
donor molecule, donor type, donor heavy atom, donor atom, acceptor molecule, acceptor atom, score
      L1  H     3    56       P1  7948  1.00
      L1  H    16    57       P1  8028  0.92

> <Gold.Chemscore.Hbond.Weighted>
-6.6650

> <Gold.Chemscore.Metal.Weighted>
-0.0000

> <Gold.Chemscore.Lipo.Weighted>
-13.1558

> <Gold.Chemscore.Internal_Hbond.Weighted>
0.0000

> <Gold.Chemscore.DEClash.Weighted>
0.1179

> <Gold.Chemscore.DEInternal.Weighted>
0.6349

> <Gold.Chemscore.Rot.Weighted>
6.9346

> <Gold.Chemscore.Internal.Correction.Weighted>
   9.000000E+99

> <Gold.Protein.RotatedTorsions>
[ 6907 6896 6895 6894 ] final  142.20 input  -60.11 | X-H torsion
[ 7974 7965 7964 7962 ] final   87.94 input  175.53 | X-H torsion
[ 8008 7997 7996 7995 ] final   15.44 input   59.86 | X-H torsion
[ 10167 10162 10161 10158 ] final  -37.88 input  -65.29 | X-H torsion
[ 10718 10713 10712 10709 ] final  119.36 input   66.30 | X-H torsion
[ 10763 10752 10751 10750 ] final  -38.86 input  -60.55 | X-H torsion
[ 11005 11000 10999 10996 ] final   52.63 input  -57.11 | X-H torsion

> <Gold.Protein.ActiveResidues>
 VAL166  LYS551  ARG553  GLY616  TRP617  ASP618  TYR619  PRO620  LYS621  CYS622 
 ASP623  PHE694  ASN695  SER759  ASP760  ASP761  ALA762  ILE779  LEU786  VAL792 
 PHE793  MET794  SER795  GLU796  ALA797  LYS798  CYS799  TRP800  GLU811  SER814 

> <Gold.Protein.RotatedAtoms>
  152.2216  133.4988  159.5165 H   0  0  0  0  0  0  0  0  0  0  0  0  # atno 6907 bound_to 6896
  150.7014  134.1335  159.4087 H   0  0  0  0  0  0  0  0  0  0  0  0  # atno 6908 bound_to 6896
  151.9255  135.0279  160.0576 H   0  0  0  0  0  0  0  0  0  0  0  0  # atno 6909 bound_to 6896
  145.5523  139.2296  143.2506 H   0  0  0  0  0  0  0  0  0  0  0  0  # atno 7974 bound_to 7965
  154.8627  140.2947  155.5529 H   0  0  0  0  0  0  0  0  0  0  0  0  # atno 8008 bound_to 7997
  156.3020  140.2475  156.3536 H   0  0  0  0  0  0  0  0  0  0  0  0  # atno 8009 bound_to 7997
  154.8901  140.0395  157.1822 H   0  0  0  0  0  0  0  0  0  0  0  0  # atno 8010 bound_to 7997
  140.7107  143.3313  151.2563 H   0  0  0  0  0  0  0  0  0  0  0  0  # atno 10167 bound_to 10162
  157.5967  131.1057  150.7886 H   0  0  0  0  0  0  0  0  0  0  0  0  # atno 10718 bound_to 10713
  153.9199  135.6783  153.4748 H   0  0  0  0  0  0  0  0  0  0  0  0  # atno 10763 bound_to 10752
  153.1034  135.4817  154.8905 H   0  0  0  0  0  0  0  0  0  0  0  0  # atno 10764 bound_to 10752
  154.7483  135.3178  154.8560 H   0  0  0  0  0  0  0  0  0  0  0  0  # atno 10765 bound_to 10752
  140.0834  134.5308  155.8924 H   0  0  0  0  0  0  0  0  0  0  0  0  # atno 11005 bound_to 11000
  146.1908  140.6346  142.9146 LP  0  0  0  0  0  0  0  0  0  0  0  0  # atno 17320 bound_to 7965
  144.7523  140.5222  143.6793 LP  0  0  0  0  0  0  0  0  0  0  0  0  # atno 17321 bound_to 7965
  139.6796  143.9878  152.2801 LP  0  0  0  0  0  0  0  0  0  0  0  0  # atno 17342 bound_to 10162
  139.9503  144.6624  150.8178 LP  0  0  0  0  0  0  0  0  0  0  0  0  # atno 17343 bound_to 10162
  156.8295  130.5011  149.5333 LP  0  0  0  0  0  0  0  0  0  0  0  0  # atno 17370 bound_to 10713
  156.1031  130.5984  150.9926 LP  0  0  0  0  0  0  0  0  0  0  0  0  # atno 17371 bound_to 10713
  141.2054  133.6647  156.6180 LP  0  0  0  0  0  0  0  0  0  0  0  0  # atno 17394 bound_to 11000
  140.3456  134.7812  157.4429 LP  0  0  0  0  0  0  0  0  0  0  0  0  # atno 17395 bound_to 11000

$$$$
