AV-unprocessed.smi:1809|AV-procd|sdf|7331|dock1
  -GOLD-   22720 8583D 1   1.00000     0.00000
 Structure written by MMmdl.
 38 40  0  0  0  0  0  0  0  0  2 V2000
  148.5214  133.7743  157.6093 C   0  0  0  0  0  0  0  0  0  0  0  0
  149.5008  134.8121  157.1792 C   0  0  0  0  0  0  0  0  0  0  0  0
  149.9884  135.7352  158.0118 N   0  0  0  0  0  0  0  0  0  0  0  0
  150.8825  136.5879  157.3809 N   0  0  0  0  0  0  0  0  0  0  0  0
  151.0688  136.2911  156.0867 C   0  0  0  0  0  0  0  0  0  0  0  0
  151.8936  136.9984  155.2970 N   0  5  0  0  0  0  0  0  0  0  0  0
  152.1863  138.2831  155.6028 C   0  0  0  0  0  0  0  0  0  0  0  0
  153.3116  138.7855  155.6502 O   0  0  0  0  0  0  0  0  0  0  0  0
  151.1099  139.0342  155.8689 N   0  0  0  0  0  0  0  0  0  0  0  0
  151.1411  140.4452  156.2298 C   0  0  0  0  0  0  0  0  0  0  0  0
  150.6350  140.6527  157.6703 C   0  0  2  0  0  0  0  0  0  0  0  0
  150.1196  142.0897  157.9231 C   0  0  0  0  0  0  0  0  0  0  0  0
  151.2277  143.0185  158.0466 N   0  0  0  0  0  0  0  0  0  0  0  0
  150.8980  144.3848  158.3791 C   0  0  0  0  0  0  0  0  0  0  0  0
  152.2331  144.9972  158.8369 C   0  0  0  0  0  0  0  0  0  0  0  0
  153.1054  143.7798  159.2153 C   0  0  0  0  0  0  0  0  0  0  0  0
  152.1286  142.6092  159.0893 C   0  0  2  0  0  0  0  0  0  0  0  0
  152.7187  141.2255  158.7862 C   0  0  0  0  0  0  0  0  0  0  0  0
  151.6375  140.2999  158.6378 O   0  0  0  0  0  0  0  0  0  0  0  0
  150.1117  134.9156  155.5367 S   0  0  0  0  0  0  0  0  0  0  0  0
  149.0455  132.9373  158.0710 H   0  0  0  0  0  0  0  0  0  0  0  0
  147.9602  133.4059  156.7506 H   0  0  0  0  0  0  0  0  0  0  0  0
  147.8188  134.1915  158.3311 H   0  0  0  0  0  0  0  0  0  0  0  0
  150.2044  138.5902  155.8257 H   0  0  0  0  0  0  0  0  0  0  0  0
  152.1538  140.8310  156.1085 H   0  0  0  0  0  0  0  0  0  0  0  0
  150.5080  141.0008  155.5366 H   0  0  0  0  0  0  0  0  0  0  0  0
  149.7990  139.9692  157.8226 H   0  0  0  0  0  0  0  0  0  0  0  0
  149.4520  142.4032  157.1201 H   0  0  0  0  0  0  0  0  0  0  0  0
  149.5302  142.1014  158.8411 H   0  0  0  0  0  0  0  0  0  0  0  0
  150.4621  144.9120  157.5301 H   0  0  0  0  0  0  0  0  0  0  0  0
  150.1787  144.4096  159.1994 H   0  0  0  0  0  0  0  0  0  0  0  0
  152.7008  145.5620  158.0296 H   0  0  0  0  0  0  0  0  0  0  0  0
  152.0863  145.6739  159.6793 H   0  0  0  0  0  0  0  0  0  0  0  0
  153.9292  143.6735  158.5083 H   0  0  0  0  0  0  0  0  0  0  0  0
  153.5260  143.8579  160.2181 H   0  0  0  0  0  0  0  0  0  0  0  0
  151.5728  142.5401  160.0269 H   0  0  0  0  0  0  0  0  0  0  0  0
  153.3306  141.2444  157.8839 H   0  0  0  0  0  0  0  0  0  0  0  0
  153.3622  140.8956  159.6019 H   0  0  0  0  0  0  0  0  0  0  0  0
  1  2  1  0  0  0  0
  1 21  1  0  0  0  0
  1 22  1  0  0  0  0
  1 23  1  0  0  0  0
  2 20  1  0  0  0  0
  2  3  2  0  0  0  0
  3  4  1  0  0  0  0
  4  5  2  0  0  0  0
  5  6  1  0  0  0  0
  5 20  1  0  0  0  0
  6  7  1  0  0  0  0
  7  8  2  0  0  0  0
  7  9  1  0  0  0  0
  9 10  1  0  0  0  0
  9 24  1  0  0  0  0
 10 11  1  0  0  0  0
 10 25  1  0  0  0  0
 10 26  1  0  0  0  0
 11 19  1  0  0  0  0
 11 12  1  0  0  0  0
 11 27  1  0  0  0  0
 12 13  1  0  0  0  0
 12 28  1  0  0  0  0
 12 29  1  0  0  0  0
 13 17  1  0  0  0  0
 13 14  1  0  0  0  0
 14 15  1  0  0  0  0
 14 30  1  0  0  0  0
 14 31  1  0  0  0  0
 15 16  1  0  0  0  0
 15 32  1  0  0  0  0
 15 33  1  0  0  0  0
 16 17  1  0  0  0  0
 16 34  1  0  0  0  0
 16 35  1  0  0  0  0
 17 18  1  0  0  0  0
 17 36  1  0  0  0  0
 18 19  1  0  0  0  0
 18 37  1  0  0  0  0
 18 38  1  0  0  0  0
M  CHG  1   6  -1
M  END
> <s_m_source_file>
AV-unprocessed.smi

> <i_m_source_file_index>
1809

> <i_lp_mmshare_version>
43012

> <i_f3d_flags>
0

> <s_epik_input>
W0NIM11jMW5uYyhzMSlbTkhdQyg9TylbTkhdW0NIMl1bQ0BIXShbQ0gyXTIpT1tDSDJdW0NAQEhdKE4yMylbQ0gyXVtDSDJdW0NIMl0z

> <s_epik_cmdline>
J2VwaWtfcHl0aG9uJywgJy1waCcsICc3LjAnLCAnLXRuJywgJzgnLCAnLW1hJywgJzIwMCcsICctbWV0YWxfYmluZGluZycsICctaW1hZScsICc8aW5maWxlLm1hZT4nLCAnLW9tYWUnLCAnPG91dGZpbGUubWFlPic=

> <r_lp_tautomer_probability>
1

> <r_epik_Ionization_Penalty>
4.48809

> <r_epik_Ionization_Penalty_Charging>
3.27284

> <r_epik_Ionization_Penalty_Neutral>
1.21525

> <r_epik_State_Penalty>
4.69427

> <r_epik_Charging_Adjusted_Penalty>
7.96711

> <i_epik_Tot_Q>
-1

> <i_epik_Tot_abs_Q>
1

> <r_epik_Metal_State_Penalty>
1.91976

> <b_epik_Metal_Only>
1

> <s_lp_Force_Field>
OPLS_2005

> <r_lp_Energy>
48.824

> <b_lp_Chiralities_Consistent>
1

> <s_lp_Variant>
AV-unprocessed.smi:1809-23

> <Gold.Version>
5.8.1

> <Gold.Id.Protein>
6NUR|6NUR_protein|mol2

> <Gold.PLP.Fitness>
43.1258

> <Gold.PLP.PLP>
-32.9001

> <Gold.PLP.part.hbond>
-3.0000

> <Gold.PLP.part.metal>
0.0000

> <Gold.PLP.part.buried>
-6.6670

> <Gold.PLP.part.nonpolar>
-24.8120

> <Gold.PLP.part.repulsive>
0.2426

> <Gold.PLP.ligand.clash>
0.0000

> <Gold.PLP.ligand.torsion>
0.7672

> <Gold.PLP.Chemscore.Hbond>
3.8880

> <Gold.PLP.Chemscore.CHOScore>
0.0000

> <Gold.PLP.Chemscore.Metal>
0.0000

> <Gold.Chemscore.Hbonds>
donor molecule, donor type, donor heavy atom, donor atom, acceptor molecule, acceptor atom, score
      P1  H  6896  6908       L1     3  0.91
      P1  H  7997  8008       L1     8  0.98
      P1  H 10752 10765       L1     6  2.00

> <Gold.PLP.Chemscore.Internal.Correction>
0.0962

> <Gold.Rescore>
     Score         DG    S(hbond)    S(metal)    S(lipo)     H(rot)  DE(clash)    DE(int)     intcor
     18.51     -19.56       2.38        0.00      81.00       1.31       0.04       1.01       ----

> <Gold.Chemscore.Fitness>
18.5086

> <Gold.Chemscore.DG>
-19.5561

> <Gold.Chemscore.ZeroCoef>
-5.4800

> <Gold.Chemscore.Hbond>
2.3774

> <Gold.Chemscore.Metal>
0.0000

> <Gold.Chemscore.Lipo>
80.9975

> <Gold.Chemscore.Internal_Hbond>
0.0000

> <Gold.Chemscore.DEClash>
0.0358

> <Gold.Chemscore.DEInternal>
1.0117

> <Gold.Chemscore.Rot>
1.3051

> <Gold.Chemscore.Internal.Correction>
   9.000000E+99

> <Gold.Chemscore.Hbonds>
donor molecule, donor type, donor heavy atom, donor atom, acceptor molecule, acceptor atom, score
      P1  H  6896  6908       L1     3  0.27
      P1  H  7997  8008       L1     8  0.92
      P1  H 10752 10765       L1     6  0.25

> <Gold.Chemscore.Hbond.Weighted>
-7.9406

> <Gold.Chemscore.Metal.Weighted>
-0.0000

> <Gold.Chemscore.Lipo.Weighted>
-9.4767

> <Gold.Chemscore.Internal_Hbond.Weighted>
0.0000

> <Gold.Chemscore.DEClash.Weighted>
0.0358

> <Gold.Chemscore.DEInternal.Weighted>
1.0117

> <Gold.Chemscore.Rot.Weighted>
3.3412

> <Gold.Chemscore.Internal.Correction.Weighted>
   9.000000E+99

> <Gold.Protein.RotatedTorsions>
[ 6907 6896 6895 6894 ] final  170.83 input  -60.11 | X-H torsion
[ 7974 7965 7964 7962 ] final  121.66 input  175.53 | X-H torsion
[ 8008 7997 7996 7995 ] final  -39.78 input   59.86 | X-H torsion
[ 10167 10162 10161 10158 ] final  109.15 input  -65.29 | X-H torsion
[ 10718 10713 10712 10709 ] final -103.09 input   66.30 | X-H torsion
[ 10763 10752 10751 10750 ] final -178.25 input  -60.55 | X-H torsion
[ 11005 11000 10999 10996 ] final  -23.13 input  -57.11 | X-H torsion

> <Gold.Protein.ActiveResidues>
 VAL166  LYS551  ARG553  GLY616  TRP617  ASP618  TYR619  PRO620  LYS621  CYS622 
 ASP623  PHE694  ASN695  SER759  ASP760  ASP761  ALA762  ILE779  LEU786  VAL792 
 PHE793  MET794  SER795  GLU796  ALA797  LYS798  CYS799  TRP800  GLU811  SER814 

> <Gold.Protein.RotatedAtoms>
  151.8099  133.3380  159.3551 H   0  0  0  0  0  0  0  0  0  0  0  0  # atno 6907 bound_to 6896
  150.7330  134.5674  159.5882 H   0  0  0  0  0  0  0  0  0  0  0  0  # atno 6908 bound_to 6896
  152.3083  134.7530  160.0393 H   0  0  0  0  0  0  0  0  0  0  0  0  # atno 6909 bound_to 6896
  145.1167  139.3416  143.4735 H   0  0  0  0  0  0  0  0  0  0  0  0  # atno 7974 bound_to 7965
  154.4019  140.1542  156.2920 H   0  0  0  0  0  0  0  0  0  0  0  0  # atno 8008 bound_to 7997
  155.8777  140.3445  155.5844 H   0  0  0  0  0  0  0  0  0  0  0  0  # atno 8009 bound_to 7997
  155.7702  140.0829  157.2102 H   0  0  0  0  0  0  0  0  0  0  0  0  # atno 8010 bound_to 7997
  139.6789  144.7120  151.1551 H   0  0  0  0  0  0  0  0  0  0  0  0  # atno 10167 bound_to 10162
  156.0252  130.5451  150.7202 H   0  0  0  0  0  0  0  0  0  0  0  0  # atno 10718 bound_to 10713
  154.5500  135.2812  155.1017 H   0  0  0  0  0  0  0  0  0  0  0  0  # atno 10763 bound_to 10752
  154.2466  135.6347  153.5229 H   0  0  0  0  0  0  0  0  0  0  0  0  # atno 10764 bound_to 10752
  153.0000  135.5573  154.6064 H   0  0  0  0  0  0  0  0  0  0  0  0  # atno 10765 bound_to 10752
  140.8722  133.7712  156.0200 H   0  0  0  0  0  0  0  0  0  0  0  0  # atno 11005 bound_to 11000
  146.3523  140.1109  142.8604 LP  0  0  0  0  0  0  0  0  0  0  0  0  # atno 17320 bound_to 7965
  145.0786  140.9205  143.4839 LP  0  0  0  0  0  0  0  0  0  0  0  0  # atno 17321 bound_to 7965
  140.7645  143.5729  150.8976 LP  0  0  0  0  0  0  0  0  0  0  0  0  # atno 17342 bound_to 10162
  139.9400  143.6393  152.3056 LP  0  0  0  0  0  0  0  0  0  0  0  0  # atno 17343 bound_to 10162
  157.4820  131.0903  151.0525 LP  0  0  0  0  0  0  0  0  0  0  0  0  # atno 17370 bound_to 10713
  157.0956  130.5960  149.5449 LP  0  0  0  0  0  0  0  0  0  0  0  0  # atno 17371 bound_to 10713
  140.8560  134.2898  157.5255 LP  0  0  0  0  0  0  0  0  0  0  0  0  # atno 17394 bound_to 11000
  139.8713  134.9493  156.4021 LP  0  0  0  0  0  0  0  0  0  0  0  0  # atno 17395 bound_to 11000

$$$$
