#       Name:                AV-unprocessed.smi:76
#       Creating user name   scv26
#       Creation time:       Thu Mar 26 17:11:26 2020


#       File generated by GOLD software.
#

@<TRIPOS>MOLECULE
AV-unprocessed.smi:76
    63    66     1
SMALL
NO_CHARGES


@<TRIPOS>ATOM
      1 ****        -2.6241   0.4236   3.0213 C.3            1 S1                 0.0000
      2 ****        -3.3822   0.9641   1.7904 C.3            1 S1                 0.0000
      3 ****        -4.7982   0.3516   1.7416 C.3            1 S1                 0.0000
      4 ****        -5.5979   0.8312   0.5140 C.3            1 S1                 0.0000
      5 ****        -7.0108   0.2156   0.4603 C.3            1 S1                 0.0000
      6 ****        -6.9476  -1.1126   0.3612 F              1 S1                 0.0000
      7 ****        -7.6887   0.5338   1.5629 F              1 S1                 0.0000
      8 ****        -7.6764   0.6950  -0.5905 F              1 S1                 0.0000
      9 ****        -4.7844   0.5364  -0.7598 C.3            1 S1                 0.0000
     10 ****        -3.3856   1.1620  -0.6721 C.3            1 S1                 0.0000
     11 ****        -2.6790   0.7088   0.5253 N.3            1 S1                 0.0000
     12 ****        -1.3788   1.0799   0.5048 C.ar           1 S1                 0.0000
     13 ****        -1.0449   2.3964   0.5638 N.ar           1 S1                 0.0000
     14 ****         0.2423   2.7565   0.5575 C.ar           1 S1                 0.0000
     15 ****         1.3269   1.9796   0.5005 N.ar           1 S1                 0.0000
     16 ****         0.9900   0.6587   0.4406 C.ar           1 S1                 0.0000
     17 ****        -0.3291   0.1275   0.4396 C.ar           1 S1                 0.0000
     18 ****        -0.2874  -1.2590   0.3813 N.2            1 S1                 0.0000
     19 ****         0.9884  -1.5336   0.3517 C.2            1 S1                 0.0000
     20 ****         1.8279  -0.4414   0.3678 N.pl3          1 S1                 0.0000
     21 ****         3.2839  -0.4581   0.3512 C.3            1 S1                 0.0000
     22 ****         3.9311  -0.4891  -1.0694 C.3            1 S1                 0.0000
     23 ****         3.4637   0.7679  -1.8550 C.3            1 S1                 0.0000
     24 ****         4.0620   0.8891  -3.1306 O.3            1 S1                 0.0000
     25 ****         5.4743  -0.4829  -0.9179 C.3            1 S1                 0.0000
     26 ****         6.0245  -1.8173  -0.3785 C.3            1 S1                 0.0000
     27 ****         5.5982  -2.8944  -1.2042 O.3            1 S1                 0.0000
     28 ****         4.1838  -3.0374  -1.2506 C.3            1 S1                 0.0000
     29 ****         3.5494  -1.7714  -1.8538 C.3            1 S1                 0.0000
     30 ****        -3.1990   0.5845   3.9335 H              1 S1                 0.0000
     31 ****        -1.6639   0.9205   3.1617 H              1 S1                 0.0000
     32 ****        -2.4367  -0.6471   2.9325 H              1 S1                 0.0000
     33 ****        -3.4844   2.0447   1.9021 H              1 S1                 0.0000
     34 ****        -4.7227  -0.7366   1.7244 H              1 S1                 0.0000
     35 ****        -5.3370   0.6063   2.6547 H              1 S1                 0.0000
     36 ****        -5.7134   1.9133   0.5939 H              1 S1                 0.0000
     37 ****        -4.6926  -0.5408  -0.9036 H              1 S1                 0.0000
     38 ****        -5.3017   0.9234  -1.6379 H              1 S1                 0.0000
     39 ****        -2.8115   0.9005  -1.5624 H              1 S1                 0.0000
     40 ****        -3.4717   2.2498  -0.6569 H              1 S1                 0.0000
     41 ****         0.4303   3.8190   0.6066 H              1 S1                 0.0000
     42 ****         1.3546  -2.5492   0.3124 H              1 S1                 0.0000
     43 ****         3.6312   0.4226   0.8931 H              1 S1                 0.0000
     44 ****         3.6016  -1.3073   0.9539 H              1 S1                 0.0000
     45 ****         2.3846   0.7505  -2.0077 H              1 S1                 0.0000
     46 ****         3.6891   1.6732  -1.2903 H              1 S1                 0.0000
     47 ****         3.7341   1.6736  -3.5429 H              1 S1                 0.0000
     48 ****         5.9475  -0.3050  -1.8838 H              1 S1                 0.0000
     49 ****         5.7909   0.3386  -0.2743 H              1 S1                 0.0000
     50 ****         7.1144  -1.7924  -0.3802 H              1 S1                 0.0000
     51 ****         5.7237  -1.9924   0.6545 H              1 S1                 0.0000
     52 ****         3.9445  -3.9014  -1.8707 H              1 S1                 0.0000
     53 ****         3.7920  -3.2511  -0.2560 H              1 S1                 0.0000
     54 ****         2.4684  -1.8855  -1.9236 H              1 S1                 0.0000
     55 ****         3.8985  -1.6923  -2.8838 H              1 S1                 0.0000
     56 ****        -2.6788  -0.2906   0.4899 LP             1 S1                 0.0000
     57 ****        -1.7604   3.0935   0.6117 LP             1 S1                 0.0000
     58 ****         2.2663   2.3222   0.5015 LP             1 S1                 0.0000
     59 ****        -1.0560  -1.8986   0.3656 LP             1 S1                 0.0000
     60 ****         3.8299   0.0926  -3.6889 LP             1 S1                 0.0000
     61 ****         5.0553   0.9496  -3.0328 LP             1 S1                 0.0000
     62 ****         5.9921  -3.7423  -0.8495 LP             1 S1                 0.0000
     63 ****         5.9323  -2.7347  -2.1331 LP             1 S1                 0.0000
@<TRIPOS>BOND
    1    1    2 1     
    2    1   30 1     
    3    1   31 1     
    4    1   32 1     
    5    2   11 1     
    6    2    3 1     
    7    2   33 1     
    8    3    4 1     
    9    3   34 1     
   10    3   35 1     
   11    4    5 1     
   12    4    9 1     
   13    4   36 1     
   14    5    6 1     
   15    5    7 1     
   16    5    8 1     
   17    9   10 1     
   18    9   37 1     
   19    9   38 1     
   20   10   11 1     
   21   10   39 1     
   22   10   40 1     
   23   11   12 1     
   24   12   17 ar    
   25   12   13 ar    
   26   13   14 ar    
   27   14   15 ar    
   28   14   41 1     
   29   15   16 ar    
   30   16   20 1     
   31   16   17 ar    
   32   17   18 1     
   33   18   19 2     
   34   19   20 1     
   35   19   42 1     
   36   20   21 1     
   37   21   22 1     
   38   21   43 1     
   39   21   44 1     
   40   22   29 1     
   41   22   23 1     
   42   22   25 1     
   43   23   24 1     
   44   23   45 1     
   45   23   46 1     
   46   24   47 1     
   47   25   26 1     
   48   25   48 1     
   49   25   49 1     
   50   26   27 1     
   51   26   50 1     
   52   26   51 1     
   53   27   28 1     
   54   28   29 1     
   55   28   52 1     
   56   28   53 1     
   57   29   54 1     
   58   29   55 1     
   59   11   56 1     
   60   13   57 1     
   61   15   58 1     
   62   18   59 1     
   63   24   60 1     
   64   24   61 1     
   65   27   62 1     
   66   27   63 1     
@<TRIPOS>SUBSTRUCTURE
      1 S1             1
@<TRIPOS>SET
LONE_PAIRS      STATIC     ATOMS    <user>   **** ""
8 56 57 58 59 60 61 62 63
DONOR_HYDROGENS      STATIC     ATOMS    <user>   **** ""
1 47
ATOM$BLUE        STATIC     ATOMS    COLORGROUP SYSTEM
8 56 57 58 59 60 61 62 63
ATOM$RED        STATIC     ATOMS    COLORGROUP SYSTEM
1 47
