AV-unprocessed.smi:3117|AV-procd|sdf|11879|dock4
  -GOLD-   2272017263D 1   1.00000     0.00000
 Structure written by MMmdl.
 37 37  0  0  0  0  0  0  0  0  2 V2000
  147.7096  133.2372  152.8391 C   0  0  0  0  0  0  0  0  0  0  0  0
  146.5837  134.2822  152.9409 C   0  0  1  0  0  0  0  0  0  0  0  0
  147.1185  135.4955  153.5988 N   0  3  0  0  0  0  0  0  0  0  0  0
  147.6457  135.2826  154.9646 C   0  0  0  0  0  0  0  0  0  0  0  0
  148.8082  136.2407  155.3006 C   0  0  0  0  0  0  0  0  0  0  0  0
  148.3944  137.6962  155.0262 C   0  0  0  0  0  0  0  0  0  0  0  0
  149.2936  136.0892  156.7540 C   0  0  0  0  0  0  0  0  0  0  0  0
  149.8867  135.9508  154.4323 O   0  0  0  0  0  0  0  0  0  0  0  0
  145.9606  134.6373  151.5636 C   0  0  2  0  0  0  0  0  0  0  0  0
  145.0233  135.8592  151.6235 C   0  0  0  0  0  0  0  0  0  0  0  0
  145.2609  133.5024  150.9739 N   0  0  0  0  0  0  0  0  0  0  0  0
  145.7830  132.2901  150.5714 C   0  0  0  0  0  0  0  0  0  0  0  0
  144.7504  131.5424  150.0819 C   0  0  0  0  0  0  0  0  0  0  0  0
  143.6194  132.3935  150.2239 C   0  0  0  0  0  0  0  0  0  0  0  0
  143.9273  133.5643  150.7577 N   0  0  0  0  0  0  0  0  0  0  0  0
  147.3463  132.2844  152.4536 H   0  0  0  0  0  0  0  0  0  0  0  0
  148.1467  133.0375  153.8181 H   0  0  0  0  0  0  0  0  0  0  0  0
  148.5098  133.5788  152.1817 H   0  0  0  0  0  0  0  0  0  0  0  0
  145.8057  133.8504  153.5735 H   0  0  0  0  0  0  0  0  0  0  0  0
  147.8674  135.8631  153.0299 H   0  0  0  0  0  0  0  0  0  0  0  0
  146.8364  135.4146  155.6841 H   0  0  0  0  0  0  0  0  0  0  0  0
  147.9794  134.2476  155.0534 H   0  0  0  0  0  0  0  0  0  0  0  0
  147.5623  137.9964  155.6641 H   0  0  0  0  0  0  0  0  0  0  0  0
  148.0803  137.8343  153.9908 H   0  0  0  0  0  0  0  0  0  0  0  0
  149.2168  138.3877  155.2145 H   0  0  0  0  0  0  0  0  0  0  0  0
  148.4878  136.2923  157.4602 H   0  0  0  0  0  0  0  0  0  0  0  0
  150.1046  136.7844  156.9750 H   0  0  0  0  0  0  0  0  0  0  0  0
  149.6645  135.0843  156.9574 H   0  0  0  0  0  0  0  0  0  0  0  0
  149.5479  135.8399  153.5565 H   0  0  0  0  0  0  0  0  0  0  0  0
  146.7763  134.8862  150.8826 H   0  0  0  0  0  0  0  0  0  0  0  0
  145.5584  136.7617  151.9190 H   0  0  0  0  0  0  0  0  0  0  0  0
  144.2111  135.7066  152.3348 H   0  0  0  0  0  0  0  0  0  0  0  0
  144.5765  136.0563  150.6485 H   0  0  0  0  0  0  0  0  0  0  0  0
  146.8341  132.0608  150.6664 H   0  0  0  0  0  0  0  0  0  0  0  0
  144.7957  130.5403  149.6817 H   0  0  0  0  0  0  0  0  0  0  0  0
  142.5912  132.1973  149.9577 H   0  0  0  0  0  0  0  0  0  0  0  0
  146.3835  136.1871  153.6442 H   0  0  0  0  0  0  0  0  0  0  0  0
  1  2  1  0  0  0  0
  1 16  1  0  0  0  0
  1 17  1  0  0  0  0
  1 18  1  0  0  0  0
  2  3  1  0  0  0  0
  2  9  1  0  0  0  0
  2 19  1  0  0  0  0
  3  4  1  0  0  0  0
  3 20  1  0  0  0  0
  3 37  1  0  0  0  0
  4  5  1  0  0  0  0
  4 21  1  0  0  0  0
  4 22  1  0  0  0  0
  5  6  1  0  0  0  0
  5  7  1  0  0  0  0
  5  8  1  0  0  0  0
  6 23  1  0  0  0  0
  6 24  1  0  0  0  0
  6 25  1  0  0  0  0
  7 26  1  0  0  0  0
  7 27  1  0  0  0  0
  7 28  1  0  0  0  0
  8 29  1  0  0  0  0
  9 10  1  0  0  0  0
  9 11  1  0  0  0  0
  9 30  1  0  0  0  0
 10 31  1  0  0  0  0
 10 32  1  0  0  0  0
 10 33  1  0  0  0  0
 11 15  1  0  0  0  0
 11 12  1  0  0  0  0
 12 13  2  0  0  0  0
 12 34  1  0  0  0  0
 13 14  1  0  0  0  0
 13 35  1  0  0  0  0
 14 15  2  0  0  0  0
 14 36  1  0  0  0  0
M  CHG  1   3   1
M  END
> <s_m_source_file>
AV-unprocessed.smi

> <i_m_source_file_index>
3117

> <i_lp_mmshare_version>
43012

> <i_f3d_flags>
0

> <s_epik_input>
W0NIM11DKFtDSDNdKShbT0hdKVtDSDJdW05IXVtDQEBIXShbQ0gzXSlbQ0BIXShbQ0gzXSluMVtjSF1bY0hdW2NIXW4x

> <s_epik_cmdline>
J2VwaWtfcHl0aG9uJywgJy1waCcsICc3LjAnLCAnLXRuJywgJzgnLCAnLW1hJywgJzIwMCcsICctbWV0YWxfYmluZGluZycsICctaW1hZScsICc8aW5maWxlLm1hZT4nLCAnLW9tYWUnLCAnPG91dGZpbGUubWFlPic=

> <r_lp_tautomer_probability>
1

> <r_epik_Ionization_Penalty>
0.0164263

> <r_epik_Ionization_Penalty_Charging>
0.0164138

> <r_epik_Ionization_Penalty_Neutral>
1.24697e-05

> <r_epik_State_Penalty>
0.0129543

> <r_epik_Charging_Adjusted_Penalty>
0.0293681

> <i_epik_Tot_Q>
1

> <i_epik_Tot_abs_Q>
1

> <r_epik_Metal_State_Penalty>
0.0129806

> <b_epik_Metal_Only>
0

> <s_lp_Force_Field>
OPLS_2005

> <r_lp_Energy>
13.915

> <b_lp_Chiralities_Consistent>
1

> <s_lp_Variant>
AV-unprocessed.smi:3117-2

> <Gold.Version>
5.8.1

> <Gold.Id.Protein>
6NUR|6NUR_protein|mol2

> <Gold.PLP.Fitness>
37.2649

> <Gold.PLP.PLP>
-22.2435

> <Gold.PLP.part.hbond>
-2.4914

> <Gold.PLP.part.metal>
0.0000

> <Gold.PLP.part.buried>
-2.4512

> <Gold.PLP.part.nonpolar>
-18.3836

> <Gold.PLP.part.repulsive>
0.1863

> <Gold.PLP.ligand.clash>
0.0000

> <Gold.PLP.ligand.torsion>
0.4228

> <Gold.PLP.Chemscore.Hbond>
3.0000

> <Gold.PLP.Chemscore.CHOScore>
2.2560

> <Gold.PLP.Chemscore.Metal>
0.0000

> <Gold.Chemscore.Hbonds>
donor molecule, donor type, donor heavy atom, donor atom, acceptor molecule, acceptor atom, score
      L1  H     3    20       P1  7948  2.00
      L1  H     8    29       P1  7948  1.00
      L1  C    12    34       P1 10747  1.00
      L1  C    14    36       P1 10186  0.33
      L1  C    14    36       P1 10952  0.87

> <Gold.PLP.Chemscore.Internal.Correction>
0.0989

> <Gold.Rescore>
     Score         DG    S(hbond)    S(metal)    S(lipo)     H(rot)  DE(clash)    DE(int)     intcor
     12.60     -12.97       1.98        0.00      57.17       2.27       0.08       0.29       ----

> <Gold.Chemscore.Fitness>
12.6035

> <Gold.Chemscore.DG>
-12.9702

> <Gold.Chemscore.ZeroCoef>
-5.4800

> <Gold.Chemscore.Hbond>
1.9818

> <Gold.Chemscore.Metal>
0.0000

> <Gold.Chemscore.Lipo>
57.1677

> <Gold.Chemscore.Internal_Hbond>
0.0000

> <Gold.Chemscore.DEClash>
0.0807

> <Gold.Chemscore.DEInternal>
0.2860

> <Gold.Chemscore.Rot>
2.2725

> <Gold.Chemscore.Internal.Correction>
   9.000000E+99

> <Gold.Chemscore.Hbonds>
donor molecule, donor type, donor heavy atom, donor atom, acceptor molecule, acceptor atom, score
      L1  H     3    20       P1  7948  0.99
      L1  H     8    29       P1  7948  0.30

> <Gold.Chemscore.Hbond.Weighted>
-6.6192

> <Gold.Chemscore.Metal.Weighted>
-0.0000

> <Gold.Chemscore.Lipo.Weighted>
-6.6886

> <Gold.Chemscore.Internal_Hbond.Weighted>
0.0000

> <Gold.Chemscore.DEClash.Weighted>
0.0807

> <Gold.Chemscore.DEInternal.Weighted>
0.2860

> <Gold.Chemscore.Rot.Weighted>
5.8176

> <Gold.Chemscore.Internal.Correction.Weighted>
   9.000000E+99

> <Gold.Protein.RotatedTorsions>
[ 6907 6896 6895 6894 ] final   94.40 input  -60.11 | X-H torsion
[ 7974 7965 7964 7962 ] final  158.93 input  175.53 | X-H torsion
[ 8008 7997 7996 7995 ] final  -80.23 input   59.86 | X-H torsion
[ 10167 10162 10161 10158 ] final -167.75 input  -65.29 | X-H torsion
[ 10718 10713 10712 10709 ] final -118.62 input   66.30 | X-H torsion
[ 10763 10752 10751 10750 ] final -141.82 input  -60.55 | X-H torsion
[ 11005 11000 10999 10996 ] final   12.14 input  -57.11 | X-H torsion

> <Gold.Protein.ActiveResidues>
 VAL166  LYS551  ARG553  GLY616  TRP617  ASP618  TYR619  PRO620  LYS621  CYS622 
 ASP623  PHE694  ASN695  SER759  ASP760  ASP761  ALA762  ILE779  LEU786  VAL792 
 PHE793  MET794  SER795  GLU796  ALA797  LYS798  CYS799  TRP800  GLU811  SER814 

> <Gold.Protein.RotatedAtoms>
  152.5449  134.1200  159.8394 H   0  0  0  0  0  0  0  0  0  0  0  0  # atno 6907 bound_to 6896
  151.1257  133.5065  159.2608 H   0  0  0  0  0  0  0  0  0  0  0  0  # atno 6908 bound_to 6896
  151.1730  135.0336  159.8814 H   0  0  0  0  0  0  0  0  0  0  0  0  # atno 6909 bound_to 6896
  144.7818  139.7547  143.6256 H   0  0  0  0  0  0  0  0  0  0  0  0  # atno 7974 bound_to 7965
  154.5863  140.0666  156.9175 H   0  0  0  0  0  0  0  0  0  0  0  0  # atno 8008 bound_to 7997
  155.2374  140.3342  155.4278 H   0  0  0  0  0  0  0  0  0  0  0  0  # atno 8009 bound_to 7997
  156.2225  140.1805  156.7428 H   0  0  0  0  0  0  0  0  0  0  0  0  # atno 8010 bound_to 7997
  139.6029  144.0973  152.1762 H   0  0  0  0  0  0  0  0  0  0  0  0  # atno 10167 bound_to 10162
  156.1120  130.6256  150.9314 H   0  0  0  0  0  0  0  0  0  0  0  0  # atno 10718 bound_to 10713
  154.8531  135.3513  154.5929 H   0  0  0  0  0  0  0  0  0  0  0  0  # atno 10763 bound_to 10752
  153.6539  135.6993  153.5204 H   0  0  0  0  0  0  0  0  0  0  0  0  # atno 10764 bound_to 10752
  153.2872  135.4245  155.1091 H   0  0  0  0  0  0  0  0  0  0  0  0  # atno 10765 bound_to 10752
  140.4954  134.0799  155.7781 H   0  0  0  0  0  0  0  0  0  0  0  0  # atno 11005 bound_to 11000
  146.2030  139.5337  142.9731 LP  0  0  0  0  0  0  0  0  0  0  0  0  # atno 17320 bound_to 7965
  145.6029  141.0352  143.2008 LP  0  0  0  0  0  0  0  0  0  0  0  0  # atno 17321 bound_to 7965
  140.0573  144.5884  150.7289 LP  0  0  0  0  0  0  0  0  0  0  0  0  # atno 17342 bound_to 10162
  140.7263  143.2640  151.4108 LP  0  0  0  0  0  0  0  0  0  0  0  0  # atno 17343 bound_to 10162
  157.6301  131.0922  150.8457 LP  0  0  0  0  0  0  0  0  0  0  0  0  # atno 17370 bound_to 10713
  156.8567  130.5099  149.5307 LP  0  0  0  0  0  0  0  0  0  0  0  0  # atno 17371 bound_to 10713
  141.1463  133.9049  157.2207 LP  0  0  0  0  0  0  0  0  0  0  0  0  # atno 17394 bound_to 11000
  139.9745  135.0118  156.9595 LP  0  0  0  0  0  0  0  0  0  0  0  0  # atno 17395 bound_to 11000

$$$$
