AV-unprocessed.smi:2209|AV-procd|sdf|8947|dock1
  -GOLD-   2272012163D 1   1.00000     0.00000
 Structure written by MMmdl.
 26 27  0  0  0  0  0  0  0  0  2 V2000
  150.5828  137.5084  159.2126 C   0  0  0  0  0  0  0  0  0  0  0  0
  151.4204  138.6705  158.7996 C   0  0  0  0  0  0  0  0  0  0  0  0
  152.6352  138.5021  158.2919 N   0  0  0  0  0  0  0  0  0  0  0  0
  153.0679  139.8129  158.0448 O   0  0  0  0  0  0  0  0  0  0  0  0
  152.0520  140.6184  158.4378 C   0  0  0  0  0  0  0  0  0  0  0  0
  152.2068  142.1004  158.2970 C   0  0  2  0  0  0  0  0  0  0  0  0
  152.3067  142.8047  159.6633 C   0  0  0  0  0  0  0  0  0  0  0  0
  152.4503  144.3232  159.4774 C   0  0  0  0  0  0  0  0  0  0  0  0
  151.3147  144.8806  158.6032 C   0  0  0  0  0  0  0  0  0  0  0  0
  151.2676  144.1822  157.3001 N   0  3  0  0  0  0  0  0  0  0  0  0
  151.0890  142.7189  157.4329 C   0  0  0  0  0  0  0  0  0  0  0  0
  150.9973  139.9595  158.9138 N   0  0  0  0  0  0  0  0  0  0  0  0
  151.1073  136.5674  159.0419 H   0  0  0  0  0  0  0  0  0  0  0  0
  149.6536  137.4927  158.6427 H   0  0  0  0  0  0  0  0  0  0  0  0
  150.3385  137.5786  160.2726 H   0  0  0  0  0  0  0  0  0  0  0  0
  153.1507  142.2700  157.7758 H   0  0  0  0  0  0  0  0  0  0  0  0
  151.4153  142.5950  160.2562 H   0  0  0  0  0  0  0  0  0  0  0  0
  153.1550  142.4165  160.2283 H   0  0  0  0  0  0  0  0  0  0  0  0
  152.4522  144.8192  160.4486 H   0  0  0  0  0  0  0  0  0  0  0  0
  153.4123  144.5467  159.0141 H   0  0  0  0  0  0  0  0  0  0  0  0
  150.3546  144.7666  159.1086 H   0  0  0  0  0  0  0  0  0  0  0  0
  151.4595  145.9473  158.4301 H   0  0  0  0  0  0  0  0  0  0  0  0
  150.5046  144.5574  156.7547 H   0  0  0  0  0  0  0  0  0  0  0  0
  151.0869  142.2735  156.4375 H   0  0  0  0  0  0  0  0  0  0  0  0
  150.1104  142.5202  157.8726 H   0  0  0  0  0  0  0  0  0  0  0  0
  152.1339  144.3581  156.8111 H   0  0  0  0  0  0  0  0  0  0  0  0
  1  2  1  0  0  0  0
  1 13  1  0  0  0  0
  1 14  1  0  0  0  0
  1 15  1  0  0  0  0
  2 12  1  0  0  0  0
  2  3  2  0  0  0  0
  3  4  1  0  0  0  0
  4  5  1  0  0  0  0
  5  6  1  0  0  0  0
  5 12  2  0  0  0  0
  6 11  1  0  0  0  0
  6  7  1  0  0  0  0
  6 16  1  0  0  0  0
  7  8  1  0  0  0  0
  7 17  1  0  0  0  0
  7 18  1  0  0  0  0
  8  9  1  0  0  0  0
  8 19  1  0  0  0  0
  8 20  1  0  0  0  0
  9 10  1  0  0  0  0
  9 21  1  0  0  0  0
  9 22  1  0  0  0  0
 10 11  1  0  0  0  0
 10 23  1  0  0  0  0
 10 26  1  0  0  0  0
 11 24  1  0  0  0  0
 11 25  1  0  0  0  0
M  CHG  1  10   1
M  END
> <s_m_source_file>
AV-unprocessed.smi

> <i_m_source_file_index>
2209

> <i_lp_mmshare_version>
43012

> <i_f3d_flags>
0

> <s_epik_input>
W0NIM11jMW5vYyhuMSlbQ0BASF0yW0NIMl1bQ0gyXVtDSDJdW05IXVtDSDJdMg==

> <s_epik_cmdline>
J2VwaWtfcHl0aG9uJywgJy1waCcsICc3LjAnLCAnLXRuJywgJzgnLCAnLW1hJywgJzIwMCcsICctbWV0YWxfYmluZGluZycsICctaW1hZScsICc8aW5maWxlLm1hZT4nLCAnLW9tYWUnLCAnPG91dGZpbGUubWFlPic=

> <r_lp_tautomer_probability>
1

> <r_epik_Ionization_Penalty>
0.000532935

> <r_epik_Ionization_Penalty_Charging>
0.000532935

> <r_epik_Ionization_Penalty_Neutral>
4.97553e-13

> <r_epik_State_Penalty>
0.000332992

> <r_epik_Charging_Adjusted_Penalty>
0.000865928

> <i_epik_Tot_Q>
1

> <i_epik_Tot_abs_Q>
1

> <r_epik_Metal_State_Penalty>
-0

> <b_epik_Metal_Only>
0

> <s_lp_Force_Field>
OPLS_2005

> <r_lp_Energy>
10.4199

> <b_lp_Chiralities_Consistent>
1

> <s_lp_Variant>
AV-unprocessed.smi:2209-1

> <Gold.Version>
5.8.1

> <Gold.Id.Protein>
6NUR|6NUR_protein|mol2

> <Gold.PLP.Fitness>
33.6661

> <Gold.PLP.PLP>
-24.7913

> <Gold.PLP.part.hbond>
-2.0000

> <Gold.PLP.part.metal>
0.0000

> <Gold.PLP.part.buried>
-4.3039

> <Gold.PLP.part.nonpolar>
-18.1668

> <Gold.PLP.part.repulsive>
0.0262

> <Gold.PLP.ligand.clash>
0.0000

> <Gold.PLP.ligand.torsion>
0.0794

> <Gold.PLP.Chemscore.Hbond>
3.0000

> <Gold.PLP.Chemscore.CHOScore>
0.0000

> <Gold.PLP.Chemscore.Metal>
0.0000

> <Gold.Chemscore.Hbonds>
donor molecule, donor type, donor heavy atom, donor atom, acceptor molecule, acceptor atom, score
      L1  H    10    23       P1  8028  2.00
      P1  H  7997  8010       L1     4  1.00

> <Gold.PLP.Chemscore.Internal.Correction>
0.0335

> <Gold.Rescore>
     Score         DG    S(hbond)    S(metal)    S(lipo)     H(rot)  DE(clash)    DE(int)     intcor
     16.61     -16.71       1.98        0.00      61.46       1.00       0.07       0.04       ----

> <Gold.Chemscore.Fitness>
16.6085

> <Gold.Chemscore.DG>
-16.7147

> <Gold.Chemscore.ZeroCoef>
-5.4800

> <Gold.Chemscore.Hbond>
1.9773

> <Gold.Chemscore.Metal>
0.0000

> <Gold.Chemscore.Lipo>
61.4583

> <Gold.Chemscore.Internal_Hbond>
0.0000

> <Gold.Chemscore.DEClash>
0.0653

> <Gold.Chemscore.DEInternal>
0.0410

> <Gold.Chemscore.Rot>
1.0000

> <Gold.Chemscore.Internal.Correction>
   9.000000E+99

> <Gold.Chemscore.Hbonds>
donor molecule, donor type, donor heavy atom, donor atom, acceptor molecule, acceptor atom, score
      L1  H    10    23       P1  8028  0.92
      P1  H  7997  8010       L1     4  0.93

> <Gold.Chemscore.Hbond.Weighted>
-6.6041

> <Gold.Chemscore.Metal.Weighted>
-0.0000

> <Gold.Chemscore.Lipo.Weighted>
-7.1906

> <Gold.Chemscore.Internal_Hbond.Weighted>
0.0000

> <Gold.Chemscore.DEClash.Weighted>
0.0653

> <Gold.Chemscore.DEInternal.Weighted>
0.0410

> <Gold.Chemscore.Rot.Weighted>
2.5600

> <Gold.Chemscore.Internal.Correction.Weighted>
   9.000000E+99

> <Gold.Protein.RotatedTorsions>
[ 6907 6896 6895 6894 ] final   30.54 input  -60.11 | X-H torsion
[ 7974 7965 7964 7962 ] final -149.79 input  175.53 | X-H torsion
[ 8008 7997 7996 7995 ] final   51.04 input   59.86 | X-H torsion
[ 10167 10162 10161 10158 ] final   42.28 input  -65.29 | X-H torsion
[ 10718 10713 10712 10709 ] final   66.72 input   66.30 | X-H torsion
[ 10763 10752 10751 10750 ] final -103.03 input  -60.55 | X-H torsion
[ 11005 11000 10999 10996 ] final  150.36 input  -57.11 | X-H torsion

> <Gold.Protein.ActiveResidues>
 VAL166  LYS551  ARG553  GLY616  TRP617  ASP618  TYR619  PRO620  LYS621  CYS622 
 ASP623  PHE694  ASN695  SER759  ASP760  ASP761  ALA762  ILE779  LEU786  VAL792 
 PHE793  MET794  SER795  GLU796  ALA797  LYS798  CYS799  TRP800  GLU811  SER814 

> <Gold.Protein.RotatedAtoms>
  152.0474  134.9674  160.0574 H   0  0  0  0  0  0  0  0  0  0  0  0  # atno 6907 bound_to 6896
  152.1089  133.4285  159.4630 H   0  0  0  0  0  0  0  0  0  0  0  0  # atno 6908 bound_to 6896
  150.6842  134.2591  159.4585 H   0  0  0  0  0  0  0  0  0  0  0  0  # atno 6909 bound_to 6896
  144.7946  140.5018  143.5749 H   0  0  0  0  0  0  0  0  0  0  0  0  # atno 7974 bound_to 7965
  155.4287  140.3449  155.4278 H   0  0  0  0  0  0  0  0  0  0  0  0  # atno 8008 bound_to 7997
  156.1350  140.1525  156.9039 H   0  0  0  0  0  0  0  0  0  0  0  0  # atno 8009 bound_to 7997
  154.4924  140.0837  156.7604 H   0  0  0  0  0  0  0  0  0  0  0  0  # atno 8010 bound_to 7997
  140.3560  144.2290  150.6141 H   0  0  0  0  0  0  0  0  0  0  0  0  # atno 10167 bound_to 10162
  157.6186  130.9282  150.0146 H   0  0  0  0  0  0  0  0  0  0  0  0  # atno 10718 bound_to 10713
  154.7778  135.4838  153.9780 H   0  0  0  0  0  0  0  0  0  0  0  0  # atno 10763 bound_to 10752
  153.1452  135.6780  153.8973 H   0  0  0  0  0  0  0  0  0  0  0  0  # atno 10764 bound_to 10752
  153.8635  135.3152  155.3417 H   0  0  0  0  0  0  0  0  0  0  0  0  # atno 10765 bound_to 10752
  140.1124  134.8915  157.1955 H   0  0  0  0  0  0  0  0  0  0  0  0  # atno 11005 bound_to 11000
  145.5705  139.1483  143.3291 LP  0  0  0  0  0  0  0  0  0  0  0  0  # atno 17320 bound_to 7965
  146.2210  140.5839  142.9017 LP  0  0  0  0  0  0  0  0  0  0  0  0  # atno 17321 bound_to 7965
  140.5174  143.2274  151.8442 LP  0  0  0  0  0  0  0  0  0  0  0  0  # atno 17342 bound_to 10162
  139.4820  144.4878  151.9224 LP  0  0  0  0  0  0  0  0  0  0  0  0  # atno 17343 bound_to 10162
  156.1320  130.3643  149.9716 LP  0  0  0  0  0  0  0  0  0  0  0  0  # atno 17370 bound_to 10713
  156.7775  130.9209  151.3645 LP  0  0  0  0  0  0  0  0  0  0  0  0  # atno 17371 bound_to 10713
  140.3073  134.3063  155.7275 LP  0  0  0  0  0  0  0  0  0  0  0  0  # atno 17394 bound_to 11000
  141.2133  133.7628  156.9726 LP  0  0  0  0  0  0  0  0  0  0  0  0  # atno 17395 bound_to 11000

$$$$
