AV-unprocessed.smi:2931|AV-procd|sdf|11242|dock10
  -GOLD-   2272016133D 1   1.00000     0.00000
 Structure written by MMmdl.
 42 43  0  0  0  0  0  0  0  0  2 V2000
  143.7408  132.5920  148.8502 C   0  0  0  0  0  0  0  0  0  0  0  0
  144.5034  132.6624  150.1150 N   0  3  1  0  0  0  0  0  0  0  0  0
  145.5084  131.5765  150.2321 C   0  0  0  0  0  0  0  0  0  0  0  0
  146.1841  131.5994  151.6131 C   0  0  0  0  0  0  0  0  0  0  0  0
  146.8145  132.9698  151.8975 C   0  0  0  0  0  0  0  0  0  0  0  0
  145.7660  134.0845  151.7276 C   0  0  1  0  0  0  0  0  0  0  0  0
  146.3819  135.3958  151.9037 N   0  0  0  0  0  0  0  0  0  0  0  0
  145.7135  136.5474  152.0539 C   0  0  0  0  0  0  0  0  0  0  0  0
  144.4867  136.6423  152.0254 O   0  0  0  0  0  0  0  0  0  0  0  0
  146.5431  137.5791  152.2596 N   0  0  0  0  0  0  0  0  0  0  0  0
  146.1248  138.9548  152.5134 C   0  0  0  0  0  0  0  0  0  0  0  0
  146.3819  139.4069  153.9657 C   0  0  0  0  0  0  0  0  0  0  0  0
  147.8261  139.7936  154.2370 C   0  0  0  0  0  0  0  0  0  0  0  0
  148.1666  141.1185  154.5816 C   0  0  0  0  0  0  0  0  0  0  0  0
  149.5197  141.4208  154.8330 C   0  0  0  0  0  0  0  0  0  0  0  0
  150.5097  140.5052  154.7623 N   0  0  0  0  0  0  0  0  0  0  0  0
  150.1766  139.2394  154.4303 C   0  0  0  0  0  0  0  0  0  0  0  0
  148.8547  138.8325  154.1590 C   0  0  0  0  0  0  0  0  0  0  0  0
  145.1050  134.0006  150.3388 C   0  0  0  0  0  0  0  0  0  0  0  0
  144.3937  132.7465  147.9902 H   0  0  0  0  0  0  0  0  0  0  0  0
  142.9601  133.3531  148.8290 H   0  0  0  0  0  0  0  0  0  0  0  0
  143.2588  131.6196  148.7444 H   0  0  0  0  0  0  0  0  0  0  0  0
  145.0237  130.6113  150.0804 H   0  0  0  0  0  0  0  0  0  0  0  0
  146.2568  131.6837  149.4451 H   0  0  0  0  0  0  0  0  0  0  0  0
  145.4481  131.3685  152.3844 H   0  0  0  0  0  0  0  0  0  0  0  0
  146.9453  130.8205  151.6692 H   0  0  0  0  0  0  0  0  0  0  0  0
  147.2289  132.9862  152.9065 H   0  0  0  0  0  0  0  0  0  0  0  0
  147.6496  133.1353  151.2149 H   0  0  0  0  0  0  0  0  0  0  0  0
  144.9848  133.9503  152.4788 H   0  0  0  0  0  0  0  0  0  0  0  0
  147.3901  135.4255  151.9475 H   0  0  0  0  0  0  0  0  0  0  0  0
  147.5364  137.3985  152.2690 H   0  0  0  0  0  0  0  0  0  0  0  0
  146.6889  139.5928  151.8326 H   0  0  0  0  0  0  0  0  0  0  0  0
  145.0730  139.0830  152.2543 H   0  0  0  0  0  0  0  0  0  0  0  0
  145.7404  140.2556  154.2045 H   0  0  0  0  0  0  0  0  0  0  0  0
  146.0929  138.6120  154.6543 H   0  0  0  0  0  0  0  0  0  0  0  0
  147.4107  141.8865  154.6565 H   0  0  0  0  0  0  0  0  0  0  0  0
  149.8138  142.4250  155.1001 H   0  0  0  0  0  0  0  0  0  0  0  0
  150.9876  138.5282  154.3813 H   0  0  0  0  0  0  0  0  0  0  0  0
  148.6379  137.8063  153.9005 H   0  0  0  0  0  0  0  0  0  0  0  0
  145.8356  134.2064  149.5545 H   0  0  0  0  0  0  0  0  0  0  0  0
  144.3283  134.7626  150.2574 H   0  0  0  0  0  0  0  0  0  0  0  0
  143.8358  132.5184  150.8594 H   0  0  0  0  0  0  0  0  0  0  0  0
  1  2  1  0  0  0  0
  1 20  1  0  0  0  0
  1 21  1  0  0  0  0
  1 22  1  0  0  0  0
  2 19  1  0  0  0  0
  2  3  1  0  0  0  0
  2 42  1  0  0  0  0
  3  4  1  0  0  0  0
  3 23  1  0  0  0  0
  3 24  1  0  0  0  0
  4  5  1  0  0  0  0
  4 25  1  0  0  0  0
  4 26  1  0  0  0  0
  5  6  1  0  0  0  0
  5 27  1  0  0  0  0
  5 28  1  0  0  0  0
  6  7  1  0  0  0  0
  6 19  1  0  0  0  0
  6 29  1  0  0  0  0
  7  8  1  0  0  0  0
  7 30  1  0  0  0  0
  8  9  2  0  0  0  0
  8 10  1  0  0  0  0
 10 11  1  0  0  0  0
 10 31  1  0  0  0  0
 11 12  1  0  0  0  0
 11 32  1  0  0  0  0
 11 33  1  0  0  0  0
 12 13  1  0  0  0  0
 12 34  1  0  0  0  0
 12 35  1  0  0  0  0
 13 18  1  0  0  0  0
 13 14  2  0  0  0  0
 14 15  1  0  0  0  0
 14 36  1  0  0  0  0
 15 16  2  0  0  0  0
 15 37  1  0  0  0  0
 16 17  1  0  0  0  0
 17 18  2  0  0  0  0
 17 38  1  0  0  0  0
 18 39  1  0  0  0  0
 19 40  1  0  0  0  0
 19 41  1  0  0  0  0
M  CHG  1   2   1
M  END
> <s_m_source_file>
AV-unprocessed.smi

> <i_m_source_file_index>
2931

> <i_lp_mmshare_version>
43012

> <i_f3d_flags>
0

> <s_epik_input>
W0NIM11OMVtDSDJdW0NIMl1bQ0gyXVtDQEhdKFtDSDJdMSlbTkhdQyg9TylbTkhdW0NIMl1bQ0gyXWMyW2NIXVtjSF1uW2NIXVtjSF0y

> <s_epik_cmdline>
J2VwaWtfcHl0aG9uJywgJy1waCcsICc3LjAnLCAnLXRuJywgJzgnLCAnLW1hJywgJzIwMCcsICctbWV0YWxfYmluZGluZycsICctaW1hZScsICc8aW5maWxlLm1hZT4nLCAnLW9tYWUnLCAnPG91dGZpbGUubWFlPic=

> <r_epik_Ionization_Penalty>
0.0573876

> <r_epik_Ionization_Penalty_Charging>
0.00229982

> <r_epik_Ionization_Penalty_Neutral>
0.0550878

> <r_epik_State_Penalty>
0.0473925

> <r_epik_Charging_Adjusted_Penalty>
0.0496923

> <i_epik_Tot_Q>
1

> <i_epik_Tot_abs_Q>
1

> <r_epik_Metal_State_Penalty>
0.0433388

> <b_epik_Metal_Only>
0

> <s_lp_Force_Field>
OPLS_2005

> <r_lp_Energy>
13.6108

> <b_lp_Chiralities_Consistent>
1

> <s_lp_Variant>
AV-unprocessed.smi:2931-1

> <Gold.Version>
5.8.1

> <Gold.Id.Protein>
6NUR|6NUR_protein|mol2

> <Gold.PLP.Fitness>
43.5078

> <Gold.PLP.PLP>
-32.1357

> <Gold.PLP.part.hbond>
-3.0000

> <Gold.PLP.part.metal>
0.0000

> <Gold.PLP.part.buried>
-0.7981

> <Gold.PLP.part.nonpolar>
-30.0969

> <Gold.PLP.part.repulsive>
1.0951

> <Gold.PLP.ligand.clash>
0.0000

> <Gold.PLP.ligand.torsion>
0.2797

> <Gold.PLP.Chemscore.Hbond>
2.9760

> <Gold.PLP.Chemscore.CHOScore>
0.9991

> <Gold.PLP.Chemscore.Metal>
0.0000

> <Gold.Chemscore.Hbonds>
donor molecule, donor type, donor heavy atom, donor atom, acceptor molecule, acceptor atom, score
      L1  H     7    30       P1  7948  1.00
      L1  H    10    31       P1  7948  0.96
      P1  H  7989  7998       L1    16  1.00
      L1  C    15    37       P1  8028  1.00

> <Gold.PLP.Chemscore.Internal.Correction>
0.0062

> <Gold.Rescore>
     Score         DG    S(hbond)    S(metal)    S(lipo)     H(rot)  DE(clash)    DE(int)     intcor
     19.20     -20.25       2.30        0.00      94.59       1.56       0.75       0.30       ----

> <Gold.Chemscore.Fitness>
19.1990

> <Gold.Chemscore.DG>
-20.2527

> <Gold.Chemscore.ZeroCoef>
-5.4800

> <Gold.Chemscore.Hbond>
2.3044

> <Gold.Chemscore.Metal>
0.0000

> <Gold.Chemscore.Lipo>
94.5929

> <Gold.Chemscore.Internal_Hbond>
0.0000

> <Gold.Chemscore.DEClash>
0.7538

> <Gold.Chemscore.DEInternal>
0.2999

> <Gold.Chemscore.Rot>
1.5592

> <Gold.Chemscore.Internal.Correction>
   9.000000E+99

> <Gold.Chemscore.Hbonds>
donor molecule, donor type, donor heavy atom, donor atom, acceptor molecule, acceptor atom, score
      L1  H     7    30       P1  7948  0.98
      L1  H    10    31       P1  7948  0.92
      P1  H  7989  7998       L1    16  0.22

> <Gold.Chemscore.Hbond.Weighted>
-7.6968

> <Gold.Chemscore.Metal.Weighted>
-0.0000

> <Gold.Chemscore.Lipo.Weighted>
-11.0674

> <Gold.Chemscore.Internal_Hbond.Weighted>
0.0000

> <Gold.Chemscore.DEClash.Weighted>
0.7538

> <Gold.Chemscore.DEInternal.Weighted>
0.2999

> <Gold.Chemscore.Rot.Weighted>
3.9915

> <Gold.Chemscore.Internal.Correction.Weighted>
   9.000000E+99

> <Gold.Protein.RotatedTorsions>
[ 6907 6896 6895 6894 ] final -159.16 input  -60.11 | X-H torsion
[ 7974 7965 7964 7962 ] final  -70.36 input  175.53 | X-H torsion
[ 8008 7997 7996 7995 ] final  -15.74 input   59.86 | X-H torsion
[ 10167 10162 10161 10158 ] final  -74.54 input  -65.29 | X-H torsion
[ 10718 10713 10712 10709 ] final  179.65 input   66.30 | X-H torsion
[ 10763 10752 10751 10750 ] final   60.85 input  -60.55 | X-H torsion
[ 11005 11000 10999 10996 ] final -112.07 input  -57.11 | X-H torsion

> <Gold.Protein.ActiveResidues>
 VAL166  LYS551  ARG553  GLY616  TRP617  ASP618  TYR619  PRO620  LYS621  CYS622 
 ASP623  PHE694  ASN695  SER759  ASP760  ASP761  ALA762  ILE779  LEU786  VAL792 
 PHE793  MET794  SER795  GLU796  ALA797  LYS798  CYS799  TRP800  GLU811  SER814 

> <Gold.Protein.RotatedAtoms>
  151.3292  133.4007  159.2660 H   0  0  0  0  0  0  0  0  0  0  0  0  # atno 6907 bound_to 6896
  150.9969  134.9291  159.7942 H   0  0  0  0  0  0  0  0  0  0  0  0  # atno 6908 bound_to 6896
  152.5264  134.3257  159.9217 H   0  0  0  0  0  0  0  0  0  0  0  0  # atno 6909 bound_to 6896
  145.6919  140.9150  143.0777 H   0  0  0  0  0  0  0  0  0  0  0  0  # atno 7974 bound_to 7965
  154.5106  140.2188  155.9163 H   0  0  0  0  0  0  0  0  0  0  0  0  # atno 8008 bound_to 7997
  156.1548  140.3154  155.8674 H   0  0  0  0  0  0  0  0  0  0  0  0  # atno 8009 bound_to 7997
  155.3868  140.0476  157.3032 H   0  0  0  0  0  0  0  0  0  0  0  0  # atno 8010 bound_to 7997
  140.5019  143.2360  151.7739 H   0  0  0  0  0  0  0  0  0  0  0  0  # atno 10167 bound_to 10162
  156.8725  130.9789  151.3071 H   0  0  0  0  0  0  0  0  0  0  0  0  # atno 10718 bound_to 10713
  152.9933  135.5521  154.5939 H   0  0  0  0  0  0  0  0  0  0  0  0  # atno 10763 bound_to 10752
  154.5295  135.2812  155.1194 H   0  0  0  0  0  0  0  0  0  0  0  0  # atno 10764 bound_to 10752
  154.2515  135.6398  153.5295 H   0  0  0  0  0  0  0  0  0  0  0  0  # atno 10765 bound_to 10752
  141.0697  133.9400  157.2509 H   0  0  0  0  0  0  0  0  0  0  0  0  # atno 11005 bound_to 11000
  144.6994  139.8833  143.7448 LP  0  0  0  0  0  0  0  0  0  0  0  0  # atno 17320 bound_to 7965
  146.0874  139.3863  143.0427 LP  0  0  0  0  0  0  0  0  0  0  0  0  # atno 17321 bound_to 7965
  139.4874  144.4511  151.9653 LP  0  0  0  0  0  0  0  0  0  0  0  0  # atno 17342 bound_to 10162
  140.3600  144.2984  150.5935 LP  0  0  0  0  0  0  0  0  0  0  0  0  # atno 17343 bound_to 10162
  157.6187  130.8638  149.9072 LP  0  0  0  0  0  0  0  0  0  0  0  0  # atno 17370 bound_to 10713
  156.0719  130.3684  150.0758 LP  0  0  0  0  0  0  0  0  0  0  0  0  # atno 17371 bound_to 10713
  139.9511  135.0175  156.8996 LP  0  0  0  0  0  0  0  0  0  0  0  0  # atno 17394 bound_to 11000
  140.5700  134.0453  155.7427 LP  0  0  0  0  0  0  0  0  0  0  0  0  # atno 17395 bound_to 11000

$$$$
