AV-unprocessed.smi:2474|AV-procd|sdf|9753|dock5
  -GOLD-   2272013393D 1   1.00000     0.00000
 Structure written by MMmdl.
 40 41  0  0  0  0  0  0  0  0  1 V2000
  143.2319  145.0635  155.3804 C   0  0  0  0  0  0  0  0  0  0  0  0
  144.3236  144.3475  154.6603 C   0  0  0  0  0  0  0  0  0  0  0  0
  144.8021  144.5964  153.3978 C   0  0  0  0  0  0  0  0  0  0  0  0
  145.8334  143.7402  153.0060 N   0  0  0  0  0  0  0  0  0  0  0  0
  146.1492  142.8532  153.9540 C   0  0  0  0  0  0  0  0  0  0  0  0
  147.2052  141.8016  153.7942 C   0  0  2  0  0  0  0  0  0  0  0  0
  146.8340  140.7641  152.7252 C   0  0  0  0  0  0  0  0  0  0  0  0
  147.6344  141.1598  155.1334 C   0  0  0  0  0  0  0  0  0  0  0  0
  148.3920  142.0697  155.9888 N   0  0  0  0  0  0  0  0  0  0  0  0
  149.1353  141.6997  157.0401 C   0  0  0  0  0  0  0  0  0  0  0  0
  149.2397  140.5391  157.4370 O   0  0  0  0  0  0  0  0  0  0  0  0
  149.7687  142.7440  157.5912 N   0  0  0  0  0  0  0  0  0  0  0  0
  150.6977  142.6683  158.7147 C   0  0  1  0  0  0  0  0  0  0  0  0
  151.8721  141.7295  158.3677 C   0  0  0  0  0  0  0  0  0  0  0  0
  152.8622  141.5667  159.5323 C   0  0  0  0  0  0  0  0  0  0  0  0
  153.5033  142.8982  159.9478 C   0  0  0  0  0  0  0  0  0  0  0  0
  152.2535  144.0747  160.5324 S   0  0  0  0  0  0  0  0  0  0  0  0
  151.1844  144.0846  159.0668 C   0  0  0  0  0  0  0  0  0  0  0  0
  145.1690  143.0178  155.4072 S   0  0  0  0  0  0  0  0  0  0  0  0
  142.8222  145.8699  154.7718 H   0  0  0  0  0  0  0  0  0  0  0  0
  143.6024  145.4978  156.3091 H   0  0  0  0  0  0  0  0  0  0  0  0
  142.4186  144.3806  155.6263 H   0  0  0  0  0  0  0  0  0  0  0  0
  144.4664  145.3584  152.7101 H   0  0  0  0  0  0  0  0  0  0  0  0
  148.0826  142.3200  153.4058 H   0  0  0  0  0  0  0  0  0  0  0  0
  146.6457  141.2420  151.7635 H   0  0  0  0  0  0  0  0  0  0  0  0
  145.9364  140.2111  153.0040 H   0  0  0  0  0  0  0  0  0  0  0  0
  147.6382  140.0416  152.5833 H   0  0  0  0  0  0  0  0  0  0  0  0
  146.7476  140.8610  155.6931 H   0  0  0  0  0  0  0  0  0  0  0  0
  148.2081  140.2487  154.9566 H   0  0  0  0  0  0  0  0  0  0  0  0
  148.3720  143.0481  155.7403 H   0  0  0  0  0  0  0  0  0  0  0  0
  149.6159  143.6576  157.1899 H   0  0  0  0  0  0  0  0  0  0  0  0
  150.1683  142.2682  159.5819 H   0  0  0  0  0  0  0  0  0  0  0  0
  151.4879  140.7456  158.0952 H   0  0  0  0  0  0  0  0  0  0  0  0
  152.3991  142.1032  157.4886 H   0  0  0  0  0  0  0  0  0  0  0  0
  152.3553  141.1186  160.3878 H   0  0  0  0  0  0  0  0  0  0  0  0
  153.6463  140.8671  159.2411 H   0  0  0  0  0  0  0  0  0  0  0  0
  154.2289  142.7350  160.7447 H   0  0  0  0  0  0  0  0  0  0  0  0
  154.0428  143.3397  159.1091 H   0  0  0  0  0  0  0  0  0  0  0  0
  151.7342  144.5211  158.2321 H   0  0  0  0  0  0  0  0  0  0  0  0
  150.3361  144.7392  159.2687 H   0  0  0  0  0  0  0  0  0  0  0  0
  1  2  1  0  0  0  0
  1 20  1  0  0  0  0
  1 21  1  0  0  0  0
  1 22  1  0  0  0  0
  2 19  1  0  0  0  0
  2  3  2  0  0  0  0
  3  4  1  0  0  0  0
  3 23  1  0  0  0  0
  4  5  2  0  0  0  0
  5  6  1  0  0  0  0
  5 19  1  0  0  0  0
  6  7  1  0  0  0  0
  6  8  1  0  0  0  0
  6 24  1  0  0  0  0
  7 25  1  0  0  0  0
  7 26  1  0  0  0  0
  7 27  1  0  0  0  0
  8  9  1  0  0  0  0
  8 28  1  0  0  0  0
  8 29  1  0  0  0  0
  9 10  1  0  0  0  0
  9 30  1  0  0  0  0
 10 11  2  0  0  0  0
 10 12  1  0  0  0  0
 12 13  1  0  0  0  0
 12 31  1  0  0  0  0
 13 18  1  0  0  0  0
 13 14  1  0  0  0  0
 13 32  1  0  0  0  0
 14 15  1  0  0  0  0
 14 33  1  0  0  0  0
 14 34  1  0  0  0  0
 15 16  1  0  0  0  0
 15 35  1  0  0  0  0
 15 36  1  0  0  0  0
 16 17  1  0  0  0  0
 16 37  1  0  0  0  0
 16 38  1  0  0  0  0
 17 18  1  0  0  0  0
 18 39  1  0  0  0  0
 18 40  1  0  0  0  0
M  END
> <s_m_source_file>
AV-unprocessed.smi

> <i_m_source_file_index>
2474

> <i_lp_mmshare_version>
43012

> <i_f3d_flags>
0

> <s_epik_input>
W0NIM11jMVtjSF1uYyhzMSlbQ0BIXShbQ0gzXSlbQ0gyXVtOSF1DKD1PKVtOSF1bQ0BASF0yW0NIMl1bQ0gyXVtDSDJdU1tDSDJdMg==

> <s_epik_cmdline>
J2VwaWtfcHl0aG9uJywgJy1waCcsICc3LjAnLCAnLXRuJywgJzgnLCAnLW1hJywgJzIwMCcsICctbWV0YWxfYmluZGluZycsICctaW1hZScsICc8aW5maWxlLm1hZT4nLCAnLW9tYWUnLCAnPG91dGZpbGUubWFlPic=

> <r_epik_Ionization_Penalty>
0.000644338

> <r_epik_Ionization_Penalty_Charging>
0

> <r_epik_Ionization_Penalty_Neutral>
0.000644338

> <r_epik_State_Penalty>
0.000374131

> <r_epik_Charging_Adjusted_Penalty>
0.000374131

> <i_epik_Tot_Q>
0

> <i_epik_Tot_abs_Q>
0

> <r_epik_Metal_State_Penalty>
-0

> <b_epik_Metal_Only>
0

> <s_lp_Force_Field>
OPLS_2005

> <r_lp_Energy>
-6.48006

> <b_lp_Chiralities_Consistent>
1

> <s_lp_Variant>
AV-unprocessed.smi:2474-3

> <Gold.Version>
5.8.1

> <Gold.Id.Protein>
6NUR|6NUR_protein|mol2

> <Gold.PLP.Fitness>
42.5070

> <Gold.PLP.PLP>
-37.4423

> <Gold.PLP.part.hbond>
-3.0000

> <Gold.PLP.part.metal>
0.0000

> <Gold.PLP.part.buried>
-3.8209

> <Gold.PLP.part.nonpolar>
-31.6667

> <Gold.PLP.part.repulsive>
0.3350

> <Gold.PLP.ligand.clash>
0.0000

> <Gold.PLP.ligand.torsion>
0.4687

> <Gold.PLP.Chemscore.Hbond>
1.9600

> <Gold.PLP.Chemscore.CHOScore>
0.0000

> <Gold.PLP.Chemscore.Metal>
0.0000

> <Gold.Chemscore.Hbonds>
donor molecule, donor type, donor heavy atom, donor atom, acceptor molecule, acceptor atom, score
      L1  H     9    30       P1  8028  1.00
      L1  H    12    31       P1  8028  0.96

> <Gold.PLP.Chemscore.Internal.Correction>
0.1222

> <Gold.Rescore>
     Score         DG    S(hbond)    S(metal)    S(lipo)     H(rot)  DE(clash)    DE(int)     intcor
     19.36     -21.18       1.89        0.00     112.33       1.46       1.22       0.59       ----

> <Gold.Chemscore.Fitness>
19.3644

> <Gold.Chemscore.DG>
-21.1772

> <Gold.Chemscore.ZeroCoef>
-5.4800

> <Gold.Chemscore.Hbond>
1.8851

> <Gold.Chemscore.Metal>
0.0000

> <Gold.Chemscore.Lipo>
112.3306

> <Gold.Chemscore.Internal_Hbond>
0.0000

> <Gold.Chemscore.DEClash>
1.2226

> <Gold.Chemscore.DEInternal>
0.5902

> <Gold.Chemscore.Rot>
1.4616

> <Gold.Chemscore.Internal.Correction>
   9.000000E+99

> <Gold.Chemscore.Hbonds>
donor molecule, donor type, donor heavy atom, donor atom, acceptor molecule, acceptor atom, score
      L1  H     9    30       P1  8028  0.96
      L1  H    12    31       P1  8028  0.77

> <Gold.Chemscore.Hbond.Weighted>
-6.2962

> <Gold.Chemscore.Metal.Weighted>
-0.0000

> <Gold.Chemscore.Lipo.Weighted>
-13.1427

> <Gold.Chemscore.Internal_Hbond.Weighted>
0.0000

> <Gold.Chemscore.DEClash.Weighted>
1.2226

> <Gold.Chemscore.DEInternal.Weighted>
0.5902

> <Gold.Chemscore.Rot.Weighted>
3.7416

> <Gold.Chemscore.Internal.Correction.Weighted>
   9.000000E+99

> <Gold.Protein.RotatedTorsions>
[ 6907 6896 6895 6894 ] final  148.80 input  -60.11 | X-H torsion
[ 7974 7965 7964 7962 ] final  -27.21 input  175.53 | X-H torsion
[ 8008 7997 7996 7995 ] final  121.61 input   59.86 | X-H torsion
[ 10167 10162 10161 10158 ] final -150.91 input  -65.29 | X-H torsion
[ 10718 10713 10712 10709 ] final  131.75 input   66.30 | X-H torsion
[ 10763 10752 10751 10750 ] final  115.42 input  -60.55 | X-H torsion
[ 11005 11000 10999 10996 ] final -130.40 input  -57.11 | X-H torsion

> <Gold.Protein.ActiveResidues>
 VAL166  LYS551  ARG553  GLY616  TRP617  ASP618  TYR619  PRO620  LYS621  CYS622 
 ASP623  PHE694  ASN695  SER759  ASP760  ASP761  ALA762  ILE779  LEU786  VAL792 
 PHE793  MET794  SER795  GLU796  ALA797  LYS798  CYS799  TRP800  GLU811  SER814 

> <Gold.Protein.RotatedAtoms>
  152.1366  133.4439  159.4746 H   0  0  0  0  0  0  0  0  0  0  0  0  # atno 6907 bound_to 6896
  150.6882  134.2356  159.4461 H   0  0  0  0  0  0  0  0  0  0  0  0  # atno 6908 bound_to 6896
  152.0243  134.9804  160.0622 H   0  0  0  0  0  0  0  0  0  0  0  0  # atno 6909 bound_to 6896
  146.1373  140.5121  142.8667 H   0  0  0  0  0  0  0  0  0  0  0  0  # atno 7974 bound_to 7965
  156.2693  140.2804  156.1335 H   0  0  0  0  0  0  0  0  0  0  0  0  # atno 8008 bound_to 7997
  155.1029  140.0390  157.2719 H   0  0  0  0  0  0  0  0  0  0  0  0  # atno 8009 bound_to 7997
  154.6802  140.2607  155.6922 H   0  0  0  0  0  0  0  0  0  0  0  0  # atno 8010 bound_to 7997
  139.7313  143.8804  152.2535 H   0  0  0  0  0  0  0  0  0  0  0  0  # atno 10167 bound_to 10162
  157.4938  131.1091  150.9521 H   0  0  0  0  0  0  0  0  0  0  0  0  # atno 10718 bound_to 10713
  153.5219  135.3596  155.2636 H   0  0  0  0  0  0  0  0  0  0  0  0  # atno 10763 bound_to 10752
  154.8734  135.4047  154.3250 H   0  0  0  0  0  0  0  0  0  0  0  0  # atno 10764 bound_to 10752
  153.3922  135.7072  153.6554 H   0  0  0  0  0  0  0  0  0  0  0  0  # atno 10765 bound_to 10752
  140.9349  134.1270  157.4202 H   0  0  0  0  0  0  0  0  0  0  0  0  # atno 11005 bound_to 11000
  144.7754  140.5728  143.6641 LP  0  0  0  0  0  0  0  0  0  0  0  0  # atno 17320 bound_to 7965
  145.5126  139.1479  143.3596 LP  0  0  0  0  0  0  0  0  0  0  0  0  # atno 17321 bound_to 7965
  139.8728  144.7059  150.8967 LP  0  0  0  0  0  0  0  0  0  0  0  0  # atno 17342 bound_to 10162
  140.7771  143.3724  151.1625 LP  0  0  0  0  0  0  0  0  0  0  0  0  # atno 17343 bound_to 10162
  157.0214  130.5675  149.5332 LP  0  0  0  0  0  0  0  0  0  0  0  0  # atno 17370 bound_to 10713
  156.0189  130.5283  150.8216 LP  0  0  0  0  0  0  0  0  0  0  0  0  # atno 17371 bound_to 10713
  139.8805  135.0017  156.6085 LP  0  0  0  0  0  0  0  0  0  0  0  0  # atno 17394 bound_to 11000
  140.7813  133.8658  155.8570 LP  0  0  0  0  0  0  0  0  0  0  0  0  # atno 17395 bound_to 11000

$$$$
