AV-unprocessed.smi:3351|AV-procd|sdf|12947|dock9
  -GOLD-   2272019383D 1   1.00000     0.00000
 Structure written by MMmdl.
 35 36  0  0  0  0  0  0  0  0  2 V2000
  146.3268  131.5385  152.6410 C   0  0  0  0  0  0  0  0  0  0  0  0
  146.7273  133.0002  152.4006 C   0  0  2  0  0  0  0  0  0  0  0  0
  146.7930  133.3210  150.8909 C   0  0  0  0  0  0  0  0  0  0  0  0
  145.4921  133.2131  150.2215 N   0  0  0  0  0  0  0  0  0  0  0  0
  145.1167  132.2929  149.2768 C   0  0  0  0  0  0  0  0  0  0  0  0
  143.8261  132.5951  148.9274 C   0  0  0  0  0  0  0  0  0  0  0  0
  143.4644  133.6790  149.6817 N   0  3  0  0  0  0  0  0  0  0  0  0
  144.4768  134.0498  150.4722 C   0  0  0  0  0  0  0  0  0  0  0  0
  148.0149  133.2512  153.0477 N   0  0  0  0  0  0  0  0  0  0  0  0
  148.2591  133.1678  154.3653 C   0  0  0  0  0  0  0  0  0  0  0  0
  147.4074  132.8376  155.1918 O   0  0  0  0  0  0  0  0  0  0  0  0
  149.6857  133.5053  154.8125 C   0  0  0  0  0  0  0  0  0  0  0  0
  150.3607  132.3616  155.4270 N   0  0  0  0  0  0  0  0  0  0  0  0
  150.4201  131.0980  154.7045 C   0  0  0  0  0  0  0  0  0  0  0  0
  150.8172  130.0057  155.6998 C   0  0  0  0  0  0  0  0  0  0  0  0
  151.6686  130.8017  157.0771 S   0  0  0  0  0  0  0  0  0  0  0  0
  151.0113  132.4172  156.6527 C   0  0  0  0  0  0  0  0  0  0  0  0
  151.1465  133.3945  157.3867 O   0  0  0  0  0  0  0  0  0  0  0  0
  145.3542  131.3205  152.1989 H   0  0  0  0  0  0  0  0  0  0  0  0
  146.2582  131.3202  153.7073 H   0  0  0  0  0  0  0  0  0  0  0  0
  147.0516  130.8500  152.2052 H   0  0  0  0  0  0  0  0  0  0  0  0
  145.9577  133.6225  152.8611 H   0  0  0  0  0  0  0  0  0  0  0  0
  147.1773  134.3286  150.7255 H   0  0  0  0  0  0  0  0  0  0  0  0
  147.4757  132.6363  150.3857 H   0  0  0  0  0  0  0  0  0  0  0  0
  145.7823  131.5190  148.9218 H   0  0  0  0  0  0  0  0  0  0  0  0
  143.1571  132.1329  148.2162 H   0  0  0  0  0  0  0  0  0  0  0  0
  144.4785  134.8716  151.1658 H   0  0  0  0  0  0  0  0  0  0  0  0
  148.7795  133.5200  152.4449 H   0  0  0  0  0  0  0  0  0  0  0  0
  150.2496  133.8487  153.9443 H   0  0  0  0  0  0  0  0  0  0  0  0
  149.6703  134.3370  155.5191 H   0  0  0  0  0  0  0  0  0  0  0  0
  149.4663  130.8680  154.2278 H   0  0  0  0  0  0  0  0  0  0  0  0
  151.1711  131.1857  153.9186 H   0  0  0  0  0  0  0  0  0  0  0  0
  149.9249  129.5179  156.0929 H   0  0  0  0  0  0  0  0  0  0  0  0
  151.4411  129.2379  155.2418 H   0  0  0  0  0  0  0  0  0  0  0  0
  142.5625  134.1376  149.6464 H   0  0  0  0  0  0  0  0  0  0  0  0
  1  2  1  0  0  0  0
  1 19  1  0  0  0  0
  1 20  1  0  0  0  0
  1 21  1  0  0  0  0
  2  3  1  0  0  0  0
  2  9  1  0  0  0  0
  2 22  1  0  0  0  0
  3  4  1  0  0  0  0
  3 23  1  0  0  0  0
  3 24  1  0  0  0  0
  4  8  1  0  0  0  0
  4  5  1  0  0  0  0
  5  6  2  0  0  0  0
  5 25  1  0  0  0  0
  6  7  1  0  0  0  0
  6 26  1  0  0  0  0
  7  8  2  0  0  0  0
  7 35  1  0  0  0  0
  8 27  1  0  0  0  0
  9 10  1  0  0  0  0
  9 28  1  0  0  0  0
 10 11  2  0  0  0  0
 10 12  1  0  0  0  0
 12 13  1  0  0  0  0
 12 29  1  0  0  0  0
 12 30  1  0  0  0  0
 13 17  1  0  0  0  0
 13 14  1  0  0  0  0
 14 15  1  0  0  0  0
 14 31  1  0  0  0  0
 14 32  1  0  0  0  0
 15 16  1  0  0  0  0
 15 33  1  0  0  0  0
 15 34  1  0  0  0  0
 16 17  1  0  0  0  0
 17 18  2  0  0  0  0
M  CHG  1   7   1
M  END
> <s_m_source_file>
AV-unprocessed.smi

> <i_m_source_file_index>
3351

> <i_lp_mmshare_version>
43012

> <i_f3d_flags>
0

> <s_epik_input>
W2NIXTFuW2NIXVtjSF1uMVtDSDJdW0NAQEhdKFtDSDNdKVtOSF1DKD1PKVtDSDJdTjJbQ0gyXVtDSDJdU0MyPU8=

> <s_epik_cmdline>
J2VwaWtfcHl0aG9uJywgJy1waCcsICc3LjAnLCAnLXRuJywgJzgnLCAnLW1hJywgJzIwMCcsICctbWV0YWxfYmluZGluZycsICctaW1hZScsICc8aW5maWxlLm1hZT4nLCAnLW9tYWUnLCAnPG91dGZpbGUubWFlPic=

> <r_lp_tautomer_probability>
1

> <r_epik_Ionization_Penalty>
0.257312

> <r_epik_Ionization_Penalty_Charging>
0

> <r_epik_Ionization_Penalty_Neutral>
0.257312

> <r_epik_State_Penalty>
0.248897

> <r_epik_Charging_Adjusted_Penalty>
0.248897

> <i_epik_Tot_Q>
1

> <i_epik_Tot_abs_Q>
1

> <r_epik_Metal_State_Penalty>
0.538022

> <b_epik_Metal_Only>
0

> <s_lp_Force_Field>
OPLS_2005

> <r_lp_Energy>
4.24041

> <b_lp_Chiralities_Consistent>
1

> <s_lp_Variant>
AV-unprocessed.smi:3351-1

> <Gold.Version>
5.8.1

> <Gold.Id.Protein>
6NUR|6NUR_protein|mol2

> <Gold.PLP.Fitness>
41.2856

> <Gold.PLP.PLP>
-33.1174

> <Gold.PLP.part.hbond>
-2.0000

> <Gold.PLP.part.metal>
0.0000

> <Gold.PLP.part.buried>
-3.4139

> <Gold.PLP.part.nonpolar>
-26.7041

> <Gold.PLP.part.repulsive>
0.0691

> <Gold.PLP.ligand.clash>
0.0000

> <Gold.PLP.ligand.torsion>
0.1556

> <Gold.PLP.Chemscore.Hbond>
2.8160

> <Gold.PLP.Chemscore.CHOScore>
0.0000

> <Gold.PLP.Chemscore.Metal>
0.0000

> <Gold.Chemscore.Hbonds>
donor molecule, donor type, donor heavy atom, donor atom, acceptor molecule, acceptor atom, score
      L1  H     7    35       P1 10186  2.00
      P1  H  6896  6907       L1    18  0.70

> <Gold.PLP.Chemscore.Internal.Correction>
0.0315

> <Gold.Rescore>
     Score         DG    S(hbond)    S(metal)    S(lipo)     H(rot)  DE(clash)    DE(int)     intcor
     13.18     -13.39       1.92        0.00      65.58       2.41       0.04       0.16       ----

> <Gold.Chemscore.Fitness>
13.1845

> <Gold.Chemscore.DG>
-13.3909

> <Gold.Chemscore.ZeroCoef>
-5.4800

> <Gold.Chemscore.Hbond>
1.9216

> <Gold.Chemscore.Metal>
0.0000

> <Gold.Chemscore.Lipo>
65.5780

> <Gold.Chemscore.Internal_Hbond>
0.0000

> <Gold.Chemscore.DEClash>
0.0419

> <Gold.Chemscore.DEInternal>
0.1645

> <Gold.Chemscore.Rot>
2.4141

> <Gold.Chemscore.Internal.Correction>
   9.000000E+99

> <Gold.Chemscore.Hbonds>
donor molecule, donor type, donor heavy atom, donor atom, acceptor molecule, acceptor atom, score
      L1  H     7    35       P1 10186  0.98
      P1  H  6896  6907       L1    18  0.72

> <Gold.Chemscore.Hbond.Weighted>
-6.4183

> <Gold.Chemscore.Metal.Weighted>
-0.0000

> <Gold.Chemscore.Lipo.Weighted>
-7.6726

> <Gold.Chemscore.Internal_Hbond.Weighted>
0.0000

> <Gold.Chemscore.DEClash.Weighted>
0.0419

> <Gold.Chemscore.DEInternal.Weighted>
0.1645

> <Gold.Chemscore.Rot.Weighted>
6.1800

> <Gold.Chemscore.Internal.Correction.Weighted>
   9.000000E+99

> <Gold.Protein.RotatedTorsions>
[ 6907 6896 6895 6894 ] final -158.84 input  -60.11 | X-H torsion
[ 7974 7965 7964 7962 ] final  123.29 input  175.53 | X-H torsion
[ 8008 7997 7996 7995 ] final  -11.28 input   59.86 | X-H torsion
[ 10167 10162 10161 10158 ] final  -57.56 input  -65.29 | X-H torsion
[ 10718 10713 10712 10709 ] final  128.68 input   66.30 | X-H torsion
[ 10763 10752 10751 10750 ] final  167.44 input  -60.55 | X-H torsion
[ 11005 11000 10999 10996 ] final -101.52 input  -57.11 | X-H torsion

> <Gold.Protein.ActiveResidues>
 VAL166  LYS551  ARG553  GLY616  TRP617  ASP618  TYR619  PRO620  LYS621  CYS622 
 ASP623  PHE694  ASN695  SER759  ASP760  ASP761  ALA762  ILE779  LEU786  VAL792 
 PHE793  MET794  SER795  GLU796  ALA797  LYS798  CYS799  TRP800  GLU811  SER814 

> <Gold.Protein.RotatedAtoms>
  151.3244  133.4026  159.2656 H   0  0  0  0  0  0  0  0  0  0  0  0  # atno 6907 bound_to 6896
  151.0007  134.9321  159.7963 H   0  0  0  0  0  0  0  0  0  0  0  0  # atno 6908 bound_to 6896
  152.5274  134.3209  159.9200 H   0  0  0  0  0  0  0  0  0  0  0  0  # atno 6909 bound_to 6896
  145.0976  139.3541  143.4828 H   0  0  0  0  0  0  0  0  0  0  0  0  # atno 7974 bound_to 7965
  154.5479  140.2307  155.8533 H   0  0  0  0  0  0  0  0  0  0  0  0  # atno 8008 bound_to 7997
  156.1920  140.3074  155.9312 H   0  0  0  0  0  0  0  0  0  0  0  0  # atno 8009 bound_to 7997
  155.3128  140.0436  157.3026 H   0  0  0  0  0  0  0  0  0  0  0  0  # atno 8010 bound_to 7997
  140.6250  143.2435  151.5385 H   0  0  0  0  0  0  0  0  0  0  0  0  # atno 10167 bound_to 10162
  157.5222  131.1098  150.9136 H   0  0  0  0  0  0  0  0  0  0  0  0  # atno 10718 bound_to 10713
  154.3538  135.2753  155.2357 H   0  0  0  0  0  0  0  0  0  0  0  0  # atno 10763 bound_to 10752
  154.4575  135.5915  153.6236 H   0  0  0  0  0  0  0  0  0  0  0  0  # atno 10764 bound_to 10752
  152.9848  135.6057  154.3752 H   0  0  0  0  0  0  0  0  0  0  0  0  # atno 10765 bound_to 10752
  141.1227  133.8485  157.1243 H   0  0  0  0  0  0  0  0  0  0  0  0  # atno 11005 bound_to 11000
  146.3530  140.0839  142.8616 LP  0  0  0  0  0  0  0  0  0  0  0  0  # atno 17320 bound_to 7965
  145.0992  140.9335  143.4722 LP  0  0  0  0  0  0  0  0  0  0  0  0  # atno 17321 bound_to 7965
  139.5472  144.2489  152.1464 LP  0  0  0  0  0  0  0  0  0  0  0  0  # atno 17342 bound_to 10162
  140.1719  144.4928  150.6575 LP  0  0  0  0  0  0  0  0  0  0  0  0  # atno 17343 bound_to 10162
  156.9743  130.5502  149.5292 LP  0  0  0  0  0  0  0  0  0  0  0  0  # atno 17370 bound_to 10713
  156.0362  130.5449  150.8658 LP  0  0  0  0  0  0  0  0  0  0  0  0  # atno 17371 bound_to 10713
  140.0198  134.9951  157.0569 LP  0  0  0  0  0  0  0  0  0  0  0  0  # atno 17394 bound_to 11000
  140.4458  134.1633  155.7177 LP  0  0  0  0  0  0  0  0  0  0  0  0  # atno 17395 bound_to 11000

$$$$
