AV-unprocessed.smi:807|AV-procd|sdf|3802|dock7
  -GOLD-   22720 1243D 1   1.00000     0.00000
 Structure written by MMmdl.
 35 37  0  0  0  0  0  0  0  0  1 V2000
  153.3651  136.6906  158.1929 C   0  0  0  0  0  0  0  0  0  0  0  0
  151.9858  137.0532  157.9097 N   0  0  0  0  0  0  0  0  0  0  0  0
  151.6302  137.5778  156.6593 C   0  0  0  0  0  0  0  0  0  0  0  0
  151.5486  136.7628  155.5822 N   0  0  0  0  0  0  0  0  0  0  0  0
  151.2061  137.3093  154.4081 C   0  0  0  0  0  0  0  0  0  0  0  0
  150.9179  138.5886  154.1224 N   0  0  0  0  0  0  0  0  0  0  0  0
  150.9962  139.4037  155.1831 C   0  0  0  0  0  0  0  0  0  0  0  0
  150.7571  140.7671  155.1799 N   0  0  0  0  0  0  0  0  0  0  0  0
  150.9739  141.0827  156.4541 C   0  0  0  0  0  0  0  0  0  0  0  0
  151.3299  140.0870  157.2896 N   0  0  0  0  0  0  0  0  0  0  0  0
  151.6311  140.2096  158.7051 C   0  0  0  0  0  0  0  0  0  0  0  0
  153.0072  140.8588  158.9566 C   0  0  2  0  0  0  0  0  0  0  0  0
  153.9778  139.8316  158.9760 O   0  0  0  0  0  0  0  0  0  0  0  0
  153.0288  141.7003  160.2325 C   0  0  0  0  0  0  0  0  0  0  0  0
  153.8158  141.2723  161.3263 C   0  0  0  0  0  0  0  0  0  0  0  0
  153.8485  142.0128  162.5227 C   0  0  0  0  0  0  0  0  0  0  0  0
  153.0901  143.1910  162.6399 C   0  0  0  0  0  0  0  0  0  0  0  0
  152.2981  143.6241  161.5608 C   0  0  0  0  0  0  0  0  0  0  0  0
  152.2603  142.8870  160.3600 C   0  0  0  0  0  0  0  0  0  0  0  0
  151.2519  143.4663  159.0797 Cl  0  0  0  0  0  0  0  0  0  0  0  0
  151.3514  138.9480  156.4882 C   0  0  0  0  0  0  0  0  0  0  0  0
  153.4519  136.3327  159.2187 H   0  0  0  0  0  0  0  0  0  0  0  0
  154.0233  137.5521  158.0759 H   0  0  0  0  0  0  0  0  0  0  0  0
  153.7024  135.8977  157.5246 H   0  0  0  0  0  0  0  0  0  0  0  0
  151.3053  137.0156  158.6549 H   0  0  0  0  0  0  0  0  0  0  0  0
  151.1537  136.6242  153.5750 H   0  0  0  0  0  0  0  0  0  0  0  0
  150.8780  142.1017  156.7997 H   0  0  0  0  0  0  0  0  0  0  0  0
  150.8395  140.7872  159.1849 H   0  0  0  0  0  0  0  0  0  0  0  0
  151.5927  139.2125  159.1448 H   0  0  0  0  0  0  0  0  0  0  0  0
  153.2713  141.4765  158.1002 H   0  0  0  0  0  0  0  0  0  0  0  0
  153.6043  139.0722  159.3961 H   0  0  0  0  0  0  0  0  0  0  0  0
  154.3986  140.3659  161.2547 H   0  0  0  0  0  0  0  0  0  0  0  0
  154.4543  141.6755  163.3510 H   0  0  0  0  0  0  0  0  0  0  0  0
  153.1128  143.7600  163.5577 H   0  0  0  0  0  0  0  0  0  0  0  0
  151.7129  144.5268  161.6570 H   0  0  0  0  0  0  0  0  0  0  0  0
  1  2  1  0  0  0  0
  1 22  1  0  0  0  0
  1 23  1  0  0  0  0
  1 24  1  0  0  0  0
  2  3  1  0  0  0  0
  2 25  1  0  0  0  0
  3 21  1  0  0  0  0
  3  4  2  0  0  0  0
  4  5  1  0  0  0  0
  5  6  2  0  0  0  0
  5 26  1  0  0  0  0
  6  7  1  0  0  0  0
  7 21  2  0  0  0  0
  7  8  1  0  0  0  0
  8  9  2  0  0  0  0
  9 10  1  0  0  0  0
  9 27  1  0  0  0  0
 10 11  1  0  0  0  0
 10 21  1  0  0  0  0
 11 12  1  0  0  0  0
 11 28  1  0  0  0  0
 11 29  1  0  0  0  0
 12 13  1  0  0  0  0
 12 14  1  0  0  0  0
 12 30  1  0  0  0  0
 13 31  1  0  0  0  0
 14 19  1  0  0  0  0
 14 15  2  0  0  0  0
 15 16  1  0  0  0  0
 15 32  1  0  0  0  0
 16 17  2  0  0  0  0
 16 33  1  0  0  0  0
 17 18  1  0  0  0  0
 17 34  1  0  0  0  0
 18 19  2  0  0  0  0
 18 35  1  0  0  0  0
 19 20  1  0  0  0  0
M  END
> <s_m_source_file>
AV-unprocessed.smi

> <i_m_source_file_index>
807

> <i_lp_mmshare_version>
43012

> <i_f3d_flags>
0

> <s_epik_input>
bjFbY0hdbmMoW05IXVtDSDNdKWMoYzEyKW4oW2NIXW4yKVtDSDJdW0NASF0oW09IXSljM1tjSF1bY0hdW2NIXVtjSF1jM0Ns

> <s_epik_cmdline>
J2VwaWtfcHl0aG9uJywgJy1waCcsICc3LjAnLCAnLXRuJywgJzgnLCAnLW1hJywgJzIwMCcsICctbWV0YWxfYmluZGluZycsICctaW1hZScsICc8aW5maWxlLm1hZT4nLCAnLW9tYWUnLCAnPG91dGZpbGUubWFlPic=

> <r_lp_tautomer_probability>
1

> <r_epik_Ionization_Penalty>
0.00695285

> <r_epik_Ionization_Penalty_Charging>
0

> <r_epik_Ionization_Penalty_Neutral>
0.00695285

> <r_epik_State_Penalty>
-0

> <r_epik_Charging_Adjusted_Penalty>
0

> <i_epik_Tot_Q>
0

> <i_epik_Tot_abs_Q>
0

> <r_epik_Metal_State_Penalty>
-0

> <b_epik_Metal_Only>
0

> <s_lp_Force_Field>
OPLS_2005

> <r_lp_Energy>
11.3951

> <b_lp_Chiralities_Consistent>
1

> <s_lp_Variant>
AV-unprocessed.smi:807-1

> <Gold.Version>
5.8.1

> <Gold.Id.Protein>
6NUR|6NUR_protein|mol2

> <Gold.PLP.Fitness>
49.9529

> <Gold.PLP.PLP>
-42.7140

> <Gold.PLP.part.hbond>
-3.0000

> <Gold.PLP.part.metal>
0.0000

> <Gold.PLP.part.buried>
-2.9083

> <Gold.PLP.part.nonpolar>
-36.5020

> <Gold.PLP.part.repulsive>
0.4501

> <Gold.PLP.ligand.clash>
0.0000

> <Gold.PLP.ligand.torsion>
1.3931

> <Gold.PLP.Chemscore.Hbond>
2.3316

> <Gold.PLP.Chemscore.CHOScore>
1.0000

> <Gold.PLP.Chemscore.Metal>
0.0000

> <Gold.Chemscore.Hbonds>
donor molecule, donor type, donor heavy atom, donor atom, acceptor molecule, acceptor atom, score
      P1  H  7989  7998       L1     8  0.38
      P1  H  7997  8010       L1    13  1.00
      P1  H 10752 10764       L1     4  0.85
      L1  C     5    26       P1  7949  1.00

> <Gold.PLP.Chemscore.Internal.Correction>
0.0303

> <Gold.Rescore>
     Score         DG    S(hbond)    S(metal)    S(lipo)     H(rot)  DE(clash)    DE(int)     intcor
     14.63     -16.05       1.60        0.00      95.30       2.31       0.14       1.28       ----

> <Gold.Chemscore.Fitness>
14.6271

> <Gold.Chemscore.DG>
-16.0462

> <Gold.Chemscore.ZeroCoef>
-5.4800

> <Gold.Chemscore.Hbond>
1.5970

> <Gold.Chemscore.Metal>
0.0000

> <Gold.Chemscore.Lipo>
95.2953

> <Gold.Chemscore.Internal_Hbond>
0.0000

> <Gold.Chemscore.DEClash>
0.1382

> <Gold.Chemscore.DEInternal>
1.2810

> <Gold.Chemscore.Rot>
2.3115

> <Gold.Chemscore.Internal.Correction>
   9.000000E+99

> <Gold.Chemscore.Hbonds>
donor molecule, donor type, donor heavy atom, donor atom, acceptor molecule, acceptor atom, score
      P1  H  7989  7998       L1     8  0.01
      P1  H  7997  8010       L1    13  0.56
      P1  H 10752 10764       L1     4  0.16

> <Gold.Chemscore.Hbond.Weighted>
-5.3341

> <Gold.Chemscore.Metal.Weighted>
-0.0000

> <Gold.Chemscore.Lipo.Weighted>
-11.1495

> <Gold.Chemscore.Internal_Hbond.Weighted>
0.0000

> <Gold.Chemscore.DEClash.Weighted>
0.1382

> <Gold.Chemscore.DEInternal.Weighted>
1.2810

> <Gold.Chemscore.Rot.Weighted>
5.9174

> <Gold.Chemscore.Internal.Correction.Weighted>
   9.000000E+99

> <Gold.Protein.RotatedTorsions>
[ 6907 6896 6895 6894 ] final   48.81 input  -60.11 | X-H torsion
[ 7974 7965 7964 7962 ] final -105.92 input  175.53 | X-H torsion
[ 8008 7997 7996 7995 ] final    1.58 input   59.86 | X-H torsion
[ 10167 10162 10161 10158 ] final  166.07 input  -65.29 | X-H torsion
[ 10718 10713 10712 10709 ] final  -68.47 input   66.30 | X-H torsion
[ 10763 10752 10751 10750 ] final  -40.49 input  -60.55 | X-H torsion
[ 11005 11000 10999 10996 ] final  -21.25 input  -57.11 | X-H torsion

> <Gold.Protein.ActiveResidues>
 VAL166  LYS551  ARG553  GLY616  TRP617  ASP618  TYR619  PRO620  LYS621  CYS622 
 ASP623  PHE694  ASN695  SER759  ASP760  ASP761  ALA762  ILE779  LEU786  VAL792 
 PHE793  MET794  SER795  GLU796  ALA797  LYS798  CYS799  TRP800  GLU811  SER814 

> <Gold.Protein.RotatedAtoms>
  152.2837  134.7800  160.0391 H   0  0  0  0  0  0  0  0  0  0  0  0  # atno 6907 bound_to 6896
  151.8370  133.3412  159.3639 H   0  0  0  0  0  0  0  0  0  0  0  0  # atno 6908 bound_to 6896
  150.7200  134.5356  159.5766 H   0  0  0  0  0  0  0  0  0  0  0  0  # atno 6909 bound_to 6896
  145.2244  140.9146  143.3241 H   0  0  0  0  0  0  0  0  0  0  0  0  # atno 7974 bound_to 7965
  154.6814  140.2633  155.6904 H   0  0  0  0  0  0  0  0  0  0  0  0  # atno 8008 bound_to 7997
  156.2698  140.2809  156.1282 H   0  0  0  0  0  0  0  0  0  0  0  0  # atno 8009 bound_to 7997
  155.1026  140.0374  157.2691 H   0  0  0  0  0  0  0  0  0  0  0  0  # atno 8010 bound_to 7997
  139.4917  144.4066  151.9348 H   0  0  0  0  0  0  0  0  0  0  0  0  # atno 10167 bound_to 10162
  156.0504  130.4295  150.2005 H   0  0  0  0  0  0  0  0  0  0  0  0  # atno 10718 bound_to 10713
  153.9468  135.6755  153.4744 H   0  0  0  0  0  0  0  0  0  0  0  0  # atno 10763 bound_to 10752
  153.0904  135.4877  154.8676 H   0  0  0  0  0  0  0  0  0  0  0  0  # atno 10764 bound_to 10752
  154.7347  135.3146  154.8790 H   0  0  0  0  0  0  0  0  0  0  0  0  # atno 10765 bound_to 10752
  140.8543  133.7834  156.0002 H   0  0  0  0  0  0  0  0  0  0  0  0  # atno 11005 bound_to 11000
  144.9735  139.3855  143.6297 LP  0  0  0  0  0  0  0  0  0  0  0  0  # atno 17320 bound_to 7965
  146.3368  139.8844  142.8819 LP  0  0  0  0  0  0  0  0  0  0  0  0  # atno 17321 bound_to 7965
  140.3507  144.3093  150.5950 LP  0  0  0  0  0  0  0  0  0  0  0  0  # atno 17342 bound_to 10162
  140.5488  143.2210  151.7962 LP  0  0  0  0  0  0  0  0  0  0  0  0  # atno 17343 bound_to 10162
  157.0089  130.9945  151.3371 LP  0  0  0  0  0  0  0  0  0  0  0  0  # atno 17370 bound_to 10713
  157.5424  130.8128  149.8044 LP  0  0  0  0  0  0  0  0  0  0  0  0  # atno 17371 bound_to 10713
  140.8754  134.2675  157.5170 LP  0  0  0  0  0  0  0  0  0  0  0  0  # atno 17394 bound_to 11000
  139.8705  134.9588  156.4313 LP  0  0  0  0  0  0  0  0  0  0  0  0  # atno 17395 bound_to 11000

$$$$
