AV-unprocessed.smi:2856|AV-procd|sdf|10993|dock6
  -GOLD-   2272015443D 1   1.00000     0.00000
 Structure written by MMmdl.
 37 38  0  0  0  0  0  0  0  0  1 V2000
  151.9209  138.7248  154.6566 C   0  0  0  0  0  0  0  0  0  0  0  0
  150.3090  137.8943  154.6946 S   0  0  0  0  0  0  0  0  0  0  0  0
  149.2136  139.2129  154.0771 C   0  0  2  0  0  0  0  0  0  0  0  0
  149.5248  140.5249  154.8222 C   0  0  0  0  0  0  0  0  0  0  0  0
  148.6048  141.6709  154.3782 C   0  0  0  0  0  0  0  0  0  0  0  0
  147.1303  141.2908  154.5646 C   0  0  0  0  0  0  0  0  0  0  0  0
  146.7974  139.9985  153.8054 C   0  0  0  0  0  0  0  0  0  0  0  0
  147.7187  138.8326  154.2207 C   0  0  1  0  0  0  0  0  0  0  0  0
  147.4104  137.6655  153.3975 N   0  0  0  0  0  0  0  0  0  0  0  0
  146.2049  137.0918  153.2768 C   0  0  0  0  0  0  0  0  0  0  0  0
  145.1899  137.5117  153.8332 O   0  0  0  0  0  0  0  0  0  0  0  0
  146.2599  136.0130  152.4775 N   0  0  0  0  0  0  0  0  0  0  0  0
  145.2012  135.1321  152.1398 C   0  0  0  0  0  0  0  0  0  0  0  0
  145.3868  134.1060  151.1754 C   0  0  0  0  0  0  0  0  0  0  0  0
  144.1659  133.4935  151.1391 C   0  0  0  0  0  0  0  0  0  0  0  0
  143.6308  132.3430  150.3576 C   0  0  0  0  0  0  0  0  0  0  0  0
  143.3082  134.0940  152.0080 O   0  0  0  0  0  0  0  0  0  0  0  0
  143.9781  135.1439  152.6471 N   0  0  0  0  0  0  0  0  0  0  0  0
  152.6926  138.0549  155.0353 H   0  0  0  0  0  0  0  0  0  0  0  0
  151.9046  139.6178  155.2811 H   0  0  0  0  0  0  0  0  0  0  0  0
  152.1893  139.0132  153.6408 H   0  0  0  0  0  0  0  0  0  0  0  0
  149.4415  139.3714  153.0220 H   0  0  0  0  0  0  0  0  0  0  0  0
  149.4154  140.3712  155.8967 H   0  0  0  0  0  0  0  0  0  0  0  0
  150.5651  140.8076  154.6574 H   0  0  0  0  0  0  0  0  0  0  0  0
  148.8313  142.5720  154.9488 H   0  0  0  0  0  0  0  0  0  0  0  0
  148.7947  141.9104  153.3313 H   0  0  0  0  0  0  0  0  0  0  0  0
  146.9161  141.1584  155.6258 H   0  0  0  0  0  0  0  0  0  0  0  0
  146.4895  142.1018  154.2176 H   0  0  0  0  0  0  0  0  0  0  0  0
  145.7545  139.7317  153.9811 H   0  0  0  0  0  0  0  0  0  0  0  0
  146.8919  140.1791  152.7336 H   0  0  0  0  0  0  0  0  0  0  0  0
  147.5319  138.6042  155.2718 H   0  0  0  0  0  0  0  0  0  0  0  0
  148.1831  137.2521  152.8968 H   0  0  0  0  0  0  0  0  0  0  0  0
  147.1590  135.7904  152.0771 H   0  0  0  0  0  0  0  0  0  0  0  0
  146.2680  133.8574  150.6029 H   0  0  0  0  0  0  0  0  0  0  0  0
  144.3930  131.9347  149.6936 H   0  0  0  0  0  0  0  0  0  0  0  0
  142.7818  132.6518  149.7477 H   0  0  0  0  0  0  0  0  0  0  0  0
  143.2989  131.5453  151.0222 H   0  0  0  0  0  0  0  0  0  0  0  0
  1  2  1  0  0  0  0
  1 19  1  0  0  0  0
  1 20  1  0  0  0  0
  1 21  1  0  0  0  0
  2  3  1  0  0  0  0
  3  8  1  0  0  0  0
  3  4  1  0  0  0  0
  3 22  1  0  0  0  0
  4  5  1  0  0  0  0
  4 23  1  0  0  0  0
  4 24  1  0  0  0  0
  5  6  1  0  0  0  0
  5 25  1  0  0  0  0
  5 26  1  0  0  0  0
  6  7  1  0  0  0  0
  6 27  1  0  0  0  0
  6 28  1  0  0  0  0
  7  8  1  0  0  0  0
  7 29  1  0  0  0  0
  7 30  1  0  0  0  0
  8  9  1  0  0  0  0
  8 31  1  0  0  0  0
  9 10  1  0  0  0  0
  9 32  1  0  0  0  0
 10 11  2  0  0  0  0
 10 12  1  0  0  0  0
 12 13  1  0  0  0  0
 12 33  1  0  0  0  0
 13 18  2  0  0  0  0
 13 14  1  0  0  0  0
 14 15  2  0  0  0  0
 14 34  1  0  0  0  0
 15 16  1  0  0  0  0
 15 17  1  0  0  0  0
 16 35  1  0  0  0  0
 16 36  1  0  0  0  0
 16 37  1  0  0  0  0
 17 18  1  0  0  0  0
M  END
> <s_m_source_file>
AV-unprocessed.smi

> <i_m_source_file_index>
2856

> <i_lp_mmshare_version>
43012

> <i_f3d_flags>
0

> <s_epik_input>
W0NIM11TW0NAQEhdMVtDSDJdW0NIMl1bQ0gyXVtDSDJdW0NASF0xW05IXUMoPU8pW05IXWMyW2NIXWMoW0NIM10pb24y

> <s_epik_cmdline>
J2VwaWtfcHl0aG9uJywgJy1waCcsICc3LjAnLCAnLXRuJywgJzgnLCAnLW1hJywgJzIwMCcsICctbWV0YWxfYmluZGluZycsICctaW1hZScsICc8aW5maWxlLm1hZT4nLCAnLW9tYWUnLCAnPG91dGZpbGUubWFlPic=

> <r_lp_tautomer_probability>
1

> <r_epik_Ionization_Penalty>
2.20874e-05

> <r_epik_Ionization_Penalty_Charging>
0

> <r_epik_Ionization_Penalty_Neutral>
2.20874e-05

> <r_epik_State_Penalty>
-0

> <r_epik_Charging_Adjusted_Penalty>
0

> <i_epik_Tot_Q>
0

> <i_epik_Tot_abs_Q>
0

> <r_epik_Metal_State_Penalty>
-0

> <b_epik_Metal_Only>
0

> <s_lp_Force_Field>
OPLS_2005

> <r_lp_Energy>
6.84472

> <b_lp_Chiralities_Consistent>
1

> <s_lp_Variant>
AV-unprocessed.smi:2856-1

> <Gold.Version>
5.8.1

> <Gold.Id.Protein>
6NUR|6NUR_protein|mol2

> <Gold.PLP.Fitness>
36.1343

> <Gold.PLP.PLP>
-30.2797

> <Gold.PLP.part.hbond>
-2.0000

> <Gold.PLP.part.metal>
0.0000

> <Gold.PLP.part.buried>
-3.7585

> <Gold.PLP.part.nonpolar>
-25.3806

> <Gold.PLP.part.repulsive>
0.4760

> <Gold.PLP.ligand.clash>
0.0000

> <Gold.PLP.ligand.torsion>
0.0762

> <Gold.PLP.Chemscore.Hbond>
2.0000

> <Gold.PLP.Chemscore.CHOScore>
0.0000

> <Gold.PLP.Chemscore.Metal>
0.0000

> <Gold.Chemscore.Hbonds>
donor molecule, donor type, donor heavy atom, donor atom, acceptor molecule, acceptor atom, score
      L1  H     9    32       P1  7948  1.00
      L1  H    12    33       P1  7948  0.99

> <Gold.PLP.Chemscore.Internal.Correction>
0.0070

> <Gold.Rescore>
     Score         DG    S(hbond)    S(metal)    S(lipo)     H(rot)  DE(clash)    DE(int)     intcor
     16.08     -17.40       1.95        0.00      72.80       1.21       0.02       1.30       ----

> <Gold.Chemscore.Fitness>
16.0783

> <Gold.Chemscore.DG>
-17.4007

> <Gold.Chemscore.ZeroCoef>
-5.4800

> <Gold.Chemscore.Hbond>
1.9470

> <Gold.Chemscore.Metal>
0.0000

> <Gold.Chemscore.Lipo>
72.8023

> <Gold.Chemscore.Internal_Hbond>
0.0000

> <Gold.Chemscore.DEClash>
0.0237

> <Gold.Chemscore.DEInternal>
1.2988

> <Gold.Chemscore.Rot>
1.2109

> <Gold.Chemscore.Internal.Correction>
   9.000000E+99

> <Gold.Chemscore.Hbonds>
donor molecule, donor type, donor heavy atom, donor atom, acceptor molecule, acceptor atom, score
      L1  H     9    32       P1  7948  0.99
      L1  H    12    33       P1  7948  0.94

> <Gold.Chemscore.Hbond.Weighted>
-6.5029

> <Gold.Chemscore.Metal.Weighted>
-0.0000

> <Gold.Chemscore.Lipo.Weighted>
-8.5179

> <Gold.Chemscore.Internal_Hbond.Weighted>
0.0000

> <Gold.Chemscore.DEClash.Weighted>
0.0237

> <Gold.Chemscore.DEInternal.Weighted>
1.2988

> <Gold.Chemscore.Rot.Weighted>
3.1000

> <Gold.Chemscore.Internal.Correction.Weighted>
   9.000000E+99

> <Gold.Protein.RotatedTorsions>
[ 6907 6896 6895 6894 ] final -149.66 input  -60.11 | X-H torsion
[ 7974 7965 7964 7962 ] final -174.47 input  175.53 | X-H torsion
[ 8008 7997 7996 7995 ] final   58.52 input   59.86 | X-H torsion
[ 10167 10162 10161 10158 ] final -145.52 input  -65.29 | X-H torsion
[ 10718 10713 10712 10709 ] final  -23.85 input   66.30 | X-H torsion
[ 10763 10752 10751 10750 ] final  169.59 input  -60.55 | X-H torsion
[ 11005 11000 10999 10996 ] final   93.15 input  -57.11 | X-H torsion

> <Gold.Protein.ActiveResidues>
 VAL166  LYS551  ARG553  GLY616  TRP617  ASP618  TYR619  PRO620  LYS621  CYS622 
 ASP623  PHE694  ASN695  SER759  ASP760  ASP761  ALA762  ILE779  LEU786  VAL792 
 PHE793  MET794  SER795  GLU796  ALA797  LYS798  CYS799  TRP800  GLU811  SER814 

> <Gold.Protein.RotatedAtoms>
  151.1873  133.4688  159.2594 H   0  0  0  0  0  0  0  0  0  0  0  0  # atno 6907 bound_to 6896
  151.1199  135.0073  159.8543 H   0  0  0  0  0  0  0  0  0  0  0  0  # atno 6908 bound_to 6896
  152.5455  134.1785  159.8679 H   0  0  0  0  0  0  0  0  0  0  0  0  # atno 6909 bound_to 6896
  144.7132  140.1467  143.6387 H   0  0  0  0  0  0  0  0  0  0  0  0  # atno 7974 bound_to 7965
  155.5514  140.3486  155.4469 H   0  0  0  0  0  0  0  0  0  0  0  0  # atno 8008 bound_to 7997
  156.0581  140.1333  156.9999 H   0  0  0  0  0  0  0  0  0  0  0  0  # atno 8009 bound_to 7997
  154.4466  140.0991  156.6460 H   0  0  0  0  0  0  0  0  0  0  0  0  # atno 8010 bound_to 7997
  139.7798  143.8117  152.2637 H   0  0  0  0  0  0  0  0  0  0  0  0  # atno 10167 bound_to 10162
  156.4854  130.4554  149.6786 H   0  0  0  0  0  0  0  0  0  0  0  0  # atno 10718 bound_to 10713
  154.3854  135.2753  155.2187 H   0  0  0  0  0  0  0  0  0  0  0  0  # atno 10763 bound_to 10752
  154.4276  135.5985  153.6052 H   0  0  0  0  0  0  0  0  0  0  0  0  # atno 10764 bound_to 10752
  152.9833  135.5987  154.4102 H   0  0  0  0  0  0  0  0  0  0  0  0  # atno 10765 bound_to 10752
  139.8814  134.8773  156.3676 H   0  0  0  0  0  0  0  0  0  0  0  0  # atno 11005 bound_to 11000
  145.9153  139.2512  143.1413 LP  0  0  0  0  0  0  0  0  0  0  0  0  # atno 17320 bound_to 7965
  145.9675  140.8787  143.0179 LP  0  0  0  0  0  0  0  0  0  0  0  0  # atno 17321 bound_to 7965
  139.8176  144.7309  150.9614 LP  0  0  0  0  0  0  0  0  0  0  0  0  # atno 17342 bound_to 10162
  140.7818  143.4190  151.0872 LP  0  0  0  0  0  0  0  0  0  0  0  0  # atno 17343 bound_to 10162
  156.3479  130.7416  151.2372 LP  0  0  0  0  0  0  0  0  0  0  0  0  # atno 17370 bound_to 10713
  157.7479  131.0385  150.4507 LP  0  0  0  0  0  0  0  0  0  0  0  0  # atno 17371 bound_to 10713
  140.9487  133.7466  156.0242 LP  0  0  0  0  0  0  0  0  0  0  0  0  # atno 17394 bound_to 11000
  140.8132  134.3375  157.5405 LP  0  0  0  0  0  0  0  0  0  0  0  0  # atno 17395 bound_to 11000

$$$$
