AV-unprocessed.smi:3335|AV-procd|sdf|12840|dock2
  -GOLD-   2272019223D 1   1.00000     0.00000
 Structure written by MMmdl.
 47 48  0  0  0  0  0  0  0  0  2 V2000
  146.0573  143.3663  153.7719 C   0  0  0  0  0  0  0  0  0  0  0  0
  146.9356  142.1537  153.8818 C   0  0  0  0  0  0  0  0  0  0  0  0
  148.2873  142.0885  154.3221 C   0  0  0  0  0  0  0  0  0  0  0  0
  148.7707  140.8575  154.3110 N   0  0  0  0  0  0  0  0  0  0  0  0
  147.7553  140.0921  153.8508 N   0  0  0  0  0  0  0  0  0  0  0  0
  147.8964  138.6418  153.7376 C   0  0  1  0  0  0  0  0  0  0  0  0
  148.2500  137.9872  155.0882 C   0  0  0  0  0  0  0  0  0  0  0  0
  146.6762  137.9766  153.0447 C   0  0  1  0  0  0  0  0  0  0  0  0
  146.4901  138.3999  151.5715 C   0  0  0  0  0  0  0  0  0  0  0  0
  146.7972  136.5020  153.1689 N   0  3  0  0  0  0  0  0  0  0  0  0
  145.6169  135.6684  152.8295 C   0  0  2  0  0  0  0  0  0  0  0  0
  144.5794  135.6662  153.9689 C   0  0  0  0  0  0  0  0  0  0  0  0
  146.0707  134.2261  152.5337 C   0  0  0  0  0  0  0  0  0  0  0  0
  146.8837  133.6923  153.2907 O   0  0  0  0  0  0  0  0  0  0  0  0
  145.5609  133.5745  151.4656 N   0  0  0  0  0  0  0  0  0  0  0  0
  145.8783  132.2088  151.0456 C   0  0  0  0  0  0  0  0  0  0  0  0
  145.2479  132.0434  149.6627 C   0  0  0  0  0  0  0  0  0  0  0  0
  144.0948  133.0360  149.6608 C   0  0  0  0  0  0  0  0  0  0  0  0
  144.5831  134.1731  150.5577 C   0  0  0  0  0  0  0  0  0  0  0  0
  146.6344  140.8540  153.5907 C   0  0  0  0  0  0  0  0  0  0  0  0
  146.5311  144.2506  154.1987 H   0  0  0  0  0  0  0  0  0  0  0  0
  145.1110  143.2265  154.2948 H   0  0  0  0  0  0  0  0  0  0  0  0
  145.8204  143.5981  152.7335 H   0  0  0  0  0  0  0  0  0  0  0  0
  148.9250  142.8940  154.6550 H   0  0  0  0  0  0  0  0  0  0  0  0
  148.7638  138.4698  153.0976 H   0  0  0  0  0  0  0  0  0  0  0  0
  148.4422  136.9210  154.9667 H   0  0  0  0  0  0  0  0  0  0  0  0
  147.4538  138.0949  155.8245 H   0  0  0  0  0  0  0  0  0  0  0  0
  149.1505  138.4333  155.5117 H   0  0  0  0  0  0  0  0  0  0  0  0
  145.7924  138.2866  153.6012 H   0  0  0  0  0  0  0  0  0  0  0  0
  146.5136  139.4835  151.4616 H   0  0  0  0  0  0  0  0  0  0  0  0
  145.5292  138.0729  151.1763 H   0  0  0  0  0  0  0  0  0  0  0  0
  147.2680  137.9849  150.9301 H   0  0  0  0  0  0  0  0  0  0  0  0
  147.5604  136.2101  152.5748 H   0  0  0  0  0  0  0  0  0  0  0  0
  145.1655  136.0787  151.9287 H   0  0  0  0  0  0  0  0  0  0  0  0
  143.7668  134.9665  153.7697 H   0  0  0  0  0  0  0  0  0  0  0  0
  144.1215  136.6463  154.0986 H   0  0  0  0  0  0  0  0  0  0  0  0
  145.0315  135.3799  154.9192 H   0  0  0  0  0  0  0  0  0  0  0  0
  146.9514  132.0187  151.0095 H   0  0  0  0  0  0  0  0  0  0  0  0
  145.4299  131.5068  151.7502 H   0  0  0  0  0  0  0  0  0  0  0  0
  145.9704  132.3238  148.8951 H   0  0  0  0  0  0  0  0  0  0  0  0
  144.9267  131.0210  149.4621 H   0  0  0  0  0  0  0  0  0  0  0  0
  143.8255  133.3724  148.6590 H   0  0  0  0  0  0  0  0  0  0  0  0
  143.2137  132.5718  150.1060 H   0  0  0  0  0  0  0  0  0  0  0  0
  143.7534  134.6373  151.0934 H   0  0  0  0  0  0  0  0  0  0  0  0
  145.0764  134.9437  149.9633 H   0  0  0  0  0  0  0  0  0  0  0  0
  145.7183  140.4116  153.2275 H   0  0  0  0  0  0  0  0  0  0  0  0
  147.0490  136.2875  154.1232 H   0  0  0  0  0  0  0  0  0  0  0  0
  1  2  1  0  0  0  0
  1 21  1  0  0  0  0
  1 22  1  0  0  0  0
  1 23  1  0  0  0  0
  2 20  2  0  0  0  0
  2  3  1  0  0  0  0
  3  4  2  0  0  0  0
  3 24  1  0  0  0  0
  4  5  1  0  0  0  0
  5  6  1  0  0  0  0
  5 20  1  0  0  0  0
  6  7  1  0  0  0  0
  6  8  1  0  0  0  0
  6 25  1  0  0  0  0
  7 26  1  0  0  0  0
  7 27  1  0  0  0  0
  7 28  1  0  0  0  0
  8  9  1  0  0  0  0
  8 10  1  0  0  0  0
  8 29  1  0  0  0  0
  9 30  1  0  0  0  0
  9 31  1  0  0  0  0
  9 32  1  0  0  0  0
 10 11  1  0  0  0  0
 10 33  1  0  0  0  0
 10 47  1  0  0  0  0
 11 12  1  0  0  0  0
 11 13  1  0  0  0  0
 11 34  1  0  0  0  0
 12 35  1  0  0  0  0
 12 36  1  0  0  0  0
 12 37  1  0  0  0  0
 13 14  2  0  0  0  0
 13 15  1  0  0  0  0
 15 19  1  0  0  0  0
 15 16  1  0  0  0  0
 16 17  1  0  0  0  0
 16 38  1  0  0  0  0
 16 39  1  0  0  0  0
 17 18  1  0  0  0  0
 17 40  1  0  0  0  0
 17 41  1  0  0  0  0
 18 19  1  0  0  0  0
 18 42  1  0  0  0  0
 18 43  1  0  0  0  0
 19 44  1  0  0  0  0
 19 45  1  0  0  0  0
 20 46  1  0  0  0  0
M  CHG  1  10   1
M  END
> <s_m_source_file>
AV-unprocessed.smi

> <i_m_source_file_index>
3335

> <i_lp_mmshare_version>
43012

> <i_f3d_flags>
0

> <s_epik_input>
W0NIM11jMVtjSF1ubihbY0hdMSlbQ0BIXShbQ0gzXSlbQ0BIXShbQ0gzXSlbTkhdW0NASF0oW0NIM10pQyg9TylOMltDSDJdW0NIMl1bQ0gyXVtDSDJdMg==

> <s_epik_cmdline>
J2VwaWtfcHl0aG9uJywgJy1waCcsICc3LjAnLCAnLXRuJywgJzgnLCAnLW1hJywgJzIwMCcsICctbWV0YWxfYmluZGluZycsICctaW1hZScsICc8aW5maWxlLm1hZT4nLCAnLW9tYWUnLCAnPG91dGZpbGUubWFlPic=

> <r_lp_tautomer_probability>
1

> <r_epik_Ionization_Penalty>
0.14175

> <r_epik_Ionization_Penalty_Charging>
0.141731

> <r_epik_Ionization_Penalty_Neutral>
1.91261e-05

> <r_epik_State_Penalty>
0.131043

> <r_epik_Charging_Adjusted_Penalty>
0.272773

> <i_epik_Tot_Q>
1

> <i_epik_Tot_abs_Q>
1

> <r_epik_Metal_State_Penalty>
0.131408

> <b_epik_Metal_Only>
0

> <s_lp_Force_Field>
OPLS_2005

> <r_lp_Energy>
37.3946

> <b_lp_Chiralities_Consistent>
1

> <s_lp_Variant>
AV-unprocessed.smi:3335-4

> <Gold.Version>
5.8.1

> <Gold.Id.Protein>
6NUR|6NUR_protein|mol2

> <Gold.PLP.Fitness>
45.2151

> <Gold.PLP.PLP>
-34.6840

> <Gold.PLP.part.hbond>
-1.0000

> <Gold.PLP.part.metal>
0.0000

> <Gold.PLP.part.buried>
-0.0683

> <Gold.PLP.part.nonpolar>
-34.4308

> <Gold.PLP.part.repulsive>
0.2409

> <Gold.PLP.ligand.clash>
0.0000

> <Gold.PLP.ligand.torsion>
0.8707

> <Gold.PLP.Chemscore.Hbond>
2.0000

> <Gold.PLP.Chemscore.CHOScore>
2.0000

> <Gold.PLP.Chemscore.Metal>
0.0000

> <Gold.Chemscore.Hbonds>
donor molecule, donor type, donor heavy atom, donor atom, acceptor molecule, acceptor atom, score
      L1  H    10    33       P1  7948  2.00
      L1  C     3    24       P1  8028  1.00
      L1  C    20    46       P1 10175  1.00

> <Gold.PLP.Chemscore.Internal.Correction>
0.2726

> <Gold.Rescore>
     Score         DG    S(hbond)    S(metal)    S(lipo)     H(rot)  DE(clash)    DE(int)     intcor
     14.43     -15.70       0.99        0.00      95.71       1.68       0.55       0.71       ----

> <Gold.Chemscore.Fitness>
14.4320

> <Gold.Chemscore.DG>
-15.6963

> <Gold.Chemscore.ZeroCoef>
-5.4800

> <Gold.Chemscore.Hbond>
0.9920

> <Gold.Chemscore.Metal>
0.0000

> <Gold.Chemscore.Lipo>
95.7113

> <Gold.Chemscore.Internal_Hbond>
0.0000

> <Gold.Chemscore.DEClash>
0.5544

> <Gold.Chemscore.DEInternal>
0.7099

> <Gold.Chemscore.Rot>
1.6778

> <Gold.Chemscore.Internal.Correction>
   9.000000E+99

> <Gold.Chemscore.Hbonds>
donor molecule, donor type, donor heavy atom, donor atom, acceptor molecule, acceptor atom, score
      L1  H    10    33       P1  7948  0.96

> <Gold.Chemscore.Hbond.Weighted>
-3.3133

> <Gold.Chemscore.Metal.Weighted>
-0.0000

> <Gold.Chemscore.Lipo.Weighted>
-11.1982

> <Gold.Chemscore.Internal_Hbond.Weighted>
0.0000

> <Gold.Chemscore.DEClash.Weighted>
0.5544

> <Gold.Chemscore.DEInternal.Weighted>
0.7099

> <Gold.Chemscore.Rot.Weighted>
4.2952

> <Gold.Chemscore.Internal.Correction.Weighted>
   9.000000E+99

> <Gold.Protein.RotatedTorsions>
[ 6907 6896 6895 6894 ] final -165.39 input  -60.11 | X-H torsion
[ 7974 7965 7964 7962 ] final  115.34 input  175.53 | X-H torsion
[ 8008 7997 7996 7995 ] final  -64.91 input   59.86 | X-H torsion
[ 10167 10162 10161 10158 ] final  171.90 input  -65.29 | X-H torsion
[ 10718 10713 10712 10709 ] final  176.73 input   66.30 | X-H torsion
[ 10763 10752 10751 10750 ] final  173.41 input  -60.55 | X-H torsion
[ 11005 11000 10999 10996 ] final   -6.32 input  -57.11 | X-H torsion

> <Gold.Protein.ActiveResidues>
 VAL166  LYS551  ARG553  GLY616  TRP617  ASP618  TYR619  PRO620  LYS621  CYS622 
 ASP623  PHE694  ASN695  SER759  ASP760  ASP761  ALA762  ILE779  LEU786  VAL792 
 PHE793  MET794  SER795  GLU796  ALA797  LYS798  CYS799  TRP800  GLU811  SER814 

> <Gold.Protein.RotatedAtoms>
  151.4269  133.3681  159.2763 H   0  0  0  0  0  0  0  0  0  0  0  0  # atno 6907 bound_to 6896
  150.9253  134.8671  159.7526 H   0  0  0  0  0  0  0  0  0  0  0  0  # atno 6908 bound_to 6896
  152.5002  134.4210  159.9532 H   0  0  0  0  0  0  0  0  0  0  0  0  # atno 6909 bound_to 6896
  145.1932  139.2989  143.4357 H   0  0  0  0  0  0  0  0  0  0  0  0  # atno 7974 bound_to 7965
  154.4640  140.0944  156.6969 H   0  0  0  0  0  0  0  0  0  0  0  0  # atno 8008 bound_to 7997
  155.4913  140.3471  155.4337 H   0  0  0  0  0  0  0  0  0  0  0  0  # atno 8009 bound_to 7997
  156.0922  140.1400  156.9566 H   0  0  0  0  0  0  0  0  0  0  0  0  # atno 8010 bound_to 7997
  139.5060  144.3434  151.9995 H   0  0  0  0  0  0  0  0  0  0  0  0  # atno 10167 bound_to 10162
  156.9159  130.9925  151.3013 H   0  0  0  0  0  0  0  0  0  0  0  0  # atno 10718 bound_to 10713
  154.4396  135.2762  155.1857 H   0  0  0  0  0  0  0  0  0  0  0  0  # atno 10763 bound_to 10752
  154.3728  135.6105  153.5753 H   0  0  0  0  0  0  0  0  0  0  0  0  # atno 10764 bound_to 10752
  152.9840  135.5861  154.4721 H   0  0  0  0  0  0  0  0  0  0  0  0  # atno 10765 bound_to 10752
  140.7007  133.8992  155.8681 H   0  0  0  0  0  0  0  0  0  0  0  0  # atno 11005 bound_to 11000
  146.3432  140.2152  142.8590 LP  0  0  0  0  0  0  0  0  0  0  0  0  # atno 17320 bound_to 7965
  145.0020  140.8640  143.5276 LP  0  0  0  0  0  0  0  0  0  0  0  0  # atno 17321 bound_to 7965
  140.2872  144.3794  150.6100 LP  0  0  0  0  0  0  0  0  0  0  0  0  # atno 17342 bound_to 10162
  140.5974  143.2167  151.7138 LP  0  0  0  0  0  0  0  0  0  0  0  0  # atno 17343 bound_to 10162
  157.5938  130.8463  149.8699 LP  0  0  0  0  0  0  0  0  0  0  0  0  # atno 17370 bound_to 10713
  156.0514  130.3717  150.1193 LP  0  0  0  0  0  0  0  0  0  0  0  0  # atno 17371 bound_to 10713
  141.0166  134.0947  157.4165 LP  0  0  0  0  0  0  0  0  0  0  0  0  # atno 17394 bound_to 11000
  139.8897  135.0107  156.6697 LP  0  0  0  0  0  0  0  0  0  0  0  0  # atno 17395 bound_to 11000

$$$$
