AV-unprocessed.smi:1759|AV-procd|sdf|7087|dock10
  -GOLD-   22720 8303D 1   1.00000     0.00000
 Structure written by MMmdl.
 31 32  0  0  0  0  0  0  0  0  1 V2000
  153.4049  142.2878  161.2348 C   0  0  0  0  0  0  0  0  0  0  0  0
  152.2816  142.6515  160.3261 C   0  0  0  0  0  0  0  0  0  0  0  0
  151.9307  142.2421  159.0705 C   0  0  0  0  0  0  0  0  0  0  0  0
  150.7529  142.9909  158.8078 C   0  0  0  0  0  0  0  0  0  0  0  0
  150.0587  142.8477  157.5797 N   0  0  0  0  0  0  0  0  0  0  0  0
  149.6786  141.7056  156.9825 C   0  0  0  0  0  0  0  0  0  0  0  0
  149.8569  140.5745  157.4354 O   0  0  0  0  0  0  0  0  0  0  0  0
  149.0652  141.9471  155.8154 N   0  0  0  0  0  0  0  0  0  0  0  0
  148.5096  140.9242  154.9372 C   0  0  0  0  0  0  0  0  0  0  0  0
  149.6177  140.0711  154.2989 C   0  0  2  0  0  0  0  0  0  0  0  0
  149.4642  138.5733  154.5604 C   0  0  0  0  0  0  0  0  0  0  0  0
  150.8952  138.0955  154.4709 C   0  0  0  0  0  0  0  0  0  0  0  0
  151.6410  139.2441  155.1405 C   0  0  0  0  0  0  0  0  0  0  0  0
  150.8909  140.4182  154.8422 O   0  0  0  0  0  0  0  0  0  0  0  0
  150.4159  143.7863  159.8116 N   0  0  0  0  0  0  0  0  0  0  0  0
  151.3942  143.5729  160.7900 O   0  0  0  0  0  0  0  0  0  0  0  0
  154.0574  141.5478  160.7711 H   0  0  0  0  0  0  0  0  0  0  0  0
  153.0264  141.8683  162.1670 H   0  0  0  0  0  0  0  0  0  0  0  0
  154.0054  143.1647  161.4765 H   0  0  0  0  0  0  0  0  0  0  0  0
  152.4362  141.5222  158.4440 H   0  0  0  0  0  0  0  0  0  0  0  0
  149.8330  143.7069  157.1011 H   0  0  0  0  0  0  0  0  0  0  0  0
  148.9559  142.9066  155.5211 H   0  0  0  0  0  0  0  0  0  0  0  0
  147.8403  140.2930  155.5224 H   0  0  0  0  0  0  0  0  0  0  0  0
  147.8966  141.3893  154.1629 H   0  0  0  0  0  0  0  0  0  0  0  0
  149.6575  140.2370  153.2210 H   0  0  0  0  0  0  0  0  0  0  0  0
  149.0752  138.3936  155.5639 H   0  0  0  0  0  0  0  0  0  0  0  0
  148.8034  138.0835  153.8448 H   0  0  0  0  0  0  0  0  0  0  0  0
  151.0601  137.1353  154.9605 H   0  0  0  0  0  0  0  0  0  0  0  0
  151.1975  138.0065  153.4266 H   0  0  0  0  0  0  0  0  0  0  0  0
  151.6534  139.1084  156.2226 H   0  0  0  0  0  0  0  0  0  0  0  0
  152.6725  139.3291  154.7978 H   0  0  0  0  0  0  0  0  0  0  0  0
  1  2  1  0  0  0  0
  1 17  1  0  0  0  0
  1 18  1  0  0  0  0
  1 19  1  0  0  0  0
  2 16  1  0  0  0  0
  2  3  2  0  0  0  0
  3  4  1  0  0  0  0
  3 20  1  0  0  0  0
  4  5  1  0  0  0  0
  4 15  2  0  0  0  0
  5  6  1  0  0  0  0
  5 21  1  0  0  0  0
  6  7  2  0  0  0  0
  6  8  1  0  0  0  0
  8  9  1  0  0  0  0
  8 22  1  0  0  0  0
  9 10  1  0  0  0  0
  9 23  1  0  0  0  0
  9 24  1  0  0  0  0
 10 14  1  0  0  0  0
 10 11  1  0  0  0  0
 10 25  1  0  0  0  0
 11 12  1  0  0  0  0
 11 26  1  0  0  0  0
 11 27  1  0  0  0  0
 12 13  1  0  0  0  0
 12 28  1  0  0  0  0
 12 29  1  0  0  0  0
 13 14  1  0  0  0  0
 13 30  1  0  0  0  0
 13 31  1  0  0  0  0
 15 16  1  0  0  0  0
M  END
> <s_m_source_file>
AV-unprocessed.smi

> <i_m_source_file_index>
1759

> <i_lp_mmshare_version>
43012

> <i_f3d_flags>
0

> <s_epik_input>
W0NIM11jMVtjSF1jKG5vMSlbTkhdQyg9TylbTkhdW0NIMl1bQ0BASF0yW0NIMl1bQ0gyXVtDSDJdTzI=

> <s_epik_cmdline>
J2VwaWtfcHl0aG9uJywgJy1waCcsICc3LjAnLCAnLXRuJywgJzgnLCAnLW1hJywgJzIwMCcsICctbWV0YWxfYmluZGluZycsICctaW1hZScsICc8aW5maWxlLm1hZT4nLCAnLW9tYWUnLCAnPG91dGZpbGUubWFlPic=

> <r_lp_tautomer_probability>
1

> <r_epik_Ionization_Penalty>
2.1743e-05

> <r_epik_Ionization_Penalty_Charging>
0

> <r_epik_Ionization_Penalty_Neutral>
2.1743e-05

> <r_epik_State_Penalty>
-0

> <r_epik_Charging_Adjusted_Penalty>
0

> <i_epik_Tot_Q>
0

> <i_epik_Tot_abs_Q>
0

> <r_epik_Metal_State_Penalty>
-0

> <b_epik_Metal_Only>
0

> <s_lp_Force_Field>
OPLS_2005

> <r_lp_Energy>
14.3546

> <b_lp_Chiralities_Consistent>
1

> <s_lp_Variant>
AV-unprocessed.smi:1759-1

> <Gold.Version>
5.8.1

> <Gold.Id.Protein>
6NUR|6NUR_protein|mol2

> <Gold.PLP.Fitness>
37.8821

> <Gold.PLP.PLP>
-31.2956

> <Gold.PLP.part.hbond>
-3.9577

> <Gold.PLP.part.metal>
0.0000

> <Gold.PLP.part.buried>
-2.9712

> <Gold.PLP.part.nonpolar>
-24.0961

> <Gold.PLP.part.repulsive>
0.4559

> <Gold.PLP.ligand.clash>
0.0000

> <Gold.PLP.ligand.torsion>
1.2074

> <Gold.PLP.Chemscore.Hbond>
3.0000

> <Gold.PLP.Chemscore.CHOScore>
0.0000

> <Gold.PLP.Chemscore.Metal>
0.0000

> <Gold.Chemscore.Hbonds>
donor molecule, donor type, donor heavy atom, donor atom, acceptor molecule, acceptor atom, score
      L1  H     5    21       P1  8028  1.00
      L1  H     8    22       P1  8028  1.00
      P1  H  7989  7998       L1    14  1.00

> <Gold.PLP.Chemscore.Internal.Correction>
0.0013

> <Gold.Rescore>
     Score         DG    S(hbond)    S(metal)    S(lipo)     H(rot)  DE(clash)    DE(int)     intcor
     12.97     -17.01       2.30        0.00      61.15       1.30       0.02       4.02       ----

> <Gold.Chemscore.Fitness>
12.9705

> <Gold.Chemscore.DG>
-17.0080

> <Gold.Chemscore.ZeroCoef>
-5.4800

> <Gold.Chemscore.Hbond>
2.3033

> <Gold.Chemscore.Metal>
0.0000

> <Gold.Chemscore.Lipo>
61.1455

> <Gold.Chemscore.Internal_Hbond>
0.0000

> <Gold.Chemscore.DEClash>
0.0174

> <Gold.Chemscore.DEInternal>
4.0200

> <Gold.Chemscore.Rot>
1.2965

> <Gold.Chemscore.Internal.Correction>
   9.000000E+99

> <Gold.Chemscore.Hbonds>
donor molecule, donor type, donor heavy atom, donor atom, acceptor molecule, acceptor atom, score
      L1  H     5    21       P1  8028  0.89
      L1  H     8    22       P1  8028  0.99
      P1  H  7989  7998       L1    14  0.06

> <Gold.Chemscore.Hbond.Weighted>
-7.6931

> <Gold.Chemscore.Metal.Weighted>
-0.0000

> <Gold.Chemscore.Lipo.Weighted>
-7.1540

> <Gold.Chemscore.Internal_Hbond.Weighted>
0.0000

> <Gold.Chemscore.DEClash.Weighted>
0.0174

> <Gold.Chemscore.DEInternal.Weighted>
4.0200

> <Gold.Chemscore.Rot.Weighted>
3.3192

> <Gold.Chemscore.Internal.Correction.Weighted>
   9.000000E+99

> <Gold.Protein.RotatedTorsions>
[ 6907 6896 6895 6894 ] final   90.60 input  -60.11 | X-H torsion
[ 7974 7965 7964 7962 ] final  157.74 input  175.53 | X-H torsion
[ 8008 7997 7996 7995 ] final   94.33 input   59.86 | X-H torsion
[ 10167 10162 10161 10158 ] final -177.14 input  -65.29 | X-H torsion
[ 10718 10713 10712 10709 ] final    7.63 input   66.30 | X-H torsion
[ 10763 10752 10751 10750 ] final   96.95 input  -60.55 | X-H torsion
[ 11005 11000 10999 10996 ] final   47.68 input  -57.11 | X-H torsion

> <Gold.Protein.ActiveResidues>
 VAL166  LYS551  ARG553  GLY616  TRP617  ASP618  TYR619  PRO620  LYS621  CYS622 
 ASP623  PHE694  ASN695  SER759  ASP760  ASP761  ALA762  ILE779  LEU786  VAL792 
 PHE793  MET794  SER795  GLU796  ALA797  LYS798  CYS799  TRP800  GLU811  SER814 

> <Gold.Protein.RotatedAtoms>
  152.5445  134.1787  159.8626 H   0  0  0  0  0  0  0  0  0  0  0  0  # atno 6907 bound_to 6896
  151.1791  133.4729  159.2601 H   0  0  0  0  0  0  0  0  0  0  0  0  # atno 6908 bound_to 6896
  151.1197  135.0084  159.8588 H   0  0  0  0  0  0  0  0  0  0  0  0  # atno 6909 bound_to 6896
  144.7886  139.7382  143.6231 H   0  0  0  0  0  0  0  0  0  0  0  0  # atno 7974 bound_to 7965
  156.0567  140.3301  155.7413 H   0  0  0  0  0  0  0  0  0  0  0  0  # atno 8008 bound_to 7997
  155.5518  140.0611  157.2865 H   0  0  0  0  0  0  0  0  0  0  0  0  # atno 8009 bound_to 7997
  154.4461  140.1892  156.0683 H   0  0  0  0  0  0  0  0  0  0  0  0  # atno 8010 bound_to 7997
  139.5495  144.2147  152.1050 H   0  0  0  0  0  0  0  0  0  0  0  0  # atno 10167 bound_to 10162
  156.9397  130.5857  149.5652 H   0  0  0  0  0  0  0  0  0  0  0  0  # atno 10718 bound_to 10713
  153.2710  135.4200  155.0988 H   0  0  0  0  0  0  0  0  0  0  0  0  # atno 10763 bound_to 10752
  154.8456  135.3472  154.6244 H   0  0  0  0  0  0  0  0  0  0  0  0  # atno 10764 bound_to 10752
  153.6664  135.7046  153.5218 H   0  0  0  0  0  0  0  0  0  0  0  0  # atno 10765 bound_to 10752
  140.1257  134.4771  155.8561 H   0  0  0  0  0  0  0  0  0  0  0  0  # atno 11005 bound_to 11000
  146.2128  139.5496  142.9670 LP  0  0  0  0  0  0  0  0  0  0  0  0  # atno 17320 bound_to 7965
  145.5856  141.0377  143.2098 LP  0  0  0  0  0  0  0  0  0  0  0  0  # atno 17321 bound_to 7965
  140.1640  144.4999  150.6616 LP  0  0  0  0  0  0  0  0  0  0  0  0  # atno 17342 bound_to 10162
  140.6753  143.2302  151.5522 LP  0  0  0  0  0  0  0  0  0  0  0  0  # atno 17343 bound_to 10162
  156.0410  130.5492  150.8770 LP  0  0  0  0  0  0  0  0  0  0  0  0  # atno 17370 bound_to 10713
  157.5793  131.0946  150.9297 LP  0  0  0  0  0  0  0  0  0  0  0  0  # atno 17371 bound_to 10713
  141.2161  133.6777  156.6974 LP  0  0  0  0  0  0  0  0  0  0  0  0  # atno 17394 bound_to 11000
  140.2907  134.8243  157.4014 LP  0  0  0  0  0  0  0  0  0  0  0  0  # atno 17395 bound_to 11000

$$$$
