#       Name:                AV-unprocessed.smi:462
#       Creating user name   scv26
#       Creation time:       Thu Mar 26 23:04:10 2020


#       File generated by GOLD software.
#

@<TRIPOS>MOLECULE
AV-unprocessed.smi:462
    53    55     1
SMALL
NO_CHARGES


@<TRIPOS>ATOM
      1 ****        -2.0214   3.4831  -1.8709 C.3            1 S1                 0.0000
      2 ****        -1.5983   2.6597  -0.7950 O.3            1 S1                 0.0000
      3 ****        -2.5565   2.1561   0.0610 C.ar           1 S1                 0.0000
      4 ****        -3.9409   2.4410  -0.0514 C.ar           1 S1                 0.0000
      5 ****        -4.8595   1.8859   0.8581 C.ar           1 S1                 0.0000
      6 ****        -4.4076   1.0436   1.8883 C.ar           1 S1                 0.0000
      7 ****        -3.0364   0.7540   2.0092 C.ar           1 S1                 0.0000
      8 ****        -2.1041   1.3065   1.0962 C.ar           1 S1                 0.0000
      9 ****        -0.7486   1.0685   1.1507 O.3            1 S1                 0.0000
     10 ****        -0.2578   0.0833   2.0478 C.3            1 S1                 0.0000
     11 ****         1.2416  -0.1360   1.7843 C.3            1 S1                 0.0000
     12 ****         1.5170  -0.5458   0.3946 N.pl3          1 S1                 0.0000
     13 ****         1.6325  -1.7889  -0.1712 C.2            1 S1                 0.0000
     14 ****         1.5670  -3.1315   0.5150 C.3            1 S1                 0.0000
     15 ****         1.2446  -4.2553  -0.4895 C.3            1 S1                 0.0000
     16 ****         2.8994  -3.4151   1.2292 C.3            1 S1                 0.0000
     17 ****         0.5413  -3.1819   1.4858 O.3            1 S1                 0.0000
     18 ****         1.8978  -1.5927  -1.4964 N.pl3          1 S1                 1.0000
     19 ****         1.9294  -0.2305  -1.7866 C.ar           1 S1                 0.0000
     20 ****         2.1433   0.4392  -2.9874 C.ar           1 S1                 0.0000
     21 ****         2.1122   1.8481  -2.9404 C.ar           1 S1                 0.0000
     22 ****         1.8815   2.5361  -1.7320 C.ar           1 S1                 0.0000
     23 ****         1.6721   1.8444  -0.5211 C.ar           1 S1                 0.0000
     24 ****         1.6950   0.4500  -0.5764 C.ar           1 S1                 0.0000
     25 ****        -1.1519   3.7803  -2.4570 H              1 S1                 0.0000
     26 ****        -2.5039   4.3929  -1.5117 H              1 S1                 0.0000
     27 ****        -2.7011   2.9504  -2.5372 H              1 S1                 0.0000
     28 ****        -4.3248   3.0838  -0.8286 H              1 S1                 0.0000
     29 ****        -5.9125   2.1076   0.7649 H              1 S1                 0.0000
     30 ****        -5.1131   0.6192   2.5872 H              1 S1                 0.0000
     31 ****        -2.7221   0.1066   2.8136 H              1 S1                 0.0000
     32 ****        -0.4080   0.4056   3.0789 H              1 S1                 0.0000
     33 ****        -0.7956  -0.8549   1.9068 H              1 S1                 0.0000
     34 ****         1.8111   0.7666   2.0066 H              1 S1                 0.0000
     35 ****         1.6291  -0.9052   2.4508 H              1 S1                 0.0000
     36 ****         2.0143  -4.3419  -1.2572 H              1 S1                 0.0000
     37 ****         0.2924  -4.0790  -0.9919 H              1 S1                 0.0000
     38 ****         1.1780  -5.2243   0.0070 H              1 S1                 0.0000
     39 ****         3.7297  -3.4234   0.5223 H              1 S1                 0.0000
     40 ****         2.8853  -4.3845   1.7286 H              1 S1                 0.0000
     41 ****         3.1222  -2.6614   1.9847 H              1 S1                 0.0000
     42 ****         0.5459  -4.0384   1.8851 H              1 S1                 0.0000
     43 ****         2.3215  -0.0864  -3.9140 H              1 S1                 0.0000
     44 ****         2.2684   2.4120  -3.8485 H              1 S1                 0.0000
     45 ****         1.8621   3.6161  -1.7324 H              1 S1                 0.0000
     46 ****         1.4887   2.3839   0.3961 H              1 S1                 0.0000
     47 ****         2.0411  -2.3463  -2.1557 H              1 S1                 0.0000
     48 ****        -0.9620   3.1983  -0.2428 LP             1 S1                 0.0000
     49 ****        -1.1164   1.8786  -1.1920 LP             1 S1                 0.0000
     50 ****        -0.3090   1.9327   1.3956 LP             1 S1                 0.0000
     51 ****        -0.4616   0.7971   0.2320 LP             1 S1                 0.0000
     52 ****        -0.3436  -3.0183   1.0497 LP             1 S1                 0.0000
     53 ****         0.7032  -2.4841   2.1835 LP             1 S1                 0.0000
@<TRIPOS>BOND
    1    1    2 1     
    2    1   25 1     
    3    1   26 1     
    4    1   27 1     
    5    2    3 1     
    6    3    8 ar    
    7    3    4 ar    
    8    4    5 ar    
    9    4   28 1     
   10    5    6 ar    
   11    5   29 1     
   12    6    7 ar    
   13    6   30 1     
   14    7    8 ar    
   15    7   31 1     
   16    8    9 1     
   17    9   10 1     
   18   10   11 1     
   19   10   32 1     
   20   10   33 1     
   21   11   12 1     
   22   11   34 1     
   23   11   35 1     
   24   12   24 1     
   25   12   13 1     
   26   13   14 1     
   27   13   18 2     
   28   14   15 1     
   29   14   16 1     
   30   14   17 1     
   31   15   36 1     
   32   15   37 1     
   33   15   38 1     
   34   16   39 1     
   35   16   40 1     
   36   16   41 1     
   37   17   42 1     
   38   18   19 1     
   39   18   47 1     
   40   19   24 ar    
   41   19   20 ar    
   42   20   21 ar    
   43   20   43 1     
   44   21   22 ar    
   45   21   44 1     
   46   22   23 ar    
   47   22   45 1     
   48   23   24 ar    
   49   23   46 1     
   50    2   48 1     
   51    2   49 1     
   52    9   50 1     
   53    9   51 1     
   54   17   52 1     
   55   17   53 1     
@<TRIPOS>SUBSTRUCTURE
      1 S1             1
@<TRIPOS>SET
LONE_PAIRS      STATIC     ATOMS    <user>   **** ""
6 48 49 50 51 52 53
DONOR_HYDROGENS      STATIC     ATOMS    <user>   **** ""
2 42 47
ATOM$BLUE        STATIC     ATOMS    COLORGROUP SYSTEM
6 48 49 50 51 52 53
ATOM$RED        STATIC     ATOMS    COLORGROUP SYSTEM
2 42 47
