AV-unprocessed.smi:99|AV-procd|sdf|875|dock3
  -GOLD-   2262017343D 1   1.00000     0.00000
 Structure written by MMmdl.
 53 56  0  0  0  0  0  0  0  0  1 V2000
  151.8767  139.7782  158.1742 O   0  0  0  0  0  0  0  0  0  0  0  0
  151.6278  140.7918  157.5189 C   0  0  0  0  0  0  0  0  0  0  0  0
  151.0723  140.7747  156.2944 O   0  0  0  0  0  0  0  0  0  0  0  0
  150.6392  139.5578  155.7037 C   0  0  0  0  0  0  0  0  0  0  0  0
  149.6809  139.8646  154.5409 C   0  0  2  0  0  0  0  0  0  0  0  0
  149.1692  141.1860  154.6456 O   0  0  0  0  0  0  0  0  0  0  0  0
  147.8538  141.2526  154.1866 C   0  0  2  0  0  0  0  0  0  0  0  0
  147.0272  141.8602  155.3117 N   0  0  0  0  0  0  0  0  0  0  0  0
  147.1719  141.5116  156.6521 C   0  0  0  0  0  0  0  0  0  0  0  0
  146.5162  142.1327  157.6606 C   0  0  0  0  0  0  0  0  0  0  0  0
  145.6155  143.2446  157.3852 C   0  0  0  0  0  0  0  0  0  0  0  0
  144.9776  143.8676  158.2309 O   0  0  0  0  0  0  0  0  0  0  0  0
  145.5219  143.5891  156.0357 N   0  0  0  0  0  0  0  0  0  0  0  0
  146.2001  142.9623  154.9896 C   0  0  0  0  0  0  0  0  0  0  0  0
  146.0658  143.3827  153.8409 O   0  0  0  0  0  0  0  0  0  0  0  0
  147.4259  139.8370  153.7357 C   0  0  1  0  0  0  0  0  0  0  0  0
  147.4506  139.7034  152.3286 O   0  0  0  0  0  0  0  0  0  0  0  0
  148.4811  138.9253  154.3554 C   0  0  2  0  0  0  0  0  0  0  0  0
  148.0233  138.3877  155.5911 O   0  0  0  0  0  0  0  0  0  0  0  0
  148.6565  137.3527  156.1839 C   0  0  0  0  0  0  0  0  0  0  0  0
  149.5236  136.6721  155.6333 O   0  0  0  0  0  0  0  0  0  0  0  0
  148.1969  137.1245  157.5832 C   0  0  0  0  0  0  0  0  0  0  0  0
  149.0393  136.4415  158.4907 C   0  0  0  0  0  0  0  0  0  0  0  0
  148.6291  136.2193  159.8200 C   0  0  0  0  0  0  0  0  0  0  0  0
  147.3706  136.6736  160.2562 C   0  0  0  0  0  0  0  0  0  0  0  0
  146.5203  137.3470  159.3603 C   0  0  0  0  0  0  0  0  0  0  0  0
  146.9297  137.5695  158.0318 C   0  0  0  0  0  0  0  0  0  0  0  0
  151.8860  142.1765  158.0072 C   0  0  0  0  0  0  0  0  0  0  0  0
  152.6087  142.3663  159.2075 C   0  0  0  0  0  0  0  0  0  0  0  0
  152.8451  143.6631  159.7035 C   0  0  0  0  0  0  0  0  0  0  0  0
  152.3653  144.7850  159.0028 C   0  0  0  0  0  0  0  0  0  0  0  0
  151.6517  144.6095  157.8032 C   0  0  0  0  0  0  0  0  0  0  0  0
  151.4145  143.3137  157.3056 C   0  0  0  0  0  0  0  0  0  0  0  0
  144.9244  144.3676  155.7982 H   0  0  0  0  0  0  0  0  0  0  0  0
  151.5144  139.0203  155.3377 H   0  0  0  0  0  0  0  0  0  0  0  0
  150.1405  138.9152  156.4307 H   0  0  0  0  0  0  0  0  0  0  0  0
  150.2525  139.8342  153.6125 H   0  0  0  0  0  0  0  0  0  0  0  0
  147.7716  141.9620  153.3604 H   0  0  0  0  0  0  0  0  0  0  0  0
  147.8266  140.7141  156.9521 H   0  0  0  0  0  0  0  0  0  0  0  0
  146.6672  141.8101  158.6807 H   0  0  0  0  0  0  0  0  0  0  0  0
  146.4056  139.5962  154.0281 H   0  0  0  0  0  0  0  0  0  0  0  0
  148.3494  139.6146  152.0504 H   0  0  0  0  0  0  0  0  0  0  0  0
  148.7579  138.1107  153.6839 H   0  0  0  0  0  0  0  0  0  0  0  0
  150.0111  136.0863  158.1789 H   0  0  0  0  0  0  0  0  0  0  0  0
  149.2823  135.7005  160.5060 H   0  0  0  0  0  0  0  0  0  0  0  0
  147.0569  136.5042  161.2757 H   0  0  0  0  0  0  0  0  0  0  0  0
  145.5523  137.6944  159.6906 H   0  0  0  0  0  0  0  0  0  0  0  0
  146.2519  138.0825  157.3674 H   0  0  0  0  0  0  0  0  0  0  0  0
  152.9801  141.5191  159.7658 H   0  0  0  0  0  0  0  0  0  0  0  0
  153.3932  143.7963  160.6245 H   0  0  0  0  0  0  0  0  0  0  0  0
  152.5458  145.7792  159.3843 H   0  0  0  0  0  0  0  0  0  0  0  0
  151.2848  145.4699  157.2633 H   0  0  0  0  0  0  0  0  0  0  0  0
  150.8633  143.2133  156.3819 H   0  0  0  0  0  0  0  0  0  0  0  0
  1  2  2  0  0  0  0
  2  3  1  0  0  0  0
  2 28  1  0  0  0  0
  3  4  1  0  0  0  0
  4  5  1  0  0  0  0
  4 35  1  0  0  0  0
  4 36  1  0  0  0  0
  5 18  1  0  0  0  0
  5  6  1  0  0  0  0
  5 37  1  0  0  0  0
  6  7  1  0  0  0  0
  7  8  1  0  0  0  0
  7 16  1  0  0  0  0
  7 38  1  0  0  0  0
  8 14  1  0  0  0  0
  8  9  1  0  0  0  0
  9 10  2  0  0  0  0
  9 39  1  0  0  0  0
 10 11  1  0  0  0  0
 10 40  1  0  0  0  0
 11 12  2  0  0  0  0
 11 13  1  0  0  0  0
 13 34  1  0  0  0  0
 13 14  1  0  0  0  0
 14 15  2  0  0  0  0
 16 17  1  0  0  0  0
 16 18  1  0  0  0  0
 16 41  1  0  0  0  0
 17 42  1  0  0  0  0
 18 19  1  0  0  0  0
 18 43  1  0  0  0  0
 19 20  1  0  0  0  0
 20 21  2  0  0  0  0
 20 22  1  0  0  0  0
 22 27  1  0  0  0  0
 22 23  2  0  0  0  0
 23 24  1  0  0  0  0
 23 44  1  0  0  0  0
 24 25  2  0  0  0  0
 24 45  1  0  0  0  0
 25 26  1  0  0  0  0
 25 46  1  0  0  0  0
 26 27  2  0  0  0  0
 26 47  1  0  0  0  0
 27 48  1  0  0  0  0
 28 33  1  0  0  0  0
 28 29  2  0  0  0  0
 29 30  1  0  0  0  0
 29 49  1  0  0  0  0
 30 31  2  0  0  0  0
 30 50  1  0  0  0  0
 31 32  1  0  0  0  0
 31 51  1  0  0  0  0
 32 33  2  0  0  0  0
 32 52  1  0  0  0  0
 33 53  1  0  0  0  0
M  END
> <s_m_source_file>
AV-unprocessed.smi

> <i_m_source_file_index>
99

> <i_lp_mmshare_version>
43012

> <i_f3d_flags>
0

> <s_epik_input>
W2NIXTFbY0hdW2NIXVtjSF1bY0hdYzFDKD1PKU9bQ0gyXVtDQEBIXTJPW0NAQEhdKG4zW2NIXVtjSF1jKD1PKVtuSF1jMz1PKVtDQEBIXShbT0hdKVtDQEhdMk9DKD1PKWM0W2NIXVtjSF1bY0hdW2NIXVtjSF00

> <s_epik_cmdline>
J2VwaWtfcHl0aG9uJywgJy1waCcsICc3LjAnLCAnLXRuJywgJzgnLCAnLW1hJywgJzIwMCcsICctbWV0YWxfYmluZGluZycsICctaW1hZScsICc8aW5maWxlLm1hZT4nLCAnLW9tYWUnLCAnPG91dGZpbGUubWFlPic=

> <r_lp_tautomer_probability>
1

> <r_epik_Ionization_Penalty>
0.00454555

> <r_epik_Ionization_Penalty_Charging>
0.0045191

> <r_epik_Ionization_Penalty_Neutral>
2.64449e-05

> <r_epik_State_Penalty>
-0

> <r_epik_Charging_Adjusted_Penalty>
0.0045191

> <i_epik_Tot_Q>
0

> <i_epik_Tot_abs_Q>
0

> <r_epik_Metal_State_Penalty>
1.27877

> <b_epik_Metal_Only>
0

> <s_epik_Chemistry_Notes>
This compound has an ester and may undergo hydrolysis at high or low pH. This compound contains an acetal/aminal-like group ( X-CH(R)-Y where X, Y are N, S, or O) that may be acid/base labile, releasing an aldehyde.

> <s_lp_Force_Field>
OPLS_2005

> <r_lp_Energy>
29.5489

> <b_lp_Chiralities_Consistent>
1

> <s_lp_Variant>
AV-unprocessed.smi:99-11

> <Gold.Version>
5.8.1

> <Gold.Id.Protein>
6NUR|6NUR_protein|mol2

> <Gold.PLP.Fitness>
49.4143

> <Gold.PLP.PLP>
-48.9731

> <Gold.PLP.part.hbond>
-0.6001

> <Gold.PLP.part.metal>
0.0000

> <Gold.PLP.part.buried>
-10.6410

> <Gold.PLP.part.nonpolar>
-39.8962

> <Gold.PLP.part.repulsive>
0.5813

> <Gold.PLP.ligand.clash>
0.0000

> <Gold.PLP.ligand.torsion>
1.4756

> <Gold.PLP.Chemscore.Hbond>
1.0000

> <Gold.PLP.Chemscore.CHOScore>
0.0000

> <Gold.PLP.Chemscore.Metal>
0.0000

> <Gold.Chemscore.Hbonds>
donor molecule, donor type, donor heavy atom, donor atom, acceptor molecule, acceptor atom, score
      L1  H    17    42       P1  7957  1.00

> <Gold.PLP.Chemscore.Internal.Correction>
0.3924

> <Gold.Rescore>
     Score         DG    S(hbond)    S(metal)    S(lipo)     H(rot)  DE(clash)    DE(int)     intcor
     12.31     -13.87       0.99        0.00     113.13       3.19       0.04       1.52       ----

> <Gold.Chemscore.Fitness>
12.3089

> <Gold.Chemscore.DG>
-13.8686

> <Gold.Chemscore.ZeroCoef>
-5.4800

> <Gold.Chemscore.Hbond>
0.9938

> <Gold.Chemscore.Metal>
0.0000

> <Gold.Chemscore.Lipo>
113.1323

> <Gold.Chemscore.Internal_Hbond>
0.0000

> <Gold.Chemscore.DEClash>
0.0389

> <Gold.Chemscore.DEInternal>
1.5208

> <Gold.Chemscore.Rot>
3.1903

> <Gold.Chemscore.Internal.Correction>
   9.000000E+99

> <Gold.Chemscore.Hbonds>
donor molecule, donor type, donor heavy atom, donor atom, acceptor molecule, acceptor atom, score
      L1  H    17    42       P1  7957  0.94

> <Gold.Chemscore.Hbond.Weighted>
-3.3192

> <Gold.Chemscore.Metal.Weighted>
-0.0000

> <Gold.Chemscore.Lipo.Weighted>
-13.2365

> <Gold.Chemscore.Internal_Hbond.Weighted>
0.0000

> <Gold.Chemscore.DEClash.Weighted>
0.0389

> <Gold.Chemscore.DEInternal.Weighted>
1.5208

> <Gold.Chemscore.Rot.Weighted>
8.1671

> <Gold.Chemscore.Internal.Correction.Weighted>
   9.000000E+99

> <Gold.Protein.RotatedTorsions>
[ 6907 6896 6895 6894 ] final   15.51 input  -60.11 | X-H torsion
[ 7974 7965 7964 7962 ] final  170.90 input  175.53 | X-H torsion
[ 8008 7997 7996 7995 ] final   86.89 input   59.86 | X-H torsion
[ 10167 10162 10161 10158 ] final -159.77 input  -65.29 | X-H torsion
[ 10718 10713 10712 10709 ] final   74.86 input   66.30 | X-H torsion
[ 10763 10752 10751 10750 ] final   94.60 input  -60.55 | X-H torsion
[ 11005 11000 10999 10996 ] final  141.18 input  -57.11 | X-H torsion

> <Gold.Protein.ActiveResidues>
 VAL166  LYS551  ARG553  GLY616  TRP617  ASP618  TYR619  PRO620  LYS621  CYS622 
 ASP623  PHE694  ASN695  SER759  ASP760  ASP761  ALA762  ILE779  LEU786  VAL792 
 PHE793  MET794  SER795  GLU796  ALA797  LYS798  CYS799  TRP800  GLU811  SER814 

> <Gold.Protein.RotatedAtoms>
  151.8192  135.0657  160.0422 H   0  0  0  0  0  0  0  0  0  0  0  0  # atno 6907 bound_to 6896
  152.2963  133.5607  159.5598 H   0  0  0  0  0  0  0  0  0  0  0  0  # atno 6908 bound_to 6896
  150.7253  134.0272  159.3763 H   0  0  0  0  0  0  0  0  0  0  0  0  # atno 6909 bound_to 6896
  144.7310  139.9270  143.6423 H   0  0  0  0  0  0  0  0  0  0  0  0  # atno 7974 bound_to 7965
  155.9685  140.3387  155.6554 H   0  0  0  0  0  0  0  0  0  0  0  0  # atno 8008 bound_to 7997
  155.6706  140.0726  157.2539 H   0  0  0  0  0  0  0  0  0  0  0  0  # atno 8009 bound_to 7997
  154.4160  140.1692  156.1862 H   0  0  0  0  0  0  0  0  0  0  0  0  # atno 8010 bound_to 7997
  139.6590  143.9947  152.2213 H   0  0  0  0  0  0  0  0  0  0  0  0  # atno 10167 bound_to 10162
  157.6610  130.9698  150.1270 H   0  0  0  0  0  0  0  0  0  0  0  0  # atno 10718 bound_to 10713
  153.2435  135.4284  155.0723 H   0  0  0  0  0  0  0  0  0  0  0  0  # atno 10763 bound_to 10752
  154.8351  135.3408  154.6615 H   0  0  0  0  0  0  0  0  0  0  0  0  # atno 10764 bound_to 10752
  153.7038  135.7027  153.5112 H   0  0  0  0  0  0  0  0  0  0  0  0  # atno 10765 bound_to 10752
  140.0382  134.9318  157.0793 H   0  0  0  0  0  0  0  0  0  0  0  0  # atno 11005 bound_to 11000
  146.0886  139.3875  143.0420 LP  0  0  0  0  0  0  0  0  0  0  0  0  # atno 17320 bound_to 7965
  145.7742  140.9884  143.1133 LP  0  0  0  0  0  0  0  0  0  0  0  0  # atno 17321 bound_to 7965
  139.9681  144.6512  150.8015 LP  0  0  0  0  0  0  0  0  0  0  0  0  # atno 17342 bound_to 10162
  140.7572  143.3081  151.2913 LP  0  0  0  0  0  0  0  0  0  0  0  0  # atno 17343 bound_to 10162
  156.2127  130.3668  149.8651 LP  0  0  0  0  0  0  0  0  0  0  0  0  # atno 17370 bound_to 10713
  156.6525  130.8749  151.3534 LP  0  0  0  0  0  0  0  0  0  0  0  0  # atno 17371 bound_to 10713
  140.4112  134.1979  155.7163 LP  0  0  0  0  0  0  0  0  0  0  0  0  # atno 17394 bound_to 11000
  141.1869  133.8293  157.1052 LP  0  0  0  0  0  0  0  0  0  0  0  0  # atno 17395 bound_to 11000

$$$$
