AV-unprocessed.smi:1046|AV-procd|sdf|4558|dock1
  -GOLD-   22720 2593D 1   1.00000     0.00000
 Structure written by MMmdl.
 54 56  0  0  0  0  0  0  0  0  3 V2000
  152.2157  143.8009  161.2616 C   0  0  0  0  0  0  0  0  0  0  0  0
  152.0727  142.9678  159.9991 C   0  0  0  0  0  0  0  0  0  0  0  0
  151.1003  143.3480  159.0468 C   0  0  0  0  0  0  0  0  0  0  0  0
  150.9914  142.5648  157.9038 C   0  0  0  0  0  0  0  0  0  0  0  0
  150.1434  142.6724  156.7997 N   0  3  0  0  0  0  0  0  0  0  0  0
  150.4079  141.6645  155.9233 C   0  0  0  0  0  0  0  0  0  0  0  0
  151.4120  140.9132  156.4517 N   0  0  0  0  0  0  0  0  0  0  0  0
  152.0742  139.7184  155.9080 C   0  0  0  0  0  0  0  0  0  0  0  0
  151.0991  138.7650  155.1864 C   0  0  2  0  0  0  0  0  0  0  0  0
  150.7638  139.2969  153.9211 O   0  0  0  0  0  0  0  0  0  0  0  0
  149.7848  138.5615  155.9659 C   0  0  0  0  0  0  0  0  0  0  0  0
  149.7307  139.1944  157.2890 N   0  0  0  0  0  0  0  0  0  0  0  0
  148.3776  139.2309  157.8437 C   0  0  0  0  0  0  0  0  0  0  0  0
  147.8671  137.8483  158.2987 C   0  0  0  0  0  0  0  0  0  0  0  0
  148.7943  137.2562  159.2972 N   0  3  0  0  0  0  0  0  0  0  0  0
  148.3067  135.9552  159.8214 C   0  0  0  0  0  0  0  0  0  0  0  0
  147.1643  136.1152  160.8392 C   0  0  0  0  0  0  0  0  0  0  0  0
  147.5401  137.0255  161.8513 O   0  0  0  0  0  0  0  0  0  0  0  0
  150.1798  137.2033  158.7588 C   0  0  0  0  0  0  0  0  0  0  0  0
  150.6254  138.6031  158.2876 C   0  0  0  0  0  0  0  0  0  0  0  0
  151.8094  141.4387  157.6875 C   0  0  0  0  0  0  0  0  0  0  0  0
  152.7734  141.0513  158.6159 C   0  0  0  0  0  0  0  0  0  0  0  0
  152.8992  141.8344  159.7856 C   0  0  0  0  0  0  0  0  0  0  0  0
  153.9416  141.4342  160.8159 C   0  0  0  0  0  0  0  0  0  0  0  0
  151.4714  144.5968  161.3007 H   0  0  0  0  0  0  0  0  0  0  0  0
  153.2021  144.2633  161.3042 H   0  0  0  0  0  0  0  0  0  0  0  0
  152.0845  143.1805  162.1484 H   0  0  0  0  0  0  0  0  0  0  0  0
  150.4681  144.2101  159.2021 H   0  0  0  0  0  0  0  0  0  0  0  0
  149.9115  141.4936  154.9789 H   0  0  0  0  0  0  0  0  0  0  0  0
  152.8356  140.0691  155.2104 H   0  0  0  0  0  0  0  0  0  0  0  0
  152.6103  139.2069  156.7077 H   0  0  0  0  0  0  0  0  0  0  0  0
  151.5872  137.8079  155.0045 H   0  0  0  0  0  0  0  0  0  0  0  0
  150.5748  138.5799  153.3353 H   0  0  0  0  0  0  0  0  0  0  0  0
  148.9729  138.9583  155.3542 H   0  0  0  0  0  0  0  0  0  0  0  0
  149.5861  137.4937  156.0542 H   0  0  0  0  0  0  0  0  0  0  0  0
  148.3624  139.9102  158.6970 H   0  0  0  0  0  0  0  0  0  0  0  0
  147.6888  139.6583  157.1139 H   0  0  0  0  0  0  0  0  0  0  0  0
  146.8774  137.9615  158.7429 H   0  0  0  0  0  0  0  0  0  0  0  0
  147.7541  137.1743  157.4485 H   0  0  0  0  0  0  0  0  0  0  0  0
  147.9470  135.3384  158.9963 H   0  0  0  0  0  0  0  0  0  0  0  0
  149.1390  135.4095  160.2686 H   0  0  0  0  0  0  0  0  0  0  0  0
  146.2798  136.5099  160.3387 H   0  0  0  0  0  0  0  0  0  0  0  0
  146.8732  135.1653  161.2865 H   0  0  0  0  0  0  0  0  0  0  0  0
  147.1705  136.7349  162.6720 H   0  0  0  0  0  0  0  0  0  0  0  0
  150.8684  136.8585  159.5291 H   0  0  0  0  0  0  0  0  0  0  0  0
  150.2378  136.4812  157.9437 H   0  0  0  0  0  0  0  0  0  0  0  0
  151.6468  138.5620  157.9120 H   0  0  0  0  0  0  0  0  0  0  0  0
  150.6657  139.2634  159.1549 H   0  0  0  0  0  0  0  0  0  0  0  0
  153.3998  140.1857  158.4584 H   0  0  0  0  0  0  0  0  0  0  0  0
  154.5305  140.5813  160.4774 H   0  0  0  0  0  0  0  0  0  0  0  0
  153.4630  141.1577  161.7557 H   0  0  0  0  0  0  0  0  0  0  0  0
  154.6303  142.2577  161.0067 H   0  0  0  0  0  0  0  0  0  0  0  0
  148.8053  137.8923  160.0821 H   0  0  0  0  0  0  0  0  0  0  0  0
  149.4361  143.3811  156.6521 H   0  0  0  0  0  0  0  0  0  0  0  0
  1  2  1  0  0  0  0
  1 25  1  0  0  0  0
  1 26  1  0  0  0  0
  1 27  1  0  0  0  0
  2 23  1  0  0  0  0
  2  3  2  0  0  0  0
  3  4  1  0  0  0  0
  3 28  1  0  0  0  0
  4 21  2  0  0  0  0
  4  5  1  0  0  0  0
  5  6  2  0  0  0  0
  5 54  1  0  0  0  0
  6  7  1  0  0  0  0
  6 29  1  0  0  0  0
  7  8  1  0  0  0  0
  7 21  1  0  0  0  0
  8  9  1  0  0  0  0
  8 30  1  0  0  0  0
  8 31  1  0  0  0  0
  9 10  1  0  0  0  0
  9 11  1  0  0  0  0
  9 32  1  0  0  0  0
 10 33  1  0  0  0  0
 11 12  1  0  0  0  0
 11 34  1  0  0  0  0
 11 35  1  0  0  0  0
 12 20  1  0  0  0  0
 12 13  1  0  0  0  0
 13 14  1  0  0  0  0
 13 36  1  0  0  0  0
 13 37  1  0  0  0  0
 14 15  1  0  0  0  0
 14 38  1  0  0  0  0
 14 39  1  0  0  0  0
 15 16  1  0  0  0  0
 15 19  1  0  0  0  0
 15 53  1  0  0  0  0
 16 17  1  0  0  0  0
 16 40  1  0  0  0  0
 16 41  1  0  0  0  0
 17 18  1  0  0  0  0
 17 42  1  0  0  0  0
 17 43  1  0  0  0  0
 18 44  1  0  0  0  0
 19 20  1  0  0  0  0
 19 45  1  0  0  0  0
 19 46  1  0  0  0  0
 20 47  1  0  0  0  0
 20 48  1  0  0  0  0
 21 22  1  0  0  0  0
 22 23  2  0  0  0  0
 22 49  1  0  0  0  0
 23 24  1  0  0  0  0
 24 50  1  0  0  0  0
 24 51  1  0  0  0  0
 24 52  1  0  0  0  0
M  CHG  1   5   1
M  CHG  1  15   1
M  END
> <s_m_source_file>
AV-unprocessed.smi

> <i_m_source_file_index>
1046

> <i_lp_mmshare_version>
43012

> <i_f3d_flags>
0

> <s_epik_input>
W0NIM11jKFtjSF0xKWMoW0NIM10pW2NIXWMoYzEyKW4oW2NIXW4yKVtDSDJdW0NASF0oW09IXSlbQ0gyXU4zW0NIMl1bQ0gyXU4oW0NIMl1bQ0gyXTMpW0NIMl1bQ0gyXVtPSF0=

> <s_epik_cmdline>
J2VwaWtfcHl0aG9uJywgJy1waCcsICc3LjAnLCAnLXRuJywgJzgnLCAnLW1hJywgJzIwMCcsICctbWV0YWxfYmluZGluZycsICctaW1hZScsICc8aW5maWxlLm1hZT4nLCAnLW9tYWUnLCAnPG91dGZpbGUubWFlPic=

> <r_epik_Ionization_Penalty>
1.37806

> <r_epik_Ionization_Penalty_Charging>
1.32954

> <r_epik_Ionization_Penalty_Neutral>
0.0485178

> <r_epik_State_Penalty>
2.26587

> <r_epik_Charging_Adjusted_Penalty>
3.59541

> <i_epik_Tot_Q>
2

> <i_epik_Tot_abs_Q>
2

> <r_epik_Metal_State_Penalty>
6.27317

> <b_epik_Metal_Only>
0

> <s_lp_Force_Field>
OPLS_2005

> <r_lp_Energy>
41.5641

> <b_lp_Chiralities_Consistent>
1

> <s_lp_Variant>
AV-unprocessed.smi:1046-11

> <Gold.Version>
5.8.1

> <Gold.Id.Protein>
6NUR|6NUR_protein|mol2

> <Gold.PLP.Fitness>
55.9493

> <Gold.PLP.PLP>
-44.3811

> <Gold.PLP.part.hbond>
-4.9194

> <Gold.PLP.part.metal>
0.0000

> <Gold.PLP.part.buried>
-5.0662

> <Gold.PLP.part.nonpolar>
-34.1145

> <Gold.PLP.part.repulsive>
0.2598

> <Gold.PLP.ligand.clash>
0.0000

> <Gold.PLP.ligand.torsion>
1.4223

> <Gold.PLP.Chemscore.Hbond>
4.6960

> <Gold.PLP.Chemscore.CHOScore>
0.0000

> <Gold.PLP.Chemscore.Metal>
0.0000

> <Gold.Chemscore.Hbonds>
donor molecule, donor type, donor heavy atom, donor atom, acceptor molecule, acceptor atom, score
      L1  H     5    54       P1  8028  1.89
      P1  H  6931  6943       L1    18  1.00
      P1  H  6934  6947       L1    18  0.39
      P1  H  7989  7998       L1    10  1.00

> <Gold.PLP.Chemscore.Internal.Correction>
0.3247

> <Gold.Rescore>
     Score         DG    S(hbond)    S(metal)    S(lipo)     H(rot)  DE(clash)    DE(int)     intcor
     16.85     -21.73       3.32        0.00     116.11       3.29       0.10       4.79       ----

> <Gold.Chemscore.Fitness>
16.8457

> <Gold.Chemscore.DG>
-21.7306

> <Gold.Chemscore.ZeroCoef>
-5.4800

> <Gold.Chemscore.Hbond>
3.3195

> <Gold.Chemscore.Metal>
0.0000

> <Gold.Chemscore.Lipo>
116.1098

> <Gold.Chemscore.Internal_Hbond>
0.0000

> <Gold.Chemscore.DEClash>
0.0981

> <Gold.Chemscore.DEInternal>
4.7868

> <Gold.Chemscore.Rot>
3.2896

> <Gold.Chemscore.Internal.Correction>
   9.000000E+99

> <Gold.Chemscore.Hbonds>
donor molecule, donor type, donor heavy atom, donor atom, acceptor molecule, acceptor atom, score
      L1  H     5    54       P1  8028  0.91
      P1  H  6931  6943       L1    18  0.92
      P1  H  6934  6947       L1    18  0.20
      P1  H  7989  7998       L1    10  0.89

> <Gold.Chemscore.Hbond.Weighted>
-11.0873

> <Gold.Chemscore.Metal.Weighted>
-0.0000

> <Gold.Chemscore.Lipo.Weighted>
-13.5848

> <Gold.Chemscore.Internal_Hbond.Weighted>
0.0000

> <Gold.Chemscore.DEClash.Weighted>
0.0981

> <Gold.Chemscore.DEInternal.Weighted>
4.7868

> <Gold.Chemscore.Rot.Weighted>
8.4215

> <Gold.Chemscore.Internal.Correction.Weighted>
   9.000000E+99

> <Gold.Protein.RotatedTorsions>
[ 6907 6896 6895 6894 ] final -110.10 input  -60.11 | X-H torsion
[ 7974 7965 7964 7962 ] final   26.91 input  175.53 | X-H torsion
[ 8008 7997 7996 7995 ] final -106.53 input   59.86 | X-H torsion
[ 10167 10162 10161 10158 ] final  178.41 input  -65.29 | X-H torsion
[ 10718 10713 10712 10709 ] final  176.58 input   66.30 | X-H torsion
[ 10763 10752 10751 10750 ] final  146.40 input  -60.55 | X-H torsion
[ 11005 11000 10999 10996 ] final -162.10 input  -57.11 | X-H torsion

> <Gold.Protein.ActiveResidues>
 VAL166  LYS551  ARG553  GLY616  TRP617  ASP618  TYR619  PRO620  LYS621  CYS622 
 ASP623  PHE694  ASN695  SER759  ASP760  ASP761  ALA762  ILE779  LEU786  VAL792 
 PHE793  MET794  SER795  GLU796  ALA797  LYS798  CYS799  TRP800  GLU811  SER814 

> <Gold.Protein.RotatedAtoms>
  150.7603  133.9432  159.3462 H   0  0  0  0  0  0  0  0  0  0  0  0  # atno 6907 bound_to 6896
  151.7342  135.0866  160.0314 H   0  0  0  0  0  0  0  0  0  0  0  0  # atno 6908 bound_to 6896
  152.3570  133.6212  159.6023 H   0  0  0  0  0  0  0  0  0  0  0  0  # atno 6909 bound_to 6896
  146.1812  139.7263  142.8899 H   0  0  0  0  0  0  0  0  0  0  0  0  # atno 7974 bound_to 7965
  154.9159  140.0408  157.1971 H   0  0  0  0  0  0  0  0  0  0  0  0  # atno 8008 bound_to 7997
  154.8302  140.2898  155.5706 H   0  0  0  0  0  0  0  0  0  0  0  0  # atno 8009 bound_to 7997
  156.2986  140.2502  156.3226 H   0  0  0  0  0  0  0  0  0  0  0  0  # atno 8010 bound_to 7997
  139.5293  144.2683  152.0649 H   0  0  0  0  0  0  0  0  0  0  0  0  # atno 10167 bound_to 10162
  156.9180  130.9931  151.3009 H   0  0  0  0  0  0  0  0  0  0  0  0  # atno 10718 bound_to 10713
  154.0212  135.2906  155.3380 H   0  0  0  0  0  0  0  0  0  0  0  0  # atno 10763 bound_to 10752
  154.7045  135.5175  153.8577 H   0  0  0  0  0  0  0  0  0  0  0  0  # atno 10764 bound_to 10752
  153.0680  135.6638  154.0434 H   0  0  0  0  0  0  0  0  0  0  0  0  # atno 10765 bound_to 10752
  140.6130  134.4830  157.5217 H   0  0  0  0  0  0  0  0  0  0  0  0  # atno 11005 bound_to 11000
  145.4070  141.0392  143.3038 LP  0  0  0  0  0  0  0  0  0  0  0  0  # atno 17320 bound_to 7965
  144.8319  139.5615  143.6940 LP  0  0  0  0  0  0  0  0  0  0  0  0  # atno 17321 bound_to 7965
  140.2144  144.4530  150.6371 LP  0  0  0  0  0  0  0  0  0  0  0  0  # atno 17342 bound_to 10162
  140.6459  143.2213  151.6186 LP  0  0  0  0  0  0  0  0  0  0  0  0  # atno 17343 bound_to 10162
  157.5926  130.8454  149.8681 LP  0  0  0  0  0  0  0  0  0  0  0  0  # atno 17370 bound_to 10713
  156.0504  130.3719  150.1214 LP  0  0  0  0  0  0  0  0  0  0  0  0  # atno 17371 bound_to 10713
  139.9184  134.8198  156.1289 LP  0  0  0  0  0  0  0  0  0  0  0  0  # atno 17394 bound_to 11000
  141.0795  133.6760  156.2306 LP  0  0  0  0  0  0  0  0  0  0  0  0  # atno 17395 bound_to 11000

$$$$
