#       Name:                AV-unprocessed.smi:128
#       Creating user name   scv26
#       Creation time:       Thu Mar 26 18:29:12 2020


#       File generated by GOLD software.
#

@<TRIPOS>MOLECULE
AV-unprocessed.smi:128
    51    54     1
SMALL
NO_CHARGES


@<TRIPOS>ATOM
      1 ****        -1.0663   3.2581   1.4535 O.2            1 S1                 0.0000
      2 ****        -1.5191   2.1139   1.5174 C.2            1 S1                 0.0000
      3 ****        -2.9473   1.8170   1.5380 C.2            1 S1                 0.0000
      4 ****        -3.8365   2.8240   1.5047 F              1 S1                 0.0000
      5 ****        -3.3935   0.5435   1.5893 C.2            1 S1                 0.0000
      6 ****        -2.5495  -0.5525   1.6236 N.am           1 S1                 0.0000
      7 ****        -3.1169  -1.9511   1.6658 C.3            1 S1                 0.0000
      8 ****        -3.5665  -2.3928   0.2666 C.3            1 S1                 0.0000
      9 ****        -5.0748  -2.2797   0.3577 C.3            1 S1                 0.0000
     10 ****        -5.3211  -2.5792   1.8309 C.3            1 S1                 0.0000
     11 ****        -4.2370  -1.9494   2.5015 O.3            1 S1                 0.0000
     12 ****        -1.1505  -0.3625   1.5947 C.2            1 S1                 0.0000
     13 ****        -0.3765  -1.3225   1.5807 O.2            1 S1                 0.0000
     14 ****        -0.6808   0.9721   1.5623 N.am           1 S1                 0.0000
     15 ****         0.7586   1.1808   1.5292 C.3            1 S1                 0.0000
     16 ****         1.3062   1.1346   0.1325 C.2            1 S1                 0.0000
     17 ****         0.6418   1.1556  -1.0268 N.2            1 S1                 0.0000
     18 ****         1.6013   1.0995  -2.0109 N.2            1 S1                 0.0000
     19 ****         2.7798   1.0522  -1.3806 C.2            1 S1                 0.0000
     20 ****         4.1201   0.9904  -1.9626 C.ar           1 S1                 0.0000
     21 ****         5.2685   0.9608  -1.1379 C.ar           1 S1                 0.0000
     22 ****         6.5549   0.9046  -1.7089 C.ar           1 S1                 0.0000
     23 ****         6.7051   0.8772  -3.1083 C.ar           1 S1                 0.0000
     24 ****         8.4433   0.8044  -3.8795 Br             1 S1                 0.0000
     25 ****         5.5672   0.9045  -3.9366 C.ar           1 S1                 0.0000
     26 ****         4.2806   0.9608  -3.3663 C.ar           1 S1                 0.0000
     27 ****         2.6528   1.0709  -0.0260 O.3            1 S1                 0.0000
     28 ****        -4.4610   0.3816   1.6003 H              1 S1                 0.0000
     29 ****        -2.3553  -2.6006   2.0987 H              1 S1                 0.0000
     30 ****        -3.1251  -1.7832  -0.5230 H              1 S1                 0.0000
     31 ****        -3.2682  -3.4313   0.1184 H              1 S1                 0.0000
     32 ****        -5.3936  -1.2645   0.1195 H              1 S1                 0.0000
     33 ****        -5.5963  -2.9660  -0.3099 H              1 S1                 0.0000
     34 ****        -6.2824  -2.2059   2.1842 H              1 S1                 0.0000
     35 ****        -5.2813  -3.6539   2.0151 H              1 S1                 0.0000
     36 ****         0.9891   2.1372   1.9998 H              1 S1                 0.0000
     37 ****         1.2275   0.4190   2.1542 H              1 S1                 0.0000
     38 ****         5.1770   0.9820  -0.0619 H              1 S1                 0.0000
     39 ****         7.4263   0.8838  -1.0712 H              1 S1                 0.0000
     40 ****         5.6802   0.8835  -5.0105 H              1 S1                 0.0000
     41 ****         3.4184   0.9818  -4.0167 H              1 S1                 0.0000
     42 ****        -0.0772   3.4040   1.4317 LP             1 S1                 0.0000
     43 ****        -1.6879   4.0409   1.4234 LP             1 S1                 0.0000
     44 ****        -4.4849  -1.0071   2.7267 LP             1 S1                 0.0000
     45 ****        -4.0279  -2.4490   3.3421 LP             1 S1                 0.0000
     46 ****        -0.7367  -2.2553   1.5898 LP             1 S1                 0.0000
     47 ****         0.6113  -1.1681   1.5602 LP             1 S1                 0.0000
     48 ****        -0.3491   1.2025  -1.1530 LP             1 S1                 0.0000
     49 ****         1.4483   1.0950  -2.9991 LP             1 S1                 0.0000
     50 ****         3.0278   0.2401   0.3852 LP             1 S1                 0.0000
     51 ****         3.1032   1.8713   0.3698 LP             1 S1                 0.0000
@<TRIPOS>BOND
    1    1    2 2     
    2    2   14 am    
    3    2    3 1     
    4    3    4 1     
    5    3    5 2     
    6    5    6 1     
    7    5   28 1     
    8    6    7 1     
    9    6   12 am    
   10    7   11 1     
   11    7    8 1     
   12    7   29 1     
   13    8    9 1     
   14    8   30 1     
   15    8   31 1     
   16    9   10 1     
   17    9   32 1     
   18    9   33 1     
   19   10   11 1     
   20   10   34 1     
   21   10   35 1     
   22   12   13 2     
   23   12   14 am    
   24   14   15 1     
   25   15   16 1     
   26   15   36 1     
   27   15   37 1     
   28   16   27 1     
   29   16   17 2     
   30   17   18 1     
   31   18   19 2     
   32   19   20 1     
   33   19   27 1     
   34   20   26 ar    
   35   20   21 ar    
   36   21   22 ar    
   37   21   38 1     
   38   22   23 ar    
   39   22   39 1     
   40   23   24 1     
   41   23   25 ar    
   42   25   26 ar    
   43   25   40 1     
   44   26   41 1     
   45    1   42 1     
   46    1   43 1     
   47   11   44 1     
   48   11   45 1     
   49   13   46 1     
   50   13   47 1     
   51   17   48 1     
   52   18   49 1     
   53   27   50 1     
   54   27   51 1     
@<TRIPOS>SUBSTRUCTURE
      1 S1             1
@<TRIPOS>SET
LONE_PAIRS      STATIC     ATOMS    <user>   **** ""
10 42 43 44 45 46 47 48 49 50 51
ATOM$BLUE        STATIC     ATOMS    COLORGROUP SYSTEM
10 42 43 44 45 46 47 48 49 50 51
