#       Name:                AV-unprocessed.smi:3004
#       Creating user name   scv26
#       Creation time:       Fri Mar 27 16:37:03 2020


#       File generated by GOLD software.
#

@<TRIPOS>MOLECULE
AV-unprocessed.smi:3004
    50    51     1
SMALL
NO_CHARGES


@<TRIPOS>ATOM
      1 ****        -5.5798   0.7226  -0.6362 C.3            1 S1                 0.0000
      2 ****        -4.5100  -0.0267  -1.3741 C.2            1 S1                 0.0000
      3 ****        -3.9098   0.2944  -2.6237 C.2            1 S1                 0.0000
      4 ****        -3.0093  -0.7114  -2.8346 C.2            1 S1                 0.0000
      5 ****        -2.0696  -0.9402  -3.9726 C.3            1 S1                 0.0000
      6 ****        -3.0980  -1.5635  -1.7478 N.pl3          1 S1                 0.0000
      7 ****        -2.3543  -2.7844  -1.4740 C.3            1 S1                 0.0000
      8 ****        -0.9580  -2.4814  -0.9264 C.2            1 S1                 0.0000
      9 ****         0.0397  -2.8331  -1.5556 O.2            1 S1                 0.0000
     10 ****        -0.8973  -1.8273   0.2443 N.am           1 S1                 0.0000
     11 ****         0.3322  -1.4267   0.9161 C.3            1 S1                 0.0000
     12 ****         0.9370  -0.1620   0.2741 C.3            1 S1                 0.0000
     13 ****         2.2348   0.2445   0.8783 N.4            1 S1                 1.0000
     14 ****         2.9426   1.2572   0.0484 C.3            1 S1                 0.0000
     15 ****         4.3714   1.5024   0.5587 C.3            1 S1                 0.0000
     16 ****         4.3660   1.9149   2.0345 C.3            1 S1                 0.0000
     17 ****         3.6151   0.8655   2.8656 C.3            1 S1                 0.0000
     18 ****         2.1902   0.6064   2.3306 C.3            1 S1                 0.0000
     19 ****         1.2279   1.7710   2.6494 C.3            1 S1                 0.0000
     20 ****        -4.0175  -1.1385  -0.8536 N.2            1 S1                 0.0000
     21 ****        -5.7994   1.6748  -1.1198 H              1 S1                 0.0000
     22 ****        -5.2772   0.9343   0.3894 H              1 S1                 0.0000
     23 ****        -6.5057   0.1482  -0.5998 H              1 S1                 0.0000
     24 ****        -4.1124   1.1361  -3.2696 H              1 S1                 0.0000
     25 ****        -2.1619  -0.1505  -4.7184 H              1 S1                 0.0000
     26 ****        -2.2775  -1.8909  -4.4637 H              1 S1                 0.0000
     27 ****        -1.0359  -0.9543  -3.6271 H              1 S1                 0.0000
     28 ****        -2.9044  -3.3956  -0.7566 H              1 S1                 0.0000
     29 ****        -2.2798  -3.3656  -2.3939 H              1 S1                 0.0000
     30 ****        -1.7685  -1.5786   0.6914 H              1 S1                 0.0000
     31 ****         0.0744  -1.2481   1.9593 H              1 S1                 0.0000
     32 ****         1.0509  -2.2480   0.9035 H              1 S1                 0.0000
     33 ****         1.1099  -0.3657  -0.7835 H              1 S1                 0.0000
     34 ****         0.2260   0.6638   0.3038 H              1 S1                 0.0000
     35 ****         2.9960   0.9114  -0.9846 H              1 S1                 0.0000
     36 ****         2.3783   2.1902   0.0321 H              1 S1                 0.0000
     37 ****         4.9650   0.5956   0.4342 H              1 S1                 0.0000
     38 ****         4.8551   2.2733  -0.0420 H              1 S1                 0.0000
     39 ****         5.3886   2.0198   2.3983 H              1 S1                 0.0000
     40 ****         3.8957   2.8923   2.1470 H              1 S1                 0.0000
     41 ****         4.1788  -0.0687   2.8476 H              1 S1                 0.0000
     42 ****         3.5784   1.1738   3.9111 H              1 S1                 0.0000
     43 ****         1.8274  -0.2624   2.8785 H              1 S1                 0.0000
     44 ****         1.2503   2.0066   3.7138 H              1 S1                 0.0000
     45 ****         0.1951   1.5219   2.4074 H              1 S1                 0.0000
     46 ****         1.4863   2.6825   2.1111 H              1 S1                 0.0000
     47 ****         2.8154  -0.5806   0.8289 H              1 S1                 0.0000
     48 ****        -0.0622  -3.3169  -2.4248 LP             1 S1                 0.0000
     49 ****         0.9521  -2.6350  -1.1976 LP             1 S1                 0.0000
     50 ****        -4.2704  -1.5701   0.0123 LP             1 S1                 0.0000
@<TRIPOS>BOND
    1    1    2 1     
    2    1   21 1     
    3    1   22 1     
    4    1   23 1     
    5    2   20 2     
    6    2    3 1     
    7    3    4 2     
    8    3   24 1     
    9    4    5 1     
   10    4    6 1     
   11    5   25 1     
   12    5   26 1     
   13    5   27 1     
   14    6    7 1     
   15    6   20 1     
   16    7    8 1     
   17    7   28 1     
   18    7   29 1     
   19    8    9 2     
   20    8   10 am    
   21   10   11 1     
   22   10   30 1     
   23   11   12 1     
   24   11   31 1     
   25   11   32 1     
   26   12   13 1     
   27   12   33 1     
   28   12   34 1     
   29   13   18 1     
   30   13   14 1     
   31   13   47 1     
   32   14   15 1     
   33   14   35 1     
   34   14   36 1     
   35   15   16 1     
   36   15   37 1     
   37   15   38 1     
   38   16   17 1     
   39   16   39 1     
   40   16   40 1     
   41   17   18 1     
   42   17   41 1     
   43   17   42 1     
   44   18   19 1     
   45   18   43 1     
   46   19   44 1     
   47   19   45 1     
   48   19   46 1     
   49    9   48 1     
   50    9   49 1     
   51   20   50 1     
@<TRIPOS>SUBSTRUCTURE
      1 S1             1
@<TRIPOS>SET
LONE_PAIRS      STATIC     ATOMS    <user>   **** ""
3 48 49 50
DONOR_HYDROGENS      STATIC     ATOMS    <user>   **** ""
2 30 47
ATOM$BLUE        STATIC     ATOMS    COLORGROUP SYSTEM
3 48 49 50
ATOM$RED        STATIC     ATOMS    COLORGROUP SYSTEM
2 30 47
