AV-unprocessed.smi:3113|AV-procd|sdf|11854|dock1
  -GOLD-   2272017233D 1   1.00000     0.00000
 Structure written by MMmdl.
 34 35  0  0  0  0  0  0  0  0  1 V2000
  147.4935  140.9789  153.4385 C   0  0  0  0  0  0  0  0  0  0  0  0
  147.8508  139.6757  153.8843 C   0  0  0  0  0  0  0  0  0  0  0  0
  148.8975  139.6825  154.6939 N   0  0  0  0  0  0  0  0  0  0  0  0
  149.2424  140.9849  154.7903 N   0  0  0  0  0  0  0  0  0  0  0  0
  150.3745  141.3715  155.6095 C   0  0  0  0  0  0  0  0  0  0  0  0
  151.1188  140.1451  156.1554 C   0  0  0  0  0  0  0  0  0  0  0  0
  151.9331  140.4973  157.3131 N   0  0  0  0  0  0  0  0  0  0  0  0
  151.2526  141.3912  158.2444 C   0  0  0  0  0  0  0  0  0  0  0  0
  152.2471  142.0368  159.2200 C   0  0  2  0  0  0  0  0  0  0  0  0
  152.8861  140.9905  160.1536 C   0  0  0  0  0  0  0  0  0  0  0  0
  153.8045  141.6690  161.1764 C   0  0  0  0  0  0  0  0  0  0  0  0
  153.0348  142.7730  161.9091 C   0  0  0  0  0  0  0  0  0  0  0  0
  152.3748  143.7246  160.8987 C   0  0  0  0  0  0  0  0  0  0  0  0
  151.5375  142.9870  160.0132 O   0  0  0  0  0  0  0  0  0  0  0  0
  148.4099  141.7911  154.0432 C   0  0  0  0  0  0  0  0  0  0  0  0
  146.6902  141.2709  152.7784 H   0  0  0  0  0  0  0  0  0  0  0  0
  147.3840  138.7316  153.6449 H   0  0  0  0  0  0  0  0  0  0  0  0
  151.0444  141.9859  155.0066 H   0  0  0  0  0  0  0  0  0  0  0  0
  150.0158  141.9998  156.4263 H   0  0  0  0  0  0  0  0  0  0  0  0
  150.3977  139.3740  156.4300 H   0  0  0  0  0  0  0  0  0  0  0  0
  151.7492  139.7208  155.3729 H   0  0  0  0  0  0  0  0  0  0  0  0
  152.7994  140.9273  157.0045 H   0  0  0  0  0  0  0  0  0  0  0  0
  150.7077  142.1667  157.7045 H   0  0  0  0  0  0  0  0  0  0  0  0
  150.5108  140.8233  158.8072 H   0  0  0  0  0  0  0  0  0  0  0  0
  153.0335  142.5413  158.6549 H   0  0  0  0  0  0  0  0  0  0  0  0
  152.1048  140.4363  160.6756 H   0  0  0  0  0  0  0  0  0  0  0  0
  153.4524  140.2610  159.5735 H   0  0  0  0  0  0  0  0  0  0  0  0
  154.1909  140.9374  161.8862 H   0  0  0  0  0  0  0  0  0  0  0  0
  154.6676  142.0986  160.6663 H   0  0  0  0  0  0  0  0  0  0  0  0
  152.2675  142.3263  162.5425 H   0  0  0  0  0  0  0  0  0  0  0  0
  153.7039  143.3257  162.5690 H   0  0  0  0  0  0  0  0  0  0  0  0
  151.7687  144.4644  161.4217 H   0  0  0  0  0  0  0  0  0  0  0  0
  153.1274  144.2738  160.3312 H   0  0  0  0  0  0  0  0  0  0  0  0
  148.5385  142.8628  154.0031 H   0  0  0  0  0  0  0  0  0  0  0  0
  1 15  2  0  0  0  0
  1  2  1  0  0  0  0
  1 16  1  0  0  0  0
  2  3  2  0  0  0  0
  2 17  1  0  0  0  0
  3  4  1  0  0  0  0
  4  5  1  0  0  0  0
  4 15  1  0  0  0  0
  5  6  1  0  0  0  0
  5 18  1  0  0  0  0
  5 19  1  0  0  0  0
  6  7  1  0  0  0  0
  6 20  1  0  0  0  0
  6 21  1  0  0  0  0
  7  8  1  0  0  0  0
  7 22  1  0  0  0  0
  8  9  1  0  0  0  0
  8 23  1  0  0  0  0
  8 24  1  0  0  0  0
  9 14  1  0  0  0  0
  9 10  1  0  0  0  0
  9 25  1  0  0  0  0
 10 11  1  0  0  0  0
 10 26  1  0  0  0  0
 10 27  1  0  0  0  0
 11 12  1  0  0  0  0
 11 28  1  0  0  0  0
 11 29  1  0  0  0  0
 12 13  1  0  0  0  0
 12 30  1  0  0  0  0
 12 31  1  0  0  0  0
 13 14  1  0  0  0  0
 13 32  1  0  0  0  0
 13 33  1  0  0  0  0
 15 34  1  0  0  0  0
M  END
> <s_m_source_file>
AV-unprocessed.smi

> <i_m_source_file_index>
3113

> <i_lp_mmshare_version>
43012

> <i_f3d_flags>
0

> <s_epik_input>
W2NIXTFbY0hdW2NIXW5uMVtDSDJdW0NIMl1bTkhdW0NIMl1bQ0BASF0yW0NIMl1bQ0gyXVtDSDJdW0NIMl1PMg==

> <s_epik_cmdline>
J2VwaWtfcHl0aG9uJywgJy1waCcsICc3LjAnLCAnLXRuJywgJzgnLCAnLW1hJywgJzIwMCcsICctbWV0YWxfYmluZGluZycsICctaW1hZScsICc8aW5maWxlLm1hZT4nLCAnLW9tYWUnLCAnPG91dGZpbGUubWFlPic=

> <r_lp_tautomer_probability>
1

> <r_epik_Ionization_Penalty>
2.521

> <r_epik_Ionization_Penalty_Charging>
0

> <r_epik_Ionization_Penalty_Neutral>
2.521

> <r_epik_State_Penalty>
2.68614

> <r_epik_Charging_Adjusted_Penalty>
2.68614

> <i_epik_Tot_Q>
0

> <i_epik_Tot_abs_Q>
0

> <r_epik_Metal_State_Penalty>
2.68493

> <b_epik_Metal_Only>
0

> <s_lp_Force_Field>
OPLS_2005

> <r_lp_Energy>
11.6104

> <b_lp_Chiralities_Consistent>
1

> <s_lp_Variant>
AV-unprocessed.smi:3113-3

> <Gold.Version>
5.8.1

> <Gold.Id.Protein>
6NUR|6NUR_protein|mol2

> <Gold.PLP.Fitness>
39.2711

> <Gold.PLP.PLP>
-36.7989

> <Gold.PLP.part.hbond>
-1.0581

> <Gold.PLP.part.metal>
0.0000

> <Gold.PLP.part.buried>
-1.8629

> <Gold.PLP.part.nonpolar>
-32.1406

> <Gold.PLP.part.repulsive>
0.1370

> <Gold.PLP.ligand.clash>
0.0000

> <Gold.PLP.ligand.torsion>
0.2762

> <Gold.PLP.Chemscore.Hbond>
0.0000

> <Gold.PLP.Chemscore.CHOScore>
1.0000

> <Gold.PLP.Chemscore.Metal>
0.0000

> <Gold.Chemscore.Hbonds>
donor molecule, donor type, donor heavy atom, donor atom, acceptor molecule, acceptor atom, score
      L1  C    15    34       P1  8028  1.00

> <Gold.PLP.Chemscore.Internal.Correction>
0.0246

> <Gold.Rescore>
     Score         DG    S(hbond)    S(metal)    S(lipo)     H(rot)  DE(clash)    DE(int)     intcor
     12.24     -12.63       0.00        0.00      96.60       1.62       0.16       0.23       ----

> <Gold.Chemscore.Fitness>
12.2372

> <Gold.Chemscore.DG>
-12.6320

> <Gold.Chemscore.ZeroCoef>
-5.4800

> <Gold.Chemscore.Hbond>
0.0000

> <Gold.Chemscore.Metal>
0.0000

> <Gold.Chemscore.Lipo>
96.6026

> <Gold.Chemscore.Internal_Hbond>
0.0000

> <Gold.Chemscore.DEClash>
0.1628

> <Gold.Chemscore.DEInternal>
0.2319

> <Gold.Chemscore.Rot>
1.6213

> <Gold.Chemscore.Internal.Correction>
   9.000000E+99

> <Gold.Chemscore.Hbond.Weighted>
-0.0000

> <Gold.Chemscore.Metal.Weighted>
-0.0000

> <Gold.Chemscore.Lipo.Weighted>
-11.3025

> <Gold.Chemscore.Internal_Hbond.Weighted>
0.0000

> <Gold.Chemscore.DEClash.Weighted>
0.1628

> <Gold.Chemscore.DEInternal.Weighted>
0.2319

> <Gold.Chemscore.Rot.Weighted>
4.1505

> <Gold.Chemscore.Internal.Correction.Weighted>
   9.000000E+99

> <Gold.Protein.RotatedTorsions>
[ 6907 6896 6895 6894 ] final -109.43 input  -60.11 | X-H torsion
[ 7974 7965 7964 7962 ] final -106.90 input  175.53 | X-H torsion
[ 8008 7997 7996 7995 ] final  -71.37 input   59.86 | X-H torsion
[ 10167 10162 10161 10158 ] final  178.10 input  -65.29 | X-H torsion
[ 10718 10713 10712 10709 ] final  -37.62 input   66.30 | X-H torsion
[ 10763 10752 10751 10750 ] final  -52.55 input  -60.55 | X-H torsion
[ 11005 11000 10999 10996 ] final  -18.73 input  -57.11 | X-H torsion

> <Gold.Protein.ActiveResidues>
 VAL166  LYS551  ARG553  GLY616  TRP617  ASP618  TYR619  PRO620  LYS621  CYS622 
 ASP623  PHE694  ASN695  SER759  ASP760  ASP761  ALA762  ILE779  LEU786  VAL792 
 PHE793  MET794  SER795  GLU796  ALA797  LYS798  CYS799  TRP800  GLU811  SER814 

> <Gold.Protein.RotatedAtoms>
  150.7562  133.9530  159.3491 H   0  0  0  0  0  0  0  0  0  0  0  0  # atno 6907 bound_to 6896
  151.7449  135.0844  160.0331 H   0  0  0  0  0  0  0  0  0  0  0  0  # atno 6908 bound_to 6896
  152.3504  133.6136  159.5977 H   0  0  0  0  0  0  0  0  0  0  0  0  # atno 6909 bound_to 6896
  145.2120  140.9100  143.3309 H   0  0  0  0  0  0  0  0  0  0  0  0  # atno 7974 bound_to 7965
  154.5083  140.0817  156.7938 H   0  0  0  0  0  0  0  0  0  0  0  0  # atno 8008 bound_to 7997
  155.3843  140.3429  155.4230 H   0  0  0  0  0  0  0  0  0  0  0  0  # atno 8009 bound_to 7997
  156.1542  140.1568  156.8707 H   0  0  0  0  0  0  0  0  0  0  0  0  # atno 8010 bound_to 7997
  139.5280  144.2720  152.0620 H   0  0  0  0  0  0  0  0  0  0  0  0  # atno 10167 bound_to 10162
  156.3131  130.4255  149.8031 H   0  0  0  0  0  0  0  0  0  0  0  0  # atno 10718 bound_to 10713
  154.1445  135.6500  153.4949 H   0  0  0  0  0  0  0  0  0  0  0  0  # atno 10763 bound_to 10752
  153.0156  135.5323  154.6871 H   0  0  0  0  0  0  0  0  0  0  0  0  # atno 10764 bound_to 10752
  154.6142  135.2957  155.0370 H   0  0  0  0  0  0  0  0  0  0  0  0  # atno 10765 bound_to 10752
  140.8297  133.8006  155.9745 H   0  0  0  0  0  0  0  0  0  0  0  0  # atno 11005 bound_to 11000
  144.9846  139.3749  143.6245 LP  0  0  0  0  0  0  0  0  0  0  0  0  # atno 17320 bound_to 7965
  146.3395  139.9002  142.8795 LP  0  0  0  0  0  0  0  0  0  0  0  0  # atno 17321 bound_to 7965
  140.2179  144.4496  150.6355 LP  0  0  0  0  0  0  0  0  0  0  0  0  # atno 17342 bound_to 10162
  140.6438  143.2209  151.6232 LP  0  0  0  0  0  0  0  0  0  0  0  0  # atno 17343 bound_to 10162
  156.5367  130.8282  151.3255 LP  0  0  0  0  0  0  0  0  0  0  0  0  # atno 17370 bound_to 10713
  157.7395  130.9833  150.2320 LP  0  0  0  0  0  0  0  0  0  0  0  0  # atno 17371 bound_to 10713
  140.9011  134.2377  157.5041 LP  0  0  0  0  0  0  0  0  0  0  0  0  # atno 17394 bound_to 11000
  139.8705  134.9707  156.4711 LP  0  0  0  0  0  0  0  0  0  0  0  0  # atno 17395 bound_to 11000

$$$$
