AV-unprocessed.smi:1102|AV-procd|sdf|4770|dock7
  -GOLD-   22720 3313D 1   1.00000     0.00000
 Structure written by MMmdl.
 39 40  0  0  0  0  0  0  0  0  1 V2000
  150.7772  145.3383  160.0984 C   0  0  0  0  0  0  0  0  0  0  0  0
  151.6346  144.5022  159.2673 N   0  0  0  0  0  0  0  0  0  0  0  0
  151.6701  144.7080  157.8230 C   0  0  0  0  0  0  0  0  0  0  0  0
  152.3664  143.4392  159.8446 C   0  0  0  0  0  0  0  0  0  0  0  0
  152.4001  143.2405  161.2472 C   0  0  0  0  0  0  0  0  0  0  0  0
  153.1418  142.1663  161.7755 C   0  0  0  0  0  0  0  0  0  0  0  0
  153.8299  141.3061  160.8896 C   0  0  0  0  0  0  0  0  0  0  0  0
  154.6255  140.2017  161.2981 N   0  0  0  0  0  0  0  0  0  0  0  0
  155.4335  139.4296  160.5516 C   0  0  0  0  0  0  0  0  0  0  0  0
  155.6459  139.5739  159.3477 O   0  0  0  0  0  0  0  0  0  0  0  0
  156.0084  138.4725  161.2930 N   0  0  0  0  0  0  0  0  0  0  0  0
  156.9388  137.4686  160.7893 C   0  0  0  0  0  0  0  0  0  0  0  0
  158.3330  137.6220  161.4196 C   0  0  1  0  0  0  0  0  0  0  0  0
  159.3880  136.6923  160.8231 C   0  0  0  0  0  0  0  0  0  0  0  0
  160.6956  137.4314  161.0655 C   0  0  0  0  0  0  0  0  0  0  0  0
  160.2606  138.8493  161.4477 C   0  0  0  0  0  0  0  0  0  0  0  0
  158.8739  138.9048  161.1457 O   0  0  0  0  0  0  0  0  0  0  0  0
  153.7512  141.5914  159.5129 C   0  0  0  0  0  0  0  0  0  0  0  0
  153.0411  142.6186  159.0026 N   0  0  0  0  0  0  0  0  0  0  0  0
  151.3689  145.8764  160.8394 H   0  0  0  0  0  0  0  0  0  0  0  0
  150.0344  144.7311  160.6168 H   0  0  0  0  0  0  0  0  0  0  0  0
  150.2428  146.0768  159.5006 H   0  0  0  0  0  0  0  0  0  0  0  0
  152.6944  144.8612  157.4817 H   0  0  0  0  0  0  0  0  0  0  0  0
  151.0892  145.5827  157.5309 H   0  0  0  0  0  0  0  0  0  0  0  0
  151.2573  143.8428  157.3034 H   0  0  0  0  0  0  0  0  0  0  0  0
  151.8771  143.8924  161.9303 H   0  0  0  0  0  0  0  0  0  0  0  0
  153.1774  142.0362  162.8455 H   0  0  0  0  0  0  0  0  0  0  0  0
  154.6180  140.0071  162.2886 H   0  0  0  0  0  0  0  0  0  0  0  0
  155.7786  138.4262  162.2749 H   0  0  0  0  0  0  0  0  0  0  0  0
  156.5444  136.4698  160.9835 H   0  0  0  0  0  0  0  0  0  0  0  0
  157.0023  137.5711  159.7058 H   0  0  0  0  0  0  0  0  0  0  0  0
  158.2881  137.4768  162.5008 H   0  0  0  0  0  0  0  0  0  0  0  0
  159.3715  135.6987  161.2717 H   0  0  0  0  0  0  0  0  0  0  0  0
  159.2289  136.5786  159.7498 H   0  0  0  0  0  0  0  0  0  0  0  0
  161.2724  136.9748  161.8705 H   0  0  0  0  0  0  0  0  0  0  0  0
  161.3132  137.4288  160.1669 H   0  0  0  0  0  0  0  0  0  0  0  0
  160.4007  139.0183  162.5164 H   0  0  0  0  0  0  0  0  0  0  0  0
  160.8124  139.6181  160.9065 H   0  0  0  0  0  0  0  0  0  0  0  0
  154.2702  140.9742  158.7940 H   0  0  0  0  0  0  0  0  0  0  0  0
  1  2  1  0  0  0  0
  1 20  1  0  0  0  0
  1 21  1  0  0  0  0
  1 22  1  0  0  0  0
  2  3  1  0  0  0  0
  2  4  1  0  0  0  0
  3 23  1  0  0  0  0
  3 24  1  0  0  0  0
  3 25  1  0  0  0  0
  4 19  1  0  0  0  0
  4  5  2  0  0  0  0
  5  6  1  0  0  0  0
  5 26  1  0  0  0  0
  6  7  2  0  0  0  0
  6 27  1  0  0  0  0
  7  8  1  0  0  0  0
  7 18  1  0  0  0  0
  8  9  1  0  0  0  0
  8 28  1  0  0  0  0
  9 10  2  0  0  0  0
  9 11  1  0  0  0  0
 11 12  1  0  0  0  0
 11 29  1  0  0  0  0
 12 13  1  0  0  0  0
 12 30  1  0  0  0  0
 12 31  1  0  0  0  0
 13 17  1  0  0  0  0
 13 14  1  0  0  0  0
 13 32  1  0  0  0  0
 14 15  1  0  0  0  0
 14 33  1  0  0  0  0
 14 34  1  0  0  0  0
 15 16  1  0  0  0  0
 15 35  1  0  0  0  0
 15 36  1  0  0  0  0
 16 17  1  0  0  0  0
 16 37  1  0  0  0  0
 16 38  1  0  0  0  0
 18 19  2  0  0  0  0
 18 39  1  0  0  0  0
M  END
> <s_m_source_file>
AV-unprocessed.smi

> <i_m_source_file_index>
1102

> <i_lp_mmshare_version>
43012

> <i_f3d_flags>
0

> <s_epik_input>
W0NIM11OKFtDSDNdKWMxW2NIXVtjSF1jKFtjSF1uMSlbTkhdQyg9TylbTkhdW0NIMl1bQ0BASF0yW0NIMl1bQ0gyXVtDSDJdTzI=

> <s_epik_cmdline>
J2VwaWtfcHl0aG9uJywgJy1waCcsICc3LjAnLCAnLXRuJywgJzgnLCAnLW1hJywgJzIwMCcsICctbWV0YWxfYmluZGluZycsICctaW1hZScsICc8aW5maWxlLm1hZT4nLCAnLW9tYWUnLCAnPG91dGZpbGUubWFlPic=

> <r_lp_tautomer_probability>
1

> <r_epik_Ionization_Penalty>
0.605145

> <r_epik_Ionization_Penalty_Charging>
0

> <r_epik_Ionization_Penalty_Neutral>
0.605145

> <r_epik_State_Penalty>
0.618734

> <r_epik_Charging_Adjusted_Penalty>
0.618734

> <i_epik_Tot_Q>
0

> <i_epik_Tot_abs_Q>
0

> <r_epik_Metal_State_Penalty>
0.302184

> <b_epik_Metal_Only>
0

> <s_lp_Force_Field>
OPLS_2005

> <r_lp_Energy>
20.895

> <b_lp_Chiralities_Consistent>
1

> <s_lp_Variant>
AV-unprocessed.smi:1102-4

> <Gold.Version>
5.8.1

> <Gold.Id.Protein>
6NUR|6NUR_protein|mol2

> <Gold.PLP.Fitness>
38.0297

> <Gold.PLP.PLP>
-35.1003

> <Gold.PLP.part.hbond>
-1.0000

> <Gold.PLP.part.metal>
0.0000

> <Gold.PLP.part.buried>
-5.2187

> <Gold.PLP.part.nonpolar>
-28.5399

> <Gold.PLP.part.repulsive>
0.0952

> <Gold.PLP.ligand.clash>
0.0000

> <Gold.PLP.ligand.torsion>
0.0416

> <Gold.PLP.Chemscore.Hbond>
1.0000

> <Gold.PLP.Chemscore.CHOScore>
0.0000

> <Gold.PLP.Chemscore.Metal>
0.0000

> <Gold.Chemscore.Hbonds>
donor molecule, donor type, donor heavy atom, donor atom, acceptor molecule, acceptor atom, score
      P1  H  7997  8010       L1    10  0.96

> <Gold.PLP.Chemscore.Internal.Correction>
0.0126

> <Gold.Rescore>
     Score         DG    S(hbond)    S(metal)    S(lipo)     H(rot)  DE(clash)    DE(int)     intcor
     12.71     -14.21       0.99        0.00      72.81       1.21       0.05       1.44       ----

> <Gold.Chemscore.Fitness>
12.7098

> <Gold.Chemscore.DG>
-14.2063

> <Gold.Chemscore.ZeroCoef>
-5.4800

> <Gold.Chemscore.Hbond>
0.9930

> <Gold.Chemscore.Metal>
0.0000

> <Gold.Chemscore.Lipo>
72.8108

> <Gold.Chemscore.Internal_Hbond>
0.0000

> <Gold.Chemscore.DEClash>
0.0542

> <Gold.Chemscore.DEInternal>
1.4422

> <Gold.Chemscore.Rot>
1.2146

> <Gold.Chemscore.Internal.Correction>
   9.000000E+99

> <Gold.Chemscore.Hbonds>
donor molecule, donor type, donor heavy atom, donor atom, acceptor molecule, acceptor atom, score
      P1  H  7997  8010       L1    10  0.91

> <Gold.Chemscore.Hbond.Weighted>
-3.3167

> <Gold.Chemscore.Metal.Weighted>
-0.0000

> <Gold.Chemscore.Lipo.Weighted>
-8.5189

> <Gold.Chemscore.Internal_Hbond.Weighted>
0.0000

> <Gold.Chemscore.DEClash.Weighted>
0.0542

> <Gold.Chemscore.DEInternal.Weighted>
1.4422

> <Gold.Chemscore.Rot.Weighted>
3.1093

> <Gold.Chemscore.Internal.Correction.Weighted>
   9.000000E+99

> <Gold.Protein.RotatedTorsions>
[ 6907 6896 6895 6894 ] final  -38.60 input  -60.11 | X-H torsion
[ 7974 7965 7964 7962 ] final   64.62 input  175.53 | X-H torsion
[ 8008 7997 7996 7995 ] final  -23.38 input   59.86 | X-H torsion
[ 10167 10162 10161 10158 ] final -103.87 input  -65.29 | X-H torsion
[ 10718 10713 10712 10709 ] final   38.74 input   66.30 | X-H torsion
[ 10763 10752 10751 10750 ] final   47.63 input  -60.55 | X-H torsion
[ 11005 11000 10999 10996 ] final   65.49 input  -57.11 | X-H torsion

> <Gold.Protein.ActiveResidues>
 VAL166  LYS551  ARG553  GLY616  TRP617  ASP618  TYR619  PRO620  LYS621  CYS622 
 ASP623  PHE694  ASN695  SER759  ASP760  ASP761  ALA762  ILE779  LEU786  VAL792 
 PHE793  MET794  SER795  GLU796  ALA797  LYS798  CYS799  TRP800  GLU811  SER814 

> <Gold.Protein.RotatedAtoms>
  151.0005  134.9318  159.7950 H   0  0  0  0  0  0  0  0  0  0  0  0  # atno 6907 bound_to 6896
  152.5276  134.3161  159.9141 H   0  0  0  0  0  0  0  0  0  0  0  0  # atno 6908 bound_to 6896
  151.3167  133.4016  159.2685 H   0  0  0  0  0  0  0  0  0  0  0  0  # atno 6909 bound_to 6896
  145.8480  139.3236  143.0892 H   0  0  0  0  0  0  0  0  0  0  0  0  # atno 7974 bound_to 7965
  154.4589  140.1982  156.0302 H   0  0  0  0  0  0  0  0  0  0  0  0  # atno 8008 bound_to 7997
  156.0800  140.3273  155.7654 H   0  0  0  0  0  0  0  0  0  0  0  0  # atno 8009 bound_to 7997
  155.5126  140.0563  157.2911 H   0  0  0  0  0  0  0  0  0  0  0  0  # atno 8010 bound_to 7997
  140.2153  143.3716  152.1016 H   0  0  0  0  0  0  0  0  0  0  0  0  # atno 10167 bound_to 10162
  157.3624  130.7656  149.7057 H   0  0  0  0  0  0  0  0  0  0  0  0  # atno 10718 bound_to 10713
  152.9798  135.5970  154.3794 H   0  0  0  0  0  0  0  0  0  0  0  0  # atno 10763 bound_to 10752
  154.3460  135.2767  155.2399 H   0  0  0  0  0  0  0  0  0  0  0  0  # atno 10764 bound_to 10752
  154.4460  135.6001  153.6215 H   0  0  0  0  0  0  0  0  0  0  0  0  # atno 10765 bound_to 10752
  139.9891  134.6620  156.0122 H   0  0  0  0  0  0  0  0  0  0  0  0  # atno 11005 bound_to 11000
  145.9389  140.8994  143.0318 LP  0  0  0  0  0  0  0  0  0  0  0  0  # atno 17320 bound_to 7965
  144.6730  140.1522  143.7429 LP  0  0  0  0  0  0  0  0  0  0  0  0  # atno 17321 bound_to 7965
  139.5164  144.6977  151.5583 LP  0  0  0  0  0  0  0  0  0  0  0  0  # atno 17342 bound_to 10162
  140.6294  143.9106  150.6592 LP  0  0  0  0  0  0  0  0  0  0  0  0  # atno 17343 bound_to 10162
  155.9740  130.4110  150.3959 LP  0  0  0  0  0  0  0  0  0  0  0  0  # atno 17370 bound_to 10713
  157.2038  131.0444  151.2636 LP  0  0  0  0  0  0  0  0  0  0  0  0  # atno 17371 bound_to 10713
  141.1551  133.6544  156.4135 LP  0  0  0  0  0  0  0  0  0  0  0  0  # atno 17394 bound_to 11000
  140.4943  134.6546  157.5223 LP  0  0  0  0  0  0  0  0  0  0  0  0  # atno 17395 bound_to 11000

$$$$
