#       Name:                AV-unprocessed.smi:2761
#       Creating user name   scv26
#       Creation time:       Fri Mar 27 15:08:24 2020


#       File generated by GOLD software.
#

@<TRIPOS>MOLECULE
AV-unprocessed.smi:2761
    36    37     1
SMALL
NO_CHARGES


@<TRIPOS>ATOM
      1 ****        -0.6180   1.7800  -0.9487 O.2            1 S1                 0.0000
      2 ****        -0.0418   0.7535  -0.5816 C.2            1 S1                 0.0000
      3 ****        -0.6521  -0.4166  -0.2926 N.am           1 S1                 0.0000
      4 ****        -2.0192  -0.7134  -0.3222 C.2            1 S1                 0.0000
      5 ****        -2.2709  -2.0926   0.0205 C.2            1 S1                 0.0000
      6 ****        -3.5547  -2.5120   0.0309 C.2            1 S1                 0.0000
      7 ****        -4.6500  -1.5979  -0.2912 C.2            1 S1                 0.0000
      8 ****        -5.8387  -1.9080  -0.3000 O.2            1 S1                 0.0000
      9 ****        -4.2302  -0.3396  -0.5883 N.am           1 S1                 0.0000
     10 ****        -2.9345   0.1623  -0.6211 N.2            1 S1                 0.0000
     11 ****         1.4883   0.7412  -0.4470 C.3            1 S1                 0.0000
     12 ****         2.1074   2.1580  -0.4040 C.3            1 S1                 0.0000
     13 ****         3.5152   2.0505  -0.2372 O.3            1 S1                 0.0000
     14 ****         3.8431   1.3730   0.9676 C.3            1 S1                 0.0000
     15 ****         3.2414  -0.0407   0.9234 C.3            1 S1                 0.0000
     16 ****         1.8334   0.0603   0.7573 O.3            1 S1                 0.0000
     17 ****        -0.0321  -1.1644  -0.0172 H              1 S1                 0.0000
     18 ****        -1.4872  -2.7953   0.2648 H              1 S1                 0.0000
     19 ****        -3.7790  -3.5385   0.2814 H              1 S1                 0.0000
     20 ****        -4.9304   0.3500  -0.8213 H              1 S1                 0.0000
     21 ****         1.8901   0.1908  -1.2996 H              1 S1                 0.0000
     22 ****         1.9134   2.6927  -1.3344 H              1 S1                 0.0000
     23 ****         1.6807   2.7534   0.4053 H              1 S1                 0.0000
     24 ****         4.9276   1.3210   1.0637 H              1 S1                 0.0000
     25 ****         3.4693   1.9298   1.8284 H              1 S1                 0.0000
     26 ****         3.6765  -0.6248   0.1111 H              1 S1                 0.0000
     27 ****         3.4530  -0.5720   1.8514 H              1 S1                 0.0000
     28 ****        -1.6127   1.7854  -1.0519 LP             1 S1                 0.0000
     29 ****        -0.0907   2.6071  -1.1432 LP             1 S1                 0.0000
     30 ****        -6.1132  -2.8432  -0.0760 LP             1 S1                 0.0000
     31 ****        -6.5319  -1.2253  -0.5311 LP             1 S1                 0.0000
     32 ****        -2.7242   1.1118  -0.8537 LP             1 S1                 0.0000
     33 ****         3.9111   2.9684  -0.2126 LP             1 S1                 0.0000
     34 ****         3.8968   1.5434  -1.0100 LP             1 S1                 0.0000
     35 ****         1.4439  -0.8604   0.7313 LP             1 S1                 0.0000
     36 ****         1.4513   0.5620   1.5334 LP             1 S1                 0.0000
@<TRIPOS>BOND
    1    1    2 2     
    2    2    3 am    
    3    2   11 1     
    4    3   17 1     
    5    3    4 1     
    6    4    5 1     
    7    4   10 2     
    8    5    6 2     
    9    5   18 1     
   10    6    7 1     
   11    6   19 1     
   12    7    8 2     
   13    7    9 am    
   14    9   10 1     
   15    9   20 1     
   16   11   16 1     
   17   11   12 1     
   18   11   21 1     
   19   12   13 1     
   20   12   22 1     
   21   12   23 1     
   22   13   14 1     
   23   14   15 1     
   24   14   24 1     
   25   14   25 1     
   26   15   16 1     
   27   15   26 1     
   28   15   27 1     
   29    1   28 1     
   30    1   29 1     
   31    8   30 1     
   32    8   31 1     
   33   10   32 1     
   34   13   33 1     
   35   13   34 1     
   36   16   35 1     
   37   16   36 1     
@<TRIPOS>SUBSTRUCTURE
      1 S1             1
@<TRIPOS>SET
LONE_PAIRS      STATIC     ATOMS    <user>   **** ""
9 28 29 30 31 32 33 34 35 36
DONOR_HYDROGENS      STATIC     ATOMS    <user>   **** ""
2 17 20
ATOM$BLUE        STATIC     ATOMS    COLORGROUP SYSTEM
9 28 29 30 31 32 33 34 35 36
ATOM$RED        STATIC     ATOMS    COLORGROUP SYSTEM
2 17 20
