AV-unprocessed.smi:2668|AV-procd|sdf|10340|dock5
  -GOLD-   2272014363D 1   1.00000     0.00000
 Structure written by MMmdl.
 53 54  0  0  0  0  0  0  0  0  2 V2000
  145.4397  136.1442  150.7482 C   0  0  0  0  0  0  0  0  0  0  0  0
  145.0944  136.2992  152.1832 N   0  3  0  0  0  0  0  0  0  0  0  0
  145.0215  134.9707  152.8406 C   0  0  0  0  0  0  0  0  0  0  0  0
  145.9625  137.2803  152.9080 C   0  0  0  0  0  0  0  0  0  0  0  0
  145.3886  137.6607  154.2891 C   0  0  0  0  0  0  0  0  0  0  0  0
  146.2295  138.7418  154.9889 C   0  0  0  0  0  0  0  0  0  0  0  0
  146.2936  139.9652  154.1755 N   0  0  0  0  0  0  0  0  0  0  0  0
  146.8536  141.1522  154.8783 C   0  0  0  0  0  0  0  0  0  0  0  0
  146.8503  142.3723  153.9219 C   0  0  0  0  0  0  0  0  0  0  0  0
  146.0380  141.5078  156.1439 C   0  0  0  0  0  0  0  0  0  0  0  0
  148.3310  140.8955  155.2948 C   0  0  0  0  0  0  0  0  0  0  0  0
  148.9062  142.0184  156.0307 N   0  0  0  0  0  0  0  0  0  0  0  0
  149.6208  141.9050  157.1571 C   0  0  0  0  0  0  0  0  0  0  0  0
  149.8606  140.8276  157.7017 O   0  0  0  0  0  0  0  0  0  0  0  0
  150.0468  143.1063  157.5837 N   0  0  0  0  0  0  0  0  0  0  0  0
  150.8323  143.4124  158.7279 C   0  0  0  0  0  0  0  0  0  0  0  0
  151.7401  142.5126  159.3375 C   0  0  0  0  0  0  0  0  0  0  0  0
  152.4489  142.9323  160.4798 C   0  0  0  0  0  0  0  0  0  0  0  0
  152.2197  144.2307  160.9746 C   0  0  0  0  0  0  0  0  0  0  0  0
  151.3480  145.0938  160.4124 N   0  0  0  0  0  0  0  0  0  0  0  0
  150.6712  144.6840  159.3184 C   0  0  0  0  0  0  0  0  0  0  0  0
  146.9636  139.6315  152.9095 C   0  0  0  0  0  0  0  0  0  0  0  0
  146.1525  138.5923  152.1183 C   0  0  0  0  0  0  0  0  0  0  0  0
  146.4893  135.8743  150.6249 H   0  0  0  0  0  0  0  0  0  0  0  0
  145.2452  137.0571  150.1869 H   0  0  0  0  0  0  0  0  0  0  0  0
  144.8351  135.3658  150.2813 H   0  0  0  0  0  0  0  0  0  0  0  0
  146.0165  134.5440  152.9734 H   0  0  0  0  0  0  0  0  0  0  0  0
  144.4323  134.2726  152.2452 H   0  0  0  0  0  0  0  0  0  0  0  0
  144.5334  135.0267  153.8129 H   0  0  0  0  0  0  0  0  0  0  0  0
  146.9419  136.8218  153.0549 H   0  0  0  0  0  0  0  0  0  0  0  0
  144.3603  138.0104  154.1845 H   0  0  0  0  0  0  0  0  0  0  0  0
  145.3582  136.7940  154.9484 H   0  0  0  0  0  0  0  0  0  0  0  0
  145.7658  138.9298  155.9546 H   0  0  0  0  0  0  0  0  0  0  0  0
  147.2322  138.3613  155.1869 H   0  0  0  0  0  0  0  0  0  0  0  0
  147.4442  143.1917  154.3290 H   0  0  0  0  0  0  0  0  0  0  0  0
  145.8522  142.7805  153.7650 H   0  0  0  0  0  0  0  0  0  0  0  0
  147.2686  142.1247  152.9455 H   0  0  0  0  0  0  0  0  0  0  0  0
  146.4624  142.3808  156.6409 H   0  0  0  0  0  0  0  0  0  0  0  0
  146.0371  140.7006  156.8759 H   0  0  0  0  0  0  0  0  0  0  0  0
  145.0011  141.7527  155.9144 H   0  0  0  0  0  0  0  0  0  0  0  0
  148.3874  140.0140  155.9351 H   0  0  0  0  0  0  0  0  0  0  0  0
  148.9500  140.6498  154.4312 H   0  0  0  0  0  0  0  0  0  0  0  0
  148.7596  142.9389  155.6431 H   0  0  0  0  0  0  0  0  0  0  0  0
  149.8322  143.8906  156.9856 H   0  0  0  0  0  0  0  0  0  0  0  0
  151.8970  141.5124  158.9648 H   0  0  0  0  0  0  0  0  0  0  0  0
  153.1495  142.2713  160.9682 H   0  0  0  0  0  0  0  0  0  0  0  0
  152.7469  144.5831  161.8488 H   0  0  0  0  0  0  0  0  0  0  0  0
  149.9813  145.4002  158.8964 H   0  0  0  0  0  0  0  0  0  0  0  0
  147.0656  140.5046  152.2696 H   0  0  0  0  0  0  0  0  0  0  0  0
  147.9699  139.2551  153.0962 H   0  0  0  0  0  0  0  0  0  0  0  0
  146.6817  138.4097  151.1837 H   0  0  0  0  0  0  0  0  0  0  0  0
  145.1825  139.0150  151.8516 H   0  0  0  0  0  0  0  0  0  0  0  0
  144.1565  136.6740  152.2051 H   0  0  0  0  0  0  0  0  0  0  0  0
  1  2  1  0  0  0  0
  1 24  1  0  0  0  0
  1 25  1  0  0  0  0
  1 26  1  0  0  0  0
  2  3  1  0  0  0  0
  2  4  1  0  0  0  0
  2 53  1  0  0  0  0
  3 27  1  0  0  0  0
  3 28  1  0  0  0  0
  3 29  1  0  0  0  0
  4 23  1  0  0  0  0
  4  5  1  0  0  0  0
  4 30  1  0  0  0  0
  5  6  1  0  0  0  0
  5 31  1  0  0  0  0
  5 32  1  0  0  0  0
  6  7  1  0  0  0  0
  6 33  1  0  0  0  0
  6 34  1  0  0  0  0
  7  8  1  0  0  0  0
  7 22  1  0  0  0  0
  8  9  1  0  0  0  0
  8 10  1  0  0  0  0
  8 11  1  0  0  0  0
  9 35  1  0  0  0  0
  9 36  1  0  0  0  0
  9 37  1  0  0  0  0
 10 38  1  0  0  0  0
 10 39  1  0  0  0  0
 10 40  1  0  0  0  0
 11 12  1  0  0  0  0
 11 41  1  0  0  0  0
 11 42  1  0  0  0  0
 12 13  1  0  0  0  0
 12 43  1  0  0  0  0
 13 14  2  0  0  0  0
 13 15  1  0  0  0  0
 15 16  1  0  0  0  0
 15 44  1  0  0  0  0
 16 21  1  0  0  0  0
 16 17  2  0  0  0  0
 17 18  1  0  0  0  0
 17 45  1  0  0  0  0
 18 19  2  0  0  0  0
 18 46  1  0  0  0  0
 19 20  1  0  0  0  0
 19 47  1  0  0  0  0
 20 21  2  0  0  0  0
 21 48  1  0  0  0  0
 22 23  1  0  0  0  0
 22 49  1  0  0  0  0
 22 50  1  0  0  0  0
 23 51  1  0  0  0  0
 23 52  1  0  0  0  0
M  CHG  1   2   1
M  END
> <s_m_source_file>
AV-unprocessed.smi

> <i_m_source_file_index>
2668

> <i_lp_mmshare_version>
43012

> <i_f3d_flags>
0

> <s_epik_input>
W0NIM11OKFtDSDNdKVtDSF0xW0NIMl1bQ0gyXU4oW0NIMl1bQ0gyXTEpQyhbQ0gzXSkoW0NIM10pW0NIMl1bTkhdQyg9TylbTkhdYzJbY0hdW2NIXVtjSF1uW2NIXTI=

> <s_epik_cmdline>
J2VwaWtfcHl0aG9uJywgJy1waCcsICc3LjAnLCAnLXRuJywgJzgnLCAnLW1hJywgJzIwMCcsICctbWV0YWxfYmluZGluZycsICctaW1hZScsICc8aW5maWxlLm1hZT4nLCAnLW9tYWUnLCAnPG91dGZpbGUubWFlPic=

> <r_epik_Ionization_Penalty>
0.934314

> <r_epik_Ionization_Penalty_Charging>
0.000670549

> <r_epik_Ionization_Penalty_Neutral>
0.933644

> <r_epik_State_Penalty>
1.01912

> <r_epik_Charging_Adjusted_Penalty>
1.01979

> <i_epik_Tot_Q>
1

> <i_epik_Tot_abs_Q>
1

> <r_epik_Metal_State_Penalty>
1.01854

> <b_epik_Metal_Only>
0

> <s_lp_Force_Field>
OPLS_2005

> <r_lp_Energy>
39.6452

> <b_lp_Chiralities_Consistent>
1

> <s_lp_Variant>
AV-unprocessed.smi:2668-3

> <Gold.Version>
5.8.1

> <Gold.Id.Protein>
6NUR|6NUR_protein|mol2

> <Gold.PLP.Fitness>
44.5539

> <Gold.PLP.PLP>
-36.2362

> <Gold.PLP.part.hbond>
-2.0000

> <Gold.PLP.part.metal>
0.0000

> <Gold.PLP.part.buried>
-5.7713

> <Gold.PLP.part.nonpolar>
-29.3343

> <Gold.PLP.part.repulsive>
0.4501

> <Gold.PLP.ligand.clash>
0.0000

> <Gold.PLP.ligand.torsion>
0.3743

> <Gold.PLP.Chemscore.Hbond>
1.9920

> <Gold.PLP.Chemscore.CHOScore>
1.0000

> <Gold.PLP.Chemscore.Metal>
0.0000

> <Gold.Chemscore.Hbonds>
donor molecule, donor type, donor heavy atom, donor atom, acceptor molecule, acceptor atom, score
      L1  H    12    43       P1  8028  1.00
      L1  H    15    44       P1  8028  1.00
      L1  C    21    48       P1  8029  0.61

> <Gold.PLP.Chemscore.Internal.Correction>
0.0903

> <Gold.Rescore>
     Score         DG    S(hbond)    S(metal)    S(lipo)     H(rot)  DE(clash)    DE(int)     intcor
     18.91     -20.09       1.93        0.00     105.93       1.65       0.16       1.03       ----

> <Gold.Chemscore.Fitness>
18.9096

> <Gold.Chemscore.DG>
-20.0924

> <Gold.Chemscore.ZeroCoef>
-5.4800

> <Gold.Chemscore.Hbond>
1.9282

> <Gold.Chemscore.Metal>
0.0000

> <Gold.Chemscore.Lipo>
105.9334

> <Gold.Chemscore.Internal_Hbond>
0.0000

> <Gold.Chemscore.DEClash>
0.1578

> <Gold.Chemscore.DEInternal>
1.0250

> <Gold.Chemscore.Rot>
1.6492

> <Gold.Chemscore.Internal.Correction>
   9.000000E+99

> <Gold.Chemscore.Hbonds>
donor molecule, donor type, donor heavy atom, donor atom, acceptor molecule, acceptor atom, score
      L1  H    12    43       P1  8028  0.98
      L1  H    15    44       P1  8028  0.90

> <Gold.Chemscore.Hbond.Weighted>
-6.4402

> <Gold.Chemscore.Metal.Weighted>
-0.0000

> <Gold.Chemscore.Lipo.Weighted>
-12.3942

> <Gold.Chemscore.Internal_Hbond.Weighted>
0.0000

> <Gold.Chemscore.DEClash.Weighted>
0.1578

> <Gold.Chemscore.DEInternal.Weighted>
1.0250

> <Gold.Chemscore.Rot.Weighted>
4.2220

> <Gold.Chemscore.Internal.Correction.Weighted>
   9.000000E+99

> <Gold.Protein.RotatedTorsions>
[ 6907 6896 6895 6894 ] final   -0.72 input  -60.11 | X-H torsion
[ 7974 7965 7964 7962 ] final -131.62 input  175.53 | X-H torsion
[ 8008 7997 7996 7995 ] final   87.84 input   59.86 | X-H torsion
[ 10167 10162 10161 10158 ] final -174.46 input  -65.29 | X-H torsion
[ 10718 10713 10712 10709 ] final   52.99 input   66.30 | X-H torsion
[ 10763 10752 10751 10750 ] final  166.59 input  -60.55 | X-H torsion
[ 11005 11000 10999 10996 ] final  101.89 input  -57.11 | X-H torsion

> <Gold.Protein.ActiveResidues>
 VAL166  LYS551  ARG553  GLY616  TRP617  ASP618  TYR619  PRO620  LYS621  CYS622 
 ASP623  PHE694  ASN695  SER759  ASP760  ASP761  ALA762  ILE779  LEU786  VAL792 
 PHE793  MET794  SER795  GLU796  ALA797  LYS798  CYS799  TRP800  GLU811  SER814 

> <Gold.Protein.RotatedAtoms>
  151.5576  135.1066  159.9964 H   0  0  0  0  0  0  0  0  0  0  0  0  # atno 6907 bound_to 6896
  152.4462  133.7536  159.6718 H   0  0  0  0  0  0  0  0  0  0  0  0  # atno 6908 bound_to 6896
  150.8378  133.7917  159.3096 H   0  0  0  0  0  0  0  0  0  0  0  0  # atno 6909 bound_to 6896
  144.9362  140.7186  143.4875 H   0  0  0  0  0  0  0  0  0  0  0  0  # atno 7974 bound_to 7965
  155.9803  140.3378  155.6657 H   0  0  0  0  0  0  0  0  0  0  0  0  # atno 8008 bound_to 7997
  155.6557  140.0710  157.2589 H   0  0  0  0  0  0  0  0  0  0  0  0  # atno 8009 bound_to 7997
  154.4190  140.1717  156.1710 H   0  0  0  0  0  0  0  0  0  0  0  0  # atno 8010 bound_to 7997
  139.5633  144.1817  152.1273 H   0  0  0  0  0  0  0  0  0  0  0  0  # atno 10167 bound_to 10162
  157.5126  130.8511  149.8454 H   0  0  0  0  0  0  0  0  0  0  0  0  # atno 10718 bound_to 10713
  154.3412  135.2754  155.2421 H   0  0  0  0  0  0  0  0  0  0  0  0  # atno 10763 bound_to 10752
  154.4691  135.5887  153.6312 H   0  0  0  0  0  0  0  0  0  0  0  0  # atno 10764 bound_to 10752
  152.9857  135.6083  154.3614 H   0  0  0  0  0  0  0  0  0  0  0  0  # atno 10765 bound_to 10752
  139.8775  134.9202  156.4976 H   0  0  0  0  0  0  0  0  0  0  0  0  # atno 11005 bound_to 11000
  145.3063  139.1833  143.4663 LP  0  0  0  0  0  0  0  0  0  0  0  0  # atno 17320 bound_to 7965
  146.3267  140.3061  142.8624 LP  0  0  0  0  0  0  0  0  0  0  0  0  # atno 17321 bound_to 7965
  140.1335  144.5267  150.6788 LP  0  0  0  0  0  0  0  0  0  0  0  0  # atno 17342 bound_to 10162
  140.6914  143.2378  151.5120 LP  0  0  0  0  0  0  0  0  0  0  0  0  # atno 17343 bound_to 10162
  156.0299  130.3768  150.1717 LP  0  0  0  0  0  0  0  0  0  0  0  0  # atno 17370 bound_to 10713
  156.9906  130.9892  151.3415 LP  0  0  0  0  0  0  0  0  0  0  0  0  # atno 17371 bound_to 10713
  140.8613  133.8057  155.9268 LP  0  0  0  0  0  0  0  0  0  0  0  0  # atno 17394 bound_to 11000
  140.9046  134.2336  157.5021 LP  0  0  0  0  0  0  0  0  0  0  0  0  # atno 17395 bound_to 11000

$$$$
