AV-unprocessed.smi:2528|AV-procd|sdf|9959|dock8
  -GOLD-   2272014 03D 1   1.00000     0.00000
 Structure written by MMmdl.
 43 45  0  0  0  0  0  0  0  0  1 V2000
  154.1500  135.6607  160.0513 O   0  0  0  0  0  0  0  0  0  0  0  0
  154.3111  136.5087  160.9297 C   0  0  0  0  0  0  0  0  0  0  0  0
  154.3005  137.8282  160.6928 N   0  0  0  0  0  0  0  0  0  0  0  0
  154.1109  138.4420  159.3830 C   0  0  0  0  0  0  0  0  0  0  0  0
  153.1042  139.6030  159.4410 C   0  0  1  0  0  0  0  0  0  0  0  0
  153.5616  140.7142  160.4042 C   0  0  0  0  0  0  0  0  0  0  0  0
  152.6452  141.8476  160.4009 N   0  0  0  0  0  0  0  0  0  0  0  0
  153.0964  142.8992  161.3108 C   0  0  0  0  0  0  0  0  0  0  0  0
  152.1272  144.0911  161.3540 C   0  0  0  0  0  0  0  0  0  0  0  0
  151.9225  144.6623  159.9436 C   0  0  0  0  0  0  0  0  0  0  0  0
  151.5018  143.5437  158.9779 C   0  0  0  0  0  0  0  0  0  0  0  0
  152.4912  142.3613  159.0364 C   0  0  2  0  0  0  0  0  0  0  0  0
  152.0552  141.2392  158.0723 C   0  0  0  0  0  0  0  0  0  0  0  0
  152.9814  140.1599  158.1345 O   0  0  0  0  0  0  0  0  0  0  0  0
  154.5228  136.2502  162.2322 N   0  0  0  0  0  0  0  0  0  0  0  0
  154.5610  134.9883  162.8832 C   0  0  0  0  0  0  0  0  0  0  0  0
  154.2675  135.0191  164.2654 C   0  0  0  0  0  0  0  0  0  0  0  0
  154.2683  133.8183  165.0014 C   0  0  0  0  0  0  0  0  0  0  0  0
  154.5638  132.6154  164.3357 C   0  0  0  0  0  0  0  0  0  0  0  0
  154.8473  132.6725  162.9586 C   0  0  0  0  0  0  0  0  0  0  0  0
  154.8466  133.8222  162.2511 N   0  0  0  0  0  0  0  0  0  0  0  0
  154.4473  138.4551  161.4701 H   0  0  0  0  0  0  0  0  0  0  0  0
  155.0698  138.7902  158.9953 H   0  0  0  0  0  0  0  0  0  0  0  0
  153.7583  137.6758  158.6920 H   0  0  0  0  0  0  0  0  0  0  0  0
  152.1320  139.2262  159.7647 H   0  0  0  0  0  0  0  0  0  0  0  0
  153.6397  140.3095  161.4141 H   0  0  0  0  0  0  0  0  0  0  0  0
  154.5622  141.0477  160.1241 H   0  0  0  0  0  0  0  0  0  0  0  0
  153.2035  142.4919  162.3169 H   0  0  0  0  0  0  0  0  0  0  0  0
  154.0864  143.2476  161.0121 H   0  0  0  0  0  0  0  0  0  0  0  0
  151.1688  143.7699  161.7640 H   0  0  0  0  0  0  0  0  0  0  0  0
  152.5095  144.8638  162.0213 H   0  0  0  0  0  0  0  0  0  0  0  0
  151.1716  145.4526  159.9589 H   0  0  0  0  0  0  0  0  0  0  0  0
  152.8502  145.1177  159.5949 H   0  0  0  0  0  0  0  0  0  0  0  0
  150.4993  143.1993  159.2361 H   0  0  0  0  0  0  0  0  0  0  0  0
  151.4432  143.9366  157.9625 H   0  0  0  0  0  0  0  0  0  0  0  0
  153.4619  142.7249  158.6938 H   0  0  0  0  0  0  0  0  0  0  0  0
  151.0548  140.8787  158.3177 H   0  0  0  0  0  0  0  0  0  0  0  0
  152.0190  141.6092  157.0475 H   0  0  0  0  0  0  0  0  0  0  0  0
  154.6563  137.0513  162.8311 H   0  0  0  0  0  0  0  0  0  0  0  0
  154.0411  135.9520  164.7613 H   0  0  0  0  0  0  0  0  0  0  0  0
  154.0444  133.8210  166.0579 H   0  0  0  0  0  0  0  0  0  0  0  0
  154.5726  131.6744  164.8656 H   0  0  0  0  0  0  0  0  0  0  0  0
  155.0792  131.7716  162.4103 H   0  0  0  0  0  0  0  0  0  0  0  0
  1  2  2  0  0  0  0
  2  3  1  0  0  0  0
  2 15  1  0  0  0  0
  3  4  1  0  0  0  0
  3 22  1  0  0  0  0
  4  5  1  0  0  0  0
  4 23  1  0  0  0  0
  4 24  1  0  0  0  0
  5 14  1  0  0  0  0
  5  6  1  0  0  0  0
  5 25  1  0  0  0  0
  6  7  1  0  0  0  0
  6 26  1  0  0  0  0
  6 27  1  0  0  0  0
  7 12  1  0  0  0  0
  7  8  1  0  0  0  0
  8  9  1  0  0  0  0
  8 28  1  0  0  0  0
  8 29  1  0  0  0  0
  9 10  1  0  0  0  0
  9 30  1  0  0  0  0
  9 31  1  0  0  0  0
 10 11  1  0  0  0  0
 10 32  1  0  0  0  0
 10 33  1  0  0  0  0
 11 12  1  0  0  0  0
 11 34  1  0  0  0  0
 11 35  1  0  0  0  0
 12 13  1  0  0  0  0
 12 36  1  0  0  0  0
 13 14  1  0  0  0  0
 13 37  1  0  0  0  0
 13 38  1  0  0  0  0
 15 16  1  0  0  0  0
 15 39  1  0  0  0  0
 16 21  1  0  0  0  0
 16 17  2  0  0  0  0
 17 18  1  0  0  0  0
 17 40  1  0  0  0  0
 18 19  2  0  0  0  0
 18 41  1  0  0  0  0
 19 20  1  0  0  0  0
 19 42  1  0  0  0  0
 20 21  2  0  0  0  0
 20 43  1  0  0  0  0
M  END
> <s_m_source_file>
AV-unprocessed.smi

> <i_m_source_file_index>
2528

> <i_lp_mmshare_version>
43012

> <i_f3d_flags>
0

> <s_epik_input>
bjFbY0hdW2NIXVtjSF1bY0hdYzFbTkhdQyg9TylbTkhdW0NIMl1bQ0BIXShbQ0gyXTIpT1tDSDJdW0NAQEhdKE4yMylbQ0gyXVtDSDJdW0NIMl1bQ0gyXTM=

> <s_epik_cmdline>
J2VwaWtfcHl0aG9uJywgJy1waCcsICc3LjAnLCAnLXRuJywgJzgnLCAnLW1hJywgJzIwMCcsICctbWV0YWxfYmluZGluZycsICctaW1hZScsICc8aW5maWxlLm1hZT4nLCAnLW9tYWUnLCAnPG91dGZpbGUubWFlPic=

> <r_epik_Ionization_Penalty>
1.14192

> <r_epik_Ionization_Penalty_Charging>
0

> <r_epik_Ionization_Penalty_Neutral>
1.14192

> <r_epik_State_Penalty>
1.20248

> <r_epik_Charging_Adjusted_Penalty>
1.20248

> <i_epik_Tot_Q>
0

> <i_epik_Tot_abs_Q>
0

> <r_epik_Metal_State_Penalty>
1.20248

> <b_epik_Metal_Only>
0

> <s_lp_Force_Field>
OPLS_2005

> <r_lp_Energy>
35.0124

> <b_lp_Chiralities_Consistent>
1

> <s_lp_Variant>
AV-unprocessed.smi:2528-12

> <Gold.Version>
5.8.1

> <Gold.Id.Protein>
6NUR|6NUR_protein|mol2

> <Gold.PLP.Fitness>
46.4608

> <Gold.PLP.PLP>
-40.8805

> <Gold.PLP.part.hbond>
-2.0000

> <Gold.PLP.part.metal>
0.0000

> <Gold.PLP.part.buried>
-5.0027

> <Gold.PLP.part.nonpolar>
-32.7364

> <Gold.PLP.part.repulsive>
0.0520

> <Gold.PLP.ligand.clash>
0.0000

> <Gold.PLP.ligand.torsion>
0.2100

> <Gold.PLP.Chemscore.Hbond>
2.0000

> <Gold.PLP.Chemscore.CHOScore>
0.0000

> <Gold.PLP.Chemscore.Metal>
0.0000

> <Gold.Chemscore.Hbonds>
donor molecule, donor type, donor heavy atom, donor atom, acceptor molecule, acceptor atom, score
      P1  H  6896  6908       L1     1  1.00
      P1  H  7997  8010       L1    14  0.99

> <Gold.PLP.Chemscore.Internal.Correction>
0.0004

> <Gold.Rescore>
     Score         DG    S(hbond)    S(metal)    S(lipo)     H(rot)  DE(clash)    DE(int)     intcor
     20.96     -22.36       1.89        0.00     118.17       1.27       0.04       1.35       ----

> <Gold.Chemscore.Fitness>
20.9637

> <Gold.Chemscore.DG>
-22.3614

> <Gold.Chemscore.ZeroCoef>
-5.4800

> <Gold.Chemscore.Hbond>
1.8881

> <Gold.Chemscore.Metal>
0.0000

> <Gold.Chemscore.Lipo>
118.1651

> <Gold.Chemscore.Internal_Hbond>
0.0000

> <Gold.Chemscore.DEClash>
0.0435

> <Gold.Chemscore.DEInternal>
1.3543

> <Gold.Chemscore.Rot>
1.2696

> <Gold.Chemscore.Internal.Correction>
   9.000000E+99

> <Gold.Chemscore.Hbonds>
donor molecule, donor type, donor heavy atom, donor atom, acceptor molecule, acceptor atom, score
      P1  H  6896  6908       L1     1  0.96
      P1  H  7997  8010       L1    14  0.87

> <Gold.Chemscore.Hbond.Weighted>
-6.3063

> <Gold.Chemscore.Metal.Weighted>
-0.0000

> <Gold.Chemscore.Lipo.Weighted>
-13.8253

> <Gold.Chemscore.Internal_Hbond.Weighted>
0.0000

> <Gold.Chemscore.DEClash.Weighted>
0.0435

> <Gold.Chemscore.DEInternal.Weighted>
1.3543

> <Gold.Chemscore.Rot.Weighted>
3.2502

> <Gold.Chemscore.Internal.Correction.Weighted>
   9.000000E+99

> <Gold.Protein.RotatedTorsions>
[ 6907 6896 6895 6894 ] final  -59.12 input  -60.11 | X-H torsion
[ 7974 7965 7964 7962 ] final   43.43 input  175.53 | X-H torsion
[ 8008 7997 7996 7995 ] final   38.09 input   59.86 | X-H torsion
[ 10167 10162 10161 10158 ] final  151.82 input  -65.29 | X-H torsion
[ 10718 10713 10712 10709 ] final  144.01 input   66.30 | X-H torsion
[ 10763 10752 10751 10750 ] final  170.84 input  -60.55 | X-H torsion
[ 11005 11000 10999 10996 ] final -122.41 input  -57.11 | X-H torsion

> <Gold.Protein.ActiveResidues>
 VAL166  LYS551  ARG553  GLY616  TRP617  ASP618  TYR619  PRO620  LYS621  CYS622 
 ASP623  PHE694  ASN695  SER759  ASP760  ASP761  ALA762  ILE779  LEU786  VAL792 
 PHE793  MET794  SER795  GLU796  ALA797  LYS798  CYS799  TRP800  GLU811  SER814 

> <Gold.Protein.RotatedAtoms>
  150.7955  134.7010  159.6549 H   0  0  0  0  0  0  0  0  0  0  0  0  # atno 6907 bound_to 6896
  152.4066  134.6193  160.0056 H   0  0  0  0  0  0  0  0  0  0  0  0  # atno 6908 bound_to 6896
  151.6448  133.3287  159.3174 H   0  0  0  0  0  0  0  0  0  0  0  0  # atno 6909 bound_to 6896
  146.0655  139.5187  142.9631 H   0  0  0  0  0  0  0  0  0  0  0  0  # atno 7974 bound_to 7965
  155.2145  140.3326  155.4324 H   0  0  0  0  0  0  0  0  0  0  0  0  # atno 8008 bound_to 7997
  156.2357  140.1871  156.7173 H   0  0  0  0  0  0  0  0  0  0  0  0  # atno 8009 bound_to 7997
  154.6056  140.0616  156.9412 H   0  0  0  0  0  0  0  0  0  0  0  0  # atno 8010 bound_to 7997
  139.4837  144.5409  151.7566 H   0  0  0  0  0  0  0  0  0  0  0  0  # atno 10167 bound_to 10162
  157.3623  131.0967  151.0904 H   0  0  0  0  0  0  0  0  0  0  0  0  # atno 10718 bound_to 10713
  154.4034  135.2755  155.2082 H   0  0  0  0  0  0  0  0  0  0  0  0  # atno 10763 bound_to 10752
  154.4098  135.6025  153.5950 H   0  0  0  0  0  0  0  0  0  0  0  0  # atno 10764 bound_to 10752
  152.9831  135.5947  154.4305 H   0  0  0  0  0  0  0  0  0  0  0  0  # atno 10765 bound_to 10752
  140.9997  134.0420  157.3553 H   0  0  0  0  0  0  0  0  0  0  0  0  # atno 11005 bound_to 11000
  145.6484  141.0269  143.1774 LP  0  0  0  0  0  0  0  0  0  0  0  0  # atno 17320 bound_to 7965
  144.7200  139.8063  143.7385 LP  0  0  0  0  0  0  0  0  0  0  0  0  # atno 17321 bound_to 7965
  140.4948  144.1257  150.5958 LP  0  0  0  0  0  0  0  0  0  0  0  0  # atno 17342 bound_to 10162
  140.4130  143.2648  151.9810 LP  0  0  0  0  0  0  0  0  0  0  0  0  # atno 17343 bound_to 10162
  157.2039  130.6407  149.5749 LP  0  0  0  0  0  0  0  0  0  0  0  0  # atno 17370 bound_to 10713
  155.9739  130.4682  150.6350 LP  0  0  0  0  0  0  0  0  0  0  0  0  # atno 17371 bound_to 10713
  139.9032  135.0172  156.7368 LP  0  0  0  0  0  0  0  0  0  0  0  0  # atno 17394 bound_to 11000
  140.6908  133.9391  155.7965 LP  0  0  0  0  0  0  0  0  0  0  0  0  # atno 17395 bound_to 11000

$$$$
