AV-unprocessed.smi:438|AV-procd|sdf|2568|dock1
  -GOLD-   2262022543D 1   1.00000     0.00000
 Structure written by MMmdl.
 48 49  0  0  0  0  0  0  0  0  1 V2000
  144.3011  144.7118  153.2625 C   0  0  0  0  0  0  0  0  0  0  0  0
  144.3428  143.6438  154.3407 C   0  0  0  0  0  0  0  0  0  0  0  0
  145.5550  142.9872  154.4511 N   0  0  0  0  0  0  0  0  0  0  0  0
  145.7159  142.0369  155.4472 C   0  0  0  0  0  0  0  0  0  0  0  0
  147.4230  141.4064  155.4305 S   0  0  0  0  0  0  0  0  0  0  0  0
  147.9791  141.7087  157.1359 C   0  0  0  0  0  0  0  0  0  0  0  0
  149.5001  141.6389  157.2664 C   0  0  0  0  0  0  0  0  0  0  0  0
  150.0874  140.5781  157.0563 O   0  0  0  0  0  0  0  0  0  0  0  0
  150.1266  142.7812  157.5865 N   0  0  0  0  0  0  0  0  0  0  0  0
  151.5749  142.9714  157.6550 C   0  0  1  0  0  0  0  0  0  0  0  0
  151.9366  144.4639  157.4859 C   0  0  0  0  0  0  0  0  0  0  0  0
  151.5070  145.3070  158.6990 C   0  0  0  0  0  0  0  0  0  0  0  0
  152.1001  144.7448  159.9987 C   0  0  0  0  0  0  0  0  0  0  0  0
  151.7317  143.2649  160.1885 C   0  0  0  0  0  0  0  0  0  0  0  0
  152.1532  142.4076  158.9770 C   0  0  1  0  0  0  0  0  0  0  0  0
  151.8104  140.9234  159.1926 C   0  0  0  0  0  0  0  0  0  0  0  0
  144.7659  141.6821  156.2614 N   0  0  0  0  0  0  0  0  0  0  0  0
  143.4988  142.2756  156.1657 C   0  0  0  0  0  0  0  0  0  0  0  0
  142.5853  141.9199  156.9089 O   0  0  0  0  0  0  0  0  0  0  0  0
  143.3070  143.3411  155.1600 C   0  0  0  0  0  0  0  0  0  0  0  0
  141.9511  144.0372  155.0887 C   0  0  0  0  0  0  0  0  0  0  0  0
  140.7911  143.0335  155.0147 C   0  0  0  0  0  0  0  0  0  0  0  0
  140.8318  142.3446  153.7844 O   0  0  0  0  0  0  0  0  0  0  0  0
  144.0216  145.6741  153.6923 H   0  0  0  0  0  0  0  0  0  0  0  0
  143.5714  144.4497  152.4959 H   0  0  0  0  0  0  0  0  0  0  0  0
  145.2699  144.8305  152.7754 H   0  0  0  0  0  0  0  0  0  0  0  0
  147.5429  140.9391  157.7734 H   0  0  0  0  0  0  0  0  0  0  0  0
  147.6001  142.6631  157.5031 H   0  0  0  0  0  0  0  0  0  0  0  0
  149.5568  143.6009  157.7401 H   0  0  0  0  0  0  0  0  0  0  0  0
  152.0280  142.4158  156.8320 H   0  0  0  0  0  0  0  0  0  0  0  0
  153.0154  144.5557  157.3542 H   0  0  0  0  0  0  0  0  0  0  0  0
  151.4888  144.8661  156.5764 H   0  0  0  0  0  0  0  0  0  0  0  0
  151.8251  146.3409  158.5638 H   0  0  0  0  0  0  0  0  0  0  0  0
  150.4194  145.3291  158.7705 H   0  0  0  0  0  0  0  0  0  0  0  0
  153.1854  144.8503  159.9795 H   0  0  0  0  0  0  0  0  0  0  0  0
  151.7485  145.3279  160.8495 H   0  0  0  0  0  0  0  0  0  0  0  0
  152.2054  142.8870  161.0951 H   0  0  0  0  0  0  0  0  0  0  0  0
  150.6578  143.1742  160.3463 H   0  0  0  0  0  0  0  0  0  0  0  0
  153.2399  142.4707  158.9018 H   0  0  0  0  0  0  0  0  0  0  0  0
  150.7403  140.7724  159.3377 H   0  0  0  0  0  0  0  0  0  0  0  0
  152.3186  140.5302  160.0733 H   0  0  0  0  0  0  0  0  0  0  0  0
  152.1195  140.3207  158.3385 H   0  0  0  0  0  0  0  0  0  0  0  0
  146.3001  143.2556  153.8243 H   0  0  0  0  0  0  0  0  0  0  0  0
  141.9296  144.7026  154.2242 H   0  0  0  0  0  0  0  0  0  0  0  0
  141.8143  144.6860  155.9536 H   0  0  0  0  0  0  0  0  0  0  0  0
  140.8537  142.3073  155.8254 H   0  0  0  0  0  0  0  0  0  0  0  0
  139.8318  143.5442  155.1063 H   0  0  0  0  0  0  0  0  0  0  0  0
  141.7360  142.2054  153.5468 H   0  0  0  0  0  0  0  0  0  0  0  0
  1 24  1  0  0  0  0
  1 25  1  0  0  0  0
  1 26  1  0  0  0  0
  1  2  1  0  0  0  0
  2 20  2  0  0  0  0
  2  3  1  0  0  0  0
  3  4  1  0  0  0  0
  3 43  1  0  0  0  0
  4  5  1  0  0  0  0
  4 17  2  0  0  0  0
  5  6  1  0  0  0  0
  6  7  1  0  0  0  0
  6 27  1  0  0  0  0
  6 28  1  0  0  0  0
  7  8  2  0  0  0  0
  7  9  1  0  0  0  0
  9 10  1  0  0  0  0
  9 29  1  0  0  0  0
 10 15  1  0  0  0  0
 10 11  1  0  0  0  0
 10 30  1  0  0  0  0
 11 12  1  0  0  0  0
 11 31  1  0  0  0  0
 11 32  1  0  0  0  0
 12 13  1  0  0  0  0
 12 33  1  0  0  0  0
 12 34  1  0  0  0  0
 13 14  1  0  0  0  0
 13 35  1  0  0  0  0
 13 36  1  0  0  0  0
 14 15  1  0  0  0  0
 14 37  1  0  0  0  0
 14 38  1  0  0  0  0
 15 16  1  0  0  0  0
 15 39  1  0  0  0  0
 16 40  1  0  0  0  0
 16 41  1  0  0  0  0
 16 42  1  0  0  0  0
 17 18  1  0  0  0  0
 18 19  2  0  0  0  0
 18 20  1  0  0  0  0
 20 21  1  0  0  0  0
 21 22  1  0  0  0  0
 21 44  1  0  0  0  0
 21 45  1  0  0  0  0
 22 23  1  0  0  0  0
 22 46  1  0  0  0  0
 22 47  1  0  0  0  0
 23 48  1  0  0  0  0
M  END
> <s_m_source_file>
AV-unprocessed.smi

> <i_m_source_file_index>
438

> <i_lp_mmshare_version>
43012

> <i_f3d_flags>
0

> <s_epik_input>
W09IXVtDSDJdW0NIMl1jMWMoW09IXSluYyhuYzFbQ0gzXSlTW0NIMl1DKD1PKVtOSF1bQ0BASF0yW0NIMl1bQ0gyXVtDSDJdW0NIMl1bQ0BIXTJbQ0gzXQ==

> <s_epik_cmdline>
J2VwaWtfcHl0aG9uJywgJy1waCcsICc3LjAnLCAnLXRuJywgJzgnLCAnLW1hJywgJzIwMCcsICctbWV0YWxfYmluZGluZycsICctaW1hZScsICc8aW5maWxlLm1hZT4nLCAnLW9tYWUnLCAnPG91dGZpbGUubWFlPic=

> <r_lp_tautomer_probability>
0.273662

> <r_epik_Ionization_Penalty>
0.0875285

> <r_epik_Ionization_Penalty_Charging>
0.0875254

> <r_epik_Ionization_Penalty_Neutral>
3.01536e-06

> <r_epik_State_Penalty>
0.985796

> <r_epik_Charging_Adjusted_Penalty>
1.07332

> <i_epik_Tot_Q>
0

> <i_epik_Tot_abs_Q>
0

> <r_epik_Metal_State_Penalty>
1.58101

> <b_epik_Metal_Only>
0

> <s_lp_Force_Field>
OPLS_2005

> <r_lp_Energy>
13.0189

> <b_lp_Chiralities_Consistent>
1

> <s_lp_Variant>
AV-unprocessed.smi:438-6

> <Gold.Version>
5.8.1

> <Gold.Id.Protein>
6NUR|6NUR_protein|mol2

> <Gold.PLP.Fitness>
44.7580

> <Gold.PLP.PLP>
-40.4900

> <Gold.PLP.part.hbond>
-2.9472

> <Gold.PLP.part.metal>
0.0000

> <Gold.PLP.part.buried>
-6.7111

> <Gold.PLP.part.nonpolar>
-31.6512

> <Gold.PLP.part.repulsive>
0.1983

> <Gold.PLP.ligand.clash>
0.0000

> <Gold.PLP.ligand.torsion>
0.5100

> <Gold.PLP.Chemscore.Hbond>
1.7520

> <Gold.PLP.Chemscore.CHOScore>
0.0000

> <Gold.PLP.Chemscore.Metal>
0.0000

> <Gold.Chemscore.Hbonds>
donor molecule, donor type, donor heavy atom, donor atom, acceptor molecule, acceptor atom, score
      L1  H    23    48       P1 10174  0.67
      P1  H 10162 10167       L1    23  1.00

> <Gold.PLP.Chemscore.Internal.Correction>
0.0320

> <Gold.Rescore>
     Score         DG    S(hbond)    S(metal)    S(lipo)     H(rot)  DE(clash)    DE(int)     intcor
     15.19     -15.90       1.48        0.00     109.52       2.86       0.14       0.57       ----

> <Gold.Chemscore.Fitness>
15.1932

> <Gold.Chemscore.DG>
-15.9014

> <Gold.Chemscore.ZeroCoef>
-5.4800

> <Gold.Chemscore.Hbond>
1.4792

> <Gold.Chemscore.Metal>
0.0000

> <Gold.Chemscore.Lipo>
109.5221

> <Gold.Chemscore.Internal_Hbond>
0.0000

> <Gold.Chemscore.DEClash>
0.1356

> <Gold.Chemscore.DEInternal>
0.5725

> <Gold.Chemscore.Rot>
2.8645

> <Gold.Chemscore.Internal.Correction>
   9.000000E+99

> <Gold.Chemscore.Hbonds>
donor molecule, donor type, donor heavy atom, donor atom, acceptor molecule, acceptor atom, score
      L1  H     9    29       P1  8028  0.01
      L1  H    23    48       P1 10174  0.58
      P1  H 10162 10167       L1    23  0.34

> <Gold.Chemscore.Hbond.Weighted>
-4.9404

> <Gold.Chemscore.Metal.Weighted>
-0.0000

> <Gold.Chemscore.Lipo.Weighted>
-12.8141

> <Gold.Chemscore.Internal_Hbond.Weighted>
0.0000

> <Gold.Chemscore.DEClash.Weighted>
0.1356

> <Gold.Chemscore.DEInternal.Weighted>
0.5725

> <Gold.Chemscore.Rot.Weighted>
7.3331

> <Gold.Chemscore.Internal.Correction.Weighted>
   9.000000E+99

> <Gold.Protein.RotatedTorsions>
[ 6907 6896 6895 6894 ] final -133.39 input  -60.11 | X-H torsion
[ 7974 7965 7964 7962 ] final   98.41 input  175.53 | X-H torsion
[ 8008 7997 7996 7995 ] final -110.94 input   59.86 | X-H torsion
[ 10167 10162 10161 10158 ] final -117.36 input  -65.29 | X-H torsion
[ 10718 10713 10712 10709 ] final  -88.80 input   66.30 | X-H torsion
[ 10763 10752 10751 10750 ] final   83.09 input  -60.55 | X-H torsion
[ 11005 11000 10999 10996 ] final   12.82 input  -57.11 | X-H torsion

> <Gold.Protein.ActiveResidues>
 VAL166  LYS551  ARG553  GLY616  TRP617  ASP618  TYR619  PRO620  LYS621  CYS622 
 ASP623  PHE694  ASN695  SER759  ASP760  ASP761  ALA762  ILE779  LEU786  VAL792 
 PHE793  MET794  SER795  GLU796  ALA797  LYS798  CYS799  TRP800  GLU811  SER814 

> <Gold.Protein.RotatedAtoms>
  150.9735  133.6319  159.2733 H   0  0  0  0  0  0  0  0  0  0  0  0  # atno 6907 bound_to 6896
  151.3599  135.0901  159.9441 H   0  0  0  0  0  0  0  0  0  0  0  0  # atno 6908 bound_to 6896
  152.5191  133.9311  159.7635 H   0  0  0  0  0  0  0  0  0  0  0  0  # atno 6909 bound_to 6896
  145.4125  139.2332  143.3240 H   0  0  0  0  0  0  0  0  0  0  0  0  # atno 7974 bound_to 7965
  154.9822  140.0396  157.2283 H   0  0  0  0  0  0  0  0  0  0  0  0  # atno 8008 bound_to 7997
  154.7704  140.2800  155.6120 H   0  0  0  0  0  0  0  0  0  0  0  0  # atno 8009 bound_to 7997
  156.2920  140.2611  156.2505 H   0  0  0  0  0  0  0  0  0  0  0  0  # atno 8010 bound_to 7997
  140.0692  143.4893  152.1989 H   0  0  0  0  0  0  0  0  0  0  0  0  # atno 10167 bound_to 10162
  155.9983  130.4849  150.5075 H   0  0  0  0  0  0  0  0  0  0  0  0  # atno 10718 bound_to 10713
  153.1260  135.4704  154.9273 H   0  0  0  0  0  0  0  0  0  0  0  0  # atno 10763 bound_to 10752
  154.7621  135.3134  154.8361 H   0  0  0  0  0  0  0  0  0  0  0  0  # atno 10764 bound_to 10752
  153.8914  135.6884  153.4814 H   0  0  0  0  0  0  0  0  0  0  0  0  # atno 10765 bound_to 10752
  140.4877  134.0872  155.7764 H   0  0  0  0  0  0  0  0  0  0  0  0  # atno 11005 bound_to 11000
  146.2697  140.4839  142.8819 LP  0  0  0  0  0  0  0  0  0  0  0  0  # atno 17320 bound_to 7965
  144.8299  140.6690  143.6298 LP  0  0  0  0  0  0  0  0  0  0  0  0  # atno 17321 bound_to 7965
  139.5846  144.7525  151.3552 LP  0  0  0  0  0  0  0  0  0  0  0  0  # atno 17342 bound_to 10162
  140.7134  143.7331  150.7609 LP  0  0  0  0  0  0  0  0  0  0  0  0  # atno 17343 bound_to 10162
  157.3052  131.0653  151.2040 LP  0  0  0  0  0  0  0  0  0  0  0  0  # atno 17370 bound_to 10713
  157.3006  130.6841  149.6162 LP  0  0  0  0  0  0  0  0  0  0  0  0  # atno 17371 bound_to 10713
  141.1500  133.8986  157.2122 LP  0  0  0  0  0  0  0  0  0  0  0  0  # atno 17394 bound_to 11000
  139.9788  135.0105  156.9698 LP  0  0  0  0  0  0  0  0  0  0  0  0  # atno 17395 bound_to 11000

$$$$
