AV-unprocessed.smi:298|AV-procd|sdf|2261|dock2
  -GOLD-   2262022143D 1   1.00000     0.00000
 Structure written by MMmdl.
 38 40  0  0  0  0  0  0  0  0  1 V2000
  152.8246  142.7758  161.6990 C   0  0  0  0  0  0  0  0  0  0  0  0
  152.3222  142.4447  160.3047 C   0  0  0  0  0  0  0  0  0  0  0  0
  152.7517  141.2490  159.6857 C   0  0  0  0  0  0  0  0  0  0  0  0
  152.3076  140.9040  158.3904 C   0  0  0  0  0  0  0  0  0  0  0  0
  152.5962  139.8005  157.6058 N   0  0  0  0  0  0  0  0  0  0  0  0
  151.8838  140.0562  156.5123 C   0  0  0  0  0  0  0  0  0  0  0  0
  151.1669  141.1966  156.4955 N   0  0  0  0  0  0  0  0  0  0  0  0
  150.3265  141.6892  155.4187 C   0  0  0  0  0  0  0  0  0  0  0  0
  149.4510  140.5853  154.7962 C   0  0  2  0  0  0  0  0  0  0  0  0
  150.1851  139.8934  153.8024 O   0  0  0  0  0  0  0  0  0  0  0  0
  148.1578  141.1573  154.1849 C   0  0  0  0  0  0  0  0  0  0  0  0
  147.0968  141.3068  155.1637 N   0  0  0  0  0  0  0  0  0  0  0  0
  145.7714  141.3836  155.0062 C   0  0  0  0  0  0  0  0  0  0  0  0
  145.1002  141.5203  156.1432 N   0  0  0  0  0  0  0  0  0  0  0  0
  146.1530  141.5182  157.0116 C   0  0  0  0  0  0  0  0  0  0  0  0
  145.9550  141.6486  158.4451 C   0  0  0  0  0  0  0  0  0  0  0  0
  145.7975  141.7521  159.5869 N   0  0  0  0  0  0  0  0  0  0  0  0
  147.3706  141.3953  156.4877 N   0  0  0  0  0  0  0  0  0  0  0  0
  151.4166  141.7959  157.7252 C   0  0  0  0  0  0  0  0  0  0  0  0
  150.9818  142.9883  158.3303 C   0  0  0  0  0  0  0  0  0  0  0  0
  151.4332  143.3166  159.6259 C   0  0  0  0  0  0  0  0  0  0  0  0
  150.9544  144.6041  160.2730 C   0  0  0  0  0  0  0  0  0  0  0  0
  153.5163  142.0161  162.0637 H   0  0  0  0  0  0  0  0  0  0  0  0
  151.9921  142.8351  162.4003 H   0  0  0  0  0  0  0  0  0  0  0  0
  153.3486  143.7316  161.7003 H   0  0  0  0  0  0  0  0  0  0  0  0
  153.4285  140.5840  160.2021 H   0  0  0  0  0  0  0  0  0  0  0  0
  151.8824  139.3747  155.6742 H   0  0  0  0  0  0  0  0  0  0  0  0
  149.6982  142.4860  155.8185 H   0  0  0  0  0  0  0  0  0  0  0  0
  150.9627  142.1457  154.6587 H   0  0  0  0  0  0  0  0  0  0  0  0
  149.1865  139.8649  155.5717 H   0  0  0  0  0  0  0  0  0  0  0  0
  149.7641  140.0286  152.9673 H   0  0  0  0  0  0  0  0  0  0  0  0
  148.3519  142.1349  153.7409 H   0  0  0  0  0  0  0  0  0  0  0  0
  147.7985  140.5153  153.3793 H   0  0  0  0  0  0  0  0  0  0  0  0
  145.2887  141.3372  154.0411 H   0  0  0  0  0  0  0  0  0  0  0  0
  150.3054  143.6433  157.8016 H   0  0  0  0  0  0  0  0  0  0  0  0
  150.2918  145.1608  159.6097 H   0  0  0  0  0  0  0  0  0  0  0  0
  151.7999  145.2476  160.5169 H   0  0  0  0  0  0  0  0  0  0  0  0
  150.4061  144.3888  161.1903 H   0  0  0  0  0  0  0  0  0  0  0  0
  1  2  1  0  0  0  0
  1 23  1  0  0  0  0
  1 24  1  0  0  0  0
  1 25  1  0  0  0  0
  2 21  1  0  0  0  0
  2  3  2  0  0  0  0
  3  4  1  0  0  0  0
  3 26  1  0  0  0  0
  4 19  2  0  0  0  0
  4  5  1  0  0  0  0
  5  6  2  0  0  0  0
  6  7  1  0  0  0  0
  6 27  1  0  0  0  0
  7  8  1  0  0  0  0
  7 19  1  0  0  0  0
  8  9  1  0  0  0  0
  8 28  1  0  0  0  0
  8 29  1  0  0  0  0
  9 10  1  0  0  0  0
  9 11  1  0  0  0  0
  9 30  1  0  0  0  0
 10 31  1  0  0  0  0
 11 12  1  0  0  0  0
 11 32  1  0  0  0  0
 11 33  1  0  0  0  0
 12 18  1  0  0  0  0
 12 13  1  0  0  0  0
 13 14  2  0  0  0  0
 13 34  1  0  0  0  0
 14 15  1  0  0  0  0
 15 16  1  0  0  0  0
 15 18  2  0  0  0  0
 16 17  3  0  0  0  0
 19 20  1  0  0  0  0
 20 21  2  0  0  0  0
 20 35  1  0  0  0  0
 21 22  1  0  0  0  0
 22 36  1  0  0  0  0
 22 37  1  0  0  0  0
 22 38  1  0  0  0  0
M  END
> <s_m_source_file>
AV-unprocessed.smi

> <i_m_source_file_index>
298

> <i_lp_mmshare_version>
43012

> <i_f3d_flags>
0

> <s_epik_input>
W0NIM11jKFtjSF0xKWMoW0NIM10pW2NIXWMoYzEyKW4oW2NIXW4yKVtDSDJdW0NASF0oW09IXSlbQ0gyXW4zW2NIXW5jKG4zKUMjTg==

> <s_epik_cmdline>
J2VwaWtfcHl0aG9uJywgJy1waCcsICc3LjAnLCAnLXRuJywgJzgnLCAnLW1hJywgJzIwMCcsICctbWV0YWxfYmluZGluZycsICctaW1hZScsICc8aW5maWxlLm1hZT4nLCAnLW9tYWUnLCAnPG91dGZpbGUubWFlPic=

> <r_epik_Ionization_Penalty>
0.0968684

> <r_epik_Ionization_Penalty_Charging>
0

> <r_epik_Ionization_Penalty_Neutral>
0.0968684

> <r_epik_State_Penalty>
0.0870047

> <r_epik_Charging_Adjusted_Penalty>
0.0870047

> <i_epik_Tot_Q>
0

> <i_epik_Tot_abs_Q>
0

> <r_epik_Metal_State_Penalty>
0.0746849

> <b_epik_Metal_Only>
0

> <s_lp_Force_Field>
OPLS_2005

> <r_lp_Energy>
11.7232

> <b_lp_Chiralities_Consistent>
1

> <s_lp_Variant>
AV-unprocessed.smi:298-1

> <Gold.Version>
5.8.1

> <Gold.Id.Protein>
6NUR|6NUR_protein|mol2

> <Gold.PLP.Fitness>
55.1597

> <Gold.PLP.PLP>
-42.8436

> <Gold.PLP.part.hbond>
-4.0000

> <Gold.PLP.part.metal>
0.0000

> <Gold.PLP.part.buried>
-5.4725

> <Gold.PLP.part.nonpolar>
-33.2243

> <Gold.PLP.part.repulsive>
0.1851

> <Gold.PLP.ligand.clash>
0.0000

> <Gold.PLP.ligand.torsion>
1.1275

> <Gold.PLP.Chemscore.Hbond>
3.8480

> <Gold.PLP.Chemscore.CHOScore>
1.0000

> <Gold.PLP.Chemscore.Metal>
0.0000

> <Gold.Chemscore.Hbonds>
donor molecule, donor type, donor heavy atom, donor atom, acceptor molecule, acceptor atom, score
      L1  H    10    31       P1  7957  1.00
      P1  H  6934  6946       L1    17  1.00
      P1  H  7989  7998       L1    10  0.72
      P1  H  7997  8010       L1     5  0.80
      L1  C    13    34       P1 10175  1.00

> <Gold.PLP.Chemscore.Internal.Correction>
0.0271

> <Gold.Rescore>
     Score         DG    S(hbond)    S(metal)    S(lipo)     H(rot)  DE(clash)    DE(int)     intcor
     14.67     -16.48       2.12        0.00      99.90       3.03       0.53       1.28       ----

> <Gold.Chemscore.Fitness>
14.6721

> <Gold.Chemscore.DG>
-16.4812

> <Gold.Chemscore.ZeroCoef>
-5.4800

> <Gold.Chemscore.Hbond>
2.1179

> <Gold.Chemscore.Metal>
0.0000

> <Gold.Chemscore.Lipo>
99.9004

> <Gold.Chemscore.Internal_Hbond>
0.0000

> <Gold.Chemscore.DEClash>
0.5284

> <Gold.Chemscore.DEInternal>
1.2808

> <Gold.Chemscore.Rot>
3.0316

> <Gold.Chemscore.Internal.Correction>
   9.000000E+99

> <Gold.Chemscore.Hbonds>
donor molecule, donor type, donor heavy atom, donor atom, acceptor molecule, acceptor atom, score
      L1  H    10    31       P1  7957  0.99
      P1  H  6934  6946       L1    17  0.96
      P1  H  7989  7998       L1    10  0.06
      P1  H  7997  8010       L1     5  0.07

> <Gold.Chemscore.Hbond.Weighted>
-7.0737

> <Gold.Chemscore.Metal.Weighted>
-0.0000

> <Gold.Chemscore.Lipo.Weighted>
-11.6884

> <Gold.Chemscore.Internal_Hbond.Weighted>
0.0000

> <Gold.Chemscore.DEClash.Weighted>
0.5284

> <Gold.Chemscore.DEInternal.Weighted>
1.2808

> <Gold.Chemscore.Rot.Weighted>
7.7609

> <Gold.Chemscore.Internal.Correction.Weighted>
   9.000000E+99

> <Gold.Protein.RotatedTorsions>
[ 6907 6896 6895 6894 ] final -100.85 input  -60.11 | X-H torsion
[ 7974 7965 7964 7962 ] final -104.22 input  175.53 | X-H torsion
[ 8008 7997 7996 7995 ] final   53.86 input   59.86 | X-H torsion
[ 10167 10162 10161 10158 ] final  -92.90 input  -65.29 | X-H torsion
[ 10718 10713 10712 10709 ] final  -79.99 input   66.30 | X-H torsion
[ 10763 10752 10751 10750 ] final -121.64 input  -60.55 | X-H torsion
[ 11005 11000 10999 10996 ] final  -56.20 input  -57.11 | X-H torsion

> <Gold.Protein.ActiveResidues>
 VAL166  LYS551  ARG553  GLY616  TRP617  ASP618  TYR619  PRO620  LYS621  CYS622 
 ASP623  PHE694  ASN695  SER759  ASP760  ASP761  ALA762  ILE779  LEU786  VAL792 
 PHE793  MET794  SER795  GLU796  ALA797  LYS798  CYS799  TRP800  GLU811  SER814 

> <Gold.Protein.RotatedAtoms>
  150.7131  134.0825  159.3902 H   0  0  0  0  0  0  0  0  0  0  0  0  # atno 6907 bound_to 6896
  151.8809  135.0452  160.0498 H   0  0  0  0  0  0  0  0  0  0  0  0  # atno 6908 bound_to 6896
  152.2569  133.5227  159.5395 H   0  0  0  0  0  0  0  0  0  0  0  0  # atno 6909 bound_to 6896
  145.2460  140.9221  143.3123 H   0  0  0  0  0  0  0  0  0  0  0  0  # atno 7974 bound_to 7965
  155.4753  140.3466  155.4331 H   0  0  0  0  0  0  0  0  0  0  0  0  # atno 8008 bound_to 7997
  156.1074  140.1452  156.9414 H   0  0  0  0  0  0  0  0  0  0  0  0  # atno 8009 bound_to 7997
  154.4733  140.0893  156.7179 H   0  0  0  0  0  0  0  0  0  0  0  0  # atno 8010 bound_to 7997
  140.3302  143.2999  151.9951 H   0  0  0  0  0  0  0  0  0  0  0  0  # atno 10167 bound_to 10162
  156.0080  130.4561  150.3733 H   0  0  0  0  0  0  0  0  0  0  0  0  # atno 10718 bound_to 10713
  154.8672  135.4161  154.2652 H   0  0  0  0  0  0  0  0  0  0  0  0  # atno 10763 bound_to 10752
  153.3573  135.7001  153.6746 H   0  0  0  0  0  0  0  0  0  0  0  0  # atno 10764 bound_to 10752
  153.5661  135.3600  155.2791 H   0  0  0  0  0  0  0  0  0  0  0  0  # atno 10765 bound_to 10752
  141.1109  133.6611  156.4584 H   0  0  0  0  0  0  0  0  0  0  0  0  # atno 11005 bound_to 11000
  144.9546  139.4045  143.6385 LP  0  0  0  0  0  0  0  0  0  0  0  0  # atno 17320 bound_to 7965
  146.3316  139.8570  142.8863 LP  0  0  0  0  0  0  0  0  0  0  0  0  # atno 17321 bound_to 7965
  139.4858  144.6241  151.7198 LP  0  0  0  0  0  0  0  0  0  0  0  0  # atno 17342 bound_to 10162
  140.5404  144.0588  150.6086 LP  0  0  0  0  0  0  0  0  0  0  0  0  # atno 17343 bound_to 10162
  157.1816  131.0393  151.2745 LP  0  0  0  0  0  0  0  0  0  0  0  0  # atno 17370 bound_to 10713
  157.4140  130.7401  149.6861 LP  0  0  0  0  0  0  0  0  0  0  0  0  # atno 17371 bound_to 10713
  140.4777  134.6694  157.5157 LP  0  0  0  0  0  0  0  0  0  0  0  0  # atno 17394 bound_to 11000
  140.0003  134.6847  155.9542 LP  0  0  0  0  0  0  0  0  0  0  0  0  # atno 17395 bound_to 11000

$$$$
