AV-unprocessed.smi:162|AV-procd|sdf|1377|dock10
  -GOLD-   2262019103D 1   1.00000     0.00000
 Structure written by MMmdl.
 54 57  0  0  0  0  0  0  0  0  1 V2000
  152.7311  138.5451  155.3661 C   0  0  0  0  0  0  0  0  0  0  0  0
  152.9046  139.3527  156.5169 O   0  0  0  0  0  0  0  0  0  0  0  0
  151.8697  139.1695  157.4683 C   0  0  0  0  0  0  0  0  0  0  0  0
  151.3239  140.5440  157.8871 C   0  0  1  0  0  0  0  0  0  0  0  0
  152.2535  141.3311  158.8085 C   0  0  0  0  0  0  0  0  0  0  0  0
  151.7067  142.7511  158.6634 C   0  0  1  0  0  0  0  0  0  0  0  0
  152.6651  143.7589  158.9507 O   0  0  0  0  0  0  0  0  0  0  0  0
  152.1560  145.0764  158.8238 C   0  0  0  0  0  0  0  0  0  0  0  0
  151.2826  142.8100  157.1907 C   0  0  0  0  0  0  0  0  0  0  0  0
  151.0984  141.4298  156.7490 N   0  0  0  0  0  0  0  0  0  0  0  0
  149.9585  141.1906  156.0651 C   0  0  0  0  0  0  0  0  0  0  0  0
  150.0842  140.6912  154.8116 N   0  0  0  0  0  0  0  0  0  0  0  0
  148.9929  140.4160  154.0906 C   0  0  0  0  0  0  0  0  0  0  0  0
  147.7096  140.5590  154.4295 N   0  0  0  0  0  0  0  0  0  0  0  0
  147.5823  141.0598  155.6920 C   0  0  0  0  0  0  0  0  0  0  0  0
  148.6455  141.4040  156.5723 C   0  0  0  0  0  0  0  0  0  0  0  0
  148.1332  141.8809  157.7730 N   0  0  0  0  0  0  0  0  0  0  0  0
  146.8394  141.8190  157.6122 C   0  0  0  0  0  0  0  0  0  0  0  0
  146.4214  141.3288  156.3954 N   0  0  0  0  0  0  0  0  0  0  0  0
  145.0472  141.1413  155.9559 C   0  0  0  0  0  0  0  0  0  0  0  0
  144.3454  142.4524  155.5233 C   0  0  0  0  0  0  0  0  0  0  0  0
  143.1220  142.0988  154.9011 O   0  0  0  0  0  0  0  0  0  0  0  0
  144.0306  143.3269  156.7536 C   0  0  0  0  0  0  0  0  0  0  0  0
  143.4848  144.7106  156.3583 C   0  0  0  0  0  0  0  0  0  0  0  0
  144.3965  145.3610  155.4812 O   0  0  0  0  0  0  0  0  0  0  0  0
  144.5739  144.6625  154.2550 C   0  0  0  0  0  0  0  0  0  0  0  0
  145.1839  143.2745  154.5195 C   0  0  0  0  0  0  0  0  0  0  0  0
  150.3773  140.3926  158.4085 H   0  0  0  0  0  0  0  0  0  0  0  0
  150.8189  142.8715  159.2873 H   0  0  0  0  0  0  0  0  0  0  0  0
  153.5491  138.7216  154.6677 H   0  0  0  0  0  0  0  0  0  0  0  0
  151.7962  138.7810  154.8562 H   0  0  0  0  0  0  0  0  0  0  0  0
  152.7315  137.4853  155.6244 H   0  0  0  0  0  0  0  0  0  0  0  0
  151.0711  138.5544  157.0497 H   0  0  0  0  0  0  0  0  0  0  0  0
  152.2680  138.6422  158.3367 H   0  0  0  0  0  0  0  0  0  0  0  0
  152.2369  140.9680  159.8363 H   0  0  0  0  0  0  0  0  0  0  0  0
  153.2809  141.2837  158.4440 H   0  0  0  0  0  0  0  0  0  0  0  0
  152.9511  145.7938  159.0266 H   0  0  0  0  0  0  0  0  0  0  0  0
  151.3490  145.2650  159.5326 H   0  0  0  0  0  0  0  0  0  0  0  0
  151.7868  145.2620  157.8144 H   0  0  0  0  0  0  0  0  0  0  0  0
  150.4010  143.4375  157.0530 H   0  0  0  0  0  0  0  0  0  0  0  0
  152.0819  143.2403  156.5868 H   0  0  0  0  0  0  0  0  0  0  0  0
  149.1740  140.0219  153.1015 H   0  0  0  0  0  0  0  0  0  0  0  0
  146.1484  142.1227  158.3852 H   0  0  0  0  0  0  0  0  0  0  0  0
  145.0448  140.4199  155.1375 H   0  0  0  0  0  0  0  0  0  0  0  0
  144.4935  140.6744  156.7714 H   0  0  0  0  0  0  0  0  0  0  0  0
  143.2889  141.3986  154.2887 H   0  0  0  0  0  0  0  0  0  0  0  0
  143.3252  142.8208  157.4141 H   0  0  0  0  0  0  0  0  0  0  0  0
  144.9420  143.4715  157.3354 H   0  0  0  0  0  0  0  0  0  0  0  0
  142.5042  144.6280  155.8872 H   0  0  0  0  0  0  0  0  0  0  0  0
  143.3554  145.3268  157.2481 H   0  0  0  0  0  0  0  0  0  0  0  0
  143.6215  144.5799  153.7290 H   0  0  0  0  0  0  0  0  0  0  0  0
  145.2374  145.2434  153.6141 H   0  0  0  0  0  0  0  0  0  0  0  0
  146.1900  143.4093  154.9186 H   0  0  0  0  0  0  0  0  0  0  0  0
  145.2978  142.7398  153.5756 H   0  0  0  0  0  0  0  0  0  0  0  0
  1  2  1  0  0  0  0
  1 30  1  0  0  0  0
  1 31  1  0  0  0  0
  1 32  1  0  0  0  0
  2  3  1  0  0  0  0
  3  4  1  0  0  0  0
  3 33  1  0  0  0  0
  3 34  1  0  0  0  0
  4 28  1  0  0  0  0
  4 10  1  0  0  0  0
  4  5  1  0  0  0  0
  5  6  1  0  0  0  0
  5 35  1  0  0  0  0
  5 36  1  0  0  0  0
  6 29  1  0  0  0  0
  6  7  1  0  0  0  0
  6  9  1  0  0  0  0
  7  8  1  0  0  0  0
  8 37  1  0  0  0  0
  8 38  1  0  0  0  0
  8 39  1  0  0  0  0
  9 10  1  0  0  0  0
  9 40  1  0  0  0  0
  9 41  1  0  0  0  0
 10 11  1  0  0  0  0
 11 16  1  0  0  0  0
 11 12  2  0  0  0  0
 12 13  1  0  0  0  0
 13 14  2  0  0  0  0
 13 42  1  0  0  0  0
 14 15  1  0  0  0  0
 15 19  1  0  0  0  0
 15 16  2  0  0  0  0
 16 17  1  0  0  0  0
 17 18  2  0  0  0  0
 18 19  1  0  0  0  0
 18 43  1  0  0  0  0
 19 20  1  0  0  0  0
 20 21  1  0  0  0  0
 20 44  1  0  0  0  0
 20 45  1  0  0  0  0
 21 27  1  0  0  0  0
 21 22  1  0  0  0  0
 21 23  1  0  0  0  0
 22 46  1  0  0  0  0
 23 24  1  0  0  0  0
 23 47  1  0  0  0  0
 23 48  1  0  0  0  0
 24 25  1  0  0  0  0
 24 49  1  0  0  0  0
 24 50  1  0  0  0  0
 25 26  1  0  0  0  0
 26 27  1  0  0  0  0
 26 51  1  0  0  0  0
 26 52  1  0  0  0  0
 27 53  1  0  0  0  0
 27 54  1  0  0  0  0
M  END
> <s_m_source_file>
AV-unprocessed.smi

> <i_m_source_file_index>
162

> <i_lp_mmshare_version>
43012

> <i_f3d_flags>
0

> <s_epik_input>
W0NIM11PW0NIMl1bQ0BASF0xW0NIMl1bQ0BASF0oT1tDSDNdKVtDSDJdTjFjKG5bY0hdbjIpYyhjMjMpbltjSF1uM1tDSDJdQzQoW09IXSlbQ0gyXVtDSDJdT1tDSDJdW0NIMl00

> <s_epik_cmdline>
J2VwaWtfcHl0aG9uJywgJy1waCcsICc3LjAnLCAnLXRuJywgJzgnLCAnLW1hJywgJzIwMCcsICctbWV0YWxfYmluZGluZycsICctaW1hZScsICc8aW5maWxlLm1hZT4nLCAnLW9tYWUnLCAnPG91dGZpbGUubWFlPic=

> <r_lp_tautomer_probability>
1

> <r_epik_Ionization_Penalty>
0.00660334

> <r_epik_Ionization_Penalty_Charging>
0

> <r_epik_Ionization_Penalty_Neutral>
0.00660334

> <r_epik_State_Penalty>
0.00469459

> <r_epik_Charging_Adjusted_Penalty>
0.00469459

> <i_epik_Tot_Q>
0

> <i_epik_Tot_abs_Q>
0

> <r_epik_Metal_State_Penalty>
-0

> <b_epik_Metal_Only>
0

> <s_lp_Force_Field>
OPLS_2005

> <r_lp_Energy>
41.7702

> <b_lp_Chiralities_Consistent>
1

> <s_lp_Variant>
AV-unprocessed.smi:162-2

> <Gold.Version>
5.8.1

> <Gold.Id.Protein>
6NUR|6NUR_protein|mol2

> <Gold.PLP.Fitness>
47.5866

> <Gold.PLP.PLP>
-38.0647

> <Gold.PLP.part.hbond>
-4.0000

> <Gold.PLP.part.metal>
0.0000

> <Gold.PLP.part.buried>
-5.8142

> <Gold.PLP.part.nonpolar>
-28.8824

> <Gold.PLP.part.repulsive>
0.4632

> <Gold.PLP.ligand.clash>
0.0000

> <Gold.PLP.ligand.torsion>
0.8481

> <Gold.PLP.Chemscore.Hbond>
2.7908

> <Gold.PLP.Chemscore.CHOScore>
0.8974

> <Gold.PLP.Chemscore.Metal>
0.0000

> <Gold.Chemscore.Hbonds>
donor molecule, donor type, donor heavy atom, donor atom, acceptor molecule, acceptor atom, score
      L1  H    22    46       P1 10175  0.90
      P1  H  7989  7998       L1    12  0.83
      P1  H  7997  8009       L1     2  1.00
      L1  C    13    42       P1  7957  0.90

> <Gold.PLP.Chemscore.Internal.Correction>
0.1538

> <Gold.Rescore>
     Score         DG    S(hbond)    S(metal)    S(lipo)     H(rot)  DE(clash)    DE(int)     intcor
     13.54     -15.09       2.25        0.00      80.57       2.86       0.96       0.59       ----

> <Gold.Chemscore.Fitness>
13.5359

> <Gold.Chemscore.DG>
-15.0877

> <Gold.Chemscore.ZeroCoef>
-5.4800

> <Gold.Chemscore.Hbond>
2.2494

> <Gold.Chemscore.Metal>
0.0000

> <Gold.Chemscore.Lipo>
80.5737

> <Gold.Chemscore.Internal_Hbond>
0.0000

> <Gold.Chemscore.DEClash>
0.9649

> <Gold.Chemscore.DEInternal>
0.5869

> <Gold.Chemscore.Rot>
2.8642

> <Gold.Chemscore.Internal.Correction>
   9.000000E+99

> <Gold.Chemscore.Hbonds>
donor molecule, donor type, donor heavy atom, donor atom, acceptor molecule, acceptor atom, score
      L1  H    22    46       P1 10175  0.17
      P1  H  7989  7998       L1    12  0.47
      P1  H  7997  8009       L1     2  0.93

> <Gold.Chemscore.Hbond.Weighted>
-7.5130

> <Gold.Chemscore.Metal.Weighted>
-0.0000

> <Gold.Chemscore.Lipo.Weighted>
-9.4271

> <Gold.Chemscore.Internal_Hbond.Weighted>
0.0000

> <Gold.Chemscore.DEClash.Weighted>
0.9649

> <Gold.Chemscore.DEInternal.Weighted>
0.5869

> <Gold.Chemscore.Rot.Weighted>
7.3324

> <Gold.Chemscore.Internal.Correction.Weighted>
   9.000000E+99

> <Gold.Protein.RotatedTorsions>
[ 6907 6896 6895 6894 ] final  -23.45 input  -60.11 | X-H torsion
[ 7974 7965 7964 7962 ] final  -15.48 input  175.53 | X-H torsion
[ 8008 7997 7996 7995 ] final  173.76 input   59.86 | X-H torsion
[ 10167 10162 10161 10158 ] final  154.94 input  -65.29 | X-H torsion
[ 10718 10713 10712 10709 ] final    1.00 input   66.30 | X-H torsion
[ 10763 10752 10751 10750 ] final  -61.57 input  -60.55 | X-H torsion
[ 11005 11000 10999 10996 ] final  -92.03 input  -57.11 | X-H torsion

> <Gold.Protein.ActiveResidues>
 VAL166  LYS551  ARG553  GLY616  TRP617  ASP618  TYR619  PRO620  LYS621  CYS622 
 ASP623  PHE694  ASN695  SER759  ASP760  ASP761  ALA762  ILE779  LEU786  VAL792 
 PHE793  MET794  SER795  GLU796  ALA797  LYS798  CYS799  TRP800  GLU811  SER814 

> <Gold.Protein.RotatedAtoms>
  151.2038  135.0453  159.8882 H   0  0  0  0  0  0  0  0  0  0  0  0  # atno 6907 bound_to 6896
  152.5430  134.0820  159.8250 H   0  0  0  0  0  0  0  0  0  0  0  0  # atno 6908 bound_to 6896
  151.0964  133.5229  159.2644 H   0  0  0  0  0  0  0  0  0  0  0  0  # atno 6909 bound_to 6896
  146.2030  140.3499  142.8417 H   0  0  0  0  0  0  0  0  0  0  0  0  # atno 7974 bound_to 7965
  156.1043  140.1452  156.9425 H   0  0  0  0  0  0  0  0  0  0  0  0  # atno 8008 bound_to 7997
  154.4723  140.0906  156.7220 H   0  0  0  0  0  0  0  0  0  0  0  0  # atno 8009 bound_to 7997
  155.4707  140.3441  155.4327 H   0  0  0  0  0  0  0  0  0  0  0  0  # atno 8010 bound_to 7997
  139.4822  144.5142  151.7977 H   0  0  0  0  0  0  0  0  0  0  0  0  # atno 10167 bound_to 10162
  156.8417  130.5523  149.5677 H   0  0  0  0  0  0  0  0  0  0  0  0  # atno 10718 bound_to 10713
  154.2866  135.6261  153.5368 H   0  0  0  0  0  0  0  0  0  0  0  0  # atno 10763 bound_to 10752
  152.9858  135.5645  154.5437 H   0  0  0  0  0  0  0  0  0  0  0  0  # atno 10764 bound_to 10752
  154.5039  135.2873  155.1374 H   0  0  0  0  0  0  0  0  0  0  0  0  # atno 10765 bound_to 10752
  141.1531  133.7794  156.9962 H   0  0  0  0  0  0  0  0  0  0  0  0  # atno 11005 bound_to 11000
  144.8727  140.7294  143.6037 LP  0  0  0  0  0  0  0  0  0  0  0  0  # atno 17320 bound_to 7965
  145.3418  139.1730  143.4481 LP  0  0  0  0  0  0  0  0  0  0  0  0  # atno 17321 bound_to 7965
  140.4649  144.1670  150.5910 LP  0  0  0  0  0  0  0  0  0  0  0  0  # atno 17342 bound_to 10162
  140.4445  143.2512  151.9429 LP  0  0  0  0  0  0  0  0  0  0  0  0  # atno 17343 bound_to 10162
  156.0877  130.5871  150.9677 LP  0  0  0  0  0  0  0  0  0  0  0  0  # atno 17370 bound_to 10713
  157.6352  131.0917  150.8362 LP  0  0  0  0  0  0  0  0  0  0  0  0  # atno 17371 bound_to 10713
  140.0970  134.9558  157.1864 LP  0  0  0  0  0  0  0  0  0  0  0  0  # atno 17394 bound_to 11000
  140.3369  134.2747  155.7218 LP  0  0  0  0  0  0  0  0  0  0  0  0  # atno 17395 bound_to 11000

$$$$
