AV-unprocessed.smi:2086|AV-procd|sdf|8518|dock1
  -GOLD-   2272011233D 1   1.00000     0.00000
 Structure written by MMmdl.
 34 35  0  0  0  0  0  0  0  0  1 V2000
  154.5380  139.1052  159.0536 O   0  0  0  0  0  0  0  0  0  0  0  0
  154.1111  139.7740  159.9948 C   0  0  0  0  0  0  0  0  0  0  0  0
  154.3716  139.4935  161.2815 N   0  0  0  0  0  0  0  0  0  0  0  0
  155.1440  138.3511  161.7568 C   0  0  0  0  0  0  0  0  0  0  0  0
  154.2922  137.0739  161.8462 C   0  0  0  0  0  0  0  0  0  0  0  0
  153.5019  137.1511  162.9162 F   0  0  0  0  0  0  0  0  0  0  0  0
  153.5283  136.9331  160.7630 F   0  0  0  0  0  0  0  0  0  0  0  0
  155.0775  136.0039  161.9718 F   0  0  0  0  0  0  0  0  0  0  0  0
  153.3038  141.0208  159.7433 C   0  0  0  0  0  0  0  0  0  0  0  0
  153.4214  142.0936  160.6554 C   0  0  0  0  0  0  0  0  0  0  0  0
  152.6741  143.2668  160.4504 C   0  0  0  0  0  0  0  0  0  0  0  0
  151.8329  143.3306  159.3269 C   0  0  0  0  0  0  0  0  0  0  0  0
  151.7202  142.3272  158.4337 N   0  0  0  0  0  0  0  0  0  0  0  0
  152.4417  141.1935  158.6174 C   0  0  0  0  0  0  0  0  0  0  0  0
  152.3297  140.2126  157.6113 N   0  0  0  0  0  0  0  0  0  0  0  0
  151.5814  140.6488  156.4391 C   0  0  0  0  0  0  0  0  0  0  0  0
  151.7699  139.6377  155.2953 C   0  0  0  0  0  0  0  0  0  0  0  0
  151.3898  138.3371  155.7371 O   0  0  0  0  0  0  0  0  0  0  0  0
  152.1765  137.8916  156.8388 C   0  0  0  0  0  0  0  0  0  0  0  0
  151.9958  138.8541  158.0251 C   0  0  0  0  0  0  0  0  0  0  0  0
  154.0000  140.1157  161.9845 H   0  0  0  0  0  0  0  0  0  0  0  0
  155.9665  138.1946  161.0582 H   0  0  0  0  0  0  0  0  0  0  0  0
  155.6013  138.5732  162.7225 H   0  0  0  0  0  0  0  0  0  0  0  0
  154.0702  142.0181  161.5164 H   0  0  0  0  0  0  0  0  0  0  0  0
  152.7420  144.0956  161.1395 H   0  0  0  0  0  0  0  0  0  0  0  0
  151.2402  144.2128  159.1351 H   0  0  0  0  0  0  0  0  0  0  0  0
  150.5249  140.7279  156.6993 H   0  0  0  0  0  0  0  0  0  0  0  0
  151.9053  141.6387  156.1171 H   0  0  0  0  0  0  0  0  0  0  0  0
  151.1540  139.9174  154.4406 H   0  0  0  0  0  0  0  0  0  0  0  0
  152.8063  139.6288  154.9532 H   0  0  0  0  0  0  0  0  0  0  0  0
  151.8611  136.8864  157.1183 H   0  0  0  0  0  0  0  0  0  0  0  0
  153.2259  137.8276  156.5468 H   0  0  0  0  0  0  0  0  0  0  0  0
  152.6346  138.5506  158.8555 H   0  0  0  0  0  0  0  0  0  0  0  0
  150.9635  138.8181  158.3760 H   0  0  0  0  0  0  0  0  0  0  0  0
  1  2  2  0  0  0  0
  2  3  1  0  0  0  0
  2  9  1  0  0  0  0
  3  4  1  0  0  0  0
  3 21  1  0  0  0  0
  4  5  1  0  0  0  0
  4 22  1  0  0  0  0
  4 23  1  0  0  0  0
  5  6  1  0  0  0  0
  5  7  1  0  0  0  0
  5  8  1  0  0  0  0
  9 14  1  0  0  0  0
  9 10  2  0  0  0  0
 10 11  1  0  0  0  0
 10 24  1  0  0  0  0
 11 12  2  0  0  0  0
 11 25  1  0  0  0  0
 12 13  1  0  0  0  0
 12 26  1  0  0  0  0
 13 14  2  0  0  0  0
 14 15  1  0  0  0  0
 15 20  1  0  0  0  0
 15 16  1  0  0  0  0
 16 17  1  0  0  0  0
 16 27  1  0  0  0  0
 16 28  1  0  0  0  0
 17 18  1  0  0  0  0
 17 29  1  0  0  0  0
 17 30  1  0  0  0  0
 18 19  1  0  0  0  0
 19 20  1  0  0  0  0
 19 31  1  0  0  0  0
 19 32  1  0  0  0  0
 20 33  1  0  0  0  0
 20 34  1  0  0  0  0
M  END
> <s_m_source_file>
AV-unprocessed.smi

> <i_m_source_file_index>
2086

> <i_lp_mmshare_version>
43012

> <i_f3d_flags>
0

> <s_epik_input>
RkMoRikoRilbQ0gyXVtOSF1DKD1PKWMxW2NIXVtjSF1bY0hdbmMxTjJbQ0gyXVtDSDJdT1tDSDJdW0NIMl0y

> <s_epik_cmdline>
J2VwaWtfcHl0aG9uJywgJy1waCcsICc3LjAnLCAnLXRuJywgJzgnLCAnLW1hJywgJzIwMCcsICctbWV0YWxfYmluZGluZycsICctaW1hZScsICc8aW5maWxlLm1hZT4nLCAnLW9tYWUnLCAnPG91dGZpbGUubWFlPic=

> <r_lp_tautomer_probability>
1

> <r_epik_Ionization_Penalty>
1.36166e-05

> <r_epik_Ionization_Penalty_Charging>
0

> <r_epik_Ionization_Penalty_Neutral>
1.36166e-05

> <r_epik_State_Penalty>
-0

> <r_epik_Charging_Adjusted_Penalty>
0

> <i_epik_Tot_Q>
0

> <i_epik_Tot_abs_Q>
0

> <r_epik_Metal_State_Penalty>
0.00705299

> <b_epik_Metal_Only>
0

> <s_lp_Force_Field>
OPLS_2005

> <r_lp_Energy>
23.9064

> <b_lp_Chiralities_Consistent>
1

> <s_lp_Variant>
AV-unprocessed.smi:2086-1

> <Gold.Version>
5.8.1

> <Gold.Id.Protein>
6NUR|6NUR_protein|mol2

> <Gold.PLP.Fitness>
37.9136

> <Gold.PLP.PLP>
-36.2253

> <Gold.PLP.part.hbond>
-1.6688

> <Gold.PLP.part.metal>
0.0000

> <Gold.PLP.part.buried>
-3.6703

> <Gold.PLP.part.nonpolar>
-30.5923

> <Gold.PLP.part.repulsive>
0.0190

> <Gold.PLP.ligand.clash>
0.0000

> <Gold.PLP.ligand.torsion>
0.8498

> <Gold.PLP.Chemscore.Hbond>
1.0000

> <Gold.PLP.Chemscore.CHOScore>
0.0000

> <Gold.PLP.Chemscore.Metal>
0.0000

> <Gold.Chemscore.Hbonds>
donor molecule, donor type, donor heavy atom, donor atom, acceptor molecule, acceptor atom, score
      P1  H  7997  8008       L1     1  1.00

> <Gold.PLP.Chemscore.Internal.Correction>
0.3879

> <Gold.Rescore>
     Score         DG    S(hbond)    S(metal)    S(lipo)     H(rot)  DE(clash)    DE(int)     intcor
     10.81     -14.27       0.98        0.00      76.11       1.33       0.04       3.42       ----

> <Gold.Chemscore.Fitness>
10.8114

> <Gold.Chemscore.DG>
-14.2680

> <Gold.Chemscore.ZeroCoef>
-5.4800

> <Gold.Chemscore.Hbond>
0.9841

> <Gold.Chemscore.Metal>
0.0000

> <Gold.Chemscore.Lipo>
76.1067

> <Gold.Chemscore.Internal_Hbond>
0.0000

> <Gold.Chemscore.DEClash>
0.0379

> <Gold.Chemscore.DEInternal>
3.4187

> <Gold.Chemscore.Rot>
1.3294

> <Gold.Chemscore.Internal.Correction>
   9.000000E+99

> <Gold.Chemscore.Hbonds>
donor molecule, donor type, donor heavy atom, donor atom, acceptor molecule, acceptor atom, score
      P1  H  7997  8008       L1     1  0.91

> <Gold.Chemscore.Hbond.Weighted>
-3.2869

> <Gold.Chemscore.Metal.Weighted>
-0.0000

> <Gold.Chemscore.Lipo.Weighted>
-8.9045

> <Gold.Chemscore.Internal_Hbond.Weighted>
0.0000

> <Gold.Chemscore.DEClash.Weighted>
0.0379

> <Gold.Chemscore.DEInternal.Weighted>
3.4187

> <Gold.Chemscore.Rot.Weighted>
3.4033

> <Gold.Chemscore.Internal.Correction.Weighted>
   9.000000E+99

> <Gold.Protein.RotatedTorsions>
[ 6907 6896 6895 6894 ] final -152.30 input  -60.11 | X-H torsion
[ 7974 7965 7964 7962 ] final -168.61 input  175.53 | X-H torsion
[ 8008 7997 7996 7995 ] final -119.95 input   59.86 | X-H torsion
[ 10167 10162 10161 10158 ] final  -92.96 input  -65.29 | X-H torsion
[ 10718 10713 10712 10709 ] final  132.76 input   66.30 | X-H torsion
[ 10763 10752 10751 10750 ] final -175.73 input  -60.55 | X-H torsion
[ 11005 11000 10999 10996 ] final   61.94 input  -57.11 | X-H torsion

> <Gold.Protein.ActiveResidues>
 VAL166  LYS551  ARG553  GLY616  TRP617  ASP618  TYR619  PRO620  LYS621  CYS622 
 ASP623  PHE694  ASN695  SER759  ASP760  ASP761  ALA762  ILE779  LEU786  VAL792 
 PHE793  MET794  SER795  GLU796  ALA797  LYS798  CYS799  TRP800  GLU811  SER814 

> <Gold.Protein.RotatedAtoms>
  151.2258  133.4477  159.2601 H   0  0  0  0  0  0  0  0  0  0  0  0  # atno 6907 bound_to 6896
  151.0841  134.9876  159.8381 H   0  0  0  0  0  0  0  0  0  0  0  0  # atno 6908 bound_to 6896
  152.5427  134.2196  159.8835 H   0  0  0  0  0  0  0  0  0  0  0  0  # atno 6909 bound_to 6896
  144.7200  140.2344  143.6300 H   0  0  0  0  0  0  0  0  0  0  0  0  # atno 7974 bound_to 7965
  155.1239  140.0399  157.2757 H   0  0  0  0  0  0  0  0  0  0  0  0  # atno 8008 bound_to 7997
  154.6592  140.2587  155.7101 H   0  0  0  0  0  0  0  0  0  0  0  0  # atno 8009 bound_to 7997
  156.2612  140.2820  156.1058 H   0  0  0  0  0  0  0  0  0  0  0  0  # atno 8010 bound_to 7997
  140.3295  143.3003  151.9958 H   0  0  0  0  0  0  0  0  0  0  0  0  # atno 10167 bound_to 10162
  157.4840  131.1087  150.9644 H   0  0  0  0  0  0  0  0  0  0  0  0  # atno 10718 bound_to 10713
  154.5808  135.2836  155.0734 H   0  0  0  0  0  0  0  0  0  0  0  0  # atno 10763 bound_to 10752
  154.2071  135.6414  153.5108 H   0  0  0  0  0  0  0  0  0  0  0  0  # atno 10764 bound_to 10752
  153.0088  135.5483  154.6462 H   0  0  0  0  0  0  0  0  0  0  0  0  # atno 10765 bound_to 10752
  140.0126  134.6273  155.9757 H   0  0  0  0  0  0  0  0  0  0  0  0  # atno 11005 bound_to 11000
  145.8379  139.2116  143.1844 LP  0  0  0  0  0  0  0  0  0  0  0  0  # atno 17320 bound_to 7965
  146.0372  140.8200  142.9846 LP  0  0  0  0  0  0  0  0  0  0  0  0  # atno 17321 bound_to 7965
  139.4859  144.6246  151.7189 LP  0  0  0  0  0  0  0  0  0  0  0  0  # atno 17342 bound_to 10162
  140.5410  144.0579  150.6088 LP  0  0  0  0  0  0  0  0  0  0  0  0  # atno 17343 bound_to 10162
  157.0368  130.5733  149.5350 LP  0  0  0  0  0  0  0  0  0  0  0  0  # atno 17370 bound_to 10713
  156.0137  130.5230  150.8068 LP  0  0  0  0  0  0  0  0  0  0  0  0  # atno 17371 bound_to 10713
  141.1721  133.6538  156.4691 LP  0  0  0  0  0  0  0  0  0  0  0  0  # atno 17394 bound_to 11000
  140.4527  134.6913  157.5047 LP  0  0  0  0  0  0  0  0  0  0  0  0  # atno 17395 bound_to 11000

$$$$
