AV-unprocessed.smi:1120|AV-procd|sdf|4818|dock10
  -GOLD-   22720 3373D 1   1.00000     0.00000
 Structure written by MMmdl.
 48 49  0  0  0  0  0  0  0  0  1 V2000
  152.8234  142.7167  161.0224 C   0  0  0  0  0  0  0  0  0  0  0  0
  152.8246  141.8812  159.7342 C   0  0  2  0  0  0  0  0  0  0  0  0
  151.4158  141.7953  159.1165 C   0  0  0  0  0  0  0  0  0  0  0  0
  151.4151  140.9593  157.8268 C   0  0  0  0  0  0  0  0  0  0  0  0
  151.9838  139.5497  158.0681 C   0  0  1  0  0  0  0  0  0  0  0  0
  152.0250  138.8214  156.7973 N   0  0  0  0  0  0  0  0  0  0  0  0
  150.8017  139.1080  155.6115 S   0  0  0  0  0  0  0  0  0  0  0  0
  149.5032  138.7806  156.2213 O   0  0  0  0  0  0  0  0  0  0  0  0
  151.0386  140.4491  155.0556 O   0  0  0  0  0  0  0  0  0  0  0  0
  151.2139  137.8620  154.3116 C   0  0  0  0  0  0  0  0  0  0  0  0
  151.1981  136.4538  154.9051 C   0  0  0  0  0  0  0  0  0  0  0  0
  151.9524  136.1738  155.8361 O   0  0  0  0  0  0  0  0  0  0  0  0
  150.3350  135.5800  154.3640 N   0  0  0  0  0  0  0  0  0  0  0  0
  150.1541  134.2015  154.8047 C   0  0  0  0  0  0  0  0  0  0  0  0
  150.1377  133.2216  153.6193 C   0  0  0  0  0  0  0  0  0  0  0  0
  148.7290  132.8117  153.2322 C   0  0  0  0  0  0  0  0  0  0  0  0
  148.2445  133.0410  151.9266 C   0  0  0  0  0  0  0  0  0  0  0  0
  146.9271  132.6471  151.6213 C   0  0  0  0  0  0  0  0  0  0  0  0
  146.1488  132.0435  152.6274 C   0  0  0  0  0  0  0  0  0  0  0  0
  146.7246  131.8603  153.9003 C   0  0  0  0  0  0  0  0  0  0  0  0
  147.9864  132.2347  154.2037 N   0  0  0  0  0  0  0  0  0  0  0  0
  153.3905  139.6265  158.6924 C   0  0  0  0  0  0  0  0  0  0  0  0
  153.3884  140.4683  159.9787 C   0  0  0  0  0  0  0  0  0  0  0  0
  152.1820  142.2712  161.7834 H   0  0  0  0  0  0  0  0  0  0  0  0
  152.4634  143.7283  160.8338 H   0  0  0  0  0  0  0  0  0  0  0  0
  153.8277  142.7972  161.4389 H   0  0  0  0  0  0  0  0  0  0  0  0
  153.4763  142.3836  159.0179 H   0  0  0  0  0  0  0  0  0  0  0  0
  150.7233  141.3547  159.8350 H   0  0  0  0  0  0  0  0  0  0  0  0
  151.0410  142.7966  158.9012 H   0  0  0  0  0  0  0  0  0  0  0  0
  150.3993  140.8902  157.4355 H   0  0  0  0  0  0  0  0  0  0  0  0
  152.0051  141.4719  157.0654 H   0  0  0  0  0  0  0  0  0  0  0  0
  151.3174  139.0218  158.7515 H   0  0  0  0  0  0  0  0  0  0  0  0
  152.1641  137.8220  156.9471 H   0  0  0  0  0  0  0  0  0  0  0  0
  150.4771  137.9454  153.5124 H   0  0  0  0  0  0  0  0  0  0  0  0
  152.1914  138.0987  153.8912 H   0  0  0  0  0  0  0  0  0  0  0  0
  149.7495  135.8960  153.6046 H   0  0  0  0  0  0  0  0  0  0  0  0
  150.9366  133.9319  155.5160 H   0  0  0  0  0  0  0  0  0  0  0  0
  149.2096  134.1425  155.3460 H   0  0  0  0  0  0  0  0  0  0  0  0
  150.6298  133.6721  152.7563 H   0  0  0  0  0  0  0  0  0  0  0  0
  150.7085  132.3241  153.8622 H   0  0  0  0  0  0  0  0  0  0  0  0
  148.8645  133.5086  151.1757 H   0  0  0  0  0  0  0  0  0  0  0  0
  146.5211  132.8056  150.6333 H   0  0  0  0  0  0  0  0  0  0  0  0
  145.1349  131.7290  152.4295 H   0  0  0  0  0  0  0  0  0  0  0  0
  146.1569  131.4012  154.6960 H   0  0  0  0  0  0  0  0  0  0  0  0
  153.7604  138.6268  158.9205 H   0  0  0  0  0  0  0  0  0  0  0  0
  154.0907  140.0602  157.9770 H   0  0  0  0  0  0  0  0  0  0  0  0
  154.4034  140.5341  160.3717 H   0  0  0  0  0  0  0  0  0  0  0  0
  152.7952  139.9616  160.7411 H   0  0  0  0  0  0  0  0  0  0  0  0
  1  2  1  0  0  0  0
  1 24  1  0  0  0  0
  1 25  1  0  0  0  0
  1 26  1  0  0  0  0
  2 23  1  0  0  0  0
  2  3  1  0  0  0  0
  2 27  1  0  0  0  0
  3  4  1  0  0  0  0
  3 28  1  0  0  0  0
  3 29  1  0  0  0  0
  4  5  1  0  0  0  0
  4 30  1  0  0  0  0
  4 31  1  0  0  0  0
  5  6  1  0  0  0  0
  5 22  1  0  0  0  0
  5 32  1  0  0  0  0
  6  7  1  0  0  0  0
  6 33  1  0  0  0  0
  7  8  2  0  0  0  0
  7  9  2  0  0  0  0
  7 10  1  0  0  0  0
 10 11  1  0  0  0  0
 10 34  1  0  0  0  0
 10 35  1  0  0  0  0
 11 12  2  0  0  0  0
 11 13  1  0  0  0  0
 13 14  1  0  0  0  0
 13 36  1  0  0  0  0
 14 15  1  0  0  0  0
 14 37  1  0  0  0  0
 14 38  1  0  0  0  0
 15 16  1  0  0  0  0
 15 39  1  0  0  0  0
 15 40  1  0  0  0  0
 16 21  1  0  0  0  0
 16 17  2  0  0  0  0
 17 18  1  0  0  0  0
 17 41  1  0  0  0  0
 18 19  2  0  0  0  0
 18 42  1  0  0  0  0
 19 20  1  0  0  0  0
 19 43  1  0  0  0  0
 20 21  2  0  0  0  0
 20 44  1  0  0  0  0
 22 23  1  0  0  0  0
 22 45  1  0  0  0  0
 22 46  1  0  0  0  0
 23 47  1  0  0  0  0
 23 48  1  0  0  0  0
M  END
> <s_m_source_file>
AV-unprocessed.smi

> <i_m_source_file_index>
1120

> <i_lp_mmshare_version>
43012

> <i_f3d_flags>
0

> <s_epik_input>
W0NIM11bQ0BASF0xW0NIMl1bQ0gyXVtDQEhdKFtDSDJdW0NIMl0xKVtOSF1TKD1PKSg9TylbQ0gyXUMoPU8pW05IXVtDSDJdW0NIMl1jMltjSF1bY0hdW2NIXVtjSF1uMg==

> <s_epik_cmdline>
J2VwaWtfcHl0aG9uJywgJy1waCcsICc3LjAnLCAnLXRuJywgJzgnLCAnLW1hJywgJzIwMCcsICctbWV0YWxfYmluZGluZycsICctaW1hZScsICc8aW5maWxlLm1hZT4nLCAnLW9tYWUnLCAnPG91dGZpbGUubWFlPic=

> <r_epik_Ionization_Penalty>
0.0216068

> <r_epik_Ionization_Penalty_Charging>
0

> <r_epik_Ionization_Penalty_Neutral>
0.0216068

> <r_epik_State_Penalty>
0.01735

> <r_epik_Charging_Adjusted_Penalty>
0.01735

> <i_epik_Tot_Q>
0

> <i_epik_Tot_abs_Q>
0

> <r_epik_Metal_State_Penalty>
0.0535325

> <b_epik_Metal_Only>
0

> <s_lp_Force_Field>
OPLS_2005

> <r_lp_Energy>
6.02559

> <b_lp_Chiralities_Consistent>
1

> <s_lp_Variant>
AV-unprocessed.smi:1120-1

> <Gold.Version>
5.8.1

> <Gold.Id.Protein>
6NUR|6NUR_protein|mol2

> <Gold.PLP.Fitness>
51.0083

> <Gold.PLP.PLP>
-40.2785

> <Gold.PLP.part.hbond>
-3.3406

> <Gold.PLP.part.metal>
0.0000

> <Gold.PLP.part.buried>
-2.8824

> <Gold.PLP.part.nonpolar>
-33.0063

> <Gold.PLP.part.repulsive>
0.1732

> <Gold.PLP.ligand.clash>
0.0000

> <Gold.PLP.ligand.torsion>
0.7665

> <Gold.PLP.Chemscore.Hbond>
3.0000

> <Gold.PLP.Chemscore.CHOScore>
0.9879

> <Gold.PLP.Chemscore.Metal>
0.0000

> <Gold.Chemscore.Hbonds>
donor molecule, donor type, donor heavy atom, donor atom, acceptor molecule, acceptor atom, score
      L1  H    13    36       P1  7948  0.85
      P1  H  7989  7998       L1     9  1.00
      P1  H 10752 10764       L1    12  0.96

> <Gold.PLP.Chemscore.Internal.Correction>
0.2991

> <Gold.Rescore>
     Score         DG    S(hbond)    S(metal)    S(lipo)     H(rot)  DE(clash)    DE(int)     intcor
     16.60     -20.09       2.59        0.00      97.21       2.12       0.03       3.45       ----

> <Gold.Chemscore.Fitness>
16.5993

> <Gold.Chemscore.DG>
-20.0852

> <Gold.Chemscore.ZeroCoef>
-5.4800

> <Gold.Chemscore.Hbond>
2.5936

> <Gold.Chemscore.Metal>
0.0000

> <Gold.Chemscore.Lipo>
97.2062

> <Gold.Chemscore.Internal_Hbond>
0.0000

> <Gold.Chemscore.DEClash>
0.0318

> <Gold.Chemscore.DEInternal>
3.4541

> <Gold.Chemscore.Rot>
2.1213

> <Gold.Chemscore.Internal.Correction>
   9.000000E+99

> <Gold.Chemscore.Hbonds>
donor molecule, donor type, donor heavy atom, donor atom, acceptor molecule, acceptor atom, score
      L1  H    13    36       P1  7948  0.15
      P1  H  7989  7998       L1     9  0.96
      P1  H 10752 10764       L1    12  0.60

> <Gold.Chemscore.Hbond.Weighted>
-8.6626

> <Gold.Chemscore.Metal.Weighted>
-0.0000

> <Gold.Chemscore.Lipo.Weighted>
-11.3731

> <Gold.Chemscore.Internal_Hbond.Weighted>
0.0000

> <Gold.Chemscore.DEClash.Weighted>
0.0318

> <Gold.Chemscore.DEInternal.Weighted>
3.4541

> <Gold.Chemscore.Rot.Weighted>
5.4305

> <Gold.Chemscore.Internal.Correction.Weighted>
   9.000000E+99

> <Gold.Protein.RotatedTorsions>
[ 6907 6896 6895 6894 ] final   19.36 input  -60.11 | X-H torsion
[ 7974 7965 7964 7962 ] final -167.61 input  175.53 | X-H torsion
[ 8008 7997 7996 7995 ] final   67.13 input   59.86 | X-H torsion
[ 10167 10162 10161 10158 ] final   -3.10 input  -65.29 | X-H torsion
[ 10718 10713 10712 10709 ] final -131.02 input   66.30 | X-H torsion
[ 10763 10752 10751 10750 ] final  -15.73 input  -60.55 | X-H torsion
[ 11005 11000 10999 10996 ] final  112.57 input  -57.11 | X-H torsion

> <Gold.Protein.ActiveResidues>
 VAL166  LYS551  ARG553  GLY616  TRP617  ASP618  TYR619  PRO620  LYS621  CYS622 
 ASP623  PHE694  ASN695  SER759  ASP760  ASP761  ALA762  ILE779  LEU786  VAL792 
 PHE793  MET794  SER795  GLU796  ALA797  LYS798  CYS799  TRP800  GLU811  SER814 

> <Gold.Protein.RotatedAtoms>
  151.8797  135.0458  160.0487 H   0  0  0  0  0  0  0  0  0  0  0  0  # atno 6907 bound_to 6896
  152.2523  133.5221  159.5341 H   0  0  0  0  0  0  0  0  0  0  0  0  # atno 6908 bound_to 6896
  150.7088  134.0860  159.3957 H   0  0  0  0  0  0  0  0  0  0  0  0  # atno 6909 bound_to 6896
  144.7219  140.2493  143.6280 H   0  0  0  0  0  0  0  0  0  0  0  0  # atno 7974 bound_to 7965
  155.6881  140.3496  155.4882 H   0  0  0  0  0  0  0  0  0  0  0  0  # atno 8008 bound_to 7997
  155.9548  140.1126  157.0968 H   0  0  0  0  0  0  0  0  0  0  0  0  # atno 8009 bound_to 7997
  154.4130  140.1187  156.5086 H   0  0  0  0  0  0  0  0  0  0  0  0  # atno 8010 bound_to 7997
  140.6877  143.6579  150.8292 H   0  0  0  0  0  0  0  0  0  0  0  0  # atno 10167 bound_to 10162
  156.2202  130.6974  151.0748 H   0  0  0  0  0  0  0  0  0  0  0  0  # atno 10718 bound_to 10713
  153.5478  135.7012  153.5606 H   0  0  0  0  0  0  0  0  0  0  0  0  # atno 10763 bound_to 10752
  153.3543  135.3987  155.1670 H   0  0  0  0  0  0  0  0  0  0  0  0  # atno 10764 bound_to 10752
  154.8665  135.3773  154.4987 H   0  0  0  0  0  0  0  0  0  0  0  0  # atno 10765 bound_to 10752
  139.8931  134.9532  156.6606 H   0  0  0  0  0  0  0  0  0  0  0  0  # atno 11005 bound_to 11000
  145.8243  139.2057  143.1919 LP  0  0  0  0  0  0  0  0  0  0  0  0  # atno 17320 bound_to 7965
  146.0486  140.8092  142.9793 LP  0  0  0  0  0  0  0  0  0  0  0  0  # atno 17321 bound_to 7965
  140.0288  143.5465  152.2769 LP  0  0  0  0  0  0  0  0  0  0  0  0  # atno 17342 bound_to 10162
  139.6250  144.7635  151.2658 LP  0  0  0  0  0  0  0  0  0  0  0  0  # atno 17343 bound_to 10162
  157.7084  131.0746  150.6588 LP  0  0  0  0  0  0  0  0  0  0  0  0  # atno 17370 bound_to 10713
  156.6651  130.4523  149.5675 LP  0  0  0  0  0  0  0  0  0  0  0  0  # atno 17371 bound_to 10713
  140.7450  133.8946  155.8305 LP  0  0  0  0  0  0  0  0  0  0  0  0  # atno 17394 bound_to 11000
  141.0047  134.1102  157.4282 LP  0  0  0  0  0  0  0  0  0  0  0  0  # atno 17395 bound_to 11000

$$$$
