AV-unprocessed.smi:670|AV-procd|sdf|3266|dock3
  -GOLD-   22720 0223D 1   1.00000     0.00000
 Structure written by MMmdl.
 44 45  0  0  0  0  0  0  0  0  2 V2000
  146.1037  130.2755  152.4102 C   0  0  0  0  0  0  0  0  0  0  0  0
  145.8894  131.5027  151.5105 C   0  0  1  0  0  0  0  0  0  0  0  0
  144.3978  131.7124  151.1749 C   0  0  0  0  0  0  0  0  0  0  0  0
  144.1903  132.9183  150.2451 C   0  0  0  0  0  0  0  0  0  0  0  0
  144.8169  134.1904  150.8335 C   0  0  0  0  0  0  0  0  0  0  0  0
  146.3028  133.9804  151.1626 C   0  0  0  0  0  0  0  0  0  0  0  0
  146.5074  132.7831  152.1166 C   0  0  1  0  0  0  0  0  0  0  0  0
  145.8770  133.0165  153.3703 O   0  0  0  0  0  0  0  0  0  0  0  0
  146.5381  133.9284  154.2335 C   0  0  0  0  0  0  0  0  0  0  0  0
  145.9316  133.8075  155.6398 C   0  0  0  0  0  0  0  0  0  0  0  0
  146.8648  134.2583  156.6671 N   0  0  0  0  0  0  0  0  0  0  0  0
  146.6245  135.2304  157.5608 C   0  0  0  0  0  0  0  0  0  0  0  0
  145.5485  135.8241  157.6403 O   0  0  0  0  0  0  0  0  0  0  0  0
  147.7649  135.5595  158.5330 C   0  0  0  0  0  0  0  0  0  0  0  0
  147.4176  135.2532  159.9273 N   0  0  0  0  0  0  0  0  0  0  0  0
  147.0428  133.8570  160.1387 N   0  5  0  0  0  0  0  0  0  0  0  0
  146.7511  133.4315  161.3964 C   0  0  0  0  0  0  0  0  0  0  0  0
  146.4578  132.2665  161.6541 O   0  0  0  0  0  0  0  0  0  0  0  0
  146.7899  134.4055  162.4741 C   0  0  0  0  0  0  0  0  0  0  0  0
  147.1059  135.6953  162.2450 C   0  0  0  0  0  0  0  0  0  0  0  0
  147.4362  136.1935  160.9155 C   0  0  0  0  0  0  0  0  0  0  0  0
  147.7165  137.3727  160.7014 O   0  0  0  0  0  0  0  0  0  0  0  0
  145.5862  130.3842  153.3639 H   0  0  0  0  0  0  0  0  0  0  0  0
  147.1623  130.1223  152.6206 H   0  0  0  0  0  0  0  0  0  0  0  0
  145.7282  129.3704  151.9323 H   0  0  0  0  0  0  0  0  0  0  0  0
  146.4101  131.3017  150.5731 H   0  0  0  0  0  0  0  0  0  0  0  0
  143.9916  130.8168  150.7040 H   0  0  0  0  0  0  0  0  0  0  0  0
  143.8271  131.8608  152.0929 H   0  0  0  0  0  0  0  0  0  0  0  0
  144.6341  132.7097  149.2710 H   0  0  0  0  0  0  0  0  0  0  0  0
  143.1254  133.0752  150.0730 H   0  0  0  0  0  0  0  0  0  0  0  0
  144.7016  135.0197  150.1356 H   0  0  0  0  0  0  0  0  0  0  0  0
  144.2821  134.4729  151.7400 H   0  0  0  0  0  0  0  0  0  0  0  0
  146.8511  133.7985  150.2375 H   0  0  0  0  0  0  0  0  0  0  0  0
  146.7227  134.8950  151.5786 H   0  0  0  0  0  0  0  0  0  0  0  0
  147.5748  132.6178  152.2728 H   0  0  0  0  0  0  0  0  0  0  0  0
  147.6009  133.6857  154.2669 H   0  0  0  0  0  0  0  0  0  0  0  0
  146.4496  134.9555  153.8805 H   0  0  0  0  0  0  0  0  0  0  0  0
  144.9890  134.3539  155.7022 H   0  0  0  0  0  0  0  0  0  0  0  0
  145.6972  132.7629  155.8444 H   0  0  0  0  0  0  0  0  0  0  0  0
  147.7775  133.8265  156.6776 H   0  0  0  0  0  0  0  0  0  0  0  0
  148.6512  134.9978  158.2338 H   0  0  0  0  0  0  0  0  0  0  0  0
  148.0443  136.6105  158.4328 H   0  0  0  0  0  0  0  0  0  0  0  0
  146.5575  134.0886  163.4799 H   0  0  0  0  0  0  0  0  0  0  0  0
  147.1204  136.3855  163.0752 H   0  0  0  0  0  0  0  0  0  0  0  0
  1  2  1  0  0  0  0
  1 23  1  0  0  0  0
  1 24  1  0  0  0  0
  1 25  1  0  0  0  0
  2  7  1  0  0  0  0
  2  3  1  0  0  0  0
  2 26  1  0  0  0  0
  3  4  1  0  0  0  0
  3 27  1  0  0  0  0
  3 28  1  0  0  0  0
  4  5  1  0  0  0  0
  4 29  1  0  0  0  0
  4 30  1  0  0  0  0
  5  6  1  0  0  0  0
  5 31  1  0  0  0  0
  5 32  1  0  0  0  0
  6  7  1  0  0  0  0
  6 33  1  0  0  0  0
  6 34  1  0  0  0  0
  7  8  1  0  0  0  0
  7 35  1  0  0  0  0
  8  9  1  0  0  0  0
  9 10  1  0  0  0  0
  9 36  1  0  0  0  0
  9 37  1  0  0  0  0
 10 11  1  0  0  0  0
 10 38  1  0  0  0  0
 10 39  1  0  0  0  0
 11 12  1  0  0  0  0
 11 40  1  0  0  0  0
 12 13  2  0  0  0  0
 12 14  1  0  0  0  0
 14 41  1  0  0  0  0
 14 42  1  0  0  0  0
 14 15  1  0  0  0  0
 15 16  1  0  0  0  0
 15 21  1  0  0  0  0
 16 17  1  0  0  0  0
 17 18  2  0  0  0  0
 17 19  1  0  0  0  0
 19 43  1  0  0  0  0
 19 20  2  0  0  0  0
 20 44  1  0  0  0  0
 20 21  1  0  0  0  0
 21 22  2  0  0  0  0
M  CHG  1  16  -1
M  END
> <s_m_source_file>
AV-unprocessed.smi

> <i_m_source_file_index>
670

> <i_lp_mmshare_version>
43012

> <i_f3d_flags>
0

> <s_epik_input>
W0NIM11bQ0BASF0xW0NIMl1bQ0gyXVtDSDJdW0NIMl1bQ0BIXTFPW0NIMl1bQ0gyXVtOSF1DKD1PKVtDSDJdbjJbbkhdYyg9TylbY0hdW2NIXWMyPU8=

> <s_epik_cmdline>
J2VwaWtfcHl0aG9uJywgJy1waCcsICc3LjAnLCAnLXRuJywgJzgnLCAnLW1hJywgJzIwMCcsICctbWV0YWxfYmluZGluZycsICctaW1hZScsICc8aW5maWxlLm1hZT4nLCAnLW9tYWUnLCAnPG91dGZpbGUubWFlPic=

> <r_lp_tautomer_probability>
1

> <r_epik_Ionization_Penalty>
0.0975638

> <r_epik_Ionization_Penalty_Charging>
0.0975637

> <r_epik_Ionization_Penalty_Neutral>
2.78599e-08

> <r_epik_State_Penalty>
0.0343507

> <r_epik_Charging_Adjusted_Penalty>
0.131914

> <i_epik_Tot_Q>
-1

> <i_epik_Tot_abs_Q>
1

> <r_epik_Metal_State_Penalty>
0.0343507

> <b_epik_Metal_Only>
0

> <s_lp_Force_Field>
OPLS_2005

> <r_lp_Energy>
24.4617

> <b_lp_Chiralities_Consistent>
1

> <s_lp_Variant>
AV-unprocessed.smi:670-2

> <Gold.Version>
5.8.1

> <Gold.Id.Protein>
6NUR|6NUR_protein|mol2

> <Gold.PLP.Fitness>
40.3961

> <Gold.PLP.PLP>
-35.6358

> <Gold.PLP.part.hbond>
-2.0000

> <Gold.PLP.part.metal>
0.0000

> <Gold.PLP.part.buried>
-5.9534

> <Gold.PLP.part.nonpolar>
-27.9276

> <Gold.PLP.part.repulsive>
0.1365

> <Gold.PLP.ligand.clash>
0.0000

> <Gold.PLP.ligand.torsion>
0.3125

> <Gold.PLP.Chemscore.Hbond>
1.7760

> <Gold.PLP.Chemscore.CHOScore>
0.0000

> <Gold.PLP.Chemscore.Metal>
0.0000

> <Gold.Chemscore.Hbonds>
donor molecule, donor type, donor heavy atom, donor atom, acceptor molecule, acceptor atom, score
      P1  H  6931  6943       L1    22  0.72
      P1  H  6934  6947       L1    22  0.88

> <Gold.PLP.Chemscore.Internal.Correction>
0.0574

> <Gold.Rescore>
     Score         DG    S(hbond)    S(metal)    S(lipo)     H(rot)  DE(clash)    DE(int)     intcor
     13.18     -13.50       1.71        0.00      73.33       2.45       0.00       0.33       ----

> <Gold.Chemscore.Fitness>
13.1756

> <Gold.Chemscore.DG>
-13.5021

> <Gold.Chemscore.ZeroCoef>
-5.4800

> <Gold.Chemscore.Hbond>
1.7101

> <Gold.Chemscore.Metal>
0.0000

> <Gold.Chemscore.Lipo>
73.3306

> <Gold.Chemscore.Internal_Hbond>
0.0000

> <Gold.Chemscore.DEClash>
0.0000

> <Gold.Chemscore.DEInternal>
0.3265

> <Gold.Chemscore.Rot>
2.4490

> <Gold.Chemscore.Internal.Correction>
   9.000000E+99

> <Gold.Chemscore.Hbonds>
donor molecule, donor type, donor heavy atom, donor atom, acceptor molecule, acceptor atom, score
      P1  H  6931  6943       L1    22  0.68
      P1  H  6934  6947       L1    22  0.87

> <Gold.Chemscore.Hbond.Weighted>
-5.7118

> <Gold.Chemscore.Metal.Weighted>
-0.0000

> <Gold.Chemscore.Lipo.Weighted>
-8.5797

> <Gold.Chemscore.Internal_Hbond.Weighted>
0.0000

> <Gold.Chemscore.DEClash.Weighted>
0.0000

> <Gold.Chemscore.DEInternal.Weighted>
0.3265

> <Gold.Chemscore.Rot.Weighted>
6.2694

> <Gold.Chemscore.Internal.Correction.Weighted>
   9.000000E+99

> <Gold.Protein.RotatedTorsions>
[ 6907 6896 6895 6894 ] final   46.15 input  -60.11 | X-H torsion
[ 7974 7965 7964 7962 ] final   28.92 input  175.53 | X-H torsion
[ 8008 7997 7996 7995 ] final  112.91 input   59.86 | X-H torsion
[ 10167 10162 10161 10158 ] final  -54.66 input  -65.29 | X-H torsion
[ 10718 10713 10712 10709 ] final  129.58 input   66.30 | X-H torsion
[ 10763 10752 10751 10750 ] final   -2.87 input  -60.55 | X-H torsion
[ 11005 11000 10999 10996 ] final  144.95 input  -57.11 | X-H torsion

> <Gold.Protein.ActiveResidues>
 VAL166  LYS551  ARG553  GLY616  TRP617  ASP618  TYR619  PRO620  LYS621  CYS622 
 ASP623  PHE694  ASN695  SER759  ASP760  ASP761  ALA762  ILE779  LEU786  VAL792 
 PHE793  MET794  SER795  GLU796  ALA797  LYS798  CYS799  TRP800  GLU811  SER814 

> <Gold.Protein.RotatedAtoms>
  152.2530  134.8113  160.0442 H   0  0  0  0  0  0  0  0  0  0  0  0  # atno 6907 bound_to 6896
  151.8787  133.3485  159.3767 H   0  0  0  0  0  0  0  0  0  0  0  0  # atno 6908 bound_to 6896
  150.7090  134.4967  159.5586 H   0  0  0  0  0  0  0  0  0  0  0  0  # atno 6909 bound_to 6896
  146.1701  139.6991  142.8973 H   0  0  0  0  0  0  0  0  0  0  0  0  # atno 7974 bound_to 7965
  156.2223  140.2990  155.9982 H   0  0  0  0  0  0  0  0  0  0  0  0  # atno 8008 bound_to 7997
  155.2448  140.0424  157.2996 H   0  0  0  0  0  0  0  0  0  0  0  0  # atno 8009 bound_to 7997
  154.5860  140.2388  155.7994 H   0  0  0  0  0  0  0  0  0  0  0  0  # atno 8010 bound_to 7997
  140.6418  143.2512  151.4968 H   0  0  0  0  0  0  0  0  0  0  0  0  # atno 10167 bound_to 10162
  157.5141  131.1097  150.9250 H   0  0  0  0  0  0  0  0  0  0  0  0  # atno 10718 bound_to 10713
  153.3637  135.6991  153.6692 H   0  0  0  0  0  0  0  0  0  0  0  0  # atno 10763 bound_to 10752
  153.5370  135.3580  155.2702 H   0  0  0  0  0  0  0  0  0  0  0  0  # atno 10764 bound_to 10752
  154.8672  135.4194  154.2900 H   0  0  0  0  0  0  0  0  0  0  0  0  # atno 10765 bound_to 10752
  140.0673  134.9171  157.1286 H   0  0  0  0  0  0  0  0  0  0  0  0  # atno 11005 bound_to 11000
  145.4362  141.0419  143.2883 LP  0  0  0  0  0  0  0  0  0  0  0  0  # atno 17320 bound_to 7965
  144.8151  139.5892  143.7012 LP  0  0  0  0  0  0  0  0  0  0  0  0  # atno 17321 bound_to 7965
  139.5627  144.2116  152.1717 LP  0  0  0  0  0  0  0  0  0  0  0  0  # atno 17342 bound_to 10162
  140.1389  144.5220  150.6756 LP  0  0  0  0  0  0  0  0  0  0  0  0  # atno 17343 bound_to 10162
  156.9881  130.5553  149.5301 LP  0  0  0  0  0  0  0  0  0  0  0  0  # atno 17370 bound_to 10713
  156.0308  130.5400  150.8530 LP  0  0  0  0  0  0  0  0  0  0  0  0  # atno 17371 bound_to 10713
  140.3679  134.2422  155.7180 LP  0  0  0  0  0  0  0  0  0  0  0  0  # atno 17394 bound_to 11000
  141.1998  133.8003  157.0520 LP  0  0  0  0  0  0  0  0  0  0  0  0  # atno 17395 bound_to 11000

$$$$
