AV-unprocessed.smi:3068|AV-procd|sdf|11705|dock1
  -GOLD-   2272017103D 1   1.00000     0.00000
 Structure written by MMmdl.
 40 42  0  0  0  0  0  0  0  0  2 V2000
  150.9659  142.3429  157.0074 N   0  0  0  0  0  0  0  0  0  0  0  0
  151.1216  141.3576  156.4205 C   0  0  0  0  0  0  0  0  0  0  0  0
  151.3162  140.1163  155.6823 C   0  0  0  0  0  0  0  0  0  0  0  0
  152.5657  139.8708  155.2245 N   0  0  0  0  0  0  0  0  0  0  0  0
  152.7585  138.7259  154.5361 C   0  0  0  0  0  0  0  0  0  0  0  0
  151.7052  137.8213  154.2998 C   0  0  0  0  0  0  0  0  0  0  0  0
  150.4553  138.0585  154.7516 N   0  0  0  0  0  0  0  0  0  0  0  0
  150.2477  139.2053  155.4462 C   0  0  0  0  0  0  0  0  0  0  0  0
  148.9508  139.4657  155.9271 N   0  0  0  0  0  0  0  0  0  0  0  0
  147.8828  138.4764  155.8468 C   0  0  0  0  0  0  0  0  0  0  0  0
  147.6510  137.9775  154.4104 C   0  0  1  0  0  0  0  0  0  0  0  0
  146.9322  136.6164  154.3923 C   0  0  0  0  0  0  0  0  0  0  0  0
  146.6557  136.1918  153.0008 N   0  3  1  0  0  0  0  0  0  0  0  0
  146.0005  134.8612  152.9346 C   0  0  0  0  0  0  0  0  0  0  0  0
  145.8142  134.4086  151.4778 C   0  0  0  0  0  0  0  0  0  0  0  0
  145.0245  135.4535  150.6788 C   0  0  0  0  0  0  0  0  0  0  0  0
  145.7075  136.8238  150.7862 C   0  0  0  0  0  0  0  0  0  0  0  0
  145.9016  137.2383  152.2582 C   0  0  2  0  0  0  0  0  0  0  0  0
  146.6337  138.5904  152.3679 C   0  0  0  0  0  0  0  0  0  0  0  0
  146.8297  138.9246  153.7359 O   0  0  0  0  0  0  0  0  0  0  0  0
  153.7563  138.5311  154.1718 H   0  0  0  0  0  0  0  0  0  0  0  0
  151.8655  136.9071  153.7478 H   0  0  0  0  0  0  0  0  0  0  0  0
  148.7192  140.3959  156.2467 H   0  0  0  0  0  0  0  0  0  0  0  0
  148.1130  137.6400  156.5078 H   0  0  0  0  0  0  0  0  0  0  0  0
  146.9680  138.9249  156.2350 H   0  0  0  0  0  0  0  0  0  0  0  0
  148.6078  137.8851  153.8933 H   0  0  0  0  0  0  0  0  0  0  0  0
  147.5501  135.8647  154.8851 H   0  0  0  0  0  0  0  0  0  0  0  0
  145.9954  136.6772  154.9489 H   0  0  0  0  0  0  0  0  0  0  0  0
  146.6075  134.1289  153.4685 H   0  0  0  0  0  0  0  0  0  0  0  0
  145.0346  134.9029  153.4407 H   0  0  0  0  0  0  0  0  0  0  0  0
  146.7894  134.2515  151.0150 H   0  0  0  0  0  0  0  0  0  0  0  0
  145.2986  133.4482  151.4482 H   0  0  0  0  0  0  0  0  0  0  0  0
  144.9491  135.1508  149.6340 H   0  0  0  0  0  0  0  0  0  0  0  0
  144.0048  135.5177  151.0607 H   0  0  0  0  0  0  0  0  0  0  0  0
  146.6740  136.7875  150.2813 H   0  0  0  0  0  0  0  0  0  0  0  0
  145.1133  137.5725  150.2609 H   0  0  0  0  0  0  0  0  0  0  0  0
  144.9197  137.3419  152.7241 H   0  0  0  0  0  0  0  0  0  0  0  0
  147.5936  138.5634  151.8492 H   0  0  0  0  0  0  0  0  0  0  0  0
  146.0427  139.3777  151.8994 H   0  0  0  0  0  0  0  0  0  0  0  0
  147.5507  136.0987  152.5421 H   0  0  0  0  0  0  0  0  0  0  0  0
  1  2  3  0  0  0  0
  2  3  1  0  0  0  0
  3  8  1  0  0  0  0
  3  4  2  0  0  0  0
  4  5  1  0  0  0  0
  5  6  2  0  0  0  0
  5 21  1  0  0  0  0
  6  7  1  0  0  0  0
  6 22  1  0  0  0  0
  7  8  2  0  0  0  0
  8  9  1  0  0  0  0
  9 10  1  0  0  0  0
  9 23  1  0  0  0  0
 10 11  1  0  0  0  0
 10 24  1  0  0  0  0
 10 25  1  0  0  0  0
 11 20  1  0  0  0  0
 11 12  1  0  0  0  0
 11 26  1  0  0  0  0
 12 13  1  0  0  0  0
 12 27  1  0  0  0  0
 12 28  1  0  0  0  0
 13 18  1  0  0  0  0
 13 14  1  0  0  0  0
 13 40  1  0  0  0  0
 14 15  1  0  0  0  0
 14 29  1  0  0  0  0
 14 30  1  0  0  0  0
 15 16  1  0  0  0  0
 15 31  1  0  0  0  0
 15 32  1  0  0  0  0
 16 17  1  0  0  0  0
 16 33  1  0  0  0  0
 16 34  1  0  0  0  0
 17 18  1  0  0  0  0
 17 35  1  0  0  0  0
 17 36  1  0  0  0  0
 18 19  1  0  0  0  0
 18 37  1  0  0  0  0
 19 20  1  0  0  0  0
 19 38  1  0  0  0  0
 19 39  1  0  0  0  0
M  CHG  1  13   1
M  END
> <s_m_source_file>
AV-unprocessed.smi

> <i_m_source_file_index>
3068

> <i_lp_mmshare_version>
43012

> <i_f3d_flags>
0

> <s_epik_input>
TiNDYzFuW2NIXVtjSF1uYzFbTkhdW0NIMl1bQ0BIXShbQ0gyXTIpT1tDSDJdW0NAQEhdKE4yMylbQ0gyXVtDSDJdW0NIMl1bQ0gyXTM=

> <s_epik_cmdline>
J2VwaWtfcHl0aG9uJywgJy1waCcsICc3LjAnLCAnLXRuJywgJzgnLCAnLW1hJywgJzIwMCcsICctbWV0YWxfYmluZGluZycsICctaW1hZScsICc8aW5maWxlLm1hZT4nLCAnLW9tYWUnLCAnPG91dGZpbGUubWFlPic=

> <r_epik_Ionization_Penalty>
0.0804321

> <r_epik_Ionization_Penalty_Charging>
0.0803403

> <r_epik_Ionization_Penalty_Neutral>
9.17277e-05

> <r_epik_State_Penalty>
0.0711481

> <r_epik_Charging_Adjusted_Penalty>
0.151488

> <i_epik_Tot_Q>
1

> <i_epik_Tot_abs_Q>
1

> <r_epik_Metal_State_Penalty>
0.0711481

> <b_epik_Metal_Only>
0

> <s_lp_Force_Field>
OPLS_2005

> <r_lp_Energy>
36.4506

> <b_lp_Chiralities_Consistent>
1

> <s_lp_Variant>
AV-unprocessed.smi:3068-8

> <Gold.Version>
5.8.1

> <Gold.Id.Protein>
6NUR|6NUR_protein|mol2

> <Gold.PLP.Fitness>
41.5476

> <Gold.PLP.PLP>
-30.0148

> <Gold.PLP.part.hbond>
-3.0000

> <Gold.PLP.part.metal>
0.0000

> <Gold.PLP.part.buried>
-0.5757

> <Gold.PLP.part.nonpolar>
-28.3160

> <Gold.PLP.part.repulsive>
0.4627

> <Gold.PLP.ligand.clash>
0.0000

> <Gold.PLP.ligand.torsion>
0.2368

> <Gold.PLP.Chemscore.Hbond>
3.0000

> <Gold.PLP.Chemscore.CHOScore>
0.9982

> <Gold.PLP.Chemscore.Metal>
0.0000

> <Gold.Chemscore.Hbonds>
donor molecule, donor type, donor heavy atom, donor atom, acceptor molecule, acceptor atom, score
      L1  H    13    40       P1  7948  2.00
      P1  H  7997  8009       L1     4  1.00
      L1  C     6    22       P1  7949  1.00

> <Gold.PLP.Chemscore.Internal.Correction>
0.0118

> <Gold.Rescore>
     Score         DG    S(hbond)    S(metal)    S(lipo)     H(rot)  DE(clash)    DE(int)     intcor
     13.46     -15.95       1.93        0.00      63.13       1.32       0.80       1.69       ----

> <Gold.Chemscore.Fitness>
13.4572

> <Gold.Chemscore.DG>
-15.9500

> <Gold.Chemscore.ZeroCoef>
-5.4800

> <Gold.Chemscore.Hbond>
1.9345

> <Gold.Chemscore.Metal>
0.0000

> <Gold.Chemscore.Lipo>
63.1285

> <Gold.Chemscore.Internal_Hbond>
0.0000

> <Gold.Chemscore.DEClash>
0.8007

> <Gold.Chemscore.DEInternal>
1.6920

> <Gold.Chemscore.Rot>
1.3193

> <Gold.Chemscore.Internal.Correction>
   9.000000E+99

> <Gold.Chemscore.Hbonds>
donor molecule, donor type, donor heavy atom, donor atom, acceptor molecule, acceptor atom, score
      L1  H    13    40       P1  7948  0.96
      P1  H  7997  8009       L1     4  0.37

> <Gold.Chemscore.Hbond.Weighted>
-6.4613

> <Gold.Chemscore.Metal.Weighted>
-0.0000

> <Gold.Chemscore.Lipo.Weighted>
-7.3860

> <Gold.Chemscore.Internal_Hbond.Weighted>
0.0000

> <Gold.Chemscore.DEClash.Weighted>
0.8007

> <Gold.Chemscore.DEInternal.Weighted>
1.6920

> <Gold.Chemscore.Rot.Weighted>
3.3774

> <Gold.Chemscore.Internal.Correction.Weighted>
   9.000000E+99

> <Gold.Protein.RotatedTorsions>
[ 6907 6896 6895 6894 ] final   34.86 input  -60.11 | X-H torsion
[ 7974 7965 7964 7962 ] final  118.64 input  175.53 | X-H torsion
[ 8008 7997 7996 7995 ] final -151.69 input   59.86 | X-H torsion
[ 10167 10162 10161 10158 ] final  153.25 input  -65.29 | X-H torsion
[ 10718 10713 10712 10709 ] final -115.26 input   66.30 | X-H torsion
[ 10763 10752 10751 10750 ] final  -55.27 input  -60.55 | X-H torsion
[ 11005 11000 10999 10996 ] final  124.12 input  -57.11 | X-H torsion

> <Gold.Protein.ActiveResidues>
 VAL166  LYS551  ARG553  GLY616  TRP617  ASP618  TYR619  PRO620  LYS621  CYS622 
 ASP623  PHE694  ASN695  SER759  ASP760  ASP761  ALA762  ILE779  LEU786  VAL792 
 PHE793  MET794  SER795  GLU796  ALA797  LYS798  CYS799  TRP800  GLU811  SER814 

> <Gold.Protein.RotatedAtoms>
  152.1083  134.9293  160.0567 H   0  0  0  0  0  0  0  0  0  0  0  0  # atno 6907 bound_to 6896
  152.0480  133.4002  159.4373 H   0  0  0  0  0  0  0  0  0  0  0  0  # atno 6908 bound_to 6896
  150.6842  134.3260  159.4850 H   0  0  0  0  0  0  0  0  0  0  0  0  # atno 6909 bound_to 6896
  145.1527  139.3201  143.4558 H   0  0  0  0  0  0  0  0  0  0  0  0  # atno 7974 bound_to 7965
  155.6433  140.0704  157.2611 H   0  0  0  0  0  0  0  0  0  0  0  0  # atno 8008 bound_to 7997
  154.4178  140.1746  156.1646 H   0  0  0  0  0  0  0  0  0  0  0  0  # atno 8009 bound_to 7997
  155.9837  140.3351  155.6690 H   0  0  0  0  0  0  0  0  0  0  0  0  # atno 8010 bound_to 7997
  139.4828  144.5289  151.7755 H   0  0  0  0  0  0  0  0  0  0  0  0  # atno 10167 bound_to 10162
  156.0884  130.6071  150.8883 H   0  0  0  0  0  0  0  0  0  0  0  0  # atno 10718 bound_to 10713
  154.1881  135.6432  153.5052 H   0  0  0  0  0  0  0  0  0  0  0  0  # atno 10763 bound_to 10752
  153.0042  135.5422  154.6444 H   0  0  0  0  0  0  0  0  0  0  0  0  # atno 10764 bound_to 10752
  154.5826  135.2926  155.0690 H   0  0  0  0  0  0  0  0  0  0  0  0  # atno 10765 bound_to 10752
  139.9344  134.9640  156.8362 H   0  0  0  0  0  0  0  0  0  0  0  0  # atno 11005 bound_to 11000
  146.3492  140.1608  142.8591 LP  0  0  0  0  0  0  0  0  0  0  0  0  # atno 17320 bound_to 7965
  145.0413  140.8948  143.5050 LP  0  0  0  0  0  0  0  0  0  0  0  0  # atno 17321 bound_to 7965
  140.4813  144.1446  150.5933 LP  0  0  0  0  0  0  0  0  0  0  0  0  # atno 17342 bound_to 10162
  140.4275  143.2583  151.9638 LP  0  0  0  0  0  0  0  0  0  0  0  0  # atno 17343 bound_to 10162
  157.6025  131.0940  150.8935 LP  0  0  0  0  0  0  0  0  0  0  0  0  # atno 17370 bound_to 10713
  156.9089  130.5273  149.5281 LP  0  0  0  0  0  0  0  0  0  0  0  0  # atno 17371 bound_to 10713
  140.6115  134.0078  155.7579 LP  0  0  0  0  0  0  0  0  0  0  0  0  # atno 17394 bound_to 11000
  141.0950  133.9857  157.3175 LP  0  0  0  0  0  0  0  0  0  0  0  0  # atno 17395 bound_to 11000

$$$$
