AV-unprocessed.smi:276|AV-procd|sdf|2077|dock3
  -GOLD-   2262021343D 1   1.00000     0.00000
 Structure written by MMmdl.
 57 61  0  0  0  0  0  0  0  0  1 V2000
  154.3436  141.2421  160.9216 C   0  0  0  0  0  0  0  0  0  0  0  0
  153.8498  142.3279  160.1576 O   0  0  0  0  0  0  0  0  0  0  0  0
  153.1113  141.9034  159.0229 C   0  0  1  0  0  0  0  0  0  0  0  0
  152.0548  140.8314  159.3169 C   0  0  0  0  0  0  0  0  0  0  0  0
  151.0964  141.5759  158.3662 C   0  0  2  0  0  0  0  0  0  0  0  0
  151.1712  141.0423  156.9984 N   0  0  0  0  0  0  0  0  0  0  0  0
  151.6501  139.6692  156.8695 C   0  0  0  0  0  0  0  0  0  0  0  0
  150.0753  141.2212  156.2275 C   0  0  0  0  0  0  0  0  0  0  0  0
  150.1521  140.7921  154.9431 N   0  0  0  0  0  0  0  0  0  0  0  0
  149.1084  140.9457  154.1228 C   0  0  0  0  0  0  0  0  0  0  0  0
  147.9163  141.4876  154.3807 N   0  0  0  0  0  0  0  0  0  0  0  0
  147.8309  141.9053  155.6761 C   0  0  0  0  0  0  0  0  0  0  0  0
  148.8519  141.8077  156.6632 C   0  0  0  0  0  0  0  0  0  0  0  0
  148.3958  142.3333  157.8668 N   0  0  0  0  0  0  0  0  0  0  0  0
  147.1812  142.7304  157.6030 C   0  0  0  0  0  0  0  0  0  0  0  0
  146.7627  142.5141  156.3102 N   0  0  0  0  0  0  0  0  0  0  0  0
  145.4689  142.8619  155.7497 C   0  0  0  0  0  0  0  0  0  0  0  0
  145.5719  143.9646  154.6782 C   0  0  1  0  0  0  0  0  0  0  0  0
  145.7649  143.3676  153.4098 O   0  0  0  0  0  0  0  0  0  0  0  0
  144.3096  144.8442  154.6258 C   0  0  2  0  0  0  0  0  0  0  0  0
  144.3831  146.0034  153.6303 C   0  0  0  0  0  0  0  0  0  0  0  0
  143.4012  147.0198  154.1912 C   0  0  0  0  0  0  0  0  0  0  0  0
  143.1707  146.5590  155.6330 C   0  0  0  0  0  0  0  0  0  0  0  0
  144.1279  145.5326  155.8536 O   0  0  0  0  0  0  0  0  0  0  0  0
  151.9521  142.8424  158.6435 C   0  0  0  0  0  0  0  0  0  0  0  0
  151.4474  143.8859  159.6572 C   0  0  0  0  0  0  0  0  0  0  0  0
  152.2491  144.9404  158.8893 C   0  0  0  0  0  0  0  0  0  0  0  0
  152.1688  144.0177  157.6707 C   0  0  0  0  0  0  0  0  0  0  0  0
  154.9020  141.6211  161.7773 H   0  0  0  0  0  0  0  0  0  0  0  0
  155.0155  140.6191  160.3300 H   0  0  0  0  0  0  0  0  0  0  0  0
  153.5314  140.6198  161.2993 H   0  0  0  0  0  0  0  0  0  0  0  0
  153.7353  141.6606  158.1601 H   0  0  0  0  0  0  0  0  0  0  0  0
  152.3492  139.8234  159.0267 H   0  0  0  0  0  0  0  0  0  0  0  0
  151.7118  140.8553  160.3526 H   0  0  0  0  0  0  0  0  0  0  0  0
  150.0849  141.6325  158.7680 H   0  0  0  0  0  0  0  0  0  0  0  0
  151.3874  139.2259  155.9072 H   0  0  0  0  0  0  0  0  0  0  0  0
  151.2295  139.0407  157.6555 H   0  0  0  0  0  0  0  0  0  0  0  0
  152.7361  139.6370  156.9517 H   0  0  0  0  0  0  0  0  0  0  0  0
  149.2496  140.5837  153.1152 H   0  0  0  0  0  0  0  0  0  0  0  0
  146.5536  143.1976  158.3480 H   0  0  0  0  0  0  0  0  0  0  0  0
  145.0108  141.9634  155.3341 H   0  0  0  0  0  0  0  0  0  0  0  0
  144.8247  143.1882  156.5670 H   0  0  0  0  0  0  0  0  0  0  0  0
  146.4396  144.5912  154.8898 H   0  0  0  0  0  0  0  0  0  0  0  0
  144.9391  143.0140  153.1158 H   0  0  0  0  0  0  0  0  0  0  0  0
  143.4250  144.2358  154.4265 H   0  0  0  0  0  0  0  0  0  0  0  0
  145.3863  146.4321  153.6241 H   0  0  0  0  0  0  0  0  0  0  0  0
  144.1426  145.6987  152.6114 H   0  0  0  0  0  0  0  0  0  0  0  0
  143.8154  148.0277  154.1482 H   0  0  0  0  0  0  0  0  0  0  0  0
  142.4637  147.0173  153.6341 H   0  0  0  0  0  0  0  0  0  0  0  0
  143.2905  147.3667  156.3555 H   0  0  0  0  0  0  0  0  0  0  0  0
  142.1675  146.1459  155.7475 H   0  0  0  0  0  0  0  0  0  0  0  0
  150.3704  144.0492  159.5890 H   0  0  0  0  0  0  0  0  0  0  0  0
  151.7608  143.7319  160.6900 H   0  0  0  0  0  0  0  0  0  0  0  0
  151.7470  145.9010  158.7709 H   0  0  0  0  0  0  0  0  0  0  0  0
  153.2667  145.0565  159.2663 H   0  0  0  0  0  0  0  0  0  0  0  0
  153.0817  143.9627  157.0771 H   0  0  0  0  0  0  0  0  0  0  0  0
  151.3016  144.2548  157.0552 H   0  0  0  0  0  0  0  0  0  0  0  0
  1  2  1  0  0  0  0
  1 29  1  0  0  0  0
  1 30  1  0  0  0  0
  1 31  1  0  0  0  0
  2  3  1  0  0  0  0
  3 25  1  0  0  0  0
  3  4  1  0  0  0  0
  3 32  1  0  0  0  0
  4  5  1  0  0  0  0
  4 33  1  0  0  0  0
  4 34  1  0  0  0  0
  5  6  1  0  0  0  0
  5 25  1  0  0  0  0
  5 35  1  0  0  0  0
  6  7  1  0  0  0  0
  6  8  1  0  0  0  0
  7 36  1  0  0  0  0
  7 37  1  0  0  0  0
  7 38  1  0  0  0  0
  8 13  1  0  0  0  0
  8  9  2  0  0  0  0
  9 10  1  0  0  0  0
 10 11  2  0  0  0  0
 10 39  1  0  0  0  0
 11 12  1  0  0  0  0
 12 16  1  0  0  0  0
 12 13  2  0  0  0  0
 13 14  1  0  0  0  0
 14 15  2  0  0  0  0
 15 16  1  0  0  0  0
 15 40  1  0  0  0  0
 16 17  1  0  0  0  0
 17 18  1  0  0  0  0
 17 41  1  0  0  0  0
 17 42  1  0  0  0  0
 18 19  1  0  0  0  0
 18 20  1  0  0  0  0
 18 43  1  0  0  0  0
 19 44  1  0  0  0  0
 20 24  1  0  0  0  0
 20 21  1  0  0  0  0
 20 45  1  0  0  0  0
 21 22  1  0  0  0  0
 21 46  1  0  0  0  0
 21 47  1  0  0  0  0
 22 23  1  0  0  0  0
 22 48  1  0  0  0  0
 22 49  1  0  0  0  0
 23 24  1  0  0  0  0
 23 50  1  0  0  0  0
 23 51  1  0  0  0  0
 25 28  1  0  0  0  0
 25 26  1  0  0  0  0
 26 27  1  0  0  0  0
 26 52  1  0  0  0  0
 26 53  1  0  0  0  0
 27 28  1  0  0  0  0
 27 54  1  0  0  0  0
 27 55  1  0  0  0  0
 28 56  1  0  0  0  0
 28 57  1  0  0  0  0
M  END
> <s_m_source_file>
AV-unprocessed.smi

> <i_m_source_file_index>
276

> <i_lp_mmshare_version>
43012

> <i_f3d_flags>
0

> <s_epik_input>
W0NIMl0xW0NIMl1bQ0gyXUMxMltDQEhdKE9bQ0gzXSlbQ0gyXVtDQEhdMk4oW0NIM10pYyhuW2NIXW4zKWMoYzM0KW5bY0hdbjRbQ0gyXVtDQEhdKFtPSF0pW0NAQEhdNVtDSDJdW0NIMl1bQ0gyXU81

> <s_epik_cmdline>
J2VwaWtfcHl0aG9uJywgJy1waCcsICc3LjAnLCAnLXRuJywgJzgnLCAnLW1hJywgJzIwMCcsICctbWV0YWxfYmluZGluZycsICctaW1hZScsICc8aW5maWxlLm1hZT4nLCAnLW9tYWUnLCAnPG91dGZpbGUubWFlPic=

> <r_lp_tautomer_probability>
1

> <r_epik_Ionization_Penalty>
0.00204117

> <r_epik_Ionization_Penalty_Charging>
0

> <r_epik_Ionization_Penalty_Neutral>
0.00204117

> <r_epik_State_Penalty>
0.00127401

> <r_epik_Charging_Adjusted_Penalty>
0.00127401

> <i_epik_Tot_Q>
0

> <i_epik_Tot_abs_Q>
0

> <r_epik_Metal_State_Penalty>
-0

> <b_epik_Metal_Only>
0

> <s_lp_Force_Field>
OPLS_2005

> <r_lp_Energy>
57.0409

> <b_lp_Chiralities_Consistent>
1

> <s_lp_Variant>
AV-unprocessed.smi:276-8

> <Gold.Version>
5.8.1

> <Gold.Id.Protein>
6NUR|6NUR_protein|mol2

> <Gold.PLP.Fitness>
52.4971

> <Gold.PLP.PLP>
-50.9557

> <Gold.PLP.part.hbond>
-1.3236

> <Gold.PLP.part.metal>
0.0000

> <Gold.PLP.part.buried>
-5.0849

> <Gold.PLP.part.nonpolar>
-43.8863

> <Gold.PLP.part.repulsive>
0.4455

> <Gold.PLP.ligand.clash>
0.3851

> <Gold.PLP.ligand.torsion>
1.9034

> <Gold.PLP.Chemscore.Hbond>
0.6520

> <Gold.PLP.Chemscore.CHOScore>
1.0000

> <Gold.PLP.Chemscore.Metal>
0.0000

> <Gold.Chemscore.Hbonds>
donor molecule, donor type, donor heavy atom, donor atom, acceptor molecule, acceptor atom, score
      P1  H  7989  7998       L1     9  0.63
      L1  C    10    39       P1  7957  1.00

> <Gold.PLP.Chemscore.Internal.Correction>
0.7773

> <Gold.Rescore>
     Score         DG    S(hbond)    S(metal)    S(lipo)     H(rot)  DE(clash)    DE(int)     intcor
     10.52     -13.94       0.05        0.00     130.26       2.72       0.31       3.11       ----

> <Gold.Chemscore.Fitness>
10.5177

> <Gold.Chemscore.DG>
-13.9385

> <Gold.Chemscore.ZeroCoef>
-5.4800

> <Gold.Chemscore.Hbond>
0.0521

> <Gold.Chemscore.Metal>
0.0000

> <Gold.Chemscore.Lipo>
130.2590

> <Gold.Chemscore.Internal_Hbond>
0.0000

> <Gold.Chemscore.DEClash>
0.3128

> <Gold.Chemscore.DEInternal>
3.1080

> <Gold.Chemscore.Rot>
2.7172

> <Gold.Chemscore.Internal.Correction>
   9.000000E+99

> <Gold.Chemscore.Hbonds>
donor molecule, donor type, donor heavy atom, donor atom, acceptor molecule, acceptor atom, score
      P1  H  7989  7998       L1     9  0.10

> <Gold.Chemscore.Hbond.Weighted>
-0.1741

> <Gold.Chemscore.Metal.Weighted>
-0.0000

> <Gold.Chemscore.Lipo.Weighted>
-15.2403

> <Gold.Chemscore.Internal_Hbond.Weighted>
0.0000

> <Gold.Chemscore.DEClash.Weighted>
0.3128

> <Gold.Chemscore.DEInternal.Weighted>
3.1080

> <Gold.Chemscore.Rot.Weighted>
6.9560

> <Gold.Chemscore.Internal.Correction.Weighted>
   9.000000E+99

> <Gold.Protein.RotatedTorsions>
[ 6907 6896 6895 6894 ] final   78.69 input  -60.11 | X-H torsion
[ 7974 7965 7964 7962 ] final -152.01 input  175.53 | X-H torsion
[ 8008 7997 7996 7995 ] final -121.55 input   59.86 | X-H torsion
[ 10167 10162 10161 10158 ] final  -60.54 input  -65.29 | X-H torsion
[ 10718 10713 10712 10709 ] final    1.15 input   66.30 | X-H torsion
[ 10763 10752 10751 10750 ] final -161.38 input  -60.55 | X-H torsion
[ 11005 11000 10999 10996 ] final -115.04 input  -57.11 | X-H torsion

> <Gold.Protein.ActiveResidues>
 VAL166  LYS551  ARG553  GLY616  TRP617  ASP618  TYR619  PRO620  LYS621  CYS622 
 ASP623  PHE694  ASN695  SER759  ASP760  ASP761  ALA762  ILE779  LEU786  VAL792 
 PHE793  MET794  SER795  GLU796  ALA797  LYS798  CYS799  TRP800  GLU811  SER814 

> <Gold.Protein.RotatedAtoms>
  152.5169  134.3626  159.9289 H   0  0  0  0  0  0  0  0  0  0  0  0  # atno 6907 bound_to 6896
  151.3579  133.3894  159.2694 H   0  0  0  0  0  0  0  0  0  0  0  0  # atno 6908 bound_to 6896
  150.9675  134.9072  159.7826 H   0  0  0  0  0  0  0  0  0  0  0  0  # atno 6909 bound_to 6896
  144.7818  140.4721  143.5834 H   0  0  0  0  0  0  0  0  0  0  0  0  # atno 7974 bound_to 7965
  155.1498  140.0403  157.2818 H   0  0  0  0  0  0  0  0  0  0  0  0  # atno 8008 bound_to 7997
  154.6412  140.2547  155.7293 H   0  0  0  0  0  0  0  0  0  0  0  0  # atno 8009 bound_to 7997
  156.2533  140.2855  156.0807 H   0  0  0  0  0  0  0  0  0  0  0  0  # atno 8010 bound_to 7997
  140.6064  143.2375  151.5811 H   0  0  0  0  0  0  0  0  0  0  0  0  # atno 10167 bound_to 10162
  156.8439  130.5530  149.5675 H   0  0  0  0  0  0  0  0  0  0  0  0  # atno 10718 bound_to 10713
  154.7308  135.3046  154.8894 H   0  0  0  0  0  0  0  0  0  0  0  0  # atno 10763 bound_to 10752
  153.9738  135.6738  153.4752 H   0  0  0  0  0  0  0  0  0  0  0  0  # atno 10764 bound_to 10752
  153.0917  135.4956  154.8623 H   0  0  0  0  0  0  0  0  0  0  0  0  # atno 10765 bound_to 10752
  141.0513  133.9682  157.2831 H   0  0  0  0  0  0  0  0  0  0  0  0  # atno 11005 bound_to 11000
  145.6030  139.1505  143.3118 LP  0  0  0  0  0  0  0  0  0  0  0  0  # atno 17320 bound_to 7965
  146.2030  140.6150  142.9094 LP  0  0  0  0  0  0  0  0  0  0  0  0  # atno 17321 bound_to 7965
  139.5328  144.2866  152.1186 LP  0  0  0  0  0  0  0  0  0  0  0  0  # atno 17342 bound_to 10162
  140.2057  144.4613  150.6410 LP  0  0  0  0  0  0  0  0  0  0  0  0  # atno 17343 bound_to 10162
  156.0865  130.5862  150.9657 LP  0  0  0  0  0  0  0  0  0  0  0  0  # atno 17370 bound_to 10713
  157.6340  131.0918  150.8384 LP  0  0  0  0  0  0  0  0  0  0  0  0  # atno 17371 bound_to 10713
  139.9353  135.0197  156.8535 LP  0  0  0  0  0  0  0  0  0  0  0  0  # atno 17394 bound_to 11000
  140.6049  134.0137  155.7552 LP  0  0  0  0  0  0  0  0  0  0  0  0  # atno 17395 bound_to 11000

$$$$
