#       Name:                AV-unprocessed.smi:1789
#       Creating user name   scv26
#       Creation time:       Fri Mar 27 08:45:41 2020


#       File generated by GOLD software.
#

@<TRIPOS>MOLECULE
AV-unprocessed.smi:1789
    41    42     1
SMALL
NO_CHARGES


@<TRIPOS>ATOM
      1 ****        -6.5100  -2.3127  -0.8488 C.3            1 S1                 0.0000
      2 ****        -5.2123  -1.6119  -0.6350 C.2            1 S1                 0.0000
      3 ****        -3.9469  -2.0559  -0.3709 C.2            1 S1                 0.0000
      4 ****        -3.1965  -0.8527  -0.2893 C.2            1 S1                 0.0000
      5 ****        -1.8037  -0.8789  -0.0217 N.am           1 S1                 0.0000
      6 ****        -0.9636   0.1683   0.0403 C.2            1 S1                 0.0000
      7 ****        -1.2811   1.3437  -0.1451 O.2            1 S1                 0.0000
      8 ****         0.2868  -0.2244   0.3264 N.am           1 S1                 0.0000
      9 ****         1.4379   0.6652   0.4504 C.3            1 S1                 0.0000
     10 ****         2.0532   0.9521  -0.9348 C.3            1 S1                 0.0000
     11 ****         3.3039   1.8379  -0.8193 C.3            1 S1                 0.0000
     12 ****         4.3428   1.2101   0.1259 C.3            1 S1                 0.0000
     13 ****         5.4427   2.0843   0.2645 O.3            1 S1                 0.0000
     14 ****         3.7336   0.9258   1.5101 C.3            1 S1                 0.0000
     15 ****         2.4828   0.0392   1.3935 C.3            1 S1                 0.0000
     16 ****        -3.9375   0.2277  -0.4832 N.2            1 S1                 0.0000
     17 ****        -5.2332  -0.2533  -0.7052 O.3            1 S1                 0.0000
     18 ****        -6.3598  -3.3872  -0.9545 H              1 S1                 0.0000
     19 ****        -7.0017  -1.9503  -1.7516 H              1 S1                 0.0000
     20 ****        -7.1814  -2.1456  -0.0066 H              1 S1                 0.0000
     21 ****        -3.6149  -3.0771  -0.2569 H              1 S1                 0.0000
     22 ****        -1.4047  -1.7923   0.1367 H              1 S1                 0.0000
     23 ****         0.4577  -1.2100   0.4622 H              1 S1                 0.0000
     24 ****         1.1115   1.6089   0.8923 H              1 S1                 0.0000
     25 ****         2.3188   0.0134  -1.4230 H              1 S1                 0.0000
     26 ****         1.3210   1.4393  -1.5800 H              1 S1                 0.0000
     27 ****         3.7393   1.9911  -1.8075 H              1 S1                 0.0000
     28 ****         3.0138   2.8233  -0.4516 H              1 S1                 0.0000
     29 ****         4.7080   0.2776  -0.3064 H              1 S1                 0.0000
     30 ****         5.1346   2.8995   0.6302 H              1 S1                 0.0000
     31 ****         4.4705   0.4415   2.1519 H              1 S1                 0.0000
     32 ****         3.4660   1.8643   1.9982 H              1 S1                 0.0000
     33 ****         2.0496  -0.1142   2.3825 H              1 S1                 0.0000
     34 ****         2.7718  -0.9465   1.0256 H              1 S1                 0.0000
     35 ****        -2.2291   1.5775  -0.3609 LP             1 S1                 0.0000
     36 ****        -0.5908   2.0643  -0.0797 LP             1 S1                 0.0000
     37 ****         5.8555   2.2512  -0.6309 LP             1 S1                 0.0000
     38 ****         6.1226   1.6768   0.8742 LP             1 S1                 0.0000
     39 ****        -3.6364   1.1812  -0.4730 LP             1 S1                 0.0000
     40 ****        -5.8511   0.1102  -0.0081 LP             1 S1                 0.0000
     41 ****        -5.5474   0.0320  -1.6107 LP             1 S1                 0.0000
@<TRIPOS>BOND
    1    1    2 1     
    2    1   18 1     
    3    1   19 1     
    4    1   20 1     
    5    2   17 1     
    6    2    3 2     
    7    3    4 1     
    8    3   21 1     
    9    4    5 1     
   10    4   16 2     
   11    5    6 am    
   12    5   22 1     
   13    6    7 2     
   14    6    8 am    
   15    8    9 1     
   16    8   23 1     
   17    9   15 1     
   18    9   10 1     
   19    9   24 1     
   20   10   11 1     
   21   10   25 1     
   22   10   26 1     
   23   11   12 1     
   24   11   27 1     
   25   11   28 1     
   26   12   13 1     
   27   12   14 1     
   28   12   29 1     
   29   13   30 1     
   30   14   15 1     
   31   14   31 1     
   32   14   32 1     
   33   15   33 1     
   34   15   34 1     
   35   16   17 1     
   36    7   35 1     
   37    7   36 1     
   38   13   37 1     
   39   13   38 1     
   40   16   39 1     
   41   17   40 1     
   42   17   41 1     
@<TRIPOS>SUBSTRUCTURE
      1 S1             1
@<TRIPOS>SET
LONE_PAIRS      STATIC     ATOMS    <user>   **** ""
7 35 36 37 38 39 40 41
DONOR_HYDROGENS      STATIC     ATOMS    <user>   **** ""
3 22 23 30
ATOM$BLUE        STATIC     ATOMS    COLORGROUP SYSTEM
7 35 36 37 38 39 40 41
ATOM$RED        STATIC     ATOMS    COLORGROUP SYSTEM
3 22 23 30
