#       Name:                AV-unprocessed.smi:2006
#       Creating user name   scv26
#       Creation time:       Fri Mar 27 10:36:32 2020


#       File generated by GOLD software.
#

@<TRIPOS>MOLECULE
AV-unprocessed.smi:2006
    37    38     1
SMALL
NO_CHARGES


@<TRIPOS>ATOM
      1 ****        -3.9609  -1.2345   1.8504 C.3            1 S1                 0.0000
      2 ****        -3.3385  -0.5400   0.6350 C.3            1 S1                 0.0000
      3 ****        -1.8009  -0.4945   0.7201 C.3            1 S1                 0.0000
      4 ****        -1.2581   0.2500  -0.4093 N.3            1 S1                 0.0000
      5 ****         0.1423   0.2302  -0.4684 C.ar           1 S1                 0.0000
      6 ****         0.7720  -0.4174  -1.5520 C.ar           1 S1                 0.0000
      7 ****         2.1788  -0.4446  -1.6010 C.ar           1 S1                 0.0000
      8 ****         2.9079   0.1742  -0.5650 C.ar           1 S1                 0.0000
      9 ****         4.4232   0.1644  -0.5644 C.3            1 S1                 0.0000
     10 ****         4.9418  -1.0010   0.1710 N.4            1 S1                 1.0000
     11 ****         2.1872   0.8025   0.4723 C.ar           1 S1                 0.0000
     12 ****         0.8390   0.8310   0.5264 N.ar           1 S1                 0.0000
     13 ****        -1.8290   1.5862  -0.5204 C.3            1 S1                 0.0000
     14 ****        -3.3638   1.4986  -0.5710 C.3            1 S1                 0.0000
     15 ****        -3.8406   0.7933   0.5720 O.3            1 S1                 0.0000
     16 ****        -3.6090  -2.2629   1.9371 H              1 S1                 0.0000
     17 ****        -5.0477  -1.2613   1.7694 H              1 S1                 0.0000
     18 ****        -3.7080  -0.7142   2.7748 H              1 S1                 0.0000
     19 ****        -3.6405  -1.0780  -0.2653 H              1 S1                 0.0000
     20 ****        -1.4934  -0.0225   1.6546 H              1 S1                 0.0000
     21 ****        -1.3949  -1.5068   0.7208 H              1 S1                 0.0000
     22 ****         0.1882  -0.8865  -2.3308 H              1 S1                 0.0000
     23 ****         2.6859  -0.9355  -2.4185 H              1 S1                 0.0000
     24 ****         4.7964   0.1389  -1.5887 H              1 S1                 0.0000
     25 ****         4.8013   1.0785  -0.1054 H              1 S1                 0.0000
     26 ****         5.9517  -0.9874   0.1561 H              1 S1                 0.0000
     27 ****         4.6103  -1.8497  -0.2650 H              1 S1                 0.0000
     28 ****         2.7053   1.2890   1.2855 H              1 S1                 0.0000
     29 ****        -1.5219   2.1920   0.3333 H              1 S1                 0.0000
     30 ****        -1.4514   2.0767  -1.4184 H              1 S1                 0.0000
     31 ****        -3.7972   2.4985  -0.5778 H              1 S1                 0.0000
     32 ****        -3.6962   1.0009  -1.4835 H              1 S1                 0.0000
     33 ****         4.6194  -0.9672   1.1276 H              1 S1                 0.0000
     34 ****        -1.5517  -0.2401  -1.2301 LP             1 S1                 0.0000
     35 ****         0.3660   1.2842   1.2819 LP             1 S1                 0.0000
     36 ****        -3.5540   1.2838   1.3949 LP             1 S1                 0.0000
     37 ****        -4.8393   0.7592   0.5350 LP             1 S1                 0.0000
@<TRIPOS>BOND
    1    1    2 1     
    2    1   16 1     
    3    1   17 1     
    4    1   18 1     
    5    2   15 1     
    6    2    3 1     
    7    2   19 1     
    8    3    4 1     
    9    3   20 1     
   10    3   21 1     
   11    4    5 1     
   12    4   13 1     
   13    5   12 ar    
   14    5    6 ar    
   15    6    7 ar    
   16    6   22 1     
   17    7    8 ar    
   18    7   23 1     
   19    8    9 1     
   20    8   11 ar    
   21    9   10 1     
   22    9   24 1     
   23    9   25 1     
   24   10   26 1     
   25   10   27 1     
   26   10   33 1     
   27   11   12 ar    
   28   11   28 1     
   29   13   14 1     
   30   13   29 1     
   31   13   30 1     
   32   14   15 1     
   33   14   31 1     
   34   14   32 1     
   35    4   34 1     
   36   12   35 1     
   37   15   36 1     
   38   15   37 1     
@<TRIPOS>SUBSTRUCTURE
      1 S1             1
@<TRIPOS>SET
LONE_PAIRS      STATIC     ATOMS    <user>   **** ""
4 34 35 36 37
DONOR_HYDROGENS      STATIC     ATOMS    <user>   **** ""
3 26 27 33
ATOM$BLUE        STATIC     ATOMS    COLORGROUP SYSTEM
4 34 35 36 37
ATOM$RED        STATIC     ATOMS    COLORGROUP SYSTEM
3 26 27 33
