AV-unprocessed.smi:103|AV-procd|sdf|987|dock7
  -GOLD-   2262017563D 1   1.00000     0.00000
 Structure written by MMmdl.
 53 55  0  0  0  0  0  0  0  0  1 V2000
  153.8233  136.3348  161.7702 C   0  0  0  0  0  0  0  0  0  0  0  0
  153.4319  136.7202  160.3496 C   0  0  0  0  0  0  0  0  0  0  0  0
  153.0336  135.8806  159.5422 O   0  0  0  0  0  0  0  0  0  0  0  0
  153.5740  138.0340  160.1172 O   0  0  0  0  0  0  0  0  0  0  0  0
  153.2489  138.5566  158.8398 C   0  0  0  0  0  0  0  0  0  0  0  0
  151.7446  138.8568  158.7733 C   0  0  2  0  0  0  0  0  0  0  0  0
  150.9790  137.7163  159.1316 O   0  0  0  0  0  0  0  0  0  0  0  0
  149.6795  137.9187  158.6829 C   0  0  2  0  0  0  0  0  0  0  0  0
  149.0441  136.5839  158.4660 N   0  0  0  0  0  0  0  0  0  0  0  0
  148.1290  135.8985  159.2394 C   0  0  0  0  0  0  0  0  0  0  0  0
  147.4442  136.4344  160.8028 S   0  0  0  0  0  0  0  0  0  0  0  0
  146.4851  134.9553  161.3247 C   0  0  0  0  0  0  0  0  0  0  0  0
  148.5731  136.6313  161.7245 O   0  0  0  0  0  0  0  0  0  0  0  0
  146.5162  137.5383  160.5111 O   0  0  0  0  0  0  0  0  0  0  0  0
  147.7974  134.7033  158.8314 N   0  0  0  0  0  0  0  0  0  0  0  0
  148.4945  134.5734  157.6382 C   0  0  0  0  0  0  0  0  0  0  0  0
  148.5885  133.5552  156.6564 C   0  0  0  0  0  0  0  0  0  0  0  0
  147.9238  132.3946  156.7404 N   0  0  0  0  0  0  0  0  0  0  0  0
  149.3857  133.7637  155.5825 N   0  0  0  0  0  0  0  0  0  0  0  0
  150.0604  134.9131  155.4753 C   0  0  0  0  0  0  0  0  0  0  0  0
  150.0763  135.9538  156.3124 N   0  0  0  0  0  0  0  0  0  0  0  0
  149.2704  135.7428  157.3949 C   0  0  0  0  0  0  0  0  0  0  0  0
  149.7903  138.6874  157.3567 C   0  0  1  0  0  0  0  0  0  0  0  0
  148.7476  139.6481  157.1656 O   0  0  0  0  0  0  0  0  0  0  0  0
  148.6976  140.8352  157.8102 C   0  0  0  0  0  0  0  0  0  0  0  0
  147.4717  141.6488  157.4192 C   0  0  0  0  0  0  0  0  0  0  0  0
  149.5097  141.2581  158.6323 O   0  0  0  0  0  0  0  0  0  0  0  0
  151.2174  139.2472  157.3816 C   0  0  2  0  0  0  0  0  0  0  0  0
  151.9873  138.6428  156.3473 O   0  0  0  0  0  0  0  0  0  0  0  0
  151.7854  138.9842  155.0631 C   0  0  0  0  0  0  0  0  0  0  0  0
  152.7262  138.2532  154.1154 C   0  0  0  0  0  0  0  0  0  0  0  0
  150.9479  139.7857  154.6486 O   0  0  0  0  0  0  0  0  0  0  0  0
  154.7559  136.8218  162.0546 H   0  0  0  0  0  0  0  0  0  0  0  0
  153.9597  135.2560  161.8501 H   0  0  0  0  0  0  0  0  0  0  0  0
  153.0451  136.6381  162.4707 H   0  0  0  0  0  0  0  0  0  0  0  0
  153.8137  139.4769  158.6834 H   0  0  0  0  0  0  0  0  0  0  0  0
  153.5366  137.8556  158.0549 H   0  0  0  0  0  0  0  0  0  0  0  0
  151.5030  139.6595  159.4717 H   0  0  0  0  0  0  0  0  0  0  0  0
  149.1058  138.4155  159.4621 H   0  0  0  0  0  0  0  0  0  0  0  0
  146.0079  135.1536  162.2840 H   0  0  0  0  0  0  0  0  0  0  0  0
  147.1526  134.0997  161.4209 H   0  0  0  0  0  0  0  0  0  0  0  0
  145.7215  134.7371  160.5782 H   0  0  0  0  0  0  0  0  0  0  0  0
  147.3218  132.2149  157.5313 H   0  0  0  0  0  0  0  0  0  0  0  0
  148.0241  131.7023  156.0122 H   0  0  0  0  0  0  0  0  0  0  0  0
  150.6775  135.0128  154.5947 H   0  0  0  0  0  0  0  0  0  0  0  0
  149.7097  137.9683  156.5408 H   0  0  0  0  0  0  0  0  0  0  0  0
  147.4246  141.7690  156.3367 H   0  0  0  0  0  0  0  0  0  0  0  0
  147.5063  142.6382  157.8758 H   0  0  0  0  0  0  0  0  0  0  0  0
  146.5641  141.1456  157.7530 H   0  0  0  0  0  0  0  0  0  0  0  0
  151.2455  140.3324  157.2729 H   0  0  0  0  0  0  0  0  0  0  0  0
  153.7639  138.4548  154.3815 H   0  0  0  0  0  0  0  0  0  0  0  0
  152.5633  138.5784  153.0878 H   0  0  0  0  0  0  0  0  0  0  0  0
  152.5562  137.1776  154.1688 H   0  0  0  0  0  0  0  0  0  0  0  0
  1  2  1  0  0  0  0
  1 33  1  0  0  0  0
  1 34  1  0  0  0  0
  1 35  1  0  0  0  0
  2  3  2  0  0  0  0
  2  4  1  0  0  0  0
  4  5  1  0  0  0  0
  5  6  1  0  0  0  0
  5 36  1  0  0  0  0
  5 37  1  0  0  0  0
  6 28  1  0  0  0  0
  6  7  1  0  0  0  0
  6 38  1  0  0  0  0
  7  8  1  0  0  0  0
  8  9  1  0  0  0  0
  8 23  1  0  0  0  0
  8 39  1  0  0  0  0
  9 22  1  0  0  0  0
  9 10  1  0  0  0  0
 10 11  1  0  0  0  0
 10 15  2  0  0  0  0
 11 12  1  0  0  0  0
 11 13  2  0  0  0  0
 11 14  2  0  0  0  0
 12 40  1  0  0  0  0
 12 41  1  0  0  0  0
 12 42  1  0  0  0  0
 15 16  1  0  0  0  0
 16 22  2  0  0  0  0
 16 17  1  0  0  0  0
 17 18  1  0  0  0  0
 17 19  2  0  0  0  0
 18 43  1  0  0  0  0
 18 44  1  0  0  0  0
 19 20  1  0  0  0  0
 20 21  2  0  0  0  0
 20 45  1  0  0  0  0
 21 22  1  0  0  0  0
 23 24  1  0  0  0  0
 23 28  1  0  0  0  0
 23 46  1  0  0  0  0
 24 25  1  0  0  0  0
 25 26  1  0  0  0  0
 25 27  2  0  0  0  0
 26 47  1  0  0  0  0
 26 48  1  0  0  0  0
 26 49  1  0  0  0  0
 28 29  1  0  0  0  0
 28 50  1  0  0  0  0
 29 30  1  0  0  0  0
 30 31  1  0  0  0  0
 30 32  2  0  0  0  0
 31 51  1  0  0  0  0
 31 52  1  0  0  0  0
 31 53  1  0  0  0  0
M  END
> <s_m_source_file>
AV-unprocessed.smi

> <i_m_source_file_index>
103

> <i_lp_mmshare_version>
43012

> <i_f3d_flags>
0

> <s_epik_input>
W0NIM11DKD1PKU9bQ0gyXVtDQEBIXTFPW0NASF0oW0NAQEhdKE9DKD1PKVtDSDNdKVtDQEhdMU9DKD1PKVtDSDNdKW4oYyhuMilTKD1PKSg9TylbQ0gzXSljKGMyMyluW2NIXW5jM1tOSDJd

> <s_epik_cmdline>
J2VwaWtfcHl0aG9uJywgJy1waCcsICc3LjAnLCAnLXRuJywgJzgnLCAnLW1hJywgJzIwMCcsICctbWV0YWxfYmluZGluZycsICctaW1hZScsICc8aW5maWxlLm1hZT4nLCAnLW9tYWUnLCAnPG91dGZpbGUubWFlPic=

> <r_lp_tautomer_probability>
1

> <r_epik_Ionization_Penalty>
1.51338e-05

> <r_epik_Ionization_Penalty_Charging>
0

> <r_epik_Ionization_Penalty_Neutral>
1.51338e-05

> <r_epik_State_Penalty>
-0

> <r_epik_Charging_Adjusted_Penalty>
0

> <i_epik_Tot_Q>
0

> <i_epik_Tot_abs_Q>
0

> <r_epik_Metal_State_Penalty>
-0

> <b_epik_Metal_Only>
0

> <s_epik_Chemistry_Notes>
This compound has an ester and may undergo hydrolysis at high or low pH. This compound contains an acetal/aminal-like group ( X-CH(R)-Y where X, Y are N, S, or O) that may be acid/base labile, releasing an aldehyde.

> <s_lp_Force_Field>
OPLS_2005

> <r_lp_Energy>
18.7655

> <b_lp_Chiralities_Consistent>
1

> <s_lp_Variant>
AV-unprocessed.smi:103-11

> <Gold.Version>
5.8.1

> <Gold.Id.Protein>
6NUR|6NUR_protein|mol2

> <Gold.PLP.Fitness>
45.8944

> <Gold.PLP.PLP>
-35.9308

> <Gold.PLP.part.hbond>
-5.0129

> <Gold.PLP.part.metal>
0.0000

> <Gold.PLP.part.buried>
-7.9361

> <Gold.PLP.part.nonpolar>
-24.2117

> <Gold.PLP.part.repulsive>
0.1524

> <Gold.PLP.ligand.clash>
0.0000

> <Gold.PLP.ligand.torsion>
2.0927

> <Gold.PLP.Chemscore.Hbond>
3.9425

> <Gold.PLP.Chemscore.CHOScore>
0.0000

> <Gold.PLP.Chemscore.Metal>
0.0000

> <Gold.Chemscore.Hbonds>
donor molecule, donor type, donor heavy atom, donor atom, acceptor molecule, acceptor atom, score
      P1  H  6896  6909       L1     3  0.60
      P1  H  6931  6943       L1    13  1.00
      P1  H  6934  6947       L1    14  1.00
      P1  H  7989  7998       L1    32  1.00

> <Gold.PLP.Chemscore.Internal.Correction>
2.3216

> <Gold.Rescore>
     Score         DG    S(hbond)    S(metal)    S(lipo)     H(rot)  DE(clash)    DE(int)     intcor
      5.67     -11.85       3.62        0.00      43.91       4.25       0.11       6.06       ----

> <Gold.Chemscore.Fitness>
5.6735

> <Gold.Chemscore.DG>
-11.8501

> <Gold.Chemscore.ZeroCoef>
-5.4800

> <Gold.Chemscore.Hbond>
3.6230

> <Gold.Chemscore.Metal>
0.0000

> <Gold.Chemscore.Lipo>
43.9140

> <Gold.Chemscore.Internal_Hbond>
0.0000

> <Gold.Chemscore.DEClash>
0.1117

> <Gold.Chemscore.DEInternal>
6.0649

> <Gold.Chemscore.Rot>
4.2456

> <Gold.Chemscore.Internal.Correction>
   9.000000E+99

> <Gold.Chemscore.Hbonds>
donor molecule, donor type, donor heavy atom, donor atom, acceptor molecule, acceptor atom, score
      P1  H  6896  6909       L1     3  0.52
      P1  H  6931  6943       L1    13  0.91
      P1  H  6934  6947       L1    14  0.82
      P1  H  7989  7998       L1    32  0.78

> <Gold.Chemscore.Hbond.Weighted>
-12.1008

> <Gold.Chemscore.Metal.Weighted>
-0.0000

> <Gold.Chemscore.Lipo.Weighted>
-5.1379

> <Gold.Chemscore.Internal_Hbond.Weighted>
0.0000

> <Gold.Chemscore.DEClash.Weighted>
0.1117

> <Gold.Chemscore.DEInternal.Weighted>
6.0649

> <Gold.Chemscore.Rot.Weighted>
10.8687

> <Gold.Chemscore.Internal.Correction.Weighted>
   9.000000E+99

> <Gold.Protein.RotatedTorsions>
[ 6907 6896 6895 6894 ] final  138.05 input  -60.11 | X-H torsion
[ 7974 7965 7964 7962 ] final -153.23 input  175.53 | X-H torsion
[ 8008 7997 7996 7995 ] final   11.76 input   59.86 | X-H torsion
[ 10167 10162 10161 10158 ] final   31.38 input  -65.29 | X-H torsion
[ 10718 10713 10712 10709 ] final  159.10 input   66.30 | X-H torsion
[ 10763 10752 10751 10750 ] final  -43.12 input  -60.55 | X-H torsion
[ 11005 11000 10999 10996 ] final -102.87 input  -57.11 | X-H torsion

> <Gold.Protein.ActiveResidues>
 VAL166  LYS551  ARG553  GLY616  TRP617  ASP618  TYR619  PRO620  LYS621  CYS622 
 ASP623  PHE694  ASN695  SER759  ASP760  ASP761  ALA762  ILE779  LEU786  VAL792 
 PHE793  MET794  SER795  GLU796  ALA797  LYS798  CYS799  TRP800  GLU811  SER814 

> <Gold.Protein.RotatedAtoms>
  152.2710  133.5383  159.5439 H   0  0  0  0  0  0  0  0  0  0  0  0  # atno 6907 bound_to 6896
  150.7159  134.0697  159.3869 H   0  0  0  0  0  0  0  0  0  0  0  0  # atno 6908 bound_to 6896
  151.8612  135.0523  160.0520 H   0  0  0  0  0  0  0  0  0  0  0  0  # atno 6909 bound_to 6896
  144.7752  140.4554  143.5879 H   0  0  0  0  0  0  0  0  0  0  0  0  # atno 7974 bound_to 7965
  154.8113  140.2868  155.5851 H   0  0  0  0  0  0  0  0  0  0  0  0  # atno 8008 bound_to 7997
  156.2988  140.2568  156.2931 H   0  0  0  0  0  0  0  0  0  0  0  0  # atno 8009 bound_to 7997
  154.9445  140.0380  157.2102 H   0  0  0  0  0  0  0  0  0  0  0  0  # atno 8010 bound_to 7997
  140.4594  144.0929  150.6209 H   0  0  0  0  0  0  0  0  0  0  0  0  # atno 10167 bound_to 10162
  157.1689  131.0605  151.2193 H   0  0  0  0  0  0  0  0  0  0  0  0  # atno 10718 bound_to 10713
  153.9904  135.6706  153.4754 H   0  0  0  0  0  0  0  0  0  0  0  0  # atno 10763 bound_to 10752
  153.0708  135.4975  154.8296 H   0  0  0  0  0  0  0  0  0  0  0  0  # atno 10764 bound_to 10752
  154.7113  135.3098  154.9155 H   0  0  0  0  0  0  0  0  0  0  0  0  # atno 10765 bound_to 10752
  141.1170  133.8594  157.1415 H   0  0  0  0  0  0  0  0  0  0  0  0  # atno 11005 bound_to 11000
  145.6208  139.1524  143.3023 LP  0  0  0  0  0  0  0  0  0  0  0  0  # atno 17320 bound_to 7965
  146.1926  140.6318  142.9139 LP  0  0  0  0  0  0  0  0  0  0  0  0  # atno 17321 bound_to 7965
  140.4112  143.2656  151.9831 LP  0  0  0  0  0  0  0  0  0  0  0  0  # atno 17342 bound_to 10162
  139.4804  144.5914  151.7765 LP  0  0  0  0  0  0  0  0  0  0  0  0  # atno 17343 bound_to 10162
  157.4062  130.7360  149.6804 LP  0  0  0  0  0  0  0  0  0  0  0  0  # atno 17370 bound_to 10713
  155.9741  130.4107  150.3945 LP  0  0  0  0  0  0  0  0  0  0  0  0  # atno 17371 bound_to 10713
  140.0100  134.9992  157.0374 LP  0  0  0  0  0  0  0  0  0  0  0  0  # atno 17394 bound_to 11000
  140.4616  134.1478  155.7192 LP  0  0  0  0  0  0  0  0  0  0  0  0  # atno 17395 bound_to 11000

$$$$
