AV-unprocessed.smi:1991|AV-procd|sdf|8067|dock9
  -GOLD-   2272010273D 1   1.00000     0.00000
 Structure written by MMmdl.
 44 45  0  0  0  0  0  0  0  0  1 V2000
  155.7411  137.9479  163.4589 C   0  0  0  0  0  0  0  0  0  0  0  0
  154.5106  137.0895  163.1290 C   0  0  2  0  0  0  0  0  0  0  0  0
  154.7611  135.7737  163.6163 O   0  0  0  0  0  0  0  0  0  0  0  0
  153.6102  134.9542  163.7964 C   0  0  0  0  0  0  0  0  0  0  0  0
  154.0482  133.4937  163.9582 C   0  0  0  0  0  0  0  0  0  0  0  0
  155.2627  133.4583  164.5054 F   0  0  0  0  0  0  0  0  0  0  0  0
  153.2002  132.8437  164.7546 F   0  0  0  0  0  0  0  0  0  0  0  0
  154.0973  132.8928  162.7697 F   0  0  0  0  0  0  0  0  0  0  0  0
  154.2320  137.0607  161.6173 C   0  0  0  0  0  0  0  0  0  0  0  0
  154.3194  136.0057  160.9889 O   0  0  0  0  0  0  0  0  0  0  0  0
  153.8901  138.2302  161.0540 N   0  0  0  0  0  0  0  0  0  0  0  0
  153.5886  138.4426  159.6419 C   0  0  0  0  0  0  0  0  0  0  0  0
  153.1249  139.8668  159.3482 C   0  0  0  0  0  0  0  0  0  0  0  0
  153.1854  140.8395  160.3703 C   0  0  0  0  0  0  0  0  0  0  0  0
  152.7586  142.1523  160.1015 C   0  0  0  0  0  0  0  0  0  0  0  0
  152.2872  142.4479  158.8100 C   0  0  0  0  0  0  0  0  0  0  0  0
  152.2267  141.5340  157.8199 N   0  0  0  0  0  0  0  0  0  0  0  0
  152.6367  140.2676  158.0758 C   0  0  0  0  0  0  0  0  0  0  0  0
  152.5519  139.3464  157.0200 N   0  0  0  0  0  0  0  0  0  0  0  0
  152.2721  139.9525  155.7245 C   0  0  0  0  0  0  0  0  0  0  0  0
  152.3486  138.8845  154.6200 C   0  0  0  0  0  0  0  0  0  0  0  0
  151.4574  137.8156  154.9262 O   0  0  0  0  0  0  0  0  0  0  0  0
  151.7839  137.1815  156.1599 C   0  0  0  0  0  0  0  0  0  0  0  0
  151.6933  138.2042  157.3055 C   0  0  0  0  0  0  0  0  0  0  0  0
  155.6261  138.9662  163.0852 H   0  0  0  0  0  0  0  0  0  0  0  0
  156.6503  137.5308  163.0239 H   0  0  0  0  0  0  0  0  0  0  0  0
  155.8919  138.0082  164.5369 H   0  0  0  0  0  0  0  0  0  0  0  0
  153.6516  137.5135  163.6527 H   0  0  0  0  0  0  0  0  0  0  0  0
  153.0605  135.2730  164.6832 H   0  0  0  0  0  0  0  0  0  0  0  0
  152.9337  135.0397  162.9453 H   0  0  0  0  0  0  0  0  0  0  0  0
  153.8408  139.0421  161.6519 H   0  0  0  0  0  0  0  0  0  0  0  0
  154.4575  138.2296  159.0175 H   0  0  0  0  0  0  0  0  0  0  0  0
  152.8411  137.7033  159.3584 H   0  0  0  0  0  0  0  0  0  0  0  0
  153.5561  140.5858  161.3524 H   0  0  0  0  0  0  0  0  0  0  0  0
  152.7930  142.9137  160.8665 H   0  0  0  0  0  0  0  0  0  0  0  0
  151.9511  143.4445  158.5648 H   0  0  0  0  0  0  0  0  0  0  0  0
  151.2794  140.4048  155.7338 H   0  0  0  0  0  0  0  0  0  0  0  0
  152.9902  140.7493  155.5264 H   0  0  0  0  0  0  0  0  0  0  0  0
  152.0700  139.3163  153.6586 H   0  0  0  0  0  0  0  0  0  0  0  0
  153.3663  138.5045  154.5163 H   0  0  0  0  0  0  0  0  0  0  0  0
  151.0890  136.3596  156.3328 H   0  0  0  0  0  0  0  0  0  0  0  0
  152.7836  136.7480  156.1042 H   0  0  0  0  0  0  0  0  0  0  0  0
  151.9937  137.7413  158.2463 H   0  0  0  0  0  0  0  0  0  0  0  0
  150.6616  138.5385  157.4238 H   0  0  0  0  0  0  0  0  0  0  0  0
  1  2  1  0  0  0  0
  1 25  1  0  0  0  0
  1 26  1  0  0  0  0
  1 27  1  0  0  0  0
  2  3  1  0  0  0  0
  2  9  1  0  0  0  0
  2 28  1  0  0  0  0
  3  4  1  0  0  0  0
  4  5  1  0  0  0  0
  4 29  1  0  0  0  0
  4 30  1  0  0  0  0
  5  6  1  0  0  0  0
  5  7  1  0  0  0  0
  5  8  1  0  0  0  0
  9 10  2  0  0  0  0
  9 11  1  0  0  0  0
 11 12  1  0  0  0  0
 11 31  1  0  0  0  0
 12 13  1  0  0  0  0
 12 32  1  0  0  0  0
 12 33  1  0  0  0  0
 13 18  1  0  0  0  0
 13 14  2  0  0  0  0
 14 15  1  0  0  0  0
 14 34  1  0  0  0  0
 15 16  2  0  0  0  0
 15 35  1  0  0  0  0
 16 17  1  0  0  0  0
 16 36  1  0  0  0  0
 17 18  2  0  0  0  0
 18 19  1  0  0  0  0
 19 24  1  0  0  0  0
 19 20  1  0  0  0  0
 20 21  1  0  0  0  0
 20 37  1  0  0  0  0
 20 38  1  0  0  0  0
 21 22  1  0  0  0  0
 21 39  1  0  0  0  0
 21 40  1  0  0  0  0
 22 23  1  0  0  0  0
 23 24  1  0  0  0  0
 23 41  1  0  0  0  0
 23 42  1  0  0  0  0
 24 43  1  0  0  0  0
 24 44  1  0  0  0  0
M  END
> <s_m_source_file>
AV-unprocessed.smi

> <i_m_source_file_index>
1991

> <i_lp_mmshare_version>
43012

> <i_f3d_flags>
0

> <s_epik_input>
RkMoRikoRilbQ0gyXU9bQ0BASF0oW0NIM10pQyg9TylbTkhdW0NIMl1jMVtjSF1bY0hdW2NIXW5jMU4yW0NIMl1bQ0gyXU9bQ0gyXVtDSDJdMg==

> <s_epik_cmdline>
J2VwaWtfcHl0aG9uJywgJy1waCcsICc3LjAnLCAnLXRuJywgJzgnLCAnLW1hJywgJzIwMCcsICctbWV0YWxfYmluZGluZycsICctaW1hZScsICc8aW5maWxlLm1hZT4nLCAnLW9tYWUnLCAnPG91dGZpbGUubWFlPic=

> <r_lp_tautomer_probability>
1

> <r_epik_Ionization_Penalty>
0.00436412

> <r_epik_Ionization_Penalty_Charging>
0

> <r_epik_Ionization_Penalty_Neutral>
0.00436412

> <r_epik_State_Penalty>
0.00314317

> <r_epik_Charging_Adjusted_Penalty>
0.00314317

> <i_epik_Tot_Q>
0

> <i_epik_Tot_abs_Q>
0

> <r_epik_Metal_State_Penalty>
-0

> <b_epik_Metal_Only>
0

> <s_lp_Force_Field>
OPLS_2005

> <r_lp_Energy>
21.8151

> <b_lp_Chiralities_Consistent>
1

> <s_lp_Variant>
AV-unprocessed.smi:1991-1

> <Gold.Version>
5.8.1

> <Gold.Id.Protein>
6NUR|6NUR_protein|mol2

> <Gold.PLP.Fitness>
39.1518

> <Gold.PLP.PLP>
-40.9683

> <Gold.PLP.part.hbond>
-0.6671

> <Gold.PLP.part.metal>
0.0000

> <Gold.PLP.part.buried>
-3.4071

> <Gold.PLP.part.nonpolar>
-36.3399

> <Gold.PLP.part.repulsive>
0.1463

> <Gold.PLP.ligand.clash>
0.0000

> <Gold.PLP.ligand.torsion>
1.0155

> <Gold.PLP.Chemscore.Hbond>
0.0000

> <Gold.PLP.Chemscore.CHOScore>
0.0000

> <Gold.PLP.Chemscore.Metal>
0.0000

> <Gold.PLP.Chemscore.Internal.Correction>
0.2145

> <Gold.Rescore>
     Score         DG    S(hbond)    S(metal)    S(lipo)     H(rot)  DE(clash)    DE(int)     intcor
      9.01      -9.90       0.00        0.00      92.28       2.49       0.04       0.84       ----

> <Gold.Chemscore.Fitness>
9.0146

> <Gold.Chemscore.DG>
-9.9023

> <Gold.Chemscore.ZeroCoef>
-5.4800

> <Gold.Chemscore.Hbond>
0.0000

> <Gold.Chemscore.Metal>
0.0000

> <Gold.Chemscore.Lipo>
92.2778

> <Gold.Chemscore.Internal_Hbond>
0.0000

> <Gold.Chemscore.DEClash>
0.0449

> <Gold.Chemscore.DEInternal>
0.8428

> <Gold.Chemscore.Rot>
2.4899

> <Gold.Chemscore.Internal.Correction>
   9.000000E+99

> <Gold.Chemscore.Hbonds>
donor molecule, donor type, donor heavy atom, donor atom, acceptor molecule, acceptor atom, score
      P1  H  6896  6907       L1    10  0.02

> <Gold.Chemscore.Hbond.Weighted>
-0.0000

> <Gold.Chemscore.Metal.Weighted>
-0.0000

> <Gold.Chemscore.Lipo.Weighted>
-10.7965

> <Gold.Chemscore.Internal_Hbond.Weighted>
0.0000

> <Gold.Chemscore.DEClash.Weighted>
0.0449

> <Gold.Chemscore.DEInternal.Weighted>
0.8428

> <Gold.Chemscore.Rot.Weighted>
6.3741

> <Gold.Chemscore.Internal.Correction.Weighted>
   9.000000E+99

> <Gold.Protein.RotatedTorsions>
[ 6907 6896 6895 6894 ] final   47.34 input  -60.11 | X-H torsion
[ 7974 7965 7964 7962 ] final  158.16 input  175.53 | X-H torsion
[ 8008 7997 7996 7995 ] final  118.74 input   59.86 | X-H torsion
[ 10167 10162 10161 10158 ] final -104.60 input  -65.29 | X-H torsion
[ 10718 10713 10712 10709 ] final  -41.07 input   66.30 | X-H torsion
[ 10763 10752 10751 10750 ] final  161.70 input  -60.55 | X-H torsion
[ 11005 11000 10999 10996 ] final -146.75 input  -57.11 | X-H torsion

> <Gold.Protein.ActiveResidues>
 VAL166  LYS551  ARG553  GLY616  TRP617  ASP618  TYR619  PRO620  LYS621  CYS622 
 ASP623  PHE694  ASN695  SER759  ASP760  ASP761  ALA762  ILE779  LEU786  VAL792 
 PHE793  MET794  SER795  GLU796  ALA797  LYS798  CYS799  TRP800  GLU811  SER814 

> <Gold.Protein.RotatedAtoms>
  152.2669  134.7974  160.0420 H   0  0  0  0  0  0  0  0  0  0  0  0  # atno 6907 bound_to 6896
  151.8600  133.3450  159.3709 H   0  0  0  0  0  0  0  0  0  0  0  0  # atno 6908 bound_to 6896
  150.7137  134.5143  159.5666 H   0  0  0  0  0  0  0  0  0  0  0  0  # atno 6909 bound_to 6896
  144.7862  139.7439  143.6240 H   0  0  0  0  0  0  0  0  0  0  0  0  # atno 7974 bound_to 7965
  156.2561  140.2868  156.0882 H   0  0  0  0  0  0  0  0  0  0  0  0  # atno 8008 bound_to 7997
  155.1492  140.0397  157.2834 H   0  0  0  0  0  0  0  0  0  0  0  0  # atno 8009 bound_to 7997
  154.6473  140.2536  155.7260 H   0  0  0  0  0  0  0  0  0  0  0  0  # atno 8010 bound_to 7997
  140.2076  143.3771  152.1078 H   0  0  0  0  0  0  0  0  0  0  0  0  # atno 10167 bound_to 10162
  156.2744  130.4210  149.8403 H   0  0  0  0  0  0  0  0  0  0  0  0  # atno 10718 bound_to 10713
  154.2671  135.2767  155.2754 H   0  0  0  0  0  0  0  0  0  0  0  0  # atno 10763 bound_to 10752
  154.5334  135.5723  153.6781 H   0  0  0  0  0  0  0  0  0  0  0  0  # atno 10764 bound_to 10752
  152.9952  135.6233  154.2823 H   0  0  0  0  0  0  0  0  0  0  0  0  # atno 10765 bound_to 10752
  140.7788  134.3103  157.5052 H   0  0  0  0  0  0  0  0  0  0  0  0  # atno 11005 bound_to 11000
  146.2094  139.5440  142.9691 LP  0  0  0  0  0  0  0  0  0  0  0  0  # atno 17320 bound_to 7965
  145.5916  141.0368  143.2067 LP  0  0  0  0  0  0  0  0  0  0  0  0  # atno 17321 bound_to 7965
  139.5192  144.7017  151.5474 LP  0  0  0  0  0  0  0  0  0  0  0  0  # atno 17342 bound_to 10162
  140.6347  143.9008  150.6636 LP  0  0  0  0  0  0  0  0  0  0  0  0  # atno 17343 bound_to 10162
  156.5873  130.8491  151.3399 LP  0  0  0  0  0  0  0  0  0  0  0  0  # atno 17370 bound_to 10713
  157.7294  130.9671  150.1788 LP  0  0  0  0  0  0  0  0  0  0  0  0  # atno 17371 bound_to 10713
  139.8745  134.9306  156.3505 LP  0  0  0  0  0  0  0  0  0  0  0  0  # atno 17394 bound_to 11000
  140.9503  133.7456  156.0262 LP  0  0  0  0  0  0  0  0  0  0  0  0  # atno 17395 bound_to 11000

$$$$
