#       Name:                AV-unprocessed.smi:2198
#       Creating user name   scv26
#       Creation time:       Fri Mar 27 12:13:11 2020


#       File generated by GOLD software.
#

@<TRIPOS>MOLECULE
AV-unprocessed.smi:2198
    48    49     1
SMALL
NO_CHARGES


@<TRIPOS>ATOM
      1 ****        -6.4156  -1.6350  -0.3926 C.3            1 S1                 0.0000
      2 ****        -4.9068  -1.5503  -0.4896 C.2            1 S1                 0.0000
      3 ****        -4.2644  -0.4779  -0.8173 N.2            1 S1                 0.0000
      4 ****        -2.8643  -0.5219  -0.8783 C.2            1 S1                 0.0000
      5 ****        -2.1855   0.7785  -1.2739 C.3            1 S1                 0.0000
      6 ****        -2.1712  -1.6649  -0.5987 C.2            1 S1                 0.0000
      7 ****        -0.6472  -1.7472  -0.6588 C.3            1 S1                 0.0000
      8 ****         0.0851  -1.2092   0.5713 C.2            1 S1                 0.0000
      9 ****        -0.1117  -1.7174   1.6748 O.2            1 S1                 0.0000
     10 ****         0.9217  -0.1800   0.3679 N.am           1 S1                 0.0000
     11 ****         1.7187   0.4858   1.3962 C.3            1 S1                 0.0000
     12 ****         3.0386  -0.2696   1.6577 C.3            1 S1                 0.0000
     13 ****         4.0207  -0.1446   0.4806 C.3            1 S1                 0.0000
     14 ****         4.2846   1.3274   0.1279 C.3            1 S1                 0.0000
     15 ****         2.9755   2.0789  -0.1802 C.3            1 S1                 0.0000
     16 ****         3.2433   3.5498  -0.5291 C.3            1 S1                 0.0000
     17 ****         1.9878   1.9513   0.9990 C.3            1 S1                 0.0000
     18 ****        -2.9152  -2.8826  -0.2216 C.2            1 S1                 0.0000
     19 ****        -2.3937  -3.9613   0.0565 O.2            1 S1                 0.0000
     20 ****        -4.2601  -2.7485  -0.1920 N.am           1 S1                 0.0000
     21 ****        -4.8134  -3.5547   0.0598 H              1 S1                 0.0000
     22 ****        -6.7841  -0.9295   0.3524 H              1 S1                 0.0000
     23 ****        -6.7461  -2.6354  -0.1093 H              1 S1                 0.0000
     24 ****        -6.8677  -1.3865  -1.3530 H              1 S1                 0.0000
     25 ****        -1.5770   0.6411  -2.1675 H              1 S1                 0.0000
     26 ****        -1.5464   1.1383  -0.4676 H              1 S1                 0.0000
     27 ****        -2.9181   1.5572  -1.4894 H              1 S1                 0.0000
     28 ****        -0.3252  -2.7768  -0.8182 H              1 S1                 0.0000
     29 ****        -0.3028  -1.2157  -1.5465 H              1 S1                 0.0000
     30 ****         1.0149   0.1718  -0.5738 H              1 S1                 0.0000
     31 ****         1.1383   0.4977   2.3206 H              1 S1                 0.0000
     32 ****         3.5080   0.1363   2.5545 H              1 S1                 0.0000
     33 ****         2.8418  -1.3210   1.8706 H              1 S1                 0.0000
     34 ****         4.9601  -0.6394   0.7289 H              1 S1                 0.0000
     35 ****         3.6213  -0.6647  -0.3909 H              1 S1                 0.0000
     36 ****         4.8021   1.8116   0.9573 H              1 S1                 0.0000
     37 ****         4.9575   1.3819  -0.7287 H              1 S1                 0.0000
     38 ****         2.5208   1.6159  -1.0572 H              1 S1                 0.0000
     39 ****         3.7047   4.0784   0.3057 H              1 S1                 0.0000
     40 ****         2.3178   4.0683  -0.7808 H              1 S1                 0.0000
     41 ****         3.9119   3.6342  -1.3863 H              1 S1                 0.0000
     42 ****         1.0473   2.4482   0.7569 H              1 S1                 0.0000
     43 ****         2.3931   2.4801   1.8627 H              1 S1                 0.0000
     44 ****        -4.7568   0.3677  -1.0236 LP             1 S1                 0.0000
     45 ****        -0.7501  -2.4816   1.7667 LP             1 S1                 0.0000
     46 ****         0.3668  -1.3661   2.4796 LP             1 S1                 0.0000
     47 ****        -1.3983  -4.0555   0.0358 LP             1 S1                 0.0000
     48 ****        -2.9650  -4.7440   0.3033 LP             1 S1                 0.0000
@<TRIPOS>BOND
    1    1    2 1     
    2    1   22 1     
    3    1   23 1     
    4    1   24 1     
    5    2   20 1     
    6    2    3 2     
    7    3    4 1     
    8    4    5 1     
    9    4    6 2     
   10    5   25 1     
   11    5   26 1     
   12    5   27 1     
   13    6    7 1     
   14    6   18 1     
   15    7    8 1     
   16    7   28 1     
   17    7   29 1     
   18    8    9 2     
   19    8   10 am    
   20   10   11 1     
   21   10   30 1     
   22   11   17 1     
   23   11   12 1     
   24   11   31 1     
   25   12   13 1     
   26   12   32 1     
   27   12   33 1     
   28   13   14 1     
   29   13   34 1     
   30   13   35 1     
   31   14   15 1     
   32   14   36 1     
   33   14   37 1     
   34   15   16 1     
   35   15   17 1     
   36   15   38 1     
   37   16   39 1     
   38   16   40 1     
   39   16   41 1     
   40   17   42 1     
   41   17   43 1     
   42   18   19 2     
   43   18   20 am    
   44   20   21 1     
   45    3   44 1     
   46    9   45 1     
   47    9   46 1     
   48   19   47 1     
   49   19   48 1     
@<TRIPOS>SUBSTRUCTURE
      1 S1             1
@<TRIPOS>SET
LONE_PAIRS      STATIC     ATOMS    <user>   **** ""
5 44 45 46 47 48
DONOR_HYDROGENS      STATIC     ATOMS    <user>   **** ""
2 30 21
ATOM$BLUE        STATIC     ATOMS    COLORGROUP SYSTEM
5 44 45 46 47 48
ATOM$RED        STATIC     ATOMS    COLORGROUP SYSTEM
2 30 21
