#       Name:                AV-unprocessed.smi:2699
#       Creating user name   scv26
#       Creation time:       Fri Mar 27 14:46:34 2020


#       File generated by GOLD software.
#

@<TRIPOS>MOLECULE
AV-unprocessed.smi:2699
    49    51     1
SMALL
NO_CHARGES


@<TRIPOS>ATOM
      1 ****        -1.3186   3.1361   2.1905 C.3            1 S1                 0.0000
      2 ****        -1.7061   3.6143   0.7968 C.2            1 S1                 0.0000
      3 ****        -2.2117   4.8599   0.6407 C.2            1 S1                 0.0000
      4 ****        -2.5647   5.3710  -0.6952 C.2            1 S1                 0.0000
      5 ****        -3.0596   6.4843  -0.8587 O.2            1 S1                 0.0000
      6 ****        -2.2832   4.4691  -1.8205 C.2            1 S1                 0.0000
      7 ****        -1.7816   3.2449  -1.5686 C.2            1 S1                 0.0000
      8 ****        -1.4823   2.3981  -2.5653 O.3            1 S1                 0.0000
      9 ****        -1.5035   2.7299  -0.2865 N.pl3          1 S1                 0.0000
     10 ****        -1.0480   1.3413  -0.0889 C.3            1 S1                 0.0000
     11 ****         0.4814   1.1801  -0.1858 C.2            1 S1                 0.0000
     12 ****         1.1959   2.1471  -0.4457 O.2            1 S1                 0.0000
     13 ****         1.0172  -0.0333   0.0168 N.am           1 S1                 0.0000
     14 ****         2.4348  -0.3788  -0.0329 C.3            1 S1                 0.0000
     15 ****         2.6991  -1.8056   0.4846 C.3            1 S1                 0.0000
     16 ****         2.3549  -1.8211   1.9777 C.3            1 S1                 0.0000
     17 ****         3.3602  -1.4062   3.0223 C.3            1 S1                 0.0000
     18 ****         2.8690  -2.8408   2.9672 C.3            1 S1                 0.0000
     19 ****         2.0829  -2.9500  -0.3502 C.3            1 S1                 0.0000
     20 ****         3.3813  -3.0448  -1.1490 C.3            1 S1                 0.0000
     21 ****         4.0677  -2.3825   0.0445 C.3            1 S1                 0.0000
     22 ****        -1.2163   3.9790   2.8748 H              1 S1                 0.0000
     23 ****        -0.3628   2.6129   2.1931 H              1 S1                 0.0000
     24 ****        -2.0860   2.4742   2.5922 H              1 S1                 0.0000
     25 ****        -2.3546   5.5147   1.4881 H              1 S1                 0.0000
     26 ****        -2.4724   4.8107  -2.8280 H              1 S1                 0.0000
     27 ****        -1.3909   0.9541   0.8698 H              1 S1                 0.0000
     28 ****        -1.5219   0.6838  -0.8180 H              1 S1                 0.0000
     29 ****         0.3808  -0.7907   0.2197 H              1 S1                 0.0000
     30 ****         2.7741  -0.2700  -1.0639 H              1 S1                 0.0000
     31 ****         3.0107   0.3373   0.5550 H              1 S1                 0.0000
     32 ****         1.3274  -1.5212   2.1743 H              1 S1                 0.0000
     33 ****         4.3809  -1.2133   2.6984 H              1 S1                 0.0000
     34 ****         3.0042  -0.7804   3.8379 H              1 S1                 0.0000
     35 ****         2.1857  -3.1619   3.7505 H              1 S1                 0.0000
     36 ****         3.5677  -3.6025   2.6322 H              1 S1                 0.0000
     37 ****         1.8922  -3.8497   0.2376 H              1 S1                 0.0000
     38 ****         1.2089  -2.6760  -0.9418 H              1 S1                 0.0000
     39 ****         3.7134  -4.0615  -1.3611 H              1 S1                 0.0000
     40 ****         3.3798  -2.4210  -2.0439 H              1 S1                 0.0000
     41 ****         4.8123  -1.6334  -0.2270 H              1 S1                 0.0000
     42 ****         4.4945  -3.1214   0.7210 H              1 S1                 0.0000
     43 ****        -1.1121   1.6210  -2.1759 H              1 S1                 0.0000
     44 ****        -3.2346   7.0743  -0.0705 LP             1 S1                 0.0000
     45 ****        -3.2872   6.7999  -1.7799 LP             1 S1                 0.0000
     46 ****        -0.8189   2.8194  -3.1837 LP             1 S1                 0.0000
     47 ****        -2.3105   2.1636  -3.0744 LP             1 S1                 0.0000
     48 ****         0.7850   3.0463  -0.5959 LP             1 S1                 0.0000
     49 ****         2.1876   2.0339  -0.5067 LP             1 S1                 0.0000
@<TRIPOS>BOND
    1    1    2 1     
    2    1   22 1     
    3    1   23 1     
    4    1   24 1     
    5    2    9 1     
    6    2    3 2     
    7    3    4 1     
    8    3   25 1     
    9    4    5 2     
   10    4    6 1     
   11    6    7 2     
   12    6   26 1     
   13    7    8 1     
   14    7    9 1     
   15    8   43 1     
   16    9   10 1     
   17   10   11 1     
   18   10   27 1     
   19   10   28 1     
   20   11   12 2     
   21   11   13 am    
   22   13   14 1     
   23   13   29 1     
   24   14   15 1     
   25   14   30 1     
   26   14   31 1     
   27   15   21 1     
   28   15   16 1     
   29   15   19 1     
   30   16   18 1     
   31   16   17 1     
   32   16   32 1     
   33   17   18 1     
   34   17   33 1     
   35   17   34 1     
   36   18   35 1     
   37   18   36 1     
   38   19   20 1     
   39   19   37 1     
   40   19   38 1     
   41   20   21 1     
   42   20   39 1     
   43   20   40 1     
   44   21   41 1     
   45   21   42 1     
   46    5   44 1     
   47    5   45 1     
   48    8   46 1     
   49    8   47 1     
   50   12   48 1     
   51   12   49 1     
@<TRIPOS>SUBSTRUCTURE
      1 S1             1
@<TRIPOS>SET
LONE_PAIRS      STATIC     ATOMS    <user>   **** ""
6 44 45 46 47 48 49
DONOR_HYDROGENS      STATIC     ATOMS    <user>   **** ""
2 43 29
ATOM$BLUE        STATIC     ATOMS    COLORGROUP SYSTEM
6 44 45 46 47 48 49
ATOM$RED        STATIC     ATOMS    COLORGROUP SYSTEM
2 43 29
