#       Name:                AV-unprocessed.smi:1567
#       Creating user name   scv26
#       Creation time:       Fri Mar 27 06:50:57 2020


#       File generated by GOLD software.
#

@<TRIPOS>MOLECULE
AV-unprocessed.smi:1567
    47    49     1
SMALL
NO_CHARGES


@<TRIPOS>ATOM
      1 ****        -2.2883   3.9788  -1.8383 O.3            1 S1                 0.0000
      2 ****        -1.7913   2.8674  -1.1259 C.3            1 S1                 0.0000
      3 ****        -1.9939   3.0880   0.3815 C.3            1 S1                 0.0000
      4 ****        -1.5067   1.9162   1.2498 C.3            1 S1                 0.0000
      5 ****        -0.0293   1.7037   1.1445 C.2            1 S1                 0.0000
      6 ****         0.9278   2.4811   1.7253 N.pl3          1 S1                 1.0000
      7 ****         2.1943   1.9909   1.4055 C.ar           1 S1                 0.0000
      8 ****         3.4615   2.4411   1.7631 C.ar           1 S1                 0.0000
      9 ****         4.5577   1.7049   1.2676 C.ar           1 S1                 0.0000
     10 ****         4.3711   0.5705   0.4515 C.ar           1 S1                 0.0000
     11 ****         3.0814   0.1247   0.0947 C.ar           1 S1                 0.0000
     12 ****         2.0021   0.8592   0.5869 C.ar           1 S1                 0.0000
     13 ****         0.6150   0.7225   0.4483 N.pl3          1 S1                 0.0000
     14 ****         0.0721  -0.3763  -0.3674 C.3            1 S1                 0.0000
     15 ****        -0.3001  -1.6185   0.4680 C.3            1 S1                 0.0000
     16 ****         0.8277  -2.0960   1.1755 O.3            1 S1                 0.0000
     17 ****        -0.9413  -2.6987  -0.3919 C.ar           1 S1                 0.0000
     18 ****        -2.3222  -2.9634  -0.2624 C.ar           1 S1                 0.0000
     19 ****        -2.9349  -3.9555  -1.0520 C.ar           1 S1                 0.0000
     20 ****        -4.2595  -4.2029  -0.9197 F              1 S1                 0.0000
     21 ****        -2.1710  -4.6894  -1.9789 C.ar           1 S1                 0.0000
     22 ****        -0.7945  -4.4289  -2.1167 C.ar           1 S1                 0.0000
     23 ****        -0.1791  -3.4370  -1.3279 C.ar           1 S1                 0.0000
     24 ****         1.1458  -3.1974  -1.4793 F              1 S1                 0.0000
     25 ****        -2.1703   3.8227  -2.7631 H              1 S1                 0.0000
     26 ****        -2.3143   1.9701  -1.4575 H              1 S1                 0.0000
     27 ****        -0.7357   2.7410  -1.3678 H              1 S1                 0.0000
     28 ****        -1.4888   4.0042   0.6904 H              1 S1                 0.0000
     29 ****        -3.0553   3.2467   0.5758 H              1 S1                 0.0000
     30 ****        -1.7537   2.1083   2.2943 H              1 S1                 0.0000
     31 ****        -2.0319   1.0011   0.9762 H              1 S1                 0.0000
     32 ****         3.6067   3.3087   2.3899 H              1 S1                 0.0000
     33 ****         5.5614   2.0149   1.5200 H              1 S1                 0.0000
     34 ****         5.2345   0.0294   0.0924 H              1 S1                 0.0000
     35 ****         2.9516  -0.7505  -0.5246 H              1 S1                 0.0000
     36 ****        -0.8137   0.0052  -0.8756 H              1 S1                 0.0000
     37 ****         0.7828  -0.6212  -1.1564 H              1 S1                 0.0000
     38 ****        -1.0231  -1.3151   1.2262 H              1 S1                 0.0000
     39 ****         0.5485  -2.7931   1.7494 H              1 S1                 0.0000
     40 ****        -2.9199  -2.4060   0.4439 H              1 S1                 0.0000
     41 ****        -2.6406  -5.4506  -2.5845 H              1 S1                 0.0000
     42 ****        -0.2091  -4.9905  -2.8298 H              1 S1                 0.0000
     43 ****         0.7261   3.2897   2.2994 H              1 S1                 0.0000
     44 ****        -1.7883   4.8020  -1.5694 LP             1 S1                 0.0000
     45 ****        -3.2607   4.0992  -1.6386 LP             1 S1                 0.0000
     46 ****         1.2265  -1.3543   1.7148 LP             1 S1                 0.0000
     47 ****         1.5088  -2.4425   0.5304 LP             1 S1                 0.0000
@<TRIPOS>BOND
    1    1    2 1     
    2    1   25 1     
    3    2    3 1     
    4    2   26 1     
    5    2   27 1     
    6    3    4 1     
    7    3   28 1     
    8    3   29 1     
    9    4    5 1     
   10    4   30 1     
   11    4   31 1     
   12    5   13 1     
   13    5    6 2     
   14    6    7 1     
   15    6   43 1     
   16    7   12 ar    
   17    7    8 ar    
   18    8    9 ar    
   19    8   32 1     
   20    9   10 ar    
   21    9   33 1     
   22   10   11 ar    
   23   10   34 1     
   24   11   12 ar    
   25   11   35 1     
   26   12   13 1     
   27   13   14 1     
   28   14   15 1     
   29   14   36 1     
   30   14   37 1     
   31   15   16 1     
   32   15   17 1     
   33   15   38 1     
   34   16   39 1     
   35   17   23 ar    
   36   17   18 ar    
   37   18   19 ar    
   38   18   40 1     
   39   19   20 1     
   40   19   21 ar    
   41   21   22 ar    
   42   21   41 1     
   43   22   23 ar    
   44   22   42 1     
   45   23   24 1     
   46    1   44 1     
   47    1   45 1     
   48   16   46 1     
   49   16   47 1     
@<TRIPOS>SUBSTRUCTURE
      1 S1             1
@<TRIPOS>SET
LONE_PAIRS      STATIC     ATOMS    <user>   **** ""
4 44 45 46 47
DONOR_HYDROGENS      STATIC     ATOMS    <user>   **** ""
3 25 43 39
ATOM$BLUE        STATIC     ATOMS    COLORGROUP SYSTEM
4 44 45 46 47
ATOM$RED        STATIC     ATOMS    COLORGROUP SYSTEM
3 25 43 39
