AV-unprocessed.smi:1549|AV-procd|sdf|6223|dock4
  -GOLD-   22720 6393D 1   1.00000     0.00000
 Structure written by MMmdl.
 41 42  0  0  0  0  0  0  0  0  1 V2000
  152.1105  138.6141  155.9964 C   0  0  0  0  0  0  0  0  0  0  0  0
  151.9676  138.2759  154.5106 C   0  0  0  0  0  0  0  0  0  0  0  0
  150.5834  138.1422  154.2043 O   0  0  0  0  0  0  0  0  0  0  0  0
  149.7528  139.2309  154.3920 C   0  0  0  0  0  0  0  0  0  0  0  0
  150.2854  140.3689  154.9039 N   0  0  0  0  0  0  0  0  0  0  0  0
  149.4742  141.4301  155.0916 C   0  0  0  0  0  0  0  0  0  0  0  0
  148.1005  141.4128  154.7888 C   0  0  0  0  0  0  0  0  0  0  0  0
  147.5461  140.2339  154.2572 C   0  0  0  0  0  0  0  0  0  0  0  0
  148.3877  139.1160  154.0399 C   0  0  0  0  0  0  0  0  0  0  0  0
  147.9286  137.8712  153.5274 N   0  0  0  0  0  0  0  0  0  0  0  0
  146.7386  137.2757  153.7130 C   0  0  0  0  0  0  0  0  0  0  0  0
  145.8008  137.7435  154.3587 O   0  0  0  0  0  0  0  0  0  0  0  0
  146.6865  136.0927  153.0845 N   0  0  0  0  0  0  0  0  0  0  0  0
  145.5399  135.1890  153.0822 C   0  0  2  0  0  0  0  0  0  0  0  0
  145.8564  133.9116  152.2786 C   0  0  0  0  0  0  0  0  0  0  0  0
  144.6403  132.9719  152.2081 C   0  0  0  0  0  0  0  0  0  0  0  0
  143.3863  133.6787  151.6602 C   0  0  2  0  0  0  0  0  0  0  0  0
  143.5480  133.9534  150.2826 O   0  0  0  0  0  0  0  0  0  0  0  0
  143.0888  134.9810  152.4274 C   0  0  0  0  0  0  0  0  0  0  0  0
  144.3133  135.9108  152.4946 C   0  0  0  0  0  0  0  0  0  0  0  0
  153.1592  138.7328  156.2700 H   0  0  0  0  0  0  0  0  0  0  0  0
  151.6894  137.8251  156.6198 H   0  0  0  0  0  0  0  0  0  0  0  0
  151.5950  139.5439  156.2376 H   0  0  0  0  0  0  0  0  0  0  0  0
  152.4145  139.0700  153.9103 H   0  0  0  0  0  0  0  0  0  0  0  0
  152.4978  137.3470  154.2943 H   0  0  0  0  0  0  0  0  0  0  0  0
  149.9329  142.3176  155.5017 H   0  0  0  0  0  0  0  0  0  0  0  0
  147.4848  142.2823  154.9647 H   0  0  0  0  0  0  0  0  0  0  0  0
  146.4892  140.2075  154.0427 H   0  0  0  0  0  0  0  0  0  0  0  0
  148.5652  137.4050  152.8975 H   0  0  0  0  0  0  0  0  0  0  0  0
  147.5030  135.7904  152.5736 H   0  0  0  0  0  0  0  0  0  0  0  0
  145.3077  134.9110  154.1124 H   0  0  0  0  0  0  0  0  0  0  0  0
  146.1696  134.1789  151.2684 H   0  0  0  0  0  0  0  0  0  0  0  0
  146.6964  133.3814  152.7288 H   0  0  0  0  0  0  0  0  0  0  0  0
  144.8776  132.0967  151.6023 H   0  0  0  0  0  0  0  0  0  0  0  0
  144.4273  132.5976  153.2102 H   0  0  0  0  0  0  0  0  0  0  0  0
  142.5311  133.0083  151.7513 H   0  0  0  0  0  0  0  0  0  0  0  0
  142.6921  134.0387  149.8912 H   0  0  0  0  0  0  0  0  0  0  0  0
  142.2457  135.5032  151.9734 H   0  0  0  0  0  0  0  0  0  0  0  0
  142.7794  134.7315  153.4432 H   0  0  0  0  0  0  0  0  0  0  0  0
  144.0722  136.7879  153.0967 H   0  0  0  0  0  0  0  0  0  0  0  0
  144.5445  136.2794  151.4942 H   0  0  0  0  0  0  0  0  0  0  0  0
  1  2  1  0  0  0  0
  1 21  1  0  0  0  0
  1 22  1  0  0  0  0
  1 23  1  0  0  0  0
  2  3  1  0  0  0  0
  2 24  1  0  0  0  0
  2 25  1  0  0  0  0
  3  4  1  0  0  0  0
  4  9  1  0  0  0  0
  4  5  2  0  0  0  0
  5  6  1  0  0  0  0
  6  7  2  0  0  0  0
  6 26  1  0  0  0  0
  7  8  1  0  0  0  0
  7 27  1  0  0  0  0
  8  9  2  0  0  0  0
  8 28  1  0  0  0  0
  9 10  1  0  0  0  0
 10 11  1  0  0  0  0
 10 29  1  0  0  0  0
 11 12  2  0  0  0  0
 11 13  1  0  0  0  0
 13 14  1  0  0  0  0
 13 30  1  0  0  0  0
 14 20  1  0  0  0  0
 14 15  1  0  0  0  0
 14 31  1  0  0  0  0
 15 16  1  0  0  0  0
 15 32  1  0  0  0  0
 15 33  1  0  0  0  0
 16 17  1  0  0  0  0
 16 34  1  0  0  0  0
 16 35  1  0  0  0  0
 17 18  1  0  0  0  0
 17 19  1  0  0  0  0
 17 36  1  0  0  0  0
 18 37  1  0  0  0  0
 19 20  1  0  0  0  0
 19 38  1  0  0  0  0
 19 39  1  0  0  0  0
 20 40  1  0  0  0  0
 20 41  1  0  0  0  0
M  END
> <s_m_source_file>
AV-unprocessed.smi

> <i_m_source_file_index>
1549

> <i_lp_mmshare_version>
43012

> <i_f3d_flags>
0

> <s_epik_input>
W0NIM11bQ0gyXU9jMW5bY0hdW2NIXVtjSF1jMVtOSF1DKD1PKVtOSF1bQ0BASF0yW0NIMl1bQ0gyXVtDQEBIXShbT0hdKVtDSDJdW0NIMl0y

> <s_epik_cmdline>
J2VwaWtfcHl0aG9uJywgJy1waCcsICc3LjAnLCAnLXRuJywgJzgnLCAnLW1hJywgJzIwMCcsICctbWV0YWxfYmluZGluZycsICctaW1hZScsICc8aW5maWxlLm1hZT4nLCAnLW9tYWUnLCAnPG91dGZpbGUubWFlPic=

> <r_lp_tautomer_probability>
1

> <r_epik_Ionization_Penalty>
0.000120387

> <r_epik_Ionization_Penalty_Charging>
0

> <r_epik_Ionization_Penalty_Neutral>
0.000120387

> <r_epik_State_Penalty>
-0

> <r_epik_Charging_Adjusted_Penalty>
0

> <i_epik_Tot_Q>
0

> <i_epik_Tot_abs_Q>
0

> <r_epik_Metal_State_Penalty>
-0

> <b_epik_Metal_Only>
0

> <s_lp_Force_Field>
OPLS_2005

> <r_lp_Energy>
13.0635

> <b_lp_Chiralities_Consistent>
1

> <s_lp_Variant>
AV-unprocessed.smi:1549-2

> <Gold.Version>
5.8.1

> <Gold.Id.Protein>
6NUR|6NUR_protein|mol2

> <Gold.PLP.Fitness>
45.3582

> <Gold.PLP.PLP>
-30.9515

> <Gold.PLP.part.hbond>
-3.9072

> <Gold.PLP.part.metal>
0.0000

> <Gold.PLP.part.buried>
-4.4229

> <Gold.PLP.part.nonpolar>
-23.9354

> <Gold.PLP.part.repulsive>
0.4542

> <Gold.PLP.ligand.clash>
0.0000

> <Gold.PLP.ligand.torsion>
0.2449

> <Gold.PLP.Chemscore.Hbond>
3.9600

> <Gold.PLP.Chemscore.CHOScore>
0.9968

> <Gold.PLP.Chemscore.Metal>
0.0000

> <Gold.Chemscore.Hbonds>
donor molecule, donor type, donor heavy atom, donor atom, acceptor molecule, acceptor atom, score
      L1  H    10    29       P1  7948  1.00
      L1  H    13    30       P1  7948  0.96
      L1  H    18    37       P1 10186  1.00
      P1  H  7989  7998       L1     5  1.00
      L1  C     6    26       P1  8028  0.73

> <Gold.PLP.Chemscore.Internal.Correction>
0.0262

> <Gold.Rescore>
     Score         DG    S(hbond)    S(metal)    S(lipo)     H(rot)  DE(clash)    DE(int)     intcor
     18.06     -19.31       3.36        0.00      64.67       1.93       0.05       1.20       ----

> <Gold.Chemscore.Fitness>
18.0569

> <Gold.Chemscore.DG>
-19.3138

> <Gold.Chemscore.ZeroCoef>
-5.4800

> <Gold.Chemscore.Hbond>
3.3570

> <Gold.Chemscore.Metal>
0.0000

> <Gold.Chemscore.Lipo>
64.6741

> <Gold.Chemscore.Internal_Hbond>
0.0000

> <Gold.Chemscore.DEClash>
0.0519

> <Gold.Chemscore.DEInternal>
1.2049

> <Gold.Chemscore.Rot>
1.9318

> <Gold.Chemscore.Internal.Correction>
   9.000000E+99

> <Gold.Chemscore.Hbonds>
donor molecule, donor type, donor heavy atom, donor atom, acceptor molecule, acceptor atom, score
      L1  H    10    29       P1  7948  0.96
      L1  H    13    30       P1  7948  0.92
      L1  H    18    37       P1 10186  1.00
      P1  H  7989  7998       L1     5  0.19

> <Gold.Chemscore.Hbond.Weighted>
-11.2123

> <Gold.Chemscore.Metal.Weighted>
-0.0000

> <Gold.Chemscore.Lipo.Weighted>
-7.5669

> <Gold.Chemscore.Internal_Hbond.Weighted>
0.0000

> <Gold.Chemscore.DEClash.Weighted>
0.0519

> <Gold.Chemscore.DEInternal.Weighted>
1.2049

> <Gold.Chemscore.Rot.Weighted>
4.9454

> <Gold.Chemscore.Internal.Correction.Weighted>
   9.000000E+99

> <Gold.Protein.RotatedTorsions>
[ 6907 6896 6895 6894 ] final  164.49 input  -60.11 | X-H torsion
[ 7974 7965 7964 7962 ] final   67.27 input  175.53 | X-H torsion
[ 8008 7997 7996 7995 ] final   85.33 input   59.86 | X-H torsion
[ 10167 10162 10161 10158 ] final  -51.79 input  -65.29 | X-H torsion
[ 10718 10713 10712 10709 ] final   72.25 input   66.30 | X-H torsion
[ 10763 10752 10751 10750 ] final   91.51 input  -60.55 | X-H torsion
[ 11005 11000 10999 10996 ] final  -10.51 input  -57.11 | X-H torsion

> <Gold.Protein.ActiveResidues>
 VAL166  LYS551  ARG553  GLY616  TRP617  ASP618  TYR619  PRO620  LYS621  CYS622 
 ASP623  PHE694  ASN695  SER759  ASP760  ASP761  ALA762  ILE779  LEU786  VAL792 
 PHE793  MET794  SER795  GLU796  ALA797  LYS798  CYS799  TRP800  GLU811  SER814 

> <Gold.Protein.RotatedAtoms>
  151.9091  133.3557  159.3857 H   0  0  0  0  0  0  0  0  0  0  0  0  # atno 6907 bound_to 6896
  150.7062  134.4750  159.5452 H   0  0  0  0  0  0  0  0  0  0  0  0  # atno 6908 bound_to 6896
  152.2353  134.8282  160.0519 H   0  0  0  0  0  0  0  0  0  0  0  0  # atno 6909 bound_to 6896
  145.8167  139.3062  143.1067 H   0  0  0  0  0  0  0  0  0  0  0  0  # atno 7974 bound_to 7965
  155.9486  140.3402  155.6388 H   0  0  0  0  0  0  0  0  0  0  0  0  # atno 8008 bound_to 7997
  155.6949  140.0753  157.2452 H   0  0  0  0  0  0  0  0  0  0  0  0  # atno 8009 bound_to 7997
  154.4117  140.1650  156.2114 H   0  0  0  0  0  0  0  0  0  0  0  0  # atno 8010 bound_to 7997
  140.6570  143.2607  151.4554 H   0  0  0  0  0  0  0  0  0  0  0  0  # atno 10167 bound_to 10162
  157.6492  130.9569  150.0902 H   0  0  0  0  0  0  0  0  0  0  0  0  # atno 10718 bound_to 10713
  153.2090  135.4395  155.0357 H   0  0  0  0  0  0  0  0  0  0  0  0  # atno 10763 bound_to 10752
  154.8189  135.3328  154.7097 H   0  0  0  0  0  0  0  0  0  0  0  0  # atno 10764 bound_to 10752
  153.7537  135.6996  153.4996 H   0  0  0  0  0  0  0  0  0  0  0  0  # atno 10765 bound_to 10752
  140.7455  133.8635  155.9002 H   0  0  0  0  0  0  0  0  0  0  0  0  # atno 11005 bound_to 11000
  145.9719  140.8753  143.0158 LP  0  0  0  0  0  0  0  0  0  0  0  0  # atno 17320 bound_to 7965
  144.6751  140.1958  143.7392 LP  0  0  0  0  0  0  0  0  0  0  0  0  # atno 17321 bound_to 7965
  139.5795  144.1741  152.1949 LP  0  0  0  0  0  0  0  0  0  0  0  0  # atno 17342 bound_to 10162
  140.1062  144.5496  150.6955 LP  0  0  0  0  0  0  0  0  0  0  0  0  # atno 17343 bound_to 10162
  156.1853  130.3652  149.8980 LP  0  0  0  0  0  0  0  0  0  0  0  0  # atno 17370 bound_to 10713
  156.6922  130.8900  151.3589 LP  0  0  0  0  0  0  0  0  0  0  0  0  # atno 17371 bound_to 10713
  140.9798  134.1420  157.4504 LP  0  0  0  0  0  0  0  0  0  0  0  0  # atno 17394 bound_to 11000
  139.8797  135.0007  156.6023 LP  0  0  0  0  0  0  0  0  0  0  0  0  # atno 17395 bound_to 11000

$$$$
