#       Name:                AV-unprocessed.smi:2315
#       Creating user name   scv26
#       Creation time:       Fri Mar 27 12:49:18 2020


#       File generated by GOLD software.
#

@<TRIPOS>MOLECULE
AV-unprocessed.smi:2315
    45    46     1
SMALL
NO_CHARGES


@<TRIPOS>ATOM
      1 ****        -1.1379   1.6793  -1.1819 O.2            1 S1                 0.0000
      2 ****        -1.7127   0.7211  -1.6982 C.2            1 S1                 0.0000
      3 ****        -1.0786  -0.3900  -2.0999 N.am           1 S1                 0.0000
      4 ****         0.3590  -0.6177  -2.0008 C.3            1 S1                 0.0000
      5 ****         0.7688  -1.0486  -0.5773 C.3            1 S1                 0.0000
      6 ****         2.2695  -1.3557  -0.4274 C.2            1 S1                 0.0000
      7 ****         2.9931  -1.2936  -1.4228 O.2            1 S1                 0.0000
      8 ****         2.7537  -1.6819   0.7964 N.am           1 S1                 0.0000
      9 ****         1.9733  -1.7222   2.0412 C.3            1 S1                 0.0000
     10 ****         2.4021  -0.5433   2.9338 C.3            1 S1                 0.0000
     11 ****         3.9185  -0.5820   3.2030 C.3            1 S1                 0.0000
     12 ****         4.7240  -0.7359   1.8991 C.3            1 S1                 0.0000
     13 ****         4.1840  -1.9020   1.0500 C.3            1 S1                 0.0000
     14 ****        -3.0357   0.6303  -1.9186 N.am           1 S1                 0.0000
     15 ****        -4.0560   1.5838  -1.6492 C.ar           1 S1                 0.0000
     16 ****        -3.8241   2.9667  -1.4503 C.ar           1 S1                 0.0000
     17 ****        -4.9285   3.8089  -1.2092 C.ar           1 S1                 0.0000
     18 ****        -6.2038   3.3692  -1.1632 N.ar           1 S1                 0.0000
     19 ****        -6.4226   2.0529  -1.3652 C.ar           1 S1                 0.0000
     20 ****        -5.3906   1.1261  -1.6150 C.ar           1 S1                 0.0000
     21 ****        -5.6812  -0.1824  -1.8146 F              1 S1                 0.0000
     22 ****        -1.6284  -1.1313  -2.5092 H              1 S1                 0.0000
     23 ****         0.6190  -1.3957  -2.7196 H              1 S1                 0.0000
     24 ****         0.8987   0.2814  -2.3045 H              1 S1                 0.0000
     25 ****         0.5046  -0.2578   0.1260 H              1 S1                 0.0000
     26 ****         0.2027  -1.9374  -0.2957 H              1 S1                 0.0000
     27 ****         0.8959  -1.6982   1.8869 H              1 S1                 0.0000
     28 ****         2.1685  -2.6653   2.5539 H              1 S1                 0.0000
     29 ****         2.1396   0.3969   2.4467 H              1 S1                 0.0000
     30 ****         1.8556  -0.5672   3.8769 H              1 S1                 0.0000
     31 ****         4.2307   0.3164   3.7361 H              1 S1                 0.0000
     32 ****         4.1418  -1.4236   3.8600 H              1 S1                 0.0000
     33 ****         4.6668   0.1888   1.3232 H              1 S1                 0.0000
     34 ****         5.7782  -0.8935   2.1285 H              1 S1                 0.0000
     35 ****         4.3159  -2.8459   1.5808 H              1 S1                 0.0000
     36 ****         4.7689  -1.9942   0.1341 H              1 S1                 0.0000
     37 ****        -3.3631  -0.2531  -2.2815 H              1 S1                 0.0000
     38 ****        -2.8366   3.3990  -1.4891 H              1 S1                 0.0000
     39 ****        -4.7826   4.8677  -1.0547 H              1 S1                 0.0000
     40 ****        -7.4518   1.7281  -1.3292 H              1 S1                 0.0000
     41 ****        -0.1478   1.6532  -1.0436 LP             1 S1                 0.0000
     42 ****        -1.6609   2.4839  -0.9007 LP             1 S1                 0.0000
     43 ****         2.6031  -1.0468  -2.3099 LP             1 S1                 0.0000
     44 ****         3.9705  -1.4899  -1.3435 LP             1 S1                 0.0000
     45 ****        -6.9610   3.9977  -0.9854 LP             1 S1                 0.0000
@<TRIPOS>BOND
    1    1    2 2     
    2    2    3 am    
    3    2   14 am    
    4    3    4 1     
    5    3   22 1     
    6    4    5 1     
    7    4   23 1     
    8    4   24 1     
    9    5    6 1     
   10    5   25 1     
   11    5   26 1     
   12    6    7 2     
   13    6    8 am    
   14    8   13 1     
   15    8    9 1     
   16    9   10 1     
   17    9   27 1     
   18    9   28 1     
   19   10   11 1     
   20   10   29 1     
   21   10   30 1     
   22   11   12 1     
   23   11   31 1     
   24   11   32 1     
   25   12   13 1     
   26   12   33 1     
   27   12   34 1     
   28   13   35 1     
   29   13   36 1     
   30   14   15 1     
   31   14   37 1     
   32   15   20 ar    
   33   15   16 ar    
   34   16   17 ar    
   35   16   38 1     
   36   17   18 ar    
   37   17   39 1     
   38   18   19 ar    
   39   19   20 ar    
   40   19   40 1     
   41   20   21 1     
   42    1   41 1     
   43    1   42 1     
   44    7   43 1     
   45    7   44 1     
   46   18   45 1     
@<TRIPOS>SUBSTRUCTURE
      1 S1             1
@<TRIPOS>SET
LONE_PAIRS      STATIC     ATOMS    <user>   **** ""
5 41 42 43 44 45
DONOR_HYDROGENS      STATIC     ATOMS    <user>   **** ""
2 22 37
ATOM$BLUE        STATIC     ATOMS    COLORGROUP SYSTEM
5 41 42 43 44 45
ATOM$RED        STATIC     ATOMS    COLORGROUP SYSTEM
2 22 37
