AV-unprocessed.smi:1785|AV-procd|sdf|7201|dock7
  -GOLD-   22720 8443D 1   1.00000     0.00000
 Structure written by MMmdl.
 27 28  0  0  0  0  0  0  0  0  2 V2000
  154.1864  140.3183  161.1533 C   0  0  0  0  0  0  0  0  0  0  0  0
  153.3771  141.4178  160.4841 C   0  0  0  0  0  0  0  0  0  0  0  0
  153.0828  142.5940  161.2052 C   0  0  0  0  0  0  0  0  0  0  0  0
  152.3293  143.6068  160.5881 C   0  0  0  0  0  0  0  0  0  0  0  0
  151.8978  143.3951  159.2676 C   0  0  0  0  0  0  0  0  0  0  0  0
  152.1745  142.2738  158.5712 N   0  0  0  0  0  0  0  0  0  0  0  0
  152.9091  141.2908  159.1466 C   0  0  0  0  0  0  0  0  0  0  0  0
  153.1530  140.1869  158.4194 N   0  5  0  0  0  0  0  0  0  0  0  0
  152.1932  139.2423  158.2409 C   0  0  0  0  0  0  0  0  0  0  0  0
  151.7114  138.5645  159.1534 O   0  0  0  0  0  0  0  0  0  0  0  0
  151.7366  139.0623  156.8654 C   0  0  0  0  0  0  0  0  0  0  0  0
  151.7726  140.1004  155.9958 C   0  0  0  0  0  0  0  0  0  0  0  0
  151.3272  140.0261  154.6994 O   0  0  0  0  0  0  0  0  0  0  0  0
  150.5847  138.8520  154.3948 C   0  0  0  0  0  0  0  0  0  0  0  0
  151.2337  137.6263  155.0527 C   0  0  0  0  0  0  0  0  0  0  0  0
  151.3172  137.8137  156.4605 O   0  0  0  0  0  0  0  0  0  0  0  0
  154.3998  140.5582  162.1951 H   0  0  0  0  0  0  0  0  0  0  0  0
  155.1363  140.1798  160.6364 H   0  0  0  0  0  0  0  0  0  0  0  0
  153.6405  139.3747  161.1308 H   0  0  0  0  0  0  0  0  0  0  0  0
  153.4281  142.7206  162.2208 H   0  0  0  0  0  0  0  0  0  0  0  0
  152.0868  144.5188  161.1128 H   0  0  0  0  0  0  0  0  0  0  0  0
  151.3129  144.1451  158.7561 H   0  0  0  0  0  0  0  0  0  0  0  0
  152.1126  141.0970  156.2382 H   0  0  0  0  0  0  0  0  0  0  0  0
  149.5590  138.9737  154.7458 H   0  0  0  0  0  0  0  0  0  0  0  0
  150.5416  138.7272  153.3128 H   0  0  0  0  0  0  0  0  0  0  0  0
  150.6520  136.7277  154.8463 H   0  0  0  0  0  0  0  0  0  0  0  0
  152.2345  137.4615  154.6514 H   0  0  0  0  0  0  0  0  0  0  0  0
  1  2  1  0  0  0  0
  1 17  1  0  0  0  0
  1 18  1  0  0  0  0
  1 19  1  0  0  0  0
  2  7  1  0  0  0  0
  2  3  2  0  0  0  0
  3  4  1  0  0  0  0
  3 20  1  0  0  0  0
  4  5  2  0  0  0  0
  4 21  1  0  0  0  0
  5  6  1  0  0  0  0
  5 22  1  0  0  0  0
  6  7  2  0  0  0  0
  7  8  1  0  0  0  0
  8  9  1  0  0  0  0
  9 10  2  0  0  0  0
  9 11  1  0  0  0  0
 11 16  1  0  0  0  0
 11 12  2  0  0  0  0
 12 13  1  0  0  0  0
 12 23  1  0  0  0  0
 13 14  1  0  0  0  0
 14 15  1  0  0  0  0
 14 24  1  0  0  0  0
 14 25  1  0  0  0  0
 15 16  1  0  0  0  0
 15 26  1  0  0  0  0
 15 27  1  0  0  0  0
M  CHG  1   8  -1
M  END
> <s_m_source_file>
AV-unprocessed.smi

> <i_m_source_file_index>
1785

> <i_lp_mmshare_version>
43012

> <i_f3d_flags>
0

> <s_epik_input>
W0NIM11jMVtjSF1bY0hdW2NIXW5jMVtOSF1DKD1PKUMyPVtDSF1PW0NIMl1bQ0gyXU8y

> <s_epik_cmdline>
J2VwaWtfcHl0aG9uJywgJy1waCcsICc3LjAnLCAnLXRuJywgJzgnLCAnLW1hJywgJzIwMCcsICctbWV0YWxfYmluZGluZycsICctaW1hZScsICc8aW5maWxlLm1hZT4nLCAnLW9tYWUnLCAnPG91dGZpbGUubWFlPic=

> <r_lp_tautomer_probability>
1

> <r_epik_Ionization_Penalty>
11.0036

> <r_epik_Ionization_Penalty_Charging>
5.9985

> <r_epik_Ionization_Penalty_Neutral>
5.00509

> <r_epik_State_Penalty>
5.99847

> <r_epik_Charging_Adjusted_Penalty>
11.997

> <i_epik_Tot_Q>
-1

> <i_epik_Tot_abs_Q>
1

> <r_epik_Metal_State_Penalty>
1.95147

> <b_epik_Metal_Only>
1

> <s_lp_Force_Field>
OPLS_2005

> <r_lp_Energy>
4.89912

> <b_lp_Chiralities_Consistent>
1

> <s_lp_Variant>
AV-unprocessed.smi:1785-2

> <Gold.Version>
5.8.1

> <Gold.Id.Protein>
6NUR|6NUR_protein|mol2

> <Gold.PLP.Fitness>
38.8044

> <Gold.PLP.PLP>
-33.0875

> <Gold.PLP.part.hbond>
-1.9295

> <Gold.PLP.part.metal>
0.0000

> <Gold.PLP.part.buried>
-4.4270

> <Gold.PLP.part.nonpolar>
-27.5097

> <Gold.PLP.part.repulsive>
0.0689

> <Gold.PLP.ligand.clash>
0.0000

> <Gold.PLP.ligand.torsion>
1.7044

> <Gold.PLP.Chemscore.Hbond>
2.9840

> <Gold.PLP.Chemscore.CHOScore>
0.0000

> <Gold.PLP.Chemscore.Metal>
0.0000

> <Gold.Chemscore.Hbonds>
donor molecule, donor type, donor heavy atom, donor atom, acceptor molecule, acceptor atom, score
      P1  H  7989  7998       L1    13  0.91
      P1  H  7997  8010       L1     8  1.92

> <Gold.PLP.Chemscore.Internal.Correction>
0.1736

> <Gold.Rescore>
     Score         DG    S(hbond)    S(metal)    S(lipo)     H(rot)  DE(clash)    DE(int)     intcor
     19.42     -20.93       1.85        0.00      79.15       0.00       0.00       1.51       ----

> <Gold.Chemscore.Fitness>
19.4210

> <Gold.Chemscore.DG>
-20.9275

> <Gold.Chemscore.ZeroCoef>
-5.4800

> <Gold.Chemscore.Hbond>
1.8524

> <Gold.Chemscore.Metal>
0.0000

> <Gold.Chemscore.Lipo>
79.1481

> <Gold.Chemscore.Internal_Hbond>
0.0000

> <Gold.Chemscore.DEClash>
0.0000

> <Gold.Chemscore.DEInternal>
1.5065

> <Gold.Chemscore.Rot>
0.0000

> <Gold.Chemscore.Internal.Correction>
   9.000000E+99

> <Gold.Chemscore.Hbonds>
donor molecule, donor type, donor heavy atom, donor atom, acceptor molecule, acceptor atom, score
      P1  H  7989  7998       L1    13  0.78
      P1  H  7997  8010       L1     8  0.75

> <Gold.Chemscore.Hbond.Weighted>
-6.1871

> <Gold.Chemscore.Metal.Weighted>
-0.0000

> <Gold.Chemscore.Lipo.Weighted>
-9.2603

> <Gold.Chemscore.Internal_Hbond.Weighted>
0.0000

> <Gold.Chemscore.DEClash.Weighted>
0.0000

> <Gold.Chemscore.DEInternal.Weighted>
1.5065

> <Gold.Chemscore.Rot.Weighted>
0.0000

> <Gold.Chemscore.Internal.Correction.Weighted>
   9.000000E+99

> <Gold.Protein.RotatedTorsions>
[ 6907 6896 6895 6894 ] final  120.66 input  -60.11 | X-H torsion
[ 7974 7965 7964 7962 ] final  141.80 input  175.53 | X-H torsion
[ 8008 7997 7996 7995 ] final   31.40 input   59.86 | X-H torsion
[ 10167 10162 10161 10158 ] final -153.77 input  -65.29 | X-H torsion
[ 10718 10713 10712 10709 ] final  127.53 input   66.30 | X-H torsion
[ 10763 10752 10751 10750 ] final  163.44 input  -60.55 | X-H torsion
[ 11005 11000 10999 10996 ] final  160.87 input  -57.11 | X-H torsion

> <Gold.Protein.ActiveResidues>
 VAL166  LYS551  ARG553  GLY616  TRP617  ASP618  TYR619  PRO620  LYS621  CYS622 
 ASP623  PHE694  ASN695  SER759  ASP760  ASP761  ALA762  ILE779  LEU786  VAL792 
 PHE793  MET794  SER795  GLU796  ALA797  LYS798  CYS799  TRP800  GLU811  SER814 

> <Gold.Protein.RotatedAtoms>
  152.4381  133.7398  159.6634 H   0  0  0  0  0  0  0  0  0  0  0  0  # atno 6907 bound_to 6896
  150.8268  133.8148  159.3121 H   0  0  0  0  0  0  0  0  0  0  0  0  # atno 6908 bound_to 6896
  151.5814  135.1060  160.0070 H   0  0  0  0  0  0  0  0  0  0  0  0  # atno 6909 bound_to 6896
  144.9064  139.5352  143.5729 H   0  0  0  0  0  0  0  0  0  0  0  0  # atno 7974 bound_to 7965
  155.1057  140.3234  155.4535 H   0  0  0  0  0  0  0  0  0  0  0  0  # atno 8008 bound_to 7997
  156.2704  140.2053  156.6130 H   0  0  0  0  0  0  0  0  0  0  0  0  # atno 8009 bound_to 7997
  154.6794  140.0528  157.0237 H   0  0  0  0  0  0  0  0  0  0  0  0  # atno 8010 bound_to 7997
  139.7069  143.9172  152.2452 H   0  0  0  0  0  0  0  0  0  0  0  0  # atno 10167 bound_to 10162
  157.5324  131.1098  150.8988 H   0  0  0  0  0  0  0  0  0  0  0  0  # atno 10718 bound_to 10713
  154.2937  135.2760  155.2643 H   0  0  0  0  0  0  0  0  0  0  0  0  # atno 10763 bound_to 10752
  154.5111  135.5782  153.6609 H   0  0  0  0  0  0  0  0  0  0  0  0  # atno 10764 bound_to 10752
  152.9910  135.6181  154.3103 H   0  0  0  0  0  0  0  0  0  0  0  0  # atno 10765 bound_to 10752
  140.2101  134.8273  157.3112 H   0  0  0  0  0  0  0  0  0  0  0  0  # atno 11005 bound_to 11000
  146.3136  139.7835  142.9001 LP  0  0  0  0  0  0  0  0  0  0  0  0  # atno 17320 bound_to 7965
  145.3528  141.0311  143.3329 LP  0  0  0  0  0  0  0  0  0  0  0  0  # atno 17321 bound_to 7965
  139.9030  144.6901  150.8645 LP  0  0  0  0  0  0  0  0  0  0  0  0  # atno 17342 bound_to 10162
  140.7724  143.3499  151.2034 LP  0  0  0  0  0  0  0  0  0  0  0  0  # atno 17343 bound_to 10162
  156.9565  130.5439  149.5284 LP  0  0  0  0  0  0  0  0  0  0  0  0  # atno 17370 bound_to 10713
  156.0433  130.5513  150.8821 LP  0  0  0  0  0  0  0  0  0  0  0  0  # atno 17371 bound_to 10713
  140.1960  134.4313  155.7689 LP  0  0  0  0  0  0  0  0  0  0  0  0  # atno 17394 bound_to 11000
  141.2226  133.7049  156.8105 LP  0  0  0  0  0  0  0  0  0  0  0  0  # atno 17395 bound_to 11000

$$$$
