AV-unprocessed.smi:2856|AV-procd|sdf|10995|dock1
  -GOLD-   2272015453D 1   1.00000     0.00000
 Structure written by MMmdl.
 37 38  0  0  0  0  0  0  0  0  1 V2000
  143.8077  132.7504  148.5887 C   0  0  0  0  0  0  0  0  0  0  0  0
  144.4696  133.8600  149.8602 S   0  0  0  0  0  0  0  0  0  0  0  0
  145.4963  132.7090  150.8298 C   0  0  2  0  0  0  0  0  0  0  0  0
  144.9025  131.2873  150.7867 C   0  0  0  0  0  0  0  0  0  0  0  0
  145.7696  130.2897  151.5708 C   0  0  0  0  0  0  0  0  0  0  0  0
  145.9777  130.7508  153.0211 C   0  0  0  0  0  0  0  0  0  0  0  0
  146.5706  132.1693  153.0744 C   0  0  0  0  0  0  0  0  0  0  0  0
  145.7196  133.1884  152.2858 C   0  0  2  0  0  0  0  0  0  0  0  0
  144.4431  133.4313  152.9592 N   0  0  0  0  0  0  0  0  0  0  0  0
  143.6923  134.5337  152.8277 C   0  0  0  0  0  0  0  0  0  0  0  0
  144.0074  135.4915  152.1210 O   0  0  0  0  0  0  0  0  0  0  0  0
  142.5702  134.4481  153.5619 N   0  0  0  0  0  0  0  0  0  0  0  0
  141.5358  135.4114  153.6748 C   0  0  0  0  0  0  0  0  0  0  0  0
  141.7548  136.7634  153.2987 C   0  0  0  0  0  0  0  0  0  0  0  0
  140.5480  137.3529  153.5523 C   0  0  0  0  0  0  0  0  0  0  0  0
  140.0485  138.7485  153.3992 C   0  0  0  0  0  0  0  0  0  0  0  0
  139.6677  136.4384  154.0429 O   0  0  0  0  0  0  0  0  0  0  0  0
  140.3067  135.1951  154.1181 N   0  0  0  0  0  0  0  0  0  0  0  0
  143.0945  133.2860  147.9624 H   0  0  0  0  0  0  0  0  0  0  0  0
  143.2959  131.9046  149.0475 H   0  0  0  0  0  0  0  0  0  0  0  0
  144.6051  132.3737  147.9487 H   0  0  0  0  0  0  0  0  0  0  0  0
  146.4670  132.6703  150.3335 H   0  0  0  0  0  0  0  0  0  0  0  0
  143.8915  131.2923  151.1963 H   0  0  0  0  0  0  0  0  0  0  0  0
  144.8113  130.9547  149.7522 H   0  0  0  0  0  0  0  0  0  0  0  0
  145.3056  129.3031  151.5573 H   0  0  0  0  0  0  0  0  0  0  0  0
  146.7376  130.1828  151.0796 H   0  0  0  0  0  0  0  0  0  0  0  0
  145.0260  130.7278  153.5534 H   0  0  0  0  0  0  0  0  0  0  0  0
  146.6368  130.0545  153.5405 H   0  0  0  0  0  0  0  0  0  0  0  0
  146.6842  132.4874  154.1114 H   0  0  0  0  0  0  0  0  0  0  0  0
  147.5775  132.1481  152.6557 H   0  0  0  0  0  0  0  0  0  0  0  0
  146.2740  134.1268  152.2534 H   0  0  0  0  0  0  0  0  0  0  0  0
  144.1034  132.6938  153.5588 H   0  0  0  0  0  0  0  0  0  0  0  0
  142.4410  133.6017  154.0961 H   0  0  0  0  0  0  0  0  0  0  0  0
  142.6481  137.2277  152.9081 H   0  0  0  0  0  0  0  0  0  0  0  0
  140.7211  139.3364  152.7744 H   0  0  0  0  0  0  0  0  0  0  0  0
  139.9724  139.2391  154.3696 H   0  0  0  0  0  0  0  0  0  0  0  0
  139.0618  138.7593  152.9358 H   0  0  0  0  0  0  0  0  0  0  0  0
  1  2  1  0  0  0  0
  1 19  1  0  0  0  0
  1 20  1  0  0  0  0
  1 21  1  0  0  0  0
  2  3  1  0  0  0  0
  3  8  1  0  0  0  0
  3  4  1  0  0  0  0
  3 22  1  0  0  0  0
  4  5  1  0  0  0  0
  4 23  1  0  0  0  0
  4 24  1  0  0  0  0
  5  6  1  0  0  0  0
  5 25  1  0  0  0  0
  5 26  1  0  0  0  0
  6  7  1  0  0  0  0
  6 27  1  0  0  0  0
  6 28  1  0  0  0  0
  7  8  1  0  0  0  0
  7 29  1  0  0  0  0
  7 30  1  0  0  0  0
  8  9  1  0  0  0  0
  8 31  1  0  0  0  0
  9 10  1  0  0  0  0
  9 32  1  0  0  0  0
 10 11  2  0  0  0  0
 10 12  1  0  0  0  0
 12 13  1  0  0  0  0
 12 33  1  0  0  0  0
 13 18  2  0  0  0  0
 13 14  1  0  0  0  0
 14 15  2  0  0  0  0
 14 34  1  0  0  0  0
 15 16  1  0  0  0  0
 15 17  1  0  0  0  0
 16 35  1  0  0  0  0
 16 36  1  0  0  0  0
 16 37  1  0  0  0  0
 17 18  1  0  0  0  0
M  END
> <s_m_source_file>
AV-unprocessed.smi

> <i_m_source_file_index>
2856

> <i_lp_mmshare_version>
43012

> <i_f3d_flags>
0

> <s_epik_input>
W0NIM11TW0NAQEhdMVtDSDJdW0NIMl1bQ0gyXVtDSDJdW0NASF0xW05IXUMoPU8pW05IXWMyW2NIXWMoW0NIM10pb24y

> <s_epik_cmdline>
J2VwaWtfcHl0aG9uJywgJy1waCcsICc3LjAnLCAnLXRuJywgJzgnLCAnLW1hJywgJzIwMCcsICctbWV0YWxfYmluZGluZycsICctaW1hZScsICc8aW5maWxlLm1hZT4nLCAnLW9tYWUnLCAnPG91dGZpbGUubWFlPic=

> <r_lp_tautomer_probability>
1

> <r_epik_Ionization_Penalty>
2.20874e-05

> <r_epik_Ionization_Penalty_Charging>
0

> <r_epik_Ionization_Penalty_Neutral>
2.20874e-05

> <r_epik_State_Penalty>
-0

> <r_epik_Charging_Adjusted_Penalty>
0

> <i_epik_Tot_Q>
0

> <i_epik_Tot_abs_Q>
0

> <r_epik_Metal_State_Penalty>
-0

> <b_epik_Metal_Only>
0

> <s_lp_Force_Field>
OPLS_2005

> <r_lp_Energy>
4.88366

> <b_lp_Chiralities_Consistent>
1

> <s_lp_Variant>
AV-unprocessed.smi:2856-3

> <Gold.Version>
5.8.1

> <Gold.Id.Protein>
6NUR|6NUR_protein|mol2

> <Gold.PLP.Fitness>
40.7787

> <Gold.PLP.PLP>
-33.6734

> <Gold.PLP.part.hbond>
-3.9609

> <Gold.PLP.part.metal>
0.0000

> <Gold.PLP.part.buried>
-4.6119

> <Gold.PLP.part.nonpolar>
-26.3825

> <Gold.PLP.part.repulsive>
0.4314

> <Gold.PLP.ligand.clash>
0.0000

> <Gold.PLP.ligand.torsion>
0.6998

> <Gold.PLP.Chemscore.Hbond>
2.8288

> <Gold.PLP.Chemscore.CHOScore>
0.0000

> <Gold.PLP.Chemscore.Metal>
0.0000

> <Gold.Chemscore.Hbonds>
donor molecule, donor type, donor heavy atom, donor atom, acceptor molecule, acceptor atom, score
      L1  H     9    32       P1 10957  0.84
      L1  H    12    33       P1 10957  1.00
      P1  H 11000 11005       L1    18  1.00

> <Gold.PLP.Chemscore.Internal.Correction>
0.0185

> <Gold.Rescore>
     Score         DG    S(hbond)    S(metal)    S(lipo)     H(rot)  DE(clash)    DE(int)     intcor
     17.09     -20.66       2.62        0.00      81.45       1.21       0.26       3.30       ----

> <Gold.Chemscore.Fitness>
17.0938

> <Gold.Chemscore.DG>
-20.6580

> <Gold.Chemscore.ZeroCoef>
-5.4800

> <Gold.Chemscore.Hbond>
2.6194

> <Gold.Chemscore.Metal>
0.0000

> <Gold.Chemscore.Lipo>
81.4478

> <Gold.Chemscore.Internal_Hbond>
0.0000

> <Gold.Chemscore.DEClash>
0.2622

> <Gold.Chemscore.DEInternal>
3.3020

> <Gold.Chemscore.Rot>
1.2109

> <Gold.Chemscore.Internal.Correction>
   9.000000E+99

> <Gold.Chemscore.Hbonds>
donor molecule, donor type, donor heavy atom, donor atom, acceptor molecule, acceptor atom, score
      L1  H     9    32       P1 10957  0.45
      L1  H    12    33       P1 10957  0.98
      P1  H 11000 11005       L1    18  0.47

> <Gold.Chemscore.Hbond.Weighted>
-8.7487

> <Gold.Chemscore.Metal.Weighted>
-0.0000

> <Gold.Chemscore.Lipo.Weighted>
-9.5294

> <Gold.Chemscore.Internal_Hbond.Weighted>
0.0000

> <Gold.Chemscore.DEClash.Weighted>
0.2622

> <Gold.Chemscore.DEInternal.Weighted>
3.3020

> <Gold.Chemscore.Rot.Weighted>
3.1000

> <Gold.Chemscore.Internal.Correction.Weighted>
   9.000000E+99

> <Gold.Protein.RotatedTorsions>
[ 6907 6896 6895 6894 ] final   83.11 input  -60.11 | X-H torsion
[ 7974 7965 7964 7962 ] final -116.35 input  175.53 | X-H torsion
[ 8008 7997 7996 7995 ] final  164.08 input   59.86 | X-H torsion
[ 10167 10162 10161 10158 ] final   20.97 input  -65.29 | X-H torsion
[ 10718 10713 10712 10709 ] final   66.78 input   66.30 | X-H torsion
[ 10763 10752 10751 10750 ] final  -84.42 input  -60.55 | X-H torsion
[ 11005 11000 10999 10996 ] final   58.84 input  -57.11 | X-H torsion

> <Gold.Protein.ActiveResidues>
 VAL166  LYS551  ARG553  GLY616  TRP617  ASP618  TYR619  PRO620  LYS621  CYS622 
 ASP623  PHE694  ASN695  SER759  ASP760  ASP761  ALA762  ILE779  LEU786  VAL792 
 PHE793  MET794  SER795  GLU796  ALA797  LYS798  CYS799  TRP800  GLU811  SER814 

> <Gold.Protein.RotatedAtoms>
  152.5318  134.2946  159.9055 H   0  0  0  0  0  0  0  0  0  0  0  0  # atno 6907 bound_to 6896
  151.2898  133.4164  159.2640 H   0  0  0  0  0  0  0  0  0  0  0  0  # atno 6908 bound_to 6896
  151.0211  134.9485  159.8117 H   0  0  0  0  0  0  0  0  0  0  0  0  # atno 6909 bound_to 6896
  145.0977  140.8532  143.3944 H   0  0  0  0  0  0  0  0  0  0  0  0  # atno 7974 bound_to 7965
  156.1908  140.1706  156.8096 H   0  0  0  0  0  0  0  0  0  0  0  0  # atno 8008 bound_to 7997
  154.5469  140.0725  156.8635 H   0  0  0  0  0  0  0  0  0  0  0  0  # atno 8009 bound_to 7997
  155.3105  140.3367  155.4246 H   0  0  0  0  0  0  0  0  0  0  0  0  # atno 8010 bound_to 7997
  140.5463  143.9589  150.6550 H   0  0  0  0  0  0  0  0  0  0  0  0  # atno 10167 bound_to 10162
  157.6190  130.9286  150.0154 H   0  0  0  0  0  0  0  0  0  0  0  0  # atno 10718 bound_to 10713
  154.5993  135.5521  153.7358 H   0  0  0  0  0  0  0  0  0  0  0  0  # atno 10763 bound_to 10752
  153.0148  135.6362  154.1738 H   0  0  0  0  0  0  0  0  0  0  0  0  # atno 10764 bound_to 10752
  154.1678  135.2894  155.3070 H   0  0  0  0  0  0  0  0  0  0  0  0  # atno 10765 bound_to 10752
  140.0348  134.5960  155.9459 H   0  0  0  0  0  0  0  0  0  0  0  0  # atno 11005 bound_to 11000
  145.0992  139.2835  143.5695 LP  0  0  0  0  0  0  0  0  0  0  0  0  # atno 17320 bound_to 7965
  146.3530  140.0553  142.8633 LP  0  0  0  0  0  0  0  0  0  0  0  0  # atno 17321 bound_to 7965
  140.3003  143.3265  152.0978 LP  0  0  0  0  0  0  0  0  0  0  0  0  # atno 17342 bound_to 10162
  139.5009  144.6701  151.6263 LP  0  0  0  0  0  0  0  0  0  0  0  0  # atno 17343 bound_to 10162
  156.1326  130.3643  149.9708 LP  0  0  0  0  0  0  0  0  0  0  0  0  # atno 17370 bound_to 10713
  156.7765  130.9205  151.3645 LP  0  0  0  0  0  0  0  0  0  0  0  0  # atno 17371 bound_to 10713
  141.1851  133.6554  156.5184 LP  0  0  0  0  0  0  0  0  0  0  0  0  # atno 17394 bound_to 11000
  140.4166  134.7224  157.4866 LP  0  0  0  0  0  0  0  0  0  0  0  0  # atno 17395 bound_to 11000

$$$$
