#       Name:                AV-unprocessed.smi:892
#       Creating user name   scv26
#       Creation time:       Fri Mar 27 01:55:33 2020


#       File generated by GOLD software.
#

@<TRIPOS>MOLECULE
AV-unprocessed.smi:892
    42    43     1
SMALL
NO_CHARGES


@<TRIPOS>ATOM
      1 ****        -4.2785  -0.5483   3.7563 C.3            1 S1                 0.0000
      2 ****        -2.8475  -0.2867   3.7519 N.am           1 S1                 0.0000
      3 ****        -2.3041   0.9372   3.8268 C.2            1 S1                 0.0000
      4 ****        -2.9703   1.9684   3.9170 O.2            1 S1                 0.0000
      5 ****        -0.7764   1.0127   3.7979 C.3            1 S1                 0.0000
      6 ****        -0.2790   1.0750   2.3890 C.2            1 S1                 0.0000
      7 ****        -0.0481   2.2371   1.7890 N.2            1 S1                 0.0000
      8 ****         0.3974   1.8608   0.5141 O.3            1 S1                 0.0000
      9 ****         0.3865   0.5055   0.5023 C.2            1 S1                 0.0000
     10 ****         0.8120  -0.2155  -0.7387 C.3            1 S1                 0.0000
     11 ****         2.2934   0.0703  -1.0665 C.3            1 S1                 0.0000
     12 ****         2.9123  -0.9540  -2.0328 C.3            1 S1                 0.0000
     13 ****         2.7220  -0.6513  -3.5296 C.3            1 S1                 0.0000
     14 ****         1.3526  -0.0893  -3.9506 C.3            1 S1                 0.0000
     15 ****         0.1414  -0.6770  -3.2088 C.3            1 S1                 0.0000
     16 ****        -0.1690   0.0612  -1.8948 C.3            1 S1                 0.0000
     17 ****        -0.0228  -0.0380   1.6462 N.2            1 S1                 0.0000
     18 ****        -4.4597  -1.6222   3.7140 H              1 S1                 0.0000
     19 ****        -4.7589  -0.0868   2.8927 H              1 S1                 0.0000
     20 ****        -4.7432  -0.1594   4.6633 H              1 S1                 0.0000
     21 ****        -2.2314  -1.0836   3.6789 H              1 S1                 0.0000
     22 ****        -0.4422   1.8935   4.3481 H              1 S1                 0.0000
     23 ****        -0.3477   0.1447   4.3007 H              1 S1                 0.0000
     24 ****         0.7331  -1.2781  -0.5039 H              1 S1                 0.0000
     25 ****         2.4324   1.0906  -1.4261 H              1 S1                 0.0000
     26 ****         2.8573   0.0063  -0.1347 H              1 S1                 0.0000
     27 ****         3.9840  -1.0181  -1.8403 H              1 S1                 0.0000
     28 ****         2.5238  -1.9480  -1.8085 H              1 S1                 0.0000
     29 ****         3.4905   0.0520  -3.8528 H              1 S1                 0.0000
     30 ****         2.9156  -1.5693  -4.0856 H              1 S1                 0.0000
     31 ****         1.3530   0.9957  -3.8399 H              1 S1                 0.0000
     32 ****         1.2335  -0.2665  -5.0201 H              1 S1                 0.0000
     33 ****        -0.7299  -0.5729  -3.8565 H              1 S1                 0.0000
     34 ****         0.2621  -1.7480  -3.0429 H              1 S1                 0.0000
     35 ****        -1.1685  -0.2315  -1.5701 H              1 S1                 0.0000
     36 ****        -0.2259   1.1335  -2.0867 H              1 S1                 0.0000
     37 ****        -3.9688   1.9184   3.9375 LP             1 S1                 0.0000
     38 ****        -2.5129   2.8561   3.9699 LP             1 S1                 0.0000
     39 ****        -0.1642   3.1592   2.1581 LP             1 S1                 0.0000
     40 ****         1.3234   2.2027   0.3542 LP             1 S1                 0.0000
     41 ****        -0.2165   2.2198  -0.1889 LP             1 S1                 0.0000
     42 ****        -0.1168  -1.0024   1.8936 LP             1 S1                 0.0000
@<TRIPOS>BOND
    1    1    2 1     
    2    1   18 1     
    3    1   19 1     
    4    1   20 1     
    5    2    3 am    
    6    2   21 1     
    7    3    4 2     
    8    3    5 1     
    9    5    6 1     
   10    5   22 1     
   11    5   23 1     
   12    6   17 1     
   13    6    7 2     
   14    7    8 1     
   15    8    9 1     
   16    9   10 1     
   17    9   17 2     
   18   10   16 1     
   19   10   11 1     
   20   10   24 1     
   21   11   12 1     
   22   11   25 1     
   23   11   26 1     
   24   12   13 1     
   25   12   27 1     
   26   12   28 1     
   27   13   14 1     
   28   13   29 1     
   29   13   30 1     
   30   14   15 1     
   31   14   31 1     
   32   14   32 1     
   33   15   16 1     
   34   15   33 1     
   35   15   34 1     
   36   16   35 1     
   37   16   36 1     
   38    4   37 1     
   39    4   38 1     
   40    7   39 1     
   41    8   40 1     
   42    8   41 1     
   43   17   42 1     
@<TRIPOS>SUBSTRUCTURE
      1 S1             1
@<TRIPOS>SET
LONE_PAIRS      STATIC     ATOMS    <user>   **** ""
6 37 38 39 40 41 42
DONOR_HYDROGENS      STATIC     ATOMS    <user>   **** ""
1 21
ATOM$BLUE        STATIC     ATOMS    COLORGROUP SYSTEM
6 37 38 39 40 41 42
ATOM$RED        STATIC     ATOMS    COLORGROUP SYSTEM
1 21
