AV-unprocessed.smi:227|AV-procd|sdf|1741|dock7
  -GOLD-   2262020243D 1   1.00000     0.00000
 Structure written by MMmdl.
 54 58  0  0  0  0  0  0  0  0  1 V2000
  146.6733  141.5558  155.0130 O   0  0  0  0  0  0  0  0  0  0  0  0
  146.9502  141.0864  153.7101 C   0  0  0  0  0  0  0  0  0  0  0  0
  147.4620  139.6265  153.7417 C   0  0  2  0  0  0  0  0  0  0  0  0
  146.4242  138.6511  154.3624 C   0  0  0  0  0  0  0  0  0  0  0  0
  146.0611  137.5344  153.5015 N   0  0  0  0  0  0  0  0  0  0  0  0
  145.1318  137.5392  152.4868 C   0  0  0  0  0  0  0  0  0  0  0  0
  144.9905  136.4059  151.8577 N   0  0  0  0  0  0  0  0  0  0  0  0
  145.8793  135.5429  152.4884 C   0  0  0  0  0  0  0  0  0  0  0  0
  146.2426  134.1733  152.3163 C   0  0  0  0  0  0  0  0  0  0  0  0
  145.7241  133.3424  151.3690 N   0  0  0  0  0  0  0  0  0  0  0  0
  144.8155  132.2602  151.7206 C   0  0  1  0  0  0  0  0  0  0  0  0
  143.4955  132.9794  152.0616 C   0  0  0  0  0  0  0  0  0  0  0  0
  143.5338  134.1543  151.0724 C   0  0  0  0  0  0  0  0  0  0  0  0
  144.8605  133.8820  150.3259 C   0  0  2  0  0  0  0  0  0  0  0  0
  144.7432  132.6712  149.3725 C   0  0  2  0  0  0  0  0  0  0  0  0
  143.6209  132.7023  148.3174 C   0  0  0  0  0  0  0  0  0  0  0  0
  143.3682  134.0291  147.9070 O   0  0  0  0  0  0  0  0  0  0  0  0
  144.6436  131.5160  150.3838 C   0  0  0  0  0  0  0  0  0  0  0  0
  147.1584  133.6629  153.1820 N   0  0  0  0  0  0  0  0  0  0  0  0
  147.7006  134.4292  154.1312 C   0  0  0  0  0  0  0  0  0  0  0  0
  147.4717  135.7158  154.3935 N   0  0  0  0  0  0  0  0  0  0  0  0
  146.5461  136.2378  153.5396 C   0  0  0  0  0  0  0  0  0  0  0  0
  148.8481  139.5358  154.4334 C   0  0  1  0  0  0  0  0  0  0  0  0
  149.7950  138.5146  153.8251 C   0  0  0  0  0  0  0  0  0  0  0  0
  151.1460  138.9631  154.3694 C   0  0  0  0  0  0  0  0  0  0  0  0
  151.0624  140.3792  154.4749 O   0  0  0  0  0  0  0  0  0  0  0  0
  149.7101  140.7993  154.3225 C   0  0  0  0  0  0  0  0  0  0  0  0
  145.8498  142.0204  154.9955 H   0  0  0  0  0  0  0  0  0  0  0  0
  146.0220  141.1614  153.1446 H   0  0  0  0  0  0  0  0  0  0  0  0
  147.6662  141.7511  153.2262 H   0  0  0  0  0  0  0  0  0  0  0  0
  147.6036  139.3156  152.7055 H   0  0  0  0  0  0  0  0  0  0  0  0
  146.8082  138.2463  155.2992 H   0  0  0  0  0  0  0  0  0  0  0  0
  145.5121  139.1823  154.6345 H   0  0  0  0  0  0  0  0  0  0  0  0
  144.5595  138.4147  152.2194 H   0  0  0  0  0  0  0  0  0  0  0  0
  145.1582  131.5880  152.5047 H   0  0  0  0  0  0  0  0  0  0  0  0
  142.6214  132.3409  151.9299 H   0  0  0  0  0  0  0  0  0  0  0  0
  143.4986  133.3416  153.0905 H   0  0  0  0  0  0  0  0  0  0  0  0
  142.6610  134.2015  150.4233 H   0  0  0  0  0  0  0  0  0  0  0  0
  143.5841  135.1000  151.6133 H   0  0  0  0  0  0  0  0  0  0  0  0
  145.2550  134.7635  149.8192 H   0  0  0  0  0  0  0  0  0  0  0  0
  145.6936  132.5735  148.8441 H   0  0  0  0  0  0  0  0  0  0  0  0
  143.9212  132.1244  147.4430 H   0  0  0  0  0  0  0  0  0  0  0  0
  142.7004  132.2499  148.6840 H   0  0  0  0  0  0  0  0  0  0  0  0
  144.1939  134.4824  147.8295 H   0  0  0  0  0  0  0  0  0  0  0  0
  145.4509  130.7998  150.2261 H   0  0  0  0  0  0  0  0  0  0  0  0
  143.6990  130.9732  150.3308 H   0  0  0  0  0  0  0  0  0  0  0  0
  148.4209  133.9412  154.7711 H   0  0  0  0  0  0  0  0  0  0  0  0
  148.7196  139.3093  155.4926 H   0  0  0  0  0  0  0  0  0  0  0  0
  149.5624  137.4848  154.0939 H   0  0  0  0  0  0  0  0  0  0  0  0
  149.7884  138.5903  152.7368 H   0  0  0  0  0  0  0  0  0  0  0  0
  151.3110  138.5493  155.3650 H   0  0  0  0  0  0  0  0  0  0  0  0
  151.9761  138.6569  153.7324 H   0  0  0  0  0  0  0  0  0  0  0  0
  149.6039  141.2562  153.3374 H   0  0  0  0  0  0  0  0  0  0  0  0
  149.4519  141.5484  155.0713 H   0  0  0  0  0  0  0  0  0  0  0  0
  1  2  1  0  0  0  0
  1 28  1  0  0  0  0
  2  3  1  0  0  0  0
  2 29  1  0  0  0  0
  2 30  1  0  0  0  0
  3  4  1  0  0  0  0
  3 23  1  0  0  0  0
  3 31  1  0  0  0  0
  4  5  1  0  0  0  0
  4 32  1  0  0  0  0
  4 33  1  0  0  0  0
  5 22  1  0  0  0  0
  5  6  1  0  0  0  0
  6  7  2  0  0  0  0
  6 34  1  0  0  0  0
  7  8  1  0  0  0  0
  8 22  2  0  0  0  0
  8  9  1  0  0  0  0
  9 10  1  0  0  0  0
  9 19  2  0  0  0  0
 10 14  1  0  0  0  0
 10 11  1  0  0  0  0
 11 18  1  0  0  0  0
 11 12  1  0  0  0  0
 11 35  1  0  0  0  0
 12 13  1  0  0  0  0
 12 36  1  0  0  0  0
 12 37  1  0  0  0  0
 13 14  1  0  0  0  0
 13 38  1  0  0  0  0
 13 39  1  0  0  0  0
 14 15  1  0  0  0  0
 14 40  1  0  0  0  0
 15 16  1  0  0  0  0
 15 18  1  0  0  0  0
 15 41  1  0  0  0  0
 16 17  1  0  0  0  0
 16 42  1  0  0  0  0
 16 43  1  0  0  0  0
 17 44  1  0  0  0  0
 18 45  1  0  0  0  0
 18 46  1  0  0  0  0
 19 20  1  0  0  0  0
 20 21  2  0  0  0  0
 20 47  1  0  0  0  0
 21 22  1  0  0  0  0
 23 27  1  0  0  0  0
 23 24  1  0  0  0  0
 23 48  1  0  0  0  0
 24 25  1  0  0  0  0
 24 49  1  0  0  0  0
 24 50  1  0  0  0  0
 25 26  1  0  0  0  0
 25 51  1  0  0  0  0
 25 52  1  0  0  0  0
 26 27  1  0  0  0  0
 27 53  1  0  0  0  0
 27 54  1  0  0  0  0
M  END
> <s_m_source_file>
AV-unprocessed.smi

> <i_m_source_file_index>
227

> <i_lp_mmshare_version>
43012

> <i_f3d_flags>
0

> <s_epik_input>
W0NIMl0xT1tDSDJdW0NIMl1bQ0BIXTFbQ0BIXShbQ0gyXVtPSF0pW0NIMl1uKFtjSF1uMiljKGMyMyluW2NIXW5jM04oW0NASF00NSlbQ0BASF0oW0NIMl1bQ0gyXTQpW0NASF0oW0NIMl01KVtDSDJdW09IXQ==

> <s_epik_cmdline>
J2VwaWtfcHl0aG9uJywgJy1waCcsICc3LjAnLCAnLXRuJywgJzgnLCAnLW1hJywgJzIwMCcsICctbWV0YWxfYmluZGluZycsICctaW1hZScsICc8aW5maWxlLm1hZT4nLCAnLW9tYWUnLCAnPG91dGZpbGUubWFlPic=

> <r_lp_tautomer_probability>
1

> <r_epik_Ionization_Penalty>
0.0055791

> <r_epik_Ionization_Penalty_Charging>
0

> <r_epik_Ionization_Penalty_Neutral>
0.0055791

> <r_epik_State_Penalty>
0.00401299

> <r_epik_Charging_Adjusted_Penalty>
0.00401299

> <i_epik_Tot_Q>
0

> <i_epik_Tot_abs_Q>
0

> <r_epik_Metal_State_Penalty>
-0

> <b_epik_Metal_Only>
0

> <s_lp_Force_Field>
OPLS_2005

> <r_lp_Energy>
87.7083

> <b_lp_Chiralities_Consistent>
1

> <s_lp_Variant>
AV-unprocessed.smi:227-15

> <Gold.Version>
5.8.1

> <Gold.Id.Protein>
6NUR|6NUR_protein|mol2

> <Gold.PLP.Fitness>
46.4816

> <Gold.PLP.PLP>
-36.8642

> <Gold.PLP.part.hbond>
-4.5910

> <Gold.PLP.part.metal>
0.0000

> <Gold.PLP.part.buried>
3.7597

> <Gold.PLP.part.nonpolar>
-35.7825

> <Gold.PLP.part.repulsive>
0.6005

> <Gold.PLP.ligand.clash>
0.0000

> <Gold.PLP.ligand.torsion>
2.3240

> <Gold.PLP.Chemscore.Hbond>
2.9913

> <Gold.PLP.Chemscore.CHOScore>
1.7251

> <Gold.PLP.Chemscore.Metal>
0.0000

> <Gold.Chemscore.Hbonds>
donor molecule, donor type, donor heavy atom, donor atom, acceptor molecule, acceptor atom, score
      L1  H    17    44       P1  7921  1.00
      P1  H  7989  7998       L1    26  0.26
      P1  H 10192 10197       L1    17  1.00
      L1  C     6    34       P1 10171  0.74
      L1  C     6    34       P1 10175  1.00

> <Gold.PLP.Chemscore.Internal.Correction>
0.1163

> <Gold.Rescore>
     Score         DG    S(hbond)    S(metal)    S(lipo)     H(rot)  DE(clash)    DE(int)     intcor
      9.42     -15.01       1.98        0.00     103.80       3.61       1.56       4.03       ----

> <Gold.Chemscore.Fitness>
9.4212

> <Gold.Chemscore.DG>
-15.0092

> <Gold.Chemscore.ZeroCoef>
-5.4800

> <Gold.Chemscore.Hbond>
1.9817

> <Gold.Chemscore.Metal>
0.0000

> <Gold.Chemscore.Lipo>
103.7996

> <Gold.Chemscore.Internal_Hbond>
0.0000

> <Gold.Chemscore.DEClash>
1.5577

> <Gold.Chemscore.DEInternal>
4.0303

> <Gold.Chemscore.Rot>
3.6071

> <Gold.Chemscore.Internal.Correction>
   9.000000E+99

> <Gold.Chemscore.Hbonds>
donor molecule, donor type, donor heavy atom, donor atom, acceptor molecule, acceptor atom, score
      L1  H    17    44       P1  7921  0.99
      P1  H  7989  7998       L1    26  0.07
      P1  H 10192 10197       L1    17  0.60

> <Gold.Chemscore.Hbond.Weighted>
-6.6189

> <Gold.Chemscore.Metal.Weighted>
-0.0000

> <Gold.Chemscore.Lipo.Weighted>
-12.1446

> <Gold.Chemscore.Internal_Hbond.Weighted>
0.0000

> <Gold.Chemscore.DEClash.Weighted>
1.5577

> <Gold.Chemscore.DEInternal.Weighted>
4.0303

> <Gold.Chemscore.Rot.Weighted>
9.2342

> <Gold.Chemscore.Internal.Correction.Weighted>
   9.000000E+99

> <Gold.Protein.RotatedTorsions>
[ 6907 6896 6895 6894 ] final   -2.70 input  -60.11 | X-H torsion
[ 7974 7965 7964 7962 ] final  104.70 input  175.53 | X-H torsion
[ 8008 7997 7996 7995 ] final -172.07 input   59.86 | X-H torsion
[ 10167 10162 10161 10158 ] final -117.45 input  -65.29 | X-H torsion
[ 10718 10713 10712 10709 ] final -104.48 input   66.30 | X-H torsion
[ 10763 10752 10751 10750 ] final  -61.82 input  -60.55 | X-H torsion
[ 11005 11000 10999 10996 ] final  119.48 input  -57.11 | X-H torsion

> <Gold.Protein.ActiveResidues>
 VAL166  LYS551  ARG553  GLY616  TRP617  ASP618  TYR619  PRO620  LYS621  CYS622 
 ASP623  PHE694  ASN695  SER759  ASP760  ASP761  ALA762  ILE779  LEU786  VAL792 
 PHE793  MET794  SER795  GLU796  ALA797  LYS798  CYS799  TRP800  GLU811  SER814 

> <Gold.Protein.RotatedAtoms>
  151.5257  135.1068  159.9889 H   0  0  0  0  0  0  0  0  0  0  0  0  # atno 6907 bound_to 6896
  152.4601  133.7800  159.6856 H   0  0  0  0  0  0  0  0  0  0  0  0  # atno 6908 bound_to 6896
  150.8560  133.7650  159.3034 H   0  0  0  0  0  0  0  0  0  0  0  0  # atno 6909 bound_to 6896
  145.3293  139.2491  143.3669 H   0  0  0  0  0  0  0  0  0  0  0  0  # atno 7974 bound_to 7965
  155.9398  140.1106  157.1065 H   0  0  0  0  0  0  0  0  0  0  0  0  # atno 8008 bound_to 7997
  154.4087  140.1221  156.4978 H   0  0  0  0  0  0  0  0  0  0  0  0  # atno 8009 bound_to 7997
  155.6976  140.3472  155.4922 H   0  0  0  0  0  0  0  0  0  0  0  0  # atno 8010 bound_to 7997
  140.0682  143.4902  152.1994 H   0  0  0  0  0  0  0  0  0  0  0  0  # atno 10167 bound_to 10162
  156.0306  130.5517  150.7402 H   0  0  0  0  0  0  0  0  0  0  0  0  # atno 10718 bound_to 10713
  154.2905  135.6254  153.5383 H   0  0  0  0  0  0  0  0  0  0  0  0  # atno 10763 bound_to 10752
  152.9853  135.5654  154.5395 H   0  0  0  0  0  0  0  0  0  0  0  0  # atno 10764 bound_to 10752
  154.5005  135.2871  155.1400 H   0  0  0  0  0  0  0  0  0  0  0  0  # atno 10765 bound_to 10752
  139.9148  134.9628  156.7661 H   0  0  0  0  0  0  0  0  0  0  0  0  # atno 11005 bound_to 11000
  146.3052  140.3868  142.8690 LP  0  0  0  0  0  0  0  0  0  0  0  0  # atno 17320 bound_to 7965
  144.8876  140.7483  143.5947 LP  0  0  0  0  0  0  0  0  0  0  0  0  # atno 17321 bound_to 7965
  139.5852  144.7528  151.3539 LP  0  0  0  0  0  0  0  0  0  0  0  0  # atno 17342 bound_to 10162
  140.7138  143.7319  150.7617 LP  0  0  0  0  0  0  0  0  0  0  0  0  # atno 17343 bound_to 10162
  157.4973  131.0916  151.0357 LP  0  0  0  0  0  0  0  0  0  0  0  0  # atno 17370 bound_to 10713
  157.0747  130.5878  149.5409 LP  0  0  0  0  0  0  0  0  0  0  0  0  # atno 17371 bound_to 10713
  140.6658  133.9604  155.7829 LP  0  0  0  0  0  0  0  0  0  0  0  0  # atno 17394 bound_to 11000
  141.0612  134.0344  157.3656 LP  0  0  0  0  0  0  0  0  0  0  0  0  # atno 17395 bound_to 11000

$$$$
