AV-unprocessed.smi:1308|AV-procd|sdf|5443|dock3
  -GOLD-   22720 5 13D 1   1.00000     0.00000
 Structure written by MMmdl.
 44 44  0  0  0  0  0  0  0  0  2 V2000
  152.7170  140.2854  159.6858 C   0  0  0  0  0  0  0  0  0  0  0  0
  151.9108  140.3839  158.4085 C   0  0  0  0  0  0  0  0  0  0  0  0
  150.7333  140.8792  158.4489 N   0  0  0  0  0  0  0  0  0  0  0  0
  149.9841  140.9788  157.2646 C   0  0  0  0  0  0  0  0  0  0  0  0
  148.6094  141.6093  157.4042 C   0  0  0  0  0  0  0  0  0  0  0  0
  150.4885  140.5503  156.0716 C   0  0  0  0  0  0  0  0  0  0  0  0
  149.7269  140.6693  154.7500 C   0  0  0  0  0  0  0  0  0  0  0  0
  148.4913  139.7755  154.6427 C   0  0  0  0  0  0  0  0  0  0  0  0
  147.9099  139.4062  155.6624 O   0  0  0  0  0  0  0  0  0  0  0  0
  148.0839  139.4795  153.3963 N   0  0  0  0  0  0  0  0  0  0  0  0
  146.8135  138.8712  152.9977 C   0  0  1  0  0  0  0  0  0  0  0  0
  146.6655  138.7925  151.4679 C   0  0  0  0  0  0  0  0  0  0  0  0
  146.5830  137.5081  153.6899 C   0  0  0  0  0  0  0  0  0  0  0  0
  145.1137  137.0355  153.6618 C   0  0  0  0  0  0  0  0  0  0  0  0
  144.6253  136.5792  152.2729 C   0  0  0  0  0  0  0  0  0  0  0  0
  143.2953  135.8107  152.3411 C   0  0  0  0  0  0  0  0  0  0  0  0
  145.7007  135.7362  151.5702 C   0  0  0  0  0  0  0  0  0  0  0  0
  151.8492  139.9838  156.0691 C   0  0  0  0  0  0  0  0  0  0  0  0
  152.3587  139.5962  155.0184 O   0  0  0  0  0  0  0  0  0  0  0  0
  152.5114  139.9222  157.2590 N   0  5  0  0  0  0  0  0  0  0  0  0
  152.2043  140.7770  160.5137 H   0  0  0  0  0  0  0  0  0  0  0  0
  153.6900  140.7608  159.5578 H   0  0  0  0  0  0  0  0  0  0  0  0
  152.8745  139.2399  159.9516 H   0  0  0  0  0  0  0  0  0  0  0  0
  147.8353  140.9318  157.0439 H   0  0  0  0  0  0  0  0  0  0  0  0
  148.5553  142.5371  156.8342 H   0  0  0  0  0  0  0  0  0  0  0  0
  148.3880  141.8463  158.4454 H   0  0  0  0  0  0  0  0  0  0  0  0
  149.4291  141.6996  154.5544 H   0  0  0  0  0  0  0  0  0  0  0  0
  150.4078  140.4196  153.9360 H   0  0  0  0  0  0  0  0  0  0  0  0
  148.6593  139.8245  152.6408 H   0  0  0  0  0  0  0  0  0  0  0  0
  146.0420  139.5528  153.3573 H   0  0  0  0  0  0  0  0  0  0  0  0
  145.6597  138.4751  151.1920 H   0  0  0  0  0  0  0  0  0  0  0  0
  147.3630  138.0811  151.0263 H   0  0  0  0  0  0  0  0  0  0  0  0
  146.8407  139.7645  151.0057 H   0  0  0  0  0  0  0  0  0  0  0  0
  147.2102  136.7618  153.2024 H   0  0  0  0  0  0  0  0  0  0  0  0
  146.9277  137.5581  154.7231 H   0  0  0  0  0  0  0  0  0  0  0  0
  144.9954  136.1974  154.3482 H   0  0  0  0  0  0  0  0  0  0  0  0
  144.4652  137.8247  154.0441 H   0  0  0  0  0  0  0  0  0  0  0  0
  144.4682  137.4693  151.6622 H   0  0  0  0  0  0  0  0  0  0  0  0
  143.3802  134.9270  152.9744 H   0  0  0  0  0  0  0  0  0  0  0  0
  142.9836  135.4794  151.3502 H   0  0  0  0  0  0  0  0  0  0  0  0
  142.4923  136.4310  152.7385 H   0  0  0  0  0  0  0  0  0  0  0  0
  145.9183  134.8250  152.1280 H   0  0  0  0  0  0  0  0  0  0  0  0
  146.6330  136.2928  151.4667 H   0  0  0  0  0  0  0  0  0  0  0  0
  145.3817  135.4465  150.5687 H   0  0  0  0  0  0  0  0  0  0  0  0
  1  2  1  0  0  0  0
  1 21  1  0  0  0  0
  1 22  1  0  0  0  0
  1 23  1  0  0  0  0
  2 20  1  0  0  0  0
  2  3  2  0  0  0  0
  3  4  1  0  0  0  0
  4  5  1  0  0  0  0
  4  6  2  0  0  0  0
  5 24  1  0  0  0  0
  5 25  1  0  0  0  0
  5 26  1  0  0  0  0
  6  7  1  0  0  0  0
  6 18  1  0  0  0  0
  7  8  1  0  0  0  0
  7 27  1  0  0  0  0
  7 28  1  0  0  0  0
  8  9  2  0  0  0  0
  8 10  1  0  0  0  0
 10 11  1  0  0  0  0
 10 29  1  0  0  0  0
 11 12  1  0  0  0  0
 11 13  1  0  0  0  0
 11 30  1  0  0  0  0
 12 31  1  0  0  0  0
 12 32  1  0  0  0  0
 12 33  1  0  0  0  0
 13 14  1  0  0  0  0
 13 34  1  0  0  0  0
 13 35  1  0  0  0  0
 14 15  1  0  0  0  0
 14 36  1  0  0  0  0
 14 37  1  0  0  0  0
 15 16  1  0  0  0  0
 15 17  1  0  0  0  0
 15 38  1  0  0  0  0
 16 39  1  0  0  0  0
 16 40  1  0  0  0  0
 16 41  1  0  0  0  0
 17 42  1  0  0  0  0
 17 43  1  0  0  0  0
 17 44  1  0  0  0  0
 18 19  2  0  0  0  0
 18 20  1  0  0  0  0
M  CHG  1  20  -1
M  END
> <s_m_source_file>
AV-unprocessed.smi

> <i_m_source_file_index>
1308

> <i_lp_mmshare_version>
43012

> <i_f3d_flags>
0

> <s_epik_input>
W0NIM11jMW5jKFtDSDNdKWMoYyg9TylbbkhdMSlbQ0gyXUMoPU8pW05IXVtDQEhdKFtDSDNdKVtDSDJdW0NIMl1bQ0hdKFtDSDNdKVtDSDNd

> <s_epik_cmdline>
J2VwaWtfcHl0aG9uJywgJy1waCcsICc3LjAnLCAnLXRuJywgJzgnLCAnLW1hJywgJzIwMCcsICctbWV0YWxfYmluZGluZycsICctaW1hZScsICc8aW5maWxlLm1hZT4nLCAnLW9tYWUnLCAnPG91dGZpbGUubWFlPic=

> <r_lp_tautomer_probability>
0.839158

> <r_epik_Ionization_Penalty>
6.61719

> <r_epik_Ionization_Penalty_Charging>
7.20681e-08

> <r_epik_Ionization_Penalty_Neutral>
6.61719

> <r_epik_State_Penalty>
4.43758

> <r_epik_Charging_Adjusted_Penalty>
4.43758

> <i_epik_Tot_Q>
-1

> <i_epik_Tot_abs_Q>
1

> <r_epik_Metal_State_Penalty>
0.801586

> <b_epik_Metal_Only>
1

> <s_lp_Force_Field>
OPLS_2005

> <r_lp_Energy>
8.11692

> <b_lp_Chiralities_Consistent>
1

> <s_lp_Variant>
AV-unprocessed.smi:1308-6

> <Gold.Version>
5.8.1

> <Gold.Id.Protein>
6NUR|6NUR_protein|mol2

> <Gold.PLP.Fitness>
42.8159

> <Gold.PLP.PLP>
-32.8409

> <Gold.PLP.part.hbond>
-3.0000

> <Gold.PLP.part.metal>
0.0000

> <Gold.PLP.part.buried>
-2.7907

> <Gold.PLP.part.nonpolar>
-28.0218

> <Gold.PLP.part.repulsive>
0.1182

> <Gold.PLP.ligand.clash>
0.0000

> <Gold.PLP.ligand.torsion>
0.6718

> <Gold.PLP.Chemscore.Hbond>
3.7360

> <Gold.PLP.Chemscore.CHOScore>
0.0000

> <Gold.PLP.Chemscore.Metal>
0.0000

> <Gold.Chemscore.Hbonds>
donor molecule, donor type, donor heavy atom, donor atom, acceptor molecule, acceptor atom, score
      L1  H    10    29       P1  7957  1.00
      P1  H  7989  7998       L1    19  0.62
      P1  H  7997  8008       L1    20  2.00

> <Gold.PLP.Chemscore.Internal.Correction>
0.1105

> <Gold.Rescore>
     Score         DG    S(hbond)    S(metal)    S(lipo)     H(rot)  DE(clash)    DE(int)     intcor
     13.79     -16.31       2.35        0.00      67.32       1.91       0.98       1.54       ----

> <Gold.Chemscore.Fitness>
13.7927

> <Gold.Chemscore.DG>
-16.3059

> <Gold.Chemscore.ZeroCoef>
-5.4800

> <Gold.Chemscore.Hbond>
2.3484

> <Gold.Chemscore.Metal>
0.0000

> <Gold.Chemscore.Lipo>
67.3223

> <Gold.Chemscore.Internal_Hbond>
0.0000

> <Gold.Chemscore.DEClash>
0.9760

> <Gold.Chemscore.DEInternal>
1.5373

> <Gold.Chemscore.Rot>
1.9118

> <Gold.Chemscore.Internal.Correction>
   9.000000E+99

> <Gold.Chemscore.Hbonds>
donor molecule, donor type, donor heavy atom, donor atom, acceptor molecule, acceptor atom, score
      L1  H    10    29       P1  7957  1.00
      P1  H  7989  7998       L1    19  0.37
      P1  H  7997  8008       L1    20  0.43

> <Gold.Chemscore.Hbond.Weighted>
-7.8436

> <Gold.Chemscore.Metal.Weighted>
-0.0000

> <Gold.Chemscore.Lipo.Weighted>
-7.8767

> <Gold.Chemscore.Internal_Hbond.Weighted>
0.0000

> <Gold.Chemscore.DEClash.Weighted>
0.9760

> <Gold.Chemscore.DEInternal.Weighted>
1.5373

> <Gold.Chemscore.Rot.Weighted>
4.8943

> <Gold.Chemscore.Internal.Correction.Weighted>
   9.000000E+99

> <Gold.Protein.RotatedTorsions>
[ 6907 6896 6895 6894 ] final -139.49 input  -60.11 | X-H torsion
[ 7974 7965 7964 7962 ] final -127.66 input  175.53 | X-H torsion
[ 8008 7997 7996 7995 ] final  -67.81 input   59.86 | X-H torsion
[ 10167 10162 10161 10158 ] final -139.30 input  -65.29 | X-H torsion
[ 10718 10713 10712 10709 ] final   68.81 input   66.30 | X-H torsion
[ 10763 10752 10751 10750 ] final  124.98 input  -60.55 | X-H torsion
[ 11005 11000 10999 10996 ] final  -55.01 input  -57.11 | X-H torsion

> <Gold.Protein.ActiveResidues>
 VAL166  LYS551  ARG553  GLY616  TRP617  ASP618  TYR619  PRO620  LYS621  CYS622 
 ASP623  PHE694  ASN695  SER759  ASP760  ASP761  ALA762  ILE779  LEU786  VAL792 
 PHE793  MET794  SER795  GLU796  ALA797  LYS798  CYS799  TRP800  GLU811  SER814 

> <Gold.Protein.RotatedAtoms>
  151.0485  133.5644  159.2644 H   0  0  0  0  0  0  0  0  0  0  0  0  # atno 6907 bound_to 6896
  151.2664  135.0670  159.9127 H   0  0  0  0  0  0  0  0  0  0  0  0  # atno 6908 bound_to 6896
  152.5377  134.0222  159.8041 H   0  0  0  0  0  0  0  0  0  0  0  0  # atno 6909 bound_to 6896
  144.9748  140.7582  143.4648 H   0  0  0  0  0  0  0  0  0  0  0  0  # atno 7974 bound_to 7965
  154.4825  140.0885  156.7410 H   0  0  0  0  0  0  0  0  0  0  0  0  # atno 8008 bound_to 7997
  155.4434  140.3454  155.4274 H   0  0  0  0  0  0  0  0  0  0  0  0  # atno 8009 bound_to 7997
  156.1212  140.1475  156.9189 H   0  0  0  0  0  0  0  0  0  0  0  0  # atno 8010 bound_to 7997
  139.8393  143.7343  152.2664 H   0  0  0  0  0  0  0  0  0  0  0  0  # atno 10167 bound_to 10162
  157.6310  130.9393  150.0428 H   0  0  0  0  0  0  0  0  0  0  0  0  # atno 10718 bound_to 10713
  153.6701  135.3332  155.3151 H   0  0  0  0  0  0  0  0  0  0  0  0  # atno 10763 bound_to 10752
  154.8493  135.4384  154.1714 H   0  0  0  0  0  0  0  0  0  0  0  0  # atno 10764 bound_to 10752
  153.2703  135.6999  153.7563 H   0  0  0  0  0  0  0  0  0  0  0  0  # atno 10765 bound_to 10752
  141.1053  133.6614  156.4406 H   0  0  0  0  0  0  0  0  0  0  0  0  # atno 11005 bound_to 11000
  145.2506  139.2033  143.4944 LP  0  0  0  0  0  0  0  0  0  0  0  0  # atno 17320 bound_to 7965
  146.3392  140.2418  142.8596 LP  0  0  0  0  0  0  0  0  0  0  0  0  # atno 17321 bound_to 7965
  139.7575  144.7516  151.0414 LP  0  0  0  0  0  0  0  0  0  0  0  0  # atno 17342 bound_to 10162
  140.7799  143.4789  151.0045 LP  0  0  0  0  0  0  0  0  0  0  0  0  # atno 17343 bound_to 10162
  156.1514  130.3642  149.9432 LP  0  0  0  0  0  0  0  0  0  0  0  0  # atno 17370 bound_to 10713
  156.7451  130.9094  151.3634 LP  0  0  0  0  0  0  0  0  0  0  0  0  # atno 17371 bound_to 10713
  140.4917  134.6569  157.5213 LP  0  0  0  0  0  0  0  0  0  0  0  0  # atno 17394 bound_to 11000
  139.9921  134.6968  155.9671 LP  0  0  0  0  0  0  0  0  0  0  0  0  # atno 17395 bound_to 11000

$$$$
