AV-unprocessed.smi:2674|AV-procd|sdf|10358|dock3
  -GOLD-   2272014383D 1   1.00000     0.00000
 Structure written by MMmdl.
 45 46  0  0  0  0  0  0  0  0  2 V2000
  145.9179  135.5736  153.6412 C   0  0  0  0  0  0  0  0  0  0  0  0
  146.0162  135.7307  152.1676 N   0  3  2  0  0  0  0  0  0  0  0  0
  145.1450  136.8400  151.6935 C   0  0  0  0  0  0  0  0  0  0  0  0
  145.9627  138.1119  151.4052 C   0  0  0  0  0  0  0  0  0  0  0  0
  147.2341  138.1091  152.1198 N   0  0  0  0  0  0  0  0  0  0  0  0
  147.6002  139.0205  153.0328 C   0  0  0  0  0  0  0  0  0  0  0  0
  146.8810  139.9604  153.3730 O   0  0  0  0  0  0  0  0  0  0  0  0
  148.8314  138.7674  153.5106 N   0  0  0  0  0  0  0  0  0  0  0  0
  149.5576  139.4925  154.4929 C   0  0  0  0  0  0  0  0  0  0  0  0
  150.7668  138.8906  154.9090 C   0  0  0  0  0  0  0  0  0  0  0  0
  151.5596  139.5294  155.8821 C   0  0  0  0  0  0  0  0  0  0  0  0
  151.1221  140.7548  156.4151 C   0  0  0  0  0  0  0  0  0  0  0  0
  149.9060  141.2850  155.9468 C   0  0  0  0  0  0  0  0  0  0  0  0
  149.1443  140.6746  155.0142 N   0  0  0  0  0  0  0  0  0  0  0  0
  145.8410  134.4717  151.3757 C   0  0  0  0  0  0  0  0  0  0  0  0
  144.3611  134.1270  151.0579 C   0  0  0  0  0  0  0  0  0  0  0  0
  144.2292  132.8106  150.2740 C   0  0  0  0  0  0  0  0  0  0  0  0
  144.8878  131.6446  151.0219 C   0  0  0  0  0  0  0  0  0  0  0  0
  146.3546  131.9622  151.3390 C   0  0  0  0  0  0  0  0  0  0  0  0
  146.4810  133.2758  152.1260 C   0  0  0  0  0  0  0  0  0  0  0  0
  144.9634  135.1280  153.9240 H   0  0  0  0  0  0  0  0  0  0  0  0
  145.9980  136.5368  154.1450 H   0  0  0  0  0  0  0  0  0  0  0  0
  146.7246  134.9540  154.0326 H   0  0  0  0  0  0  0  0  0  0  0  0
  144.6126  136.5547  150.7870 H   0  0  0  0  0  0  0  0  0  0  0  0
  144.3645  137.0426  152.4292 H   0  0  0  0  0  0  0  0  0  0  0  0
  146.1798  138.1951  150.3407 H   0  0  0  0  0  0  0  0  0  0  0  0
  145.3898  139.0013  151.6743 H   0  0  0  0  0  0  0  0  0  0  0  0
  147.8836  137.3690  151.8967 H   0  0  0  0  0  0  0  0  0  0  0  0
  149.3060  137.9630  153.1283 H   0  0  0  0  0  0  0  0  0  0  0  0
  151.0888  137.9485  154.4893 H   0  0  0  0  0  0  0  0  0  0  0  0
  152.4872  139.0860  156.2133 H   0  0  0  0  0  0  0  0  0  0  0  0
  151.7028  141.2747  157.1627 H   0  0  0  0  0  0  0  0  0  0  0  0
  149.5345  142.2236  156.3307 H   0  0  0  0  0  0  0  0  0  0  0  0
  146.3525  134.6074  150.4207 H   0  0  0  0  0  0  0  0  0  0  0  0
  143.7888  134.0534  151.9839 H   0  0  0  0  0  0  0  0  0  0  0  0
  143.8964  134.9118  150.4611 H   0  0  0  0  0  0  0  0  0  0  0  0
  143.1769  132.5881  150.0958 H   0  0  0  0  0  0  0  0  0  0  0  0
  144.6910  132.9222  149.2921 H   0  0  0  0  0  0  0  0  0  0  0  0
  144.3450  131.4480  151.9475 H   0  0  0  0  0  0  0  0  0  0  0  0
  144.8233  130.7340  150.4255 H   0  0  0  0  0  0  0  0  0  0  0  0
  146.7951  131.1439  151.9089 H   0  0  0  0  0  0  0  0  0  0  0  0
  146.9243  132.0349  150.4117 H   0  0  0  0  0  0  0  0  0  0  0  0
  147.5363  133.4508  152.3320 H   0  0  0  0  0  0  0  0  0  0  0  0
  146.0023  133.1582  153.0993 H   0  0  0  0  0  0  0  0  0  0  0  0
  146.9659  136.0240  151.9871 H   0  0  0  0  0  0  0  0  0  0  0  0
  1  2  1  0  0  0  0
  1 21  1  0  0  0  0
  1 22  1  0  0  0  0
  1 23  1  0  0  0  0
  2  3  1  0  0  0  0
  2 15  1  0  0  0  0
  2 45  1  0  0  0  0
  3  4  1  0  0  0  0
  3 24  1  0  0  0  0
  3 25  1  0  0  0  0
  4  5  1  0  0  0  0
  4 26  1  0  0  0  0
  4 27  1  0  0  0  0
  5  6  1  0  0  0  0
  5 28  1  0  0  0  0
  6  7  2  0  0  0  0
  6  8  1  0  0  0  0
  8  9  1  0  0  0  0
  8 29  1  0  0  0  0
  9 14  1  0  0  0  0
  9 10  2  0  0  0  0
 10 11  1  0  0  0  0
 10 30  1  0  0  0  0
 11 12  2  0  0  0  0
 11 31  1  0  0  0  0
 12 13  1  0  0  0  0
 12 32  1  0  0  0  0
 13 14  2  0  0  0  0
 13 33  1  0  0  0  0
 15 20  1  0  0  0  0
 15 16  1  0  0  0  0
 15 34  1  0  0  0  0
 16 17  1  0  0  0  0
 16 35  1  0  0  0  0
 16 36  1  0  0  0  0
 17 18  1  0  0  0  0
 17 37  1  0  0  0  0
 17 38  1  0  0  0  0
 18 19  1  0  0  0  0
 18 39  1  0  0  0  0
 18 40  1  0  0  0  0
 19 20  1  0  0  0  0
 19 41  1  0  0  0  0
 19 42  1  0  0  0  0
 20 43  1  0  0  0  0
 20 44  1  0  0  0  0
M  CHG  1   2   1
M  END
> <s_m_source_file>
AV-unprocessed.smi

> <i_m_source_file_index>
2674

> <i_lp_mmshare_version>
43012

> <i_f3d_flags>
0

> <s_epik_input>
W0NIMl0xW0NIMl1bQ0gyXVtDSDJdW0NIMl1bQ0hdMU4oW0NIM10pW0NIMl1bQ0gyXVtOSF1DKD1PKVtOSF1jMltjSF1bY0hdW2NIXVtjSF1uMg==

> <s_epik_cmdline>
J2VwaWtfcHl0aG9uJywgJy1waCcsICc3LjAnLCAnLXRuJywgJzgnLCAnLW1hJywgJzIwMCcsICctbWV0YWxfYmluZGluZycsICctaW1hZScsICc8aW5maWxlLm1hZT4nLCAnLW9tYWUnLCAnPG91dGZpbGUubWFlPic=

> <r_epik_Ionization_Penalty>
0.00206741

> <r_epik_Ionization_Penalty_Charging>
0.00203269

> <r_epik_Ionization_Penalty_Neutral>
3.47205e-05

> <r_epik_State_Penalty>
0.00139005

> <r_epik_Charging_Adjusted_Penalty>
0.00342273

> <i_epik_Tot_Q>
1

> <i_epik_Tot_abs_Q>
1

> <r_epik_Metal_State_Penalty>
-0

> <b_epik_Metal_Only>
0

> <s_lp_Force_Field>
OPLS_2005

> <r_lp_Energy>
21.2235

> <b_lp_Chiralities_Consistent>
1

> <s_lp_Variant>
AV-unprocessed.smi:2674-1

> <Gold.Version>
5.8.1

> <Gold.Id.Protein>
6NUR|6NUR_protein|mol2

> <Gold.PLP.Fitness>
47.4048

> <Gold.PLP.PLP>
-35.6062

> <Gold.PLP.part.hbond>
-4.6294

> <Gold.PLP.part.metal>
0.0000

> <Gold.PLP.part.buried>
3.3918

> <Gold.PLP.part.nonpolar>
-36.1402

> <Gold.PLP.part.repulsive>
0.5121

> <Gold.PLP.ligand.clash>
0.0000

> <Gold.PLP.ligand.torsion>
1.3303

> <Gold.PLP.Chemscore.Hbond>
3.7893

> <Gold.PLP.Chemscore.CHOScore>
0.9990

> <Gold.PLP.Chemscore.Metal>
0.0000

> <Gold.Chemscore.Hbonds>
donor molecule, donor type, donor heavy atom, donor atom, acceptor molecule, acceptor atom, score
      L1  H     2    45       P1  7948  2.00
      L1  H     5    28       P1  7948  1.00
      L1  H     8    29       P1  7948  0.61
      L1  C    13    33       P1  8028  0.66

> <Gold.PLP.Chemscore.Internal.Correction>
0.0943

> <Gold.Rescore>
     Score         DG    S(hbond)    S(metal)    S(lipo)     H(rot)  DE(clash)    DE(int)     intcor
     14.54     -17.86       2.25        0.00      78.89       1.70       0.65       2.67       ----

> <Gold.Chemscore.Fitness>
14.5435

> <Gold.Chemscore.DG>
-17.8583

> <Gold.Chemscore.ZeroCoef>
-5.4800

> <Gold.Chemscore.Hbond>
2.2479

> <Gold.Chemscore.Metal>
0.0000

> <Gold.Chemscore.Lipo>
78.8881

> <Gold.Chemscore.Internal_Hbond>
0.0000

> <Gold.Chemscore.DEClash>
0.6467

> <Gold.Chemscore.DEInternal>
2.6681

> <Gold.Chemscore.Rot>
1.7030

> <Gold.Chemscore.Internal.Correction>
   9.000000E+99

> <Gold.Chemscore.Hbonds>
donor molecule, donor type, donor heavy atom, donor atom, acceptor molecule, acceptor atom, score
      L1  H     2    45       P1  7948  0.98
      L1  H     5    28       P1  7948  0.93
      L1  H     8    29       P1  7948  0.59

> <Gold.Chemscore.Hbond.Weighted>
-7.5081

> <Gold.Chemscore.Metal.Weighted>
-0.0000

> <Gold.Chemscore.Lipo.Weighted>
-9.2299

> <Gold.Chemscore.Internal_Hbond.Weighted>
0.0000

> <Gold.Chemscore.DEClash.Weighted>
0.6467

> <Gold.Chemscore.DEInternal.Weighted>
2.6681

> <Gold.Chemscore.Rot.Weighted>
4.3597

> <Gold.Chemscore.Internal.Correction.Weighted>
   9.000000E+99

> <Gold.Protein.RotatedTorsions>
[ 6907 6896 6895 6894 ] final  -22.74 input  -60.11 | X-H torsion
[ 7974 7965 7964 7962 ] final -173.26 input  175.53 | X-H torsion
[ 8008 7997 7996 7995 ] final   88.91 input   59.86 | X-H torsion
[ 10167 10162 10161 10158 ] final   22.46 input  -65.29 | X-H torsion
[ 10718 10713 10712 10709 ] final  -37.34 input   66.30 | X-H torsion
[ 10763 10752 10751 10750 ] final  -39.15 input  -60.55 | X-H torsion
[ 11005 11000 10999 10996 ] final  -52.99 input  -57.11 | X-H torsion

> <Gold.Protein.ActiveResidues>
 VAL166  LYS551  ARG553  GLY616  TRP617  ASP618  TYR619  PRO620  LYS621  CYS622 
 ASP623  PHE694  ASN695  SER759  ASP760  ASP761  ALA762  ILE779  LEU786  VAL792 
 PHE793  MET794  SER795  GLU796  ALA797  LYS798  CYS799  TRP800  GLU811  SER814 

> <Gold.Protein.RotatedAtoms>
  151.2142  135.0493  159.8923 H   0  0  0  0  0  0  0  0  0  0  0  0  # atno 6907 bound_to 6896
  152.5422  134.0712  159.8205 H   0  0  0  0  0  0  0  0  0  0  0  0  # atno 6908 bound_to 6896
  151.0869  133.5298  159.2649 H   0  0  0  0  0  0  0  0  0  0  0  0  # atno 6909 bound_to 6896
  144.7139  140.1649  143.6373 H   0  0  0  0  0  0  0  0  0  0  0  0  # atno 7974 bound_to 7965
  155.9936  140.3366  155.6777 H   0  0  0  0  0  0  0  0  0  0  0  0  # atno 8008 bound_to 7997
  155.6387  140.0693  157.2643 H   0  0  0  0  0  0  0  0  0  0  0  0  # atno 8009 bound_to 7997
  154.4227  140.1746  156.1537 H   0  0  0  0  0  0  0  0  0  0  0  0  # atno 8010 bound_to 7997
  140.5346  143.9782  150.6484 H   0  0  0  0  0  0  0  0  0  0  0  0  # atno 10167 bound_to 10162
  156.3164  130.4259  149.8002 H   0  0  0  0  0  0  0  0  0  0  0  0  # atno 10718 bound_to 10713
  153.9246  135.6778  153.4747 H   0  0  0  0  0  0  0  0  0  0  0  0  # atno 10763 bound_to 10752
  153.1011  135.4827  154.8865 H   0  0  0  0  0  0  0  0  0  0  0  0  # atno 10764 bound_to 10752
  154.7460  135.3172  154.8600 H   0  0  0  0  0  0  0  0  0  0  0  0  # atno 10765 bound_to 10752
  141.0953  133.6626  156.4105 H   0  0  0  0  0  0  0  0  0  0  0  0  # atno 11005 bound_to 11000
  145.8996  139.2423  143.1501 LP  0  0  0  0  0  0  0  0  0  0  0  0  # atno 17320 bound_to 7965
  145.9823  140.8672  143.0108 LP  0  0  0  0  0  0  0  0  0  0  0  0  # atno 17321 bound_to 7965
  140.3166  143.3163  152.0825 LP  0  0  0  0  0  0  0  0  0  0  0  0  # atno 17342 bound_to 10162
  139.4966  144.6601  151.6484 LP  0  0  0  0  0  0  0  0  0  0  0  0  # atno 17343 bound_to 10162
  156.5326  130.8264  151.3242 LP  0  0  0  0  0  0  0  0  0  0  0  0  # atno 17370 bound_to 10713
  157.7402  130.9846  150.2364 LP  0  0  0  0  0  0  0  0  0  0  0  0  # atno 17371 bound_to 10713
  140.5156  134.6354  157.5300 LP  0  0  0  0  0  0  0  0  0  0  0  0  # atno 17394 bound_to 11000
  139.9788  134.7171  155.9899 LP  0  0  0  0  0  0  0  0  0  0  0  0  # atno 17395 bound_to 11000

$$$$
