AV-unprocessed.smi:3241|AV-procd|sdf|12387|dock3
  -GOLD-   2272018253D 1   1.00000     0.00000
 Structure written by MMmdl.
 44 45  0  0  0  0  0  0  0  0  2 V2000
  150.2907  138.6204  154.7061 C   0  0  0  0  0  0  0  0  0  0  0  0
  149.7654  140.0440  154.9512 C   0  0  2  0  0  0  0  0  0  0  0  0
  149.3447  140.2565  156.4192 C   0  0  0  0  0  0  0  0  0  0  0  0
  148.8503  141.6917  156.6604 C   0  0  0  0  0  0  0  0  0  0  0  0
  147.7055  142.0566  155.7028 C   0  0  0  0  0  0  0  0  0  0  0  0
  148.1170  141.8473  154.2360 C   0  0  0  0  0  0  0  0  0  0  0  0
  148.6193  140.4109  153.9829 C   0  0  2  0  0  0  0  0  0  0  0  0
  147.5544  139.4866  154.1741 O   0  0  0  0  0  0  0  0  0  0  0  0
  147.6250  138.3302  153.3551 C   0  0  0  0  0  0  0  0  0  0  0  0
  146.9050  138.6273  152.0364 C   0  0  0  0  0  0  0  0  0  0  0  0
  146.9190  137.4435  151.1557 N   0  3  0  0  0  0  0  0  0  0  0  0
  145.7837  136.5210  151.3553 C   0  0  0  0  0  0  0  0  0  0  0  0
  145.7183  135.4564  150.2481 C   0  0  0  0  0  0  0  0  0  0  0  0
  144.7564  134.4090  150.5422 N   0  0  0  0  0  0  0  0  0  0  0  0
  144.6544  133.1545  149.9788 C   0  0  0  0  0  0  0  0  0  0  0  0
  143.6004  132.5256  150.5773 C   0  0  0  0  0  0  0  0  0  0  0  0
  143.1132  133.4883  151.5048 C   0  0  0  0  0  0  0  0  0  0  0  0
  143.8095  134.6135  151.4839 N   0  0  0  0  0  0  0  0  0  0  0  0
  149.5254  137.8700  154.9079 H   0  0  0  0  0  0  0  0  0  0  0  0
  151.1447  138.4024  155.3479 H   0  0  0  0  0  0  0  0  0  0  0  0
  150.6152  138.4945  153.6730 H   0  0  0  0  0  0  0  0  0  0  0  0
  150.5930  140.7255  154.7485 H   0  0  0  0  0  0  0  0  0  0  0  0
  148.5582  139.5495  156.6868 H   0  0  0  0  0  0  0  0  0  0  0  0
  150.1849  140.0455  157.0817 H   0  0  0  0  0  0  0  0  0  0  0  0
  148.5204  141.8022  157.6936 H   0  0  0  0  0  0  0  0  0  0  0  0
  149.6768  142.3899  156.5237 H   0  0  0  0  0  0  0  0  0  0  0  0
  146.8305  141.4462  155.9299 H   0  0  0  0  0  0  0  0  0  0  0  0
  147.4067  143.0933  155.8605 H   0  0  0  0  0  0  0  0  0  0  0  0
  147.2813  142.0849  153.5781 H   0  0  0  0  0  0  0  0  0  0  0  0
  148.9091  142.5533  153.9836 H   0  0  0  0  0  0  0  0  0  0  0  0
  149.0011  140.3372  152.9628 H   0  0  0  0  0  0  0  0  0  0  0  0
  148.6647  138.0667  153.1588 H   0  0  0  0  0  0  0  0  0  0  0  0
  147.1578  137.4800  153.8545 H   0  0  0  0  0  0  0  0  0  0  0  0
  145.8747  138.9300  152.2282 H   0  0  0  0  0  0  0  0  0  0  0  0
  147.3981  139.4577  151.5295 H   0  0  0  0  0  0  0  0  0  0  0  0
  146.9119  137.7524  150.1938 H   0  0  0  0  0  0  0  0  0  0  0  0
  145.8930  136.0295  152.3229 H   0  0  0  0  0  0  0  0  0  0  0  0
  144.8537  137.0899  151.3883 H   0  0  0  0  0  0  0  0  0  0  0  0
  145.4668  135.9136  149.2897 H   0  0  0  0  0  0  0  0  0  0  0  0
  146.6976  134.9930  150.1233 H   0  0  0  0  0  0  0  0  0  0  0  0
  145.3319  132.8169  149.2083 H   0  0  0  0  0  0  0  0  0  0  0  0
  143.2316  131.5295  150.3815 H   0  0  0  0  0  0  0  0  0  0  0  0
  142.2816  133.4034  152.1887 H   0  0  0  0  0  0  0  0  0  0  0  0
  147.7777  136.9374  151.3207 H   0  0  0  0  0  0  0  0  0  0  0  0
  1  2  1  0  0  0  0
  1 19  1  0  0  0  0
  1 20  1  0  0  0  0
  1 21  1  0  0  0  0
  2  7  1  0  0  0  0
  2  3  1  0  0  0  0
  2 22  1  0  0  0  0
  3  4  1  0  0  0  0
  3 23  1  0  0  0  0
  3 24  1  0  0  0  0
  4  5  1  0  0  0  0
  4 25  1  0  0  0  0
  4 26  1  0  0  0  0
  5  6  1  0  0  0  0
  5 27  1  0  0  0  0
  5 28  1  0  0  0  0
  6  7  1  0  0  0  0
  6 29  1  0  0  0  0
  6 30  1  0  0  0  0
  7  8  1  0  0  0  0
  7 31  1  0  0  0  0
  8  9  1  0  0  0  0
  9 10  1  0  0  0  0
  9 32  1  0  0  0  0
  9 33  1  0  0  0  0
 10 11  1  0  0  0  0
 10 34  1  0  0  0  0
 10 35  1  0  0  0  0
 11 12  1  0  0  0  0
 11 36  1  0  0  0  0
 11 44  1  0  0  0  0
 12 13  1  0  0  0  0
 12 37  1  0  0  0  0
 12 38  1  0  0  0  0
 13 14  1  0  0  0  0
 13 39  1  0  0  0  0
 13 40  1  0  0  0  0
 14 18  1  0  0  0  0
 14 15  1  0  0  0  0
 15 16  2  0  0  0  0
 15 41  1  0  0  0  0
 16 17  1  0  0  0  0
 16 42  1  0  0  0  0
 17 18  2  0  0  0  0
 17 43  1  0  0  0  0
M  CHG  1  11   1
M  END
> <s_m_source_file>
AV-unprocessed.smi

> <i_m_source_file_index>
3241

> <i_lp_mmshare_version>
43012

> <i_f3d_flags>
0

> <s_epik_input>
W0NIM11bQ0BASF0xW0NIMl1bQ0gyXVtDSDJdW0NIMl1bQ0BIXTFPW0NIMl1bQ0gyXVtOSF1bQ0gyXVtDSDJdbjJbY0hdW2NIXVtjSF1uMg==

> <s_epik_cmdline>
J2VwaWtfcHl0aG9uJywgJy1waCcsICc3LjAnLCAnLXRuJywgJzgnLCAnLW1hJywgJzIwMCcsICctbWV0YWxfYmluZGluZycsICctaW1hZScsICc8aW5maWxlLm1hZT4nLCAnLW9tYWUnLCAnPG91dGZpbGUubWFlPic=

> <r_lp_tautomer_probability>
1

> <r_epik_Ionization_Penalty>
0.00924946

> <r_epik_Ionization_Penalty_Charging>
0.00924645

> <r_epik_Ionization_Penalty_Neutral>
3.00629e-06

> <r_epik_State_Penalty>
0.0070118

> <r_epik_Charging_Adjusted_Penalty>
0.0162583

> <i_epik_Tot_Q>
1

> <i_epik_Tot_abs_Q>
1

> <r_epik_Metal_State_Penalty>
0.00702523

> <b_epik_Metal_Only>
0

> <s_lp_Force_Field>
OPLS_2005

> <r_lp_Energy>
14.6648

> <b_lp_Chiralities_Consistent>
1

> <s_lp_Variant>
AV-unprocessed.smi:3241-3

> <Gold.Version>
5.8.1

> <Gold.Id.Protein>
6NUR|6NUR_protein|mol2

> <Gold.PLP.Fitness>
43.2454

> <Gold.PLP.PLP>
-33.2622

> <Gold.PLP.part.hbond>
-1.7143

> <Gold.PLP.part.metal>
0.0000

> <Gold.PLP.part.buried>
3.1079

> <Gold.PLP.part.nonpolar>
-34.3039

> <Gold.PLP.part.repulsive>
0.4575

> <Gold.PLP.ligand.clash>
0.0000

> <Gold.PLP.ligand.torsion>
1.0206

> <Gold.PLP.Chemscore.Hbond>
2.0000

> <Gold.PLP.Chemscore.CHOScore>
1.9598

> <Gold.PLP.Chemscore.Metal>
0.0000

> <Gold.Chemscore.Hbonds>
donor molecule, donor type, donor heavy atom, donor atom, acceptor molecule, acceptor atom, score
      L1  H    11    44       P1  7948  1.50
      L1  C    15    41       P1  7921  0.38

> <Gold.PLP.Chemscore.Internal.Correction>
0.1449

> <Gold.Rescore>
     Score         DG    S(hbond)    S(metal)    S(lipo)     H(rot)  DE(clash)    DE(int)     intcor
     12.76     -15.08       1.13        0.00      91.14       1.89       1.21       1.11       ----

> <Gold.Chemscore.Fitness>
12.7552

> <Gold.Chemscore.DG>
-15.0753

> <Gold.Chemscore.ZeroCoef>
-5.4800

> <Gold.Chemscore.Hbond>
1.1292

> <Gold.Chemscore.Metal>
0.0000

> <Gold.Chemscore.Lipo>
91.1436

> <Gold.Chemscore.Internal_Hbond>
0.0000

> <Gold.Chemscore.DEClash>
1.2075

> <Gold.Chemscore.DEInternal>
1.1126

> <Gold.Chemscore.Rot>
1.8906

> <Gold.Chemscore.Internal.Correction>
   9.000000E+99

> <Gold.Chemscore.Hbonds>
donor molecule, donor type, donor heavy atom, donor atom, acceptor molecule, acceptor atom, score
      L1  H    11    44       P1  7948  0.75

> <Gold.Chemscore.Hbond.Weighted>
-3.7715

> <Gold.Chemscore.Metal.Weighted>
-0.0000

> <Gold.Chemscore.Lipo.Weighted>
-10.6638

> <Gold.Chemscore.Internal_Hbond.Weighted>
0.0000

> <Gold.Chemscore.DEClash.Weighted>
1.2075

> <Gold.Chemscore.DEInternal.Weighted>
1.1126

> <Gold.Chemscore.Rot.Weighted>
4.8400

> <Gold.Chemscore.Internal.Correction.Weighted>
   9.000000E+99

> <Gold.Protein.RotatedTorsions>
[ 6907 6896 6895 6894 ] final -118.61 input  -60.11 | X-H torsion
[ 7974 7965 7964 7962 ] final  104.98 input  175.53 | X-H torsion
[ 8008 7997 7996 7995 ] final  -92.78 input   59.86 | X-H torsion
[ 10167 10162 10161 10158 ] final   59.72 input  -65.29 | X-H torsion
[ 10718 10713 10712 10709 ] final  111.34 input   66.30 | X-H torsion
[ 10763 10752 10751 10750 ] final  143.33 input  -60.55 | X-H torsion
[ 11005 11000 10999 10996 ] final  -77.29 input  -57.11 | X-H torsion

> <Gold.Protein.ActiveResidues>
 VAL166  LYS551  ARG553  GLY616  TRP617  ASP618  TYR619  PRO620  LYS621  CYS622 
 ASP623  PHE694  ASN695  SER759  ASP760  ASP761  ALA762  ILE779  LEU786  VAL792 
 PHE793  MET794  SER795  GLU796  ALA797  LYS798  CYS799  TRP800  GLU811  SER814 

> <Gold.Protein.RotatedAtoms>
  150.8234  133.8213  159.3128 H   0  0  0  0  0  0  0  0  0  0  0  0  # atno 6907 bound_to 6896
  151.5964  135.1048  160.0060 H   0  0  0  0  0  0  0  0  0  0  0  0  # atno 6908 bound_to 6896
  152.4322  133.7256  159.6614 H   0  0  0  0  0  0  0  0  0  0  0  0  # atno 6909 bound_to 6896
  145.3257  139.2500  143.3688 H   0  0  0  0  0  0  0  0  0  0  0  0  # atno 7974 bound_to 7965
  154.7274  140.0505  157.0695 H   0  0  0  0  0  0  0  0  0  0  0  0  # atno 8008 bound_to 7997
  155.0346  140.3162  155.4727 H   0  0  0  0  0  0  0  0  0  0  0  0  # atno 8009 bound_to 7997
  156.2832  140.2143  156.5469 H   0  0  0  0  0  0  0  0  0  0  0  0  # atno 8010 bound_to 7997
  140.1733  144.4255  150.6650 H   0  0  0  0  0  0  0  0  0  0  0  0  # atno 10167 bound_to 10162
  157.6449  131.0949  150.6735 H   0  0  0  0  0  0  0  0  0  0  0  0  # atno 10718 bound_to 10713
  153.9705  135.2951  155.3427 H   0  0  0  0  0  0  0  0  0  0  0  0  # atno 10763 bound_to 10752
  154.7325  135.5061  153.8990 H   0  0  0  0  0  0  0  0  0  0  0  0  # atno 10764 bound_to 10752
  153.0902  135.6705  153.9981 H   0  0  0  0  0  0  0  0  0  0  0  0  # atno 10765 bound_to 10752
  141.1659  133.7016  156.7798 H   0  0  0  0  0  0  0  0  0  0  0  0  # atno 11005 bound_to 11000
  146.3065  140.3824  142.8685 LP  0  0  0  0  0  0  0  0  0  0  0  0  # atno 17320 bound_to 7965
  144.8904  140.7516  143.5930 LP  0  0  0  0  0  0  0  0  0  0  0  0  # atno 17321 bound_to 7965
  140.6568  143.2240  151.5951 LP  0  0  0  0  0  0  0  0  0  0  0  0  # atno 17342 bound_to 10162
  139.5328  144.2867  152.1186 LP  0  0  0  0  0  0  0  0  0  0  0  0  # atno 17343 bound_to 10162
  156.7053  130.4635  149.5561 LP  0  0  0  0  0  0  0  0  0  0  0  0  # atno 17370 bound_to 10713
  156.1767  130.6472  151.0902 LP  0  0  0  0  0  0  0  0  0  0  0  0  # atno 17371 bound_to 10713
  140.2403  134.8619  157.3566 LP  0  0  0  0  0  0  0  0  0  0  0  0  # atno 17394 bound_to 11000
  140.1803  134.4498  155.7776 LP  0  0  0  0  0  0  0  0  0  0  0  0  # atno 17395 bound_to 11000

$$$$
