AV-unprocessed.smi:3263|AV-procd|sdf|12490|dock10
  -GOLD-   2272018393D 1   1.00000     0.00000
 Structure written by MMmdl.
 42 44  0  0  0  0  0  0  0  0  2 V2000
  142.0472  136.3378  154.2852 O   0  0  0  0  0  0  0  0  0  0  0  0
  142.3103  137.3531  153.6402 C   0  0  0  0  0  0  0  0  0  0  0  0
  141.4854  138.6276  153.8368 C   0  0  0  0  0  0  0  0  0  0  0  0
  139.9630  138.3770  153.7525 C   0  0  2  0  0  0  0  0  0  0  0  0
  139.1028  139.6330  154.0095 C   0  0  0  0  0  0  0  0  0  0  0  0
  138.0847  139.1458  155.0583 C   0  0  2  0  0  0  0  0  0  0  0  0
  138.7919  139.0011  156.4183 C   0  0  0  0  0  0  0  0  0  0  0  0
  139.6609  137.7466  156.2151 C   0  0  0  0  0  0  0  0  0  0  0  0
  139.3619  137.3565  154.7528 C   0  0  1  0  0  0  0  0  0  0  0  0
  137.8770  137.6900  154.6558 C   0  0  0  0  0  0  0  0  0  0  0  0
  143.3188  137.4238  152.7580 N   0  0  0  0  0  0  0  0  0  0  0  0
  144.2608  136.3461  152.4839 C   0  0  0  0  0  0  0  0  0  0  0  0
  144.1710  135.8854  151.0191 C   0  0  0  0  0  0  0  0  0  0  0  0
  144.3889  134.3927  150.8725 C   0  0  0  0  0  0  0  0  0  0  0  0
  145.6219  133.7773  151.1799 C   0  0  0  0  0  0  0  0  0  0  0  0
  145.7543  132.3825  151.0166 C   0  0  0  0  0  0  0  0  0  0  0  0
  144.6535  131.6341  150.5498 C   0  0  0  0  0  0  0  0  0  0  0  0
  143.4461  132.3005  150.2572 C   0  0  0  0  0  0  0  0  0  0  0  0
  143.3583  133.6380  150.4267 N   0  3  0  0  0  0  0  0  0  0  0  0
  141.7442  139.0946  154.7879 H   0  0  0  0  0  0  0  0  0  0  0  0
  141.7774  139.3414  153.0659 H   0  0  0  0  0  0  0  0  0  0  0  0
  139.7404  138.0229  152.7439 H   0  0  0  0  0  0  0  0  0  0  0  0
  139.6842  140.4814  154.3730 H   0  0  0  0  0  0  0  0  0  0  0  0
  138.6012  139.9465  153.0931 H   0  0  0  0  0  0  0  0  0  0  0  0
  137.1771  139.7486  155.0998 H   0  0  0  0  0  0  0  0  0  0  0  0
  139.3839  139.8809  156.6728 H   0  0  0  0  0  0  0  0  0  0  0  0
  138.0689  138.8412  157.2191 H   0  0  0  0  0  0  0  0  0  0  0  0
  140.7176  137.9285  156.4075 H   0  0  0  0  0  0  0  0  0  0  0  0
  139.3417  136.9534  156.8926 H   0  0  0  0  0  0  0  0  0  0  0  0
  139.6059  136.3193  154.5202 H   0  0  0  0  0  0  0  0  0  0  0  0
  137.2592  137.1299  155.3600 H   0  0  0  0  0  0  0  0  0  0  0  0
  137.4691  137.5721  153.6502 H   0  0  0  0  0  0  0  0  0  0  0  0
  143.4601  138.2945  152.2661 H   0  0  0  0  0  0  0  0  0  0  0  0
  145.2748  136.6695  152.7259 H   0  0  0  0  0  0  0  0  0  0  0  0
  144.0324  135.5140  153.1506 H   0  0  0  0  0  0  0  0  0  0  0  0
  143.1967  136.1487  150.6050 H   0  0  0  0  0  0  0  0  0  0  0  0
  144.9123  136.4045  150.4098 H   0  0  0  0  0  0  0  0  0  0  0  0
  146.4564  134.3640  151.5357 H   0  0  0  0  0  0  0  0  0  0  0  0
  146.6891  131.8925  151.2467 H   0  0  0  0  0  0  0  0  0  0  0  0
  144.7343  130.5650  150.4182 H   0  0  0  0  0  0  0  0  0  0  0  0
  142.5549  131.8086  149.8956 H   0  0  0  0  0  0  0  0  0  0  0  0
  142.4750  134.1001  150.2085 H   0  0  0  0  0  0  0  0  0  0  0  0
  1  2  2  0  0  0  0
  2  3  1  0  0  0  0
  2 11  1  0  0  0  0
  3  4  1  0  0  0  0
  3 20  1  0  0  0  0
  3 21  1  0  0  0  0
  4  9  1  0  0  0  0
  4  5  1  0  0  0  0
  4 22  1  0  0  0  0
  5  6  1  0  0  0  0
  5 23  1  0  0  0  0
  5 24  1  0  0  0  0
  6 10  1  0  0  0  0
  6  7  1  0  0  0  0
  6 25  1  0  0  0  0
  7  8  1  0  0  0  0
  7 26  1  0  0  0  0
  7 27  1  0  0  0  0
  8  9  1  0  0  0  0
  8 28  1  0  0  0  0
  8 29  1  0  0  0  0
  9 10  1  0  0  0  0
  9 30  1  0  0  0  0
 10 31  1  0  0  0  0
 10 32  1  0  0  0  0
 11 12  1  0  0  0  0
 11 33  1  0  0  0  0
 12 13  1  0  0  0  0
 12 34  1  0  0  0  0
 12 35  1  0  0  0  0
 13 14  1  0  0  0  0
 13 36  1  0  0  0  0
 13 37  1  0  0  0  0
 14 19  1  0  0  0  0
 14 15  2  0  0  0  0
 15 16  1  0  0  0  0
 15 38  1  0  0  0  0
 16 17  2  0  0  0  0
 16 39  1  0  0  0  0
 17 18  1  0  0  0  0
 17 40  1  0  0  0  0
 18 19  2  0  0  0  0
 18 41  1  0  0  0  0
 19 42  1  0  0  0  0
M  CHG  1  19   1
M  END
> <s_m_source_file>
AV-unprocessed.smi

> <i_m_source_file_index>
3263

> <i_lp_mmshare_version>
43012

> <i_f3d_flags>
0

> <s_epik_input>
W0NIMl0xW0NIMl1bQ0BASF0oW0NIMl0yKVtDQEBIXShbQ0gyXVtDQEhdMTIpW0NIMl1DKD1PKVtOSF1bQ0gyXVtDSDJdYzNbY0hdW2NIXVtjSF1bY0hdbjM=

> <s_epik_cmdline>
J2VwaWtfcHl0aG9uJywgJy1waCcsICc3LjAnLCAnLXRuJywgJzgnLCAnLW1hJywgJzIwMCcsICctbWV0YWxfYmluZGluZycsICctaW1hZScsICc8aW5maWxlLm1hZT4nLCAnLW9tYWUnLCAnPG91dGZpbGUubWFlPic=

> <r_epik_Ionization_Penalty>
1.83579

> <r_epik_Ionization_Penalty_Charging>
1.83579

> <r_epik_Ionization_Penalty_Neutral>
2.47288e-08

> <r_epik_State_Penalty>
1.95213

> <r_epik_Charging_Adjusted_Penalty>
3.78793

> <i_epik_Tot_Q>
1

> <i_epik_Tot_abs_Q>
1

> <r_epik_Metal_State_Penalty>
1.97847

> <b_epik_Metal_Only>
0

> <s_lp_Force_Field>
OPLS_2005

> <r_lp_Energy>
51.925

> <b_lp_Chiralities_Consistent>
1

> <s_lp_Variant>
AV-unprocessed.smi:3263-5

> <Gold.Version>
5.8.1

> <Gold.Id.Protein>
6NUR|6NUR_protein|mol2

> <Gold.PLP.Fitness>
46.3416

> <Gold.PLP.PLP>
-38.1112

> <Gold.PLP.part.hbond>
-3.0829

> <Gold.PLP.part.metal>
0.0000

> <Gold.PLP.part.buried>
-1.0536

> <Gold.PLP.part.nonpolar>
-33.6832

> <Gold.PLP.part.repulsive>
0.1683

> <Gold.PLP.ligand.clash>
0.0000

> <Gold.PLP.ligand.torsion>
0.3703

> <Gold.PLP.Chemscore.Hbond>
2.9833

> <Gold.PLP.Chemscore.CHOScore>
0.0000

> <Gold.PLP.Chemscore.Metal>
0.0000

> <Gold.Chemscore.Hbonds>
donor molecule, donor type, donor heavy atom, donor atom, acceptor molecule, acceptor atom, score
      L1  H    11    33       P1 10175  0.64
      L1  H    19    42       P1 10186  2.00

> <Gold.PLP.Chemscore.Internal.Correction>
0.0210

> <Gold.Rescore>
     Score         DG    S(hbond)    S(metal)    S(lipo)     H(rot)  DE(clash)    DE(int)     intcor
     17.81     -18.60       1.72        0.00      97.14       1.56       0.10       0.69       ----

> <Gold.Chemscore.Fitness>
17.8110

> <Gold.Chemscore.DG>
-18.6013

> <Gold.Chemscore.ZeroCoef>
-5.4800

> <Gold.Chemscore.Hbond>
1.7243

> <Gold.Chemscore.Metal>
0.0000

> <Gold.Chemscore.Lipo>
97.1449

> <Gold.Chemscore.Internal_Hbond>
0.0000

> <Gold.Chemscore.DEClash>
0.1027

> <Gold.Chemscore.DEInternal>
0.6876

> <Gold.Chemscore.Rot>
1.5640

> <Gold.Chemscore.Internal.Correction>
   9.000000E+99

> <Gold.Chemscore.Hbonds>
donor molecule, donor type, donor heavy atom, donor atom, acceptor molecule, acceptor atom, score
      L1  H    11    33       P1 10175  0.63
      L1  H    19    42       P1 10186  0.94

> <Gold.Chemscore.Hbond.Weighted>
-5.7592

> <Gold.Chemscore.Metal.Weighted>
-0.0000

> <Gold.Chemscore.Lipo.Weighted>
-11.3660

> <Gold.Chemscore.Internal_Hbond.Weighted>
0.0000

> <Gold.Chemscore.DEClash.Weighted>
0.1027

> <Gold.Chemscore.DEInternal.Weighted>
0.6876

> <Gold.Chemscore.Rot.Weighted>
4.0038

> <Gold.Chemscore.Internal.Correction.Weighted>
   9.000000E+99

> <Gold.Protein.RotatedTorsions>
[ 6907 6896 6895 6894 ] final  100.97 input  -60.11 | X-H torsion
[ 7974 7965 7964 7962 ] final   99.00 input  175.53 | X-H torsion
[ 8008 7997 7996 7995 ] final  -13.83 input   59.86 | X-H torsion
[ 10167 10162 10161 10158 ] final  161.49 input  -65.29 | X-H torsion
[ 10718 10713 10712 10709 ] final  111.33 input   66.30 | X-H torsion
[ 10763 10752 10751 10750 ] final -152.36 input  -60.55 | X-H torsion
[ 11005 11000 10999 10996 ] final   83.31 input  -57.11 | X-H torsion

> <Gold.Protein.ActiveResidues>
 VAL166  LYS551  ARG553  GLY616  TRP617  ASP618  TYR619  PRO620  LYS621  CYS622 
 ASP623  PHE694  ASN695  SER759  ASP760  ASP761  ALA762  ILE779  LEU786  VAL792 
 PHE793  MET794  SER795  GLU796  ALA797  LYS798  CYS799  TRP800  GLU811  SER814 

> <Gold.Protein.RotatedAtoms>
  152.5360  134.0196  159.7975 H   0  0  0  0  0  0  0  0  0  0  0  0  # atno 6907 bound_to 6896
  151.0384  133.5720  159.2660 H   0  0  0  0  0  0  0  0  0  0  0  0  # atno 6908 bound_to 6896
  151.2698  135.0688  159.9183 H   0  0  0  0  0  0  0  0  0  0  0  0  # atno 6909 bound_to 6896
  145.4046  139.2342  143.3281 H   0  0  0  0  0  0  0  0  0  0  0  0  # atno 7974 bound_to 7965
  154.5260  140.2239  155.8890 H   0  0  0  0  0  0  0  0  0  0  0  0  # atno 8008 bound_to 7997
  156.1713  140.3121  155.8943 H   0  0  0  0  0  0  0  0  0  0  0  0  # atno 8009 bound_to 7997
  155.3551  140.0458  157.3037 H   0  0  0  0  0  0  0  0  0  0  0  0  # atno 8010 bound_to 7997
  139.4850  144.4531  151.8803 H   0  0  0  0  0  0  0  0  0  0  0  0  # atno 10167 bound_to 10162
  157.6450  131.0949  150.6733 H   0  0  0  0  0  0  0  0  0  0  0  0  # atno 10718 bound_to 10713
  154.7999  135.3238  154.7576 H   0  0  0  0  0  0  0  0  0  0  0  0  # atno 10763 bound_to 10752
  153.8246  135.6884  153.4827 H   0  0  0  0  0  0  0  0  0  0  0  0  # atno 10764 bound_to 10752
  153.1710  135.4623  154.9845 H   0  0  0  0  0  0  0  0  0  0  0  0  # atno 10765 bound_to 10752
  139.9035  134.8136  156.2293 H   0  0  0  0  0  0  0  0  0  0  0  0  # atno 11005 bound_to 11000
  146.2735  140.4749  142.8805 LP  0  0  0  0  0  0  0  0  0  0  0  0  # atno 17320 bound_to 7965
  144.8350  140.6768  143.6266 LP  0  0  0  0  0  0  0  0  0  0  0  0  # atno 17321 bound_to 7965
  140.3989  144.2519  150.5894 LP  0  0  0  0  0  0  0  0  0  0  0  0  # atno 17342 bound_to 10162
  140.5076  143.2300  151.8585 LP  0  0  0  0  0  0  0  0  0  0  0  0  # atno 17343 bound_to 10162
  156.7052  130.4635  149.5562 LP  0  0  0  0  0  0  0  0  0  0  0  0  # atno 17370 bound_to 10713
  156.1768  130.6473  151.0904 LP  0  0  0  0  0  0  0  0  0  0  0  0  # atno 17371 bound_to 10713
  141.0356  133.6965  156.1506 LP  0  0  0  0  0  0  0  0  0  0  0  0  # atno 17394 bound_to 11000
  140.7032  134.4541  157.5585 LP  0  0  0  0  0  0  0  0  0  0  0  0  # atno 17395 bound_to 11000

$$$$
