AV-unprocessed.smi:236|AV-procd|sdf|1816|dock8
  -GOLD-   2262020403D 1   1.00000     0.00000
 Structure written by MMmdl.
 58 62  0  0  0  0  0  0  0  0  1 V2000
  146.7480  133.9104  153.0927 C   0  0  0  0  0  0  0  0  0  0  0  0
  145.6553  134.3566  152.1102 C   0  0  1  0  0  0  0  0  0  0  0  0
  144.4546  133.6181  152.3203 O   0  0  0  0  0  0  0  0  0  0  0  0
  143.3206  134.4350  152.0430 C   0  0  0  0  0  0  0  0  0  0  0  0
  143.8778  135.7415  151.4847 C   0  0  0  0  0  0  0  0  0  0  0  0
  145.2405  135.8394  152.1594 C   0  0  2  0  0  0  0  0  0  0  0  0
  146.0980  136.6170  151.3455 O   0  0  0  0  0  0  0  0  0  0  0  0
  145.1906  136.4379  153.5927 C   0  0  0  0  0  0  0  0  0  0  0  0
  146.4636  136.9675  154.0560 N   0  0  0  0  0  0  0  0  0  0  0  0
  147.4201  136.2980  154.7854 C   0  0  0  0  0  0  0  0  0  0  0  0
  148.4787  136.9980  155.0894 N   0  0  0  0  0  0  0  0  0  0  0  0
  148.2463  138.2390  154.5072 C   0  0  0  0  0  0  0  0  0  0  0  0
  148.9763  139.4608  154.4483 C   0  0  0  0  0  0  0  0  0  0  0  0
  150.1949  139.6204  155.0262 N   0  0  0  0  0  0  0  0  0  0  0  0
  151.2344  138.6426  154.7128 C   0  0  0  0  0  0  0  0  0  0  0  0
  152.5956  139.1327  155.2297 C   0  0  0  0  0  0  0  0  0  0  0  0
  152.4980  139.4152  156.6213 O   0  0  0  0  0  0  0  0  0  0  0  0
  151.5648  140.4574  156.8962 C   0  0  2  0  0  0  0  0  0  0  0  0
  151.6017  140.7512  158.4010 C   0  0  0  0  0  0  0  0  0  0  0  0
  152.4588  141.8568  158.6334 O   0  0  0  0  0  0  0  0  0  0  0  0
  152.1528  142.5440  159.8339 C   0  0  0  0  0  0  0  0  0  0  0  0
  152.5523  143.9965  159.6854 C   0  0  0  0  0  0  0  0  0  0  0  0
  151.5159  145.0468  159.3561 C   0  0  0  0  0  0  0  0  0  0  0  0
  152.5495  144.6622  158.3280 C   0  0  0  0  0  0  0  0  0  0  0  0
  150.1675  139.9970  156.4365 C   0  0  0  0  0  0  0  0  0  0  0  0
  148.4014  140.4978  153.7809 N   0  0  0  0  0  0  0  0  0  0  0  0
  147.2063  140.3515  153.2016 C   0  0  0  0  0  0  0  0  0  0  0  0
  146.4199  139.2746  153.1722 N   0  0  0  0  0  0  0  0  0  0  0  0
  146.9825  138.2341  153.8507 C   0  0  0  0  0  0  0  0  0  0  0  0
  147.6573  134.4970  152.9597 H   0  0  0  0  0  0  0  0  0  0  0  0
  147.0036  132.8629  152.9328 H   0  0  0  0  0  0  0  0  0  0  0  0
  146.4262  134.0120  154.1292 H   0  0  0  0  0  0  0  0  0  0  0  0
  145.9831  134.1175  151.0966 H   0  0  0  0  0  0  0  0  0  0  0  0
  142.6393  133.9461  151.3463 H   0  0  0  0  0  0  0  0  0  0  0  0
  142.7821  134.6129  152.9744 H   0  0  0  0  0  0  0  0  0  0  0  0
  143.9991  135.6373  150.4050 H   0  0  0  0  0  0  0  0  0  0  0  0
  143.2219  136.5948  151.6509 H   0  0  0  0  0  0  0  0  0  0  0  0
  146.9915  136.4483  151.6029 H   0  0  0  0  0  0  0  0  0  0  0  0
  144.4528  137.2395  153.6451 H   0  0  0  0  0  0  0  0  0  0  0  0
  144.8664  135.6819  154.3088 H   0  0  0  0  0  0  0  0  0  0  0  0
  147.3012  135.2707  155.0981 H   0  0  0  0  0  0  0  0  0  0  0  0
  150.9861  137.6855  155.1740 H   0  0  0  0  0  0  0  0  0  0  0  0
  151.2887  138.4826  153.6351 H   0  0  0  0  0  0  0  0  0  0  0  0
  153.3547  138.3662  155.0739 H   0  0  0  0  0  0  0  0  0  0  0  0
  152.9232  140.0211  154.6874 H   0  0  0  0  0  0  0  0  0  0  0  0
  151.8472  141.3605  156.3515 H   0  0  0  0  0  0  0  0  0  0  0  0
  150.5986  140.9959  158.7547 H   0  0  0  0  0  0  0  0  0  0  0  0
  151.9402  139.8735  158.9542 H   0  0  0  0  0  0  0  0  0  0  0  0
  151.0863  142.4724  160.0534 H   0  0  0  0  0  0  0  0  0  0  0  0
  152.6996  142.1115  160.6730 H   0  0  0  0  0  0  0  0  0  0  0  0
  153.3418  144.3062  160.3677 H   0  0  0  0  0  0  0  0  0  0  0  0
  150.4932  144.7167  159.1850 H   0  0  0  0  0  0  0  0  0  0  0  0
  151.6180  146.0195  159.8333 H   0  0  0  0  0  0  0  0  0  0  0  0
  153.3423  145.3776  158.1187 H   0  0  0  0  0  0  0  0  0  0  0  0
  152.2163  144.0733  157.4757 H   0  0  0  0  0  0  0  0  0  0  0  0
  149.4472  140.7927  156.6216 H   0  0  0  0  0  0  0  0  0  0  0  0
  149.8442  139.1360  157.0234 H   0  0  0  0  0  0  0  0  0  0  0  0
  146.8258  141.2231  152.6897 H   0  0  0  0  0  0  0  0  0  0  0  0
  1  2  1  0  0  0  0
  1 30  1  0  0  0  0
  1 31  1  0  0  0  0
  1 32  1  0  0  0  0
  2  6  1  0  0  0  0
  2  3  1  0  0  0  0
  2 33  1  0  0  0  0
  3  4  1  0  0  0  0
  4  5  1  0  0  0  0
  4 34  1  0  0  0  0
  4 35  1  0  0  0  0
  5  6  1  0  0  0  0
  5 36  1  0  0  0  0
  5 37  1  0  0  0  0
  6  7  1  0  0  0  0
  6  8  1  0  0  0  0
  7 38  1  0  0  0  0
  8  9  1  0  0  0  0
  8 39  1  0  0  0  0
  8 40  1  0  0  0  0
  9 29  1  0  0  0  0
  9 10  1  0  0  0  0
 10 11  2  0  0  0  0
 10 41  1  0  0  0  0
 11 12  1  0  0  0  0
 12 29  2  0  0  0  0
 12 13  1  0  0  0  0
 13 14  1  0  0  0  0
 13 26  2  0  0  0  0
 14 25  1  0  0  0  0
 14 15  1  0  0  0  0
 15 16  1  0  0  0  0
 15 42  1  0  0  0  0
 15 43  1  0  0  0  0
 16 17  1  0  0  0  0
 16 44  1  0  0  0  0
 16 45  1  0  0  0  0
 17 18  1  0  0  0  0
 18 19  1  0  0  0  0
 18 25  1  0  0  0  0
 18 46  1  0  0  0  0
 19 20  1  0  0  0  0
 19 47  1  0  0  0  0
 19 48  1  0  0  0  0
 20 21  1  0  0  0  0
 21 22  1  0  0  0  0
 21 49  1  0  0  0  0
 21 50  1  0  0  0  0
 22 24  1  0  0  0  0
 22 23  1  0  0  0  0
 22 51  1  0  0  0  0
 23 24  1  0  0  0  0
 23 52  1  0  0  0  0
 23 53  1  0  0  0  0
 24 54  1  0  0  0  0
 24 55  1  0  0  0  0
 25 56  1  0  0  0  0
 25 57  1  0  0  0  0
 26 27  1  0  0  0  0
 27 28  2  0  0  0  0
 27 58  1  0  0  0  0
 28 29  1  0  0  0  0
M  END
> <s_m_source_file>
AV-unprocessed.smi

> <i_m_source_file_index>
236

> <i_lp_mmshare_version>
43012

> <i_f3d_flags>
0

> <s_epik_input>
W0NIMl0xW0NIMl1PW0NAQEhdKFtDSDNdKVtDQEBdMShbT0hdKVtDSDJdbihbY0hdbjIpYyhjMjMpbltjSF1uYzNONFtDSDJdW0NIMl1PW0NASF0oW0NIMl00KVtDSDJdT1tDSDJdW0NIXTVbQ0gyXVtDSDJdNQ==

> <s_epik_cmdline>
J2VwaWtfcHl0aG9uJywgJy1waCcsICc3LjAnLCAnLXRuJywgJzgnLCAnLW1hJywgJzIwMCcsICctbWV0YWxfYmluZGluZycsICctaW1hZScsICc8aW5maWxlLm1hZT4nLCAnLW9tYWUnLCAnPG91dGZpbGUubWFlPic=

> <r_lp_tautomer_probability>
1

> <r_epik_Ionization_Penalty>
7.21838e-05

> <r_epik_Ionization_Penalty_Charging>
0

> <r_epik_Ionization_Penalty_Neutral>
7.21838e-05

> <r_epik_State_Penalty>
-0

> <r_epik_Charging_Adjusted_Penalty>
0

> <i_epik_Tot_Q>
0

> <i_epik_Tot_abs_Q>
0

> <r_epik_Metal_State_Penalty>
-0

> <b_epik_Metal_Only>
0

> <s_lp_Force_Field>
OPLS_2005

> <r_lp_Energy>
48.2383

> <b_lp_Chiralities_Consistent>
1

> <s_lp_Variant>
AV-unprocessed.smi:236-8

> <Gold.Version>
5.8.1

> <Gold.Id.Protein>
6NUR|6NUR_protein|mol2

> <Gold.PLP.Fitness>
48.2199

> <Gold.PLP.PLP>
-46.3422

> <Gold.PLP.part.hbond>
-2.2936

> <Gold.PLP.part.metal>
0.0000

> <Gold.PLP.part.buried>
-6.2364

> <Gold.PLP.part.nonpolar>
-40.0936

> <Gold.PLP.part.repulsive>
2.5158

> <Gold.PLP.ligand.clash>
0.0000

> <Gold.PLP.ligand.torsion>
2.4435

> <Gold.PLP.Chemscore.Hbond>
1.9272

> <Gold.PLP.Chemscore.CHOScore>
0.0000

> <Gold.PLP.Chemscore.Metal>
0.0000

> <Gold.Chemscore.Hbonds>
donor molecule, donor type, donor heavy atom, donor atom, acceptor molecule, acceptor atom, score
      L1  H     7    38       P1  7948  1.00
      P1  H  7997  8010       L1    17  0.68

> <Gold.PLP.Chemscore.Internal.Correction>
0.9831

> <Gold.Rescore>
     Score         DG    S(hbond)    S(metal)    S(lipo)     H(rot)  DE(clash)    DE(int)     intcor
     11.41     -15.07       1.20        0.00     110.39       2.87       0.47       3.18       ----

> <Gold.Chemscore.Fitness>
11.4137

> <Gold.Chemscore.DG>
-15.0676

> <Gold.Chemscore.ZeroCoef>
-5.4800

> <Gold.Chemscore.Hbond>
1.2000

> <Gold.Chemscore.Metal>
0.0000

> <Gold.Chemscore.Lipo>
110.3882

> <Gold.Chemscore.Internal_Hbond>
0.0000

> <Gold.Chemscore.DEClash>
0.4693

> <Gold.Chemscore.DEInternal>
3.1846

> <Gold.Chemscore.Rot>
2.8655

> <Gold.Chemscore.Internal.Correction>
   9.000000E+99

> <Gold.Chemscore.Hbonds>
donor molecule, donor type, donor heavy atom, donor atom, acceptor molecule, acceptor atom, score
      L1  H     7    38       P1  7948  0.99
      P1  H  7997  8010       L1    17  0.05

> <Gold.Chemscore.Hbond.Weighted>
-4.0080

> <Gold.Chemscore.Metal.Weighted>
-0.0000

> <Gold.Chemscore.Lipo.Weighted>
-12.9154

> <Gold.Chemscore.Internal_Hbond.Weighted>
0.0000

> <Gold.Chemscore.DEClash.Weighted>
0.4693

> <Gold.Chemscore.DEInternal.Weighted>
3.1846

> <Gold.Chemscore.Rot.Weighted>
7.3358

> <Gold.Chemscore.Internal.Correction.Weighted>
   9.000000E+99

> <Gold.Protein.RotatedTorsions>
[ 6907 6896 6895 6894 ] final  162.52 input  -60.11 | X-H torsion
[ 7974 7965 7964 7962 ] final  -83.03 input  175.53 | X-H torsion
[ 8008 7997 7996 7995 ] final   50.65 input   59.86 | X-H torsion
[ 10167 10162 10161 10158 ] final -117.78 input  -65.29 | X-H torsion
[ 10718 10713 10712 10709 ] final  -21.78 input   66.30 | X-H torsion
[ 10763 10752 10751 10750 ] final  106.57 input  -60.55 | X-H torsion
[ 11005 11000 10999 10996 ] final  -65.17 input  -57.11 | X-H torsion

> <Gold.Protein.ActiveResidues>
 VAL166  LYS551  ARG553  GLY616  TRP617  ASP618  TYR619  PRO620  LYS621  CYS622 
 ASP623  PHE694  ASN695  SER759  ASP760  ASP761  ALA762  ILE779  LEU786  VAL792 
 PHE793  MET794  SER795  GLU796  ALA797  LYS798  CYS799  TRP800  GLU811  SER814 

> <Gold.Protein.RotatedAtoms>
  151.9393  133.3633  159.3958 H   0  0  0  0  0  0  0  0  0  0  0  0  # atno 6907 bound_to 6896
  150.7001  134.4456  159.5322 H   0  0  0  0  0  0  0  0  0  0  0  0  # atno 6908 bound_to 6896
  152.2110  134.8501  160.0548 H   0  0  0  0  0  0  0  0  0  0  0  0  # atno 6909 bound_to 6896
  145.5255  140.9527  143.1632 H   0  0  0  0  0  0  0  0  0  0  0  0  # atno 7974 bound_to 7965
  155.4223  140.3447  155.4272 H   0  0  0  0  0  0  0  0  0  0  0  0  # atno 8008 bound_to 7997
  156.1386  140.1535  156.8988 H   0  0  0  0  0  0  0  0  0  0  0  0  # atno 8009 bound_to 7997
  154.4952  140.0830  156.7661 H   0  0  0  0  0  0  0  0  0  0  0  0  # atno 8010 bound_to 7997
  140.0646  143.4935  152.2013 H   0  0  0  0  0  0  0  0  0  0  0  0  # atno 10167 bound_to 10162
  156.5135  130.4615  149.6635 H   0  0  0  0  0  0  0  0  0  0  0  0  # atno 10718 bound_to 10713
  153.3948  135.3872  155.1948 H   0  0  0  0  0  0  0  0  0  0  0  0  # atno 10763 bound_to 10752
  154.8723  135.3757  154.4692 H   0  0  0  0  0  0  0  0  0  0  0  0  # atno 10764 bound_to 10752
  153.5183  135.7087  153.5806 H   0  0  0  0  0  0  0  0  0  0  0  0  # atno 10765 bound_to 10752
  141.1446  133.6677  156.5945 H   0  0  0  0  0  0  0  0  0  0  0  0  # atno 11005 bound_to 11000
  144.7653  139.6859  143.7217 LP  0  0  0  0  0  0  0  0  0  0  0  0  # atno 17320 bound_to 7965
  146.2078  139.5414  142.9701 LP  0  0  0  0  0  0  0  0  0  0  0  0  # atno 17321 bound_to 7965
  139.5873  144.7536  151.3489 LP  0  0  0  0  0  0  0  0  0  0  0  0  # atno 17342 bound_to 10162
  140.7155  143.7277  150.7647 LP  0  0  0  0  0  0  0  0  0  0  0  0  # atno 17343 bound_to 10162
  156.3218  130.7284  151.2197 LP  0  0  0  0  0  0  0  0  0  0  0  0  # atno 17370 bound_to 10713
  157.7447  131.0454  150.4839 LP  0  0  0  0  0  0  0  0  0  0  0  0  # atno 17371 bound_to 10713
  140.3737  134.7584  157.4615 LP  0  0  0  0  0  0  0  0  0  0  0  0  # atno 17394 bound_to 11000
  140.0691  134.5888  155.8662 LP  0  0  0  0  0  0  0  0  0  0  0  0  # atno 17395 bound_to 11000

$$$$
