#       Name:                AV-unprocessed.smi:1390
#       Creating user name   scv26
#       Creation time:       Fri Mar 27 05:28:22 2020


#       File generated by GOLD software.
#

@<TRIPOS>MOLECULE
AV-unprocessed.smi:1390
    52    53     1
SMALL
NO_CHARGES


@<TRIPOS>ATOM
      1 ****        -4.3962   4.0667  -2.1496 C.3            1 S1                 0.0000
      2 ****        -3.6497   3.6999  -0.8629 C.3            1 S1                 0.0000
      3 ****        -2.9612   2.3260  -0.9672 C.3            1 S1                 0.0000
      4 ****        -2.1710   2.0535   0.2325 N.3            1 S1                 0.0000
      5 ****        -1.6848   0.7402   0.4190 C.ar           1 S1                 0.0000
      6 ****        -1.0891   0.3658   1.6480 C.ar           1 S1                 0.0000
      7 ****        -0.6059  -0.9473   1.8065 C.ar           1 S1                 0.0000
      8 ****        -0.7356  -1.8551   0.7377 C.ar           1 S1                 0.0000
      9 ****        -0.2192  -3.2753   0.8535 C.3            1 S1                 0.0000
     10 ****         1.2341  -3.3224   0.7702 N.am           1 S1                 0.0000
     11 ****         1.9496  -4.3651   0.3221 C.2            1 S1                 0.0000
     12 ****         1.4466  -5.4304  -0.0339 O.2            1 S1                 0.0000
     13 ****         3.4673  -4.1880   0.2818 C.3            1 S1                 0.0000
     14 ****         3.7741  -2.8702  -0.1483 O.3            1 S1                 0.0000
     15 ****         5.1688  -2.6169  -0.1975 C.3            1 S1                 0.0000
     16 ****         5.4089  -1.1695  -0.6442 C.3            1 S1                 0.0000
     17 ****         6.7165  -0.9149  -0.6268 F              1 S1                 0.0000
     18 ****         4.9531  -0.9880  -1.8834 F              1 S1                 0.0000
     19 ****         4.7982  -0.3238   0.1855 F              1 S1                 0.0000
     20 ****        -1.3476  -1.3998  -0.4467 C.ar           1 S1                 0.0000
     21 ****        -1.8104  -0.1420  -0.6038 N.ar           1 S1                 0.0000
     22 ****        -1.2414   3.1300   0.5659 C.3            1 S1                 0.0000
     23 ****        -1.9778   4.4796   0.6124 C.3            1 S1                 0.0000
     24 ****        -2.6639   4.6982  -0.6156 O.3            1 S1                 0.0000
     25 ****        -5.1691   3.3321  -2.3772 H              1 S1                 0.0000
     26 ****        -3.7166   4.1118  -3.0010 H              1 S1                 0.0000
     27 ****        -4.8792   5.0397  -2.0562 H              1 S1                 0.0000
     28 ****        -4.3642   3.6908  -0.0377 H              1 S1                 0.0000
     29 ****        -3.7194   1.5534  -1.1017 H              1 S1                 0.0000
     30 ****        -2.3072   2.2978  -1.8403 H              1 S1                 0.0000
     31 ****        -1.0083   1.0604   2.4706 H              1 S1                 0.0000
     32 ****        -0.1452  -1.2514   2.7350 H              1 S1                 0.0000
     33 ****        -0.5349  -3.6964   1.8088 H              1 S1                 0.0000
     34 ****        -0.6733  -3.8876   0.0723 H              1 S1                 0.0000
     35 ****         1.7354  -2.4895   1.0439 H              1 S1                 0.0000
     36 ****         3.8724  -4.3705   1.2780 H              1 S1                 0.0000
     37 ****         3.9047  -4.9202  -0.3991 H              1 S1                 0.0000
     38 ****         5.6124  -2.7804   0.7859 H              1 S1                 0.0000
     39 ****         5.6498  -3.3069  -0.8924 H              1 S1                 0.0000
     40 ****        -1.4657  -2.0580  -1.2950 H              1 S1                 0.0000
     41 ****        -0.7528   2.9631   1.5247 H              1 S1                 0.0000
     42 ****        -0.4552   3.1605  -0.1893 H              1 S1                 0.0000
     43 ****        -2.6819   4.5102   1.4455 H              1 S1                 0.0000
     44 ****        -1.2656   5.2896   0.7691 H              1 S1                 0.0000
     45 ****        -2.8620   2.0635   0.9553 LP             1 S1                 0.0000
     46 ****         0.4547  -5.5519   0.0026 LP             1 S1                 0.0000
     47 ****         2.0298  -6.1745  -0.3597 LP             1 S1                 0.0000
     48 ****         3.3541  -2.2214   0.4863 LP             1 S1                 0.0000
     49 ****         3.3929  -2.7361  -1.0630 LP             1 S1                 0.0000
     50 ****        -2.2402   0.1361  -1.4628 LP             1 S1                 0.0000
     51 ****        -3.1114   5.5918  -0.5804 LP             1 S1                 0.0000
     52 ****        -1.9993   4.6874  -1.3627 LP             1 S1                 0.0000
@<TRIPOS>BOND
    1    1    2 1     
    2    1   25 1     
    3    1   26 1     
    4    1   27 1     
    5    2   24 1     
    6    2    3 1     
    7    2   28 1     
    8    3    4 1     
    9    3   29 1     
   10    3   30 1     
   11    4    5 1     
   12    4   22 1     
   13    5   21 ar    
   14    5    6 ar    
   15    6    7 ar    
   16    6   31 1     
   17    7    8 ar    
   18    7   32 1     
   19    8    9 1     
   20    8   20 ar    
   21    9   10 1     
   22    9   33 1     
   23    9   34 1     
   24   10   11 am    
   25   10   35 1     
   26   11   12 2     
   27   11   13 1     
   28   13   14 1     
   29   13   36 1     
   30   13   37 1     
   31   14   15 1     
   32   15   16 1     
   33   15   38 1     
   34   15   39 1     
   35   16   17 1     
   36   16   18 1     
   37   16   19 1     
   38   20   21 ar    
   39   20   40 1     
   40   22   23 1     
   41   22   41 1     
   42   22   42 1     
   43   23   24 1     
   44   23   43 1     
   45   23   44 1     
   46    4   45 1     
   47   12   46 1     
   48   12   47 1     
   49   14   48 1     
   50   14   49 1     
   51   21   50 1     
   52   24   51 1     
   53   24   52 1     
@<TRIPOS>SUBSTRUCTURE
      1 S1             1
@<TRIPOS>SET
LONE_PAIRS      STATIC     ATOMS    <user>   **** ""
8 45 46 47 48 49 50 51 52
DONOR_HYDROGENS      STATIC     ATOMS    <user>   **** ""
1 35
ATOM$BLUE        STATIC     ATOMS    COLORGROUP SYSTEM
8 45 46 47 48 49 50 51 52
ATOM$RED        STATIC     ATOMS    COLORGROUP SYSTEM
1 35
