AV-unprocessed.smi:281|AV-procd|sdf|2113|dock6
  -GOLD-   2262021413D 1   1.00000     0.00000
 Structure written by MMmdl.
 55 59  0  0  0  0  0  0  0  0  1 V2000
  155.4089  139.4238  159.5999 C   0  0  0  0  0  0  0  0  0  0  0  0
  154.0606  140.1455  159.6834 C   0  0  2  0  0  0  0  0  0  0  0  0
  152.9788  139.4516  158.8414 C   0  0  0  0  0  0  0  0  0  0  0  0
  151.7512  140.2352  158.8907 N   0  0  0  0  0  0  0  0  0  0  0  0
  150.5899  139.6538  158.4996 C   0  0  0  0  0  0  0  0  0  0  0  0
  150.1971  138.4763  159.0548 N   0  0  0  0  0  0  0  0  0  0  0  0
  149.0577  137.8952  158.6679 C   0  0  0  0  0  0  0  0  0  0  0  0
  148.1724  138.3143  157.7616 N   0  0  0  0  0  0  0  0  0  0  0  0
  148.5545  139.5010  157.2086 C   0  0  0  0  0  0  0  0  0  0  0  0
  149.7380  140.2304  157.5157 C   0  0  0  0  0  0  0  0  0  0  0  0
  149.7851  141.3947  156.7583 N   0  0  0  0  0  0  0  0  0  0  0  0
  148.6994  141.3498  156.0361 C   0  0  0  0  0  0  0  0  0  0  0  0
  147.8958  140.2523  156.2502 N   0  0  0  0  0  0  0  0  0  0  0  0
  146.6345  139.9538  155.5877 C   0  0  0  0  0  0  0  0  0  0  0  0
  145.6245  141.1266  155.6146 C   0  0  1  0  0  0  0  0  0  0  0  0
  144.3304  140.6223  155.3374 O   0  0  0  0  0  0  0  0  0  0  0  0
  145.5993  141.8440  156.9660 C   0  0  0  0  0  0  0  0  0  0  0  0
  146.2658  143.1828  156.6734 C   0  0  0  0  0  0  0  0  0  0  0  0
  145.8359  143.4598  155.3530 O   0  0  0  0  0  0  0  0  0  0  0  0
  145.9561  142.2527  154.6144 C   0  0  0  0  0  0  0  0  0  0  0  0
  151.9409  141.6120  158.4519 C   0  0  0  0  0  0  0  0  0  0  0  0
  153.0681  142.3008  159.2595 C   0  0  1  0  0  0  0  0  0  0  0  0
  153.4004  143.6564  158.6572 C   0  0  0  0  0  0  0  0  0  0  0  0
  152.3375  144.5677  159.2625 C   0  0  0  0  0  0  0  0  0  0  0  0
  152.0067  143.9952  160.5238 O   0  0  0  0  0  0  0  0  0  0  0  0
  152.6235  142.7183  160.6802 C   0  0  2  0  0  0  0  0  0  0  0  0
  153.7698  142.9233  161.6896 C   0  0  0  0  0  0  0  0  0  0  0  0
  154.2454  141.4863  159.2245 O   0  0  0  0  0  0  0  0  0  0  0  0
  155.3265  138.3963  159.9548 H   0  0  0  0  0  0  0  0  0  0  0  0
  156.1580  139.9274  160.2113 H   0  0  0  0  0  0  0  0  0  0  0  0
  155.7792  139.3961  158.5746 H   0  0  0  0  0  0  0  0  0  0  0  0
  153.7402  140.1536  160.7252 H   0  0  0  0  0  0  0  0  0  0  0  0
  153.3070  139.3525  157.8056 H   0  0  0  0  0  0  0  0  0  0  0  0
  152.8013  138.4466  159.2272 H   0  0  0  0  0  0  0  0  0  0  0  0
  148.8211  136.9603  159.1543 H   0  0  0  0  0  0  0  0  0  0  0  0
  148.4500  142.1256  155.3269 H   0  0  0  0  0  0  0  0  0  0  0  0
  146.8510  139.6645  154.5584 H   0  0  0  0  0  0  0  0  0  0  0  0
  146.1965  139.0754  156.0636 H   0  0  0  0  0  0  0  0  0  0  0  0
  144.1538  140.7451  154.4171 H   0  0  0  0  0  0  0  0  0  0  0  0
  144.5748  142.0232  157.2964 H   0  0  0  0  0  0  0  0  0  0  0  0
  146.1060  141.2950  157.7603 H   0  0  0  0  0  0  0  0  0  0  0  0
  145.9657  143.9654  157.3704 H   0  0  0  0  0  0  0  0  0  0  0  0
  147.3534  143.0937  156.6975 H   0  0  0  0  0  0  0  0  0  0  0  0
  146.9882  142.1825  154.2696 H   0  0  0  0  0  0  0  0  0  0  0  0
  145.3145  142.2585  153.7324 H   0  0  0  0  0  0  0  0  0  0  0  0
  152.2047  141.5914  157.3934 H   0  0  0  0  0  0  0  0  0  0  0  0
  151.0193  142.1875  158.5268 H   0  0  0  0  0  0  0  0  0  0  0  0
  154.3892  143.9820  158.9832 H   0  0  0  0  0  0  0  0  0  0  0  0
  153.3976  143.6643  157.5668 H   0  0  0  0  0  0  0  0  0  0  0  0
  152.6871  145.5944  159.3728 H   0  0  0  0  0  0  0  0  0  0  0  0
  151.4422  144.5817  158.6403 H   0  0  0  0  0  0  0  0  0  0  0  0
  151.9062  142.0101  161.0969 H   0  0  0  0  0  0  0  0  0  0  0  0
  154.3046  141.9979  161.8974 H   0  0  0  0  0  0  0  0  0  0  0  0
  153.3806  143.2896  162.6396 H   0  0  0  0  0  0  0  0  0  0  0  0
  154.4977  143.6520  161.3335 H   0  0  0  0  0  0  0  0  0  0  0  0
  1  2  1  0  0  0  0
  1 29  1  0  0  0  0
  1 30  1  0  0  0  0
  1 31  1  0  0  0  0
  2 28  1  0  0  0  0
  2  3  1  0  0  0  0
  2 32  1  0  0  0  0
  3  4  1  0  0  0  0
  3 33  1  0  0  0  0
  3 34  1  0  0  0  0
  4  5  1  0  0  0  0
  4 21  1  0  0  0  0
  5 10  1  0  0  0  0
  5  6  2  0  0  0  0
  6  7  1  0  0  0  0
  7  8  2  0  0  0  0
  7 35  1  0  0  0  0
  8  9  1  0  0  0  0
  9 13  1  0  0  0  0
  9 10  2  0  0  0  0
 10 11  1  0  0  0  0
 11 12  2  0  0  0  0
 12 13  1  0  0  0  0
 12 36  1  0  0  0  0
 13 14  1  0  0  0  0
 14 15  1  0  0  0  0
 14 37  1  0  0  0  0
 14 38  1  0  0  0  0
 15 20  1  0  0  0  0
 15 16  1  0  0  0  0
 15 17  1  0  0  0  0
 16 39  1  0  0  0  0
 17 18  1  0  0  0  0
 17 40  1  0  0  0  0
 17 41  1  0  0  0  0
 18 19  1  0  0  0  0
 18 42  1  0  0  0  0
 18 43  1  0  0  0  0
 19 20  1  0  0  0  0
 20 44  1  0  0  0  0
 20 45  1  0  0  0  0
 21 22  1  0  0  0  0
 21 46  1  0  0  0  0
 21 47  1  0  0  0  0
 22 26  1  0  0  0  0
 22 23  1  0  0  0  0
 22 28  1  0  0  0  0
 23 24  1  0  0  0  0
 23 48  1  0  0  0  0
 23 49  1  0  0  0  0
 24 25  1  0  0  0  0
 24 50  1  0  0  0  0
 24 51  1  0  0  0  0
 25 26  1  0  0  0  0
 26 27  1  0  0  0  0
 26 52  1  0  0  0  0
 27 53  1  0  0  0  0
 27 54  1  0  0  0  0
 27 55  1  0  0  0  0
M  END
> <s_m_source_file>
AV-unprocessed.smi

> <i_m_source_file_index>
281

> <i_lp_mmshare_version>
43012

> <i_f3d_flags>
0

> <s_epik_input>
W0NIM11bQ0BASF0xT1tDSDJdW0NIMl1bQ0BAXTEyW0NIMl1OKFtDSDJdW0NASF0oTzIpW0NIM10pYyhuW2NIXW4zKWMoYzM0KW5bY0hdbjRbQ0gyXVtDQEBdNShbT0hdKVtDSDJdW0NIMl1PW0NIMl01

> <s_epik_cmdline>
J2VwaWtfcHl0aG9uJywgJy1waCcsICc3LjAnLCAnLXRuJywgJzgnLCAnLW1hJywgJzIwMCcsICctbWV0YWxfYmluZGluZycsICctaW1hZScsICc8aW5maWxlLm1hZT4nLCAnLW9tYWUnLCAnPG91dGZpbGUubWFlPic=

> <r_lp_tautomer_probability>
1

> <r_epik_Ionization_Penalty>
0.00571331

> <r_epik_Ionization_Penalty_Charging>
0

> <r_epik_Ionization_Penalty_Neutral>
0.00571331

> <r_epik_State_Penalty>
0.00399586

> <r_epik_Charging_Adjusted_Penalty>
0.00399586

> <i_epik_Tot_Q>
0

> <i_epik_Tot_abs_Q>
0

> <r_epik_Metal_State_Penalty>
-0

> <b_epik_Metal_Only>
0

> <s_lp_Force_Field>
OPLS_2005

> <r_lp_Energy>
53.7875

> <b_lp_Chiralities_Consistent>
1

> <s_lp_Variant>
AV-unprocessed.smi:281-13

> <Gold.Version>
5.8.1

> <Gold.Id.Protein>
6NUR|6NUR_protein|mol2

> <Gold.PLP.Fitness>
45.8664

> <Gold.PLP.PLP>
-40.4907

> <Gold.PLP.part.hbond>
-1.6996

> <Gold.PLP.part.metal>
0.0000

> <Gold.PLP.part.buried>
-8.0492

> <Gold.PLP.part.nonpolar>
-31.1884

> <Gold.PLP.part.repulsive>
0.4363

> <Gold.PLP.ligand.clash>
0.0000

> <Gold.PLP.ligand.torsion>
0.4806

> <Gold.PLP.Chemscore.Hbond>
1.0000

> <Gold.PLP.Chemscore.CHOScore>
1.0000

> <Gold.PLP.Chemscore.Metal>
0.0000

> <Gold.Chemscore.Hbonds>
donor molecule, donor type, donor heavy atom, donor atom, acceptor molecule, acceptor atom, score
      L1  H    16    39       P1 10175  1.00
      L1  C    12    36       P1  8028  0.68

> <Gold.PLP.Chemscore.Internal.Correction>
0.3369

> <Gold.Rescore>
     Score         DG    S(hbond)    S(metal)    S(lipo)     H(rot)  DE(clash)    DE(int)     intcor
     13.93     -16.23       0.98        0.00     109.81       2.09       0.19       2.11       ----

> <Gold.Chemscore.Fitness>
13.9316

> <Gold.Chemscore.DG>
-16.2282

> <Gold.Chemscore.ZeroCoef>
-5.4800

> <Gold.Chemscore.Hbond>
0.9755

> <Gold.Chemscore.Metal>
0.0000

> <Gold.Chemscore.Lipo>
109.8071

> <Gold.Chemscore.Internal_Hbond>
0.0000

> <Gold.Chemscore.DEClash>
0.1913

> <Gold.Chemscore.DEInternal>
2.1053

> <Gold.Chemscore.Rot>
2.0927

> <Gold.Chemscore.Internal.Correction>
   9.000000E+99

> <Gold.Chemscore.Hbonds>
donor molecule, donor type, donor heavy atom, donor atom, acceptor molecule, acceptor atom, score
      L1  H    16    39       P1 10175  0.96

> <Gold.Chemscore.Hbond.Weighted>
-3.2581

> <Gold.Chemscore.Metal.Weighted>
-0.0000

> <Gold.Chemscore.Lipo.Weighted>
-12.8474

> <Gold.Chemscore.Internal_Hbond.Weighted>
0.0000

> <Gold.Chemscore.DEClash.Weighted>
0.1913

> <Gold.Chemscore.DEInternal.Weighted>
2.1053

> <Gold.Chemscore.Rot.Weighted>
5.3573

> <Gold.Chemscore.Internal.Correction.Weighted>
   9.000000E+99

> <Gold.Protein.RotatedTorsions>
[ 6907 6896 6895 6894 ] final  -14.19 input  -60.11 | X-H torsion
[ 7974 7965 7964 7962 ] final    6.51 input  175.53 | X-H torsion
[ 8008 7997 7996 7995 ] final   14.67 input   59.86 | X-H torsion
[ 10167 10162 10161 10158 ] final  145.98 input  -65.29 | X-H torsion
[ 10718 10713 10712 10709 ] final -128.57 input   66.30 | X-H torsion
[ 10763 10752 10751 10750 ] final  -52.20 input  -60.55 | X-H torsion
[ 11005 11000 10999 10996 ] final  -10.49 input  -57.11 | X-H torsion

> <Gold.Protein.ActiveResidues>
 VAL166  LYS551  ARG553  GLY616  TRP617  ASP618  TYR619  PRO620  LYS621  CYS622 
 ASP623  PHE694  ASN695  SER759  ASP760  ASP761  ALA762  ILE779  LEU786  VAL792 
 PHE793  MET794  SER795  GLU796  ALA797  LYS798  CYS799  TRP800  GLU811  SER814 

> <Gold.Protein.RotatedAtoms>
  151.3433  135.0868  159.9378 H   0  0  0  0  0  0  0  0  0  0  0  0  # atno 6907 bound_to 6896
  152.5206  133.9425  159.7644 H   0  0  0  0  0  0  0  0  0  0  0  0  # atno 6908 bound_to 6896
  150.9786  133.6215  159.2756 H   0  0  0  0  0  0  0  0  0  0  0  0  # atno 6909 bound_to 6896
  146.2434  140.0223  142.8397 H   0  0  0  0  0  0  0  0  0  0  0  0  # atno 7974 bound_to 7965
  154.8517  140.2930  155.5594 H   0  0  0  0  0  0  0  0  0  0  0  0  # atno 8008 bound_to 7997
  156.3016  140.2495  156.3409 H   0  0  0  0  0  0  0  0  0  0  0  0  # atno 8009 bound_to 7997
  154.9014  140.0391  157.1884 H   0  0  0  0  0  0  0  0  0  0  0  0  # atno 8010 bound_to 7997
  139.4916  144.5863  151.6772 H   0  0  0  0  0  0  0  0  0  0  0  0  # atno 10167 bound_to 10162
  156.1964  130.6828  151.0486 H   0  0  0  0  0  0  0  0  0  0  0  0  # atno 10718 bound_to 10713
  154.1389  135.6508  153.4938 H   0  0  0  0  0  0  0  0  0  0  0  0  # atno 10763 bound_to 10752
  153.0172  135.5311  154.6925 H   0  0  0  0  0  0  0  0  0  0  0  0  # atno 10764 bound_to 10752
  154.6180  135.2961  155.0328 H   0  0  0  0  0  0  0  0  0  0  0  0  # atno 10765 bound_to 10752
  140.7453  133.8637  155.9000 H   0  0  0  0  0  0  0  0  0  0  0  0  # atno 11005 bound_to 11000
  145.1230  140.9473  143.4589 LP  0  0  0  0  0  0  0  0  0  0  0  0  # atno 17320 bound_to 7965
  145.0463  139.3218  143.5951 LP  0  0  0  0  0  0  0  0  0  0  0  0  # atno 17321 bound_to 7965
  140.5480  144.0472  150.6115 LP  0  0  0  0  0  0  0  0  0  0  0  0  # atno 17342 bound_to 10162
  140.3517  143.2959  152.0480 LP  0  0  0  0  0  0  0  0  0  0  0  0  # atno 17343 bound_to 10162
  157.6960  131.0794  150.6968 LP  0  0  0  0  0  0  0  0  0  0  0  0  # atno 17370 bound_to 10713
  156.7025  130.4627  149.5569 LP  0  0  0  0  0  0  0  0  0  0  0  0  # atno 17371 bound_to 10713
  140.9800  134.1418  157.4502 LP  0  0  0  0  0  0  0  0  0  0  0  0  # atno 17394 bound_to 11000
  139.8798  135.0007  156.6027 LP  0  0  0  0  0  0  0  0  0  0  0  0  # atno 17395 bound_to 11000

$$$$
