AV-unprocessed.smi:3043|AV-procd|sdf|11604|dock8
  -GOLD-   2272016583D 1   1.00000     0.00000
 Structure written by MMmdl.
 44 45  0  0  0  0  0  0  0  0  2 V2000
  151.5045  141.1491  157.6443 C   0  0  0  0  0  0  0  0  0  0  0  0
  151.7335  140.1938  156.4710 C   0  0  0  0  0  0  0  0  0  0  0  0
  152.6384  139.3650  156.5687 O   0  0  0  0  0  0  0  0  0  0  0  0
  150.9409  140.2859  155.3759 N   0  0  0  0  0  0  0  0  0  0  0  0
  151.0527  139.3674  154.2368 C   0  0  0  0  0  0  0  0  0  0  0  0
  149.8100  138.4599  154.2063 C   0  0  0  0  0  0  0  0  0  0  0  0
  148.5081  139.2887  154.1364 C   0  0  0  0  0  0  0  0  0  0  0  0
  147.2681  138.3790  154.2039 C   0  0  0  0  0  0  0  0  0  0  0  0
  146.9602  137.7856  152.8847 N   0  3  0  0  0  0  0  0  0  0  0  0
  145.8977  136.7550  152.8799 C   0  0  1  0  0  0  0  0  0  0  0  0
  144.6405  137.3277  153.5566 C   0  0  0  0  0  0  0  0  0  0  0  0
  145.6274  136.2388  151.4473 C   0  0  0  0  0  0  0  0  0  0  0  0
  144.8083  135.0400  151.4215 N   0  0  0  0  0  0  0  0  0  0  0  0
  144.6148  134.1575  150.3796 C   0  0  0  0  0  0  0  0  0  0  0  0
  143.7651  133.1852  150.8237 C   0  0  0  0  0  0  0  0  0  0  0  0
  143.4865  133.5666  152.1659 C   0  0  0  0  0  0  0  0  0  0  0  0
  144.1116  134.6778  152.5203 N   0  0  0  0  0  0  0  0  0  0  0  0
  148.4997  140.3746  155.2389 C   0  0  0  0  0  0  0  0  0  0  0  0
  149.8003  141.1982  155.2253 C   0  0  0  0  0  0  0  0  0  0  0  0
  150.4946  141.0407  158.0412 H   0  0  0  0  0  0  0  0  0  0  0  0
  151.6569  142.1839  157.3367 H   0  0  0  0  0  0  0  0  0  0  0  0
  152.2039  140.9371  158.4538 H   0  0  0  0  0  0  0  0  0  0  0  0
  151.1214  139.9436  153.3130 H   0  0  0  0  0  0  0  0  0  0  0  0
  151.9560  138.7568  154.2725 H   0  0  0  0  0  0  0  0  0  0  0  0
  149.8705  137.7841  153.3527 H   0  0  0  0  0  0  0  0  0  0  0  0
  149.8011  137.8305  155.0977 H   0  0  0  0  0  0  0  0  0  0  0  0
  148.5031  139.7949  153.1697 H   0  0  0  0  0  0  0  0  0  0  0  0
  147.4468  137.5769  154.9196 H   0  0  0  0  0  0  0  0  0  0  0  0
  146.4080  138.9446  154.5654 H   0  0  0  0  0  0  0  0  0  0  0  0
  146.6527  138.5383  152.2856 H   0  0  0  0  0  0  0  0  0  0  0  0
  146.2401  135.9202  153.4934 H   0  0  0  0  0  0  0  0  0  0  0  0
  143.8677  136.5687  153.6799 H   0  0  0  0  0  0  0  0  0  0  0  0
  144.2142  138.1452  152.9739 H   0  0  0  0  0  0  0  0  0  0  0  0
  144.8710  137.7127  154.5504 H   0  0  0  0  0  0  0  0  0  0  0  0
  145.1351  137.0124  150.8551 H   0  0  0  0  0  0  0  0  0  0  0  0
  146.5616  136.0060  150.9364 H   0  0  0  0  0  0  0  0  0  0  0  0
  145.0934  134.2916  149.4206 H   0  0  0  0  0  0  0  0  0  0  0  0
  143.3970  132.3320  150.2733 H   0  0  0  0  0  0  0  0  0  0  0  0
  142.8529  133.0727  152.8879 H   0  0  0  0  0  0  0  0  0  0  0  0
  147.6475  141.0420  155.1077 H   0  0  0  0  0  0  0  0  0  0  0  0
  148.3792  139.9090  156.2183 H   0  0  0  0  0  0  0  0  0  0  0  0
  149.7552  141.9715  155.9905 H   0  0  0  0  0  0  0  0  0  0  0  0
  149.8929  141.7326  154.2787 H   0  0  0  0  0  0  0  0  0  0  0  0
  147.8028  137.3905  152.4922 H   0  0  0  0  0  0  0  0  0  0  0  0
  1  2  1  0  0  0  0
  1 20  1  0  0  0  0
  1 21  1  0  0  0  0
  1 22  1  0  0  0  0
  2  3  2  0  0  0  0
  2  4  1  0  0  0  0
  4 19  1  0  0  0  0
  4  5  1  0  0  0  0
  5  6  1  0  0  0  0
  5 23  1  0  0  0  0
  5 24  1  0  0  0  0
  6  7  1  0  0  0  0
  6 25  1  0  0  0  0
  6 26  1  0  0  0  0
  7  8  1  0  0  0  0
  7 18  1  0  0  0  0
  7 27  1  0  0  0  0
  8  9  1  0  0  0  0
  8 28  1  0  0  0  0
  8 29  1  0  0  0  0
  9 10  1  0  0  0  0
  9 30  1  0  0  0  0
  9 44  1  0  0  0  0
 10 11  1  0  0  0  0
 10 12  1  0  0  0  0
 10 31  1  0  0  0  0
 11 32  1  0  0  0  0
 11 33  1  0  0  0  0
 11 34  1  0  0  0  0
 12 13  1  0  0  0  0
 12 35  1  0  0  0  0
 12 36  1  0  0  0  0
 13 17  1  0  0  0  0
 13 14  1  0  0  0  0
 14 15  2  0  0  0  0
 14 37  1  0  0  0  0
 15 16  1  0  0  0  0
 15 38  1  0  0  0  0
 16 17  2  0  0  0  0
 16 39  1  0  0  0  0
 18 19  1  0  0  0  0
 18 40  1  0  0  0  0
 18 41  1  0  0  0  0
 19 42  1  0  0  0  0
 19 43  1  0  0  0  0
M  CHG  1   9   1
M  END
> <s_m_source_file>
AV-unprocessed.smi

> <i_m_source_file_index>
3043

> <i_lp_mmshare_version>
43012

> <i_f3d_flags>
0

> <s_epik_input>
W0NIM11DKD1PKU4xW0NIMl1bQ0gyXVtDSF0oW0NIMl1bQ0gyXTEpW0NIMl1bTkhdW0NASF0oW0NIM10pW0NIMl1uMltjSF1bY0hdW2NIXW4y

> <s_epik_cmdline>
J2VwaWtfcHl0aG9uJywgJy1waCcsICc3LjAnLCAnLXRuJywgJzgnLCAnLW1hJywgJzIwMCcsICctbWV0YWxfYmluZGluZycsICctaW1hZScsICc8aW5maWxlLm1hZT4nLCAnLW9tYWUnLCAnPG91dGZpbGUubWFlPic=

> <r_lp_tautomer_probability>
1

> <r_epik_Ionization_Penalty>
0.00300549

> <r_epik_Ionization_Penalty_Charging>
0.00299781

> <r_epik_Ionization_Penalty_Neutral>
7.6831e-06

> <r_epik_State_Penalty>
0.00210473

> <r_epik_Charging_Adjusted_Penalty>
0.00510254

> <i_epik_Tot_Q>
1

> <i_epik_Tot_abs_Q>
1

> <r_epik_Metal_State_Penalty>
-0

> <b_epik_Metal_Only>
0

> <s_lp_Force_Field>
OPLS_2005

> <r_lp_Energy>
28.9571

> <b_lp_Chiralities_Consistent>
1

> <s_lp_Variant>
AV-unprocessed.smi:3043-2

> <Gold.Version>
5.8.1

> <Gold.Id.Protein>
6NUR|6NUR_protein|mol2

> <Gold.PLP.Fitness>
45.9217

> <Gold.PLP.PLP>
-31.9642

> <Gold.PLP.part.hbond>
-2.0000

> <Gold.PLP.part.metal>
0.0000

> <Gold.PLP.part.buried>
1.3784

> <Gold.PLP.part.nonpolar>
-30.6069

> <Gold.PLP.part.repulsive>
0.1482

> <Gold.PLP.ligand.clash>
0.0000

> <Gold.PLP.ligand.torsion>
0.5405

> <Gold.PLP.Chemscore.Hbond>
3.0000

> <Gold.PLP.Chemscore.CHOScore>
2.0000

> <Gold.PLP.Chemscore.Metal>
0.0000

> <Gold.Chemscore.Hbonds>
donor molecule, donor type, donor heavy atom, donor atom, acceptor molecule, acceptor atom, score
      L1  H     9    44       P1  7948  2.00
      P1  H  7997  8010       L1     3  1.00
      L1  C    14    37       P1  7921  1.00
      L1  C    16    39       P1 10957  1.00

> <Gold.PLP.Chemscore.Internal.Correction>
0.0386

> <Gold.Rescore>
     Score         DG    S(hbond)    S(metal)    S(lipo)     H(rot)  DE(clash)    DE(int)     intcor
     13.42     -16.47       1.97        0.00      75.87       1.74       1.54       1.51       ----

> <Gold.Chemscore.Fitness>
13.4166

> <Gold.Chemscore.DG>
-16.4733

> <Gold.Chemscore.ZeroCoef>
-5.4800

> <Gold.Chemscore.Hbond>
1.9691

> <Gold.Chemscore.Metal>
0.0000

> <Gold.Chemscore.Lipo>
75.8656

> <Gold.Chemscore.Internal_Hbond>
0.0000

> <Gold.Chemscore.DEClash>
1.5449

> <Gold.Chemscore.DEInternal>
1.5117

> <Gold.Chemscore.Rot>
1.7422

> <Gold.Chemscore.Internal.Correction>
   9.000000E+99

> <Gold.Chemscore.Hbonds>
donor molecule, donor type, donor heavy atom, donor atom, acceptor molecule, acceptor atom, score
      L1  H     9    44       P1  7948  1.00
      P1  H  7997  8010       L1     3  0.88

> <Gold.Chemscore.Hbond.Weighted>
-6.5769

> <Gold.Chemscore.Metal.Weighted>
-0.0000

> <Gold.Chemscore.Lipo.Weighted>
-8.8763

> <Gold.Chemscore.Internal_Hbond.Weighted>
0.0000

> <Gold.Chemscore.DEClash.Weighted>
1.5449

> <Gold.Chemscore.DEInternal.Weighted>
1.5117

> <Gold.Chemscore.Rot.Weighted>
4.4600

> <Gold.Chemscore.Internal.Correction.Weighted>
   9.000000E+99

> <Gold.Protein.RotatedTorsions>
[ 6907 6896 6895 6894 ] final   69.84 input  -60.11 | X-H torsion
[ 7974 7965 7964 7962 ] final   -8.81 input  175.53 | X-H torsion
[ 8008 7997 7996 7995 ] final   71.49 input   59.86 | X-H torsion
[ 10167 10162 10161 10158 ] final   95.19 input  -65.29 | X-H torsion
[ 10718 10713 10712 10709 ] final  -82.02 input   66.30 | X-H torsion
[ 10763 10752 10751 10750 ] final  -62.70 input  -60.55 | X-H torsion
[ 11005 11000 10999 10996 ] final  -19.34 input  -57.11 | X-H torsion

> <Gold.Protein.ActiveResidues>
 VAL166  LYS551  ARG553  GLY616  TRP617  ASP618  TYR619  PRO620  LYS621  CYS622 
 ASP623  PHE694  ASN695  SER759  ASP760  ASP761  ALA762  ILE779  LEU786  VAL792 
 PHE793  MET794  SER795  GLU796  ALA797  LYS798  CYS799  TRP800  GLU811  SER814 

> <Gold.Protein.RotatedAtoms>
  152.4712  134.4956  159.9708 H   0  0  0  0  0  0  0  0  0  0  0  0  # atno 6907 bound_to 6896
  151.4983  133.3504  159.2872 H   0  0  0  0  0  0  0  0  0  0  0  0  # atno 6908 bound_to 6896
  150.8723  134.8126  159.7225 H   0  0  0  0  0  0  0  0  0  0  0  0  # atno 6909 bound_to 6896
  146.2270  140.2523  142.8348 H   0  0  0  0  0  0  0  0  0  0  0  0  # atno 7974 bound_to 7965
  155.7546  140.3488  155.5167 H   0  0  0  0  0  0  0  0  0  0  0  0  # atno 8008 bound_to 7997
  155.8972  140.1028  157.1397 H   0  0  0  0  0  0  0  0  0  0  0  0  # atno 8009 bound_to 7997
  154.4040  140.1293  156.4377 H   0  0  0  0  0  0  0  0  0  0  0  0  # atno 8010 bound_to 7997
  139.8012  144.6813  150.9763 H   0  0  0  0  0  0  0  0  0  0  0  0  # atno 10167 bound_to 10162
  156.0040  130.4621  150.4041 H   0  0  0  0  0  0  0  0  0  0  0  0  # atno 10718 bound_to 10713
  154.3038  135.6229  153.5436 H   0  0  0  0  0  0  0  0  0  0  0  0  # atno 10763 bound_to 10752
  152.9837  135.5685  154.5254 H   0  0  0  0  0  0  0  0  0  0  0  0  # atno 10764 bound_to 10752
  154.4890  135.2866  155.1488 H   0  0  0  0  0  0  0  0  0  0  0  0  # atno 10765 bound_to 10752
  140.8356  133.7964  155.9806 H   0  0  0  0  0  0  0  0  0  0  0  0  # atno 11005 bound_to 11000
  144.9402  140.8070  143.5635 LP  0  0  0  0  0  0  0  0  0  0  0  0  # atno 17320 bound_to 7965
  145.2474  139.2046  143.4960 LP  0  0  0  0  0  0  0  0  0  0  0  0  # atno 17321 bound_to 7965
  140.7820  143.4280  151.0739 LP  0  0  0  0  0  0  0  0  0  0  0  0  # atno 17342 bound_to 10162
  139.7952  143.8162  152.3156 LP  0  0  0  0  0  0  0  0  0  0  0  0  # atno 17343 bound_to 10162
  157.2108  131.0460  151.2600 LP  0  0  0  0  0  0  0  0  0  0  0  0  # atno 17370 bound_to 10713
  157.3891  130.7272  149.6684 LP  0  0  0  0  0  0  0  0  0  0  0  0  # atno 17371 bound_to 10713
  140.8950  134.2448  157.5073 LP  0  0  0  0  0  0  0  0  0  0  0  0  # atno 17394 bound_to 11000
  139.8704  134.9680  156.4615 LP  0  0  0  0  0  0  0  0  0  0  0  0  # atno 17395 bound_to 11000

$$$$
