AV-unprocessed.smi:994|AV-procd|sdf|4344|dock2
  -GOLD-   22720 2243D 1   1.00000     0.00000
 Structure written by MMmdl.
 37 38  0  0  0  0  0  0  0  0  2 V2000
  151.6288  139.8828  158.4025 O   0  0  0  0  0  0  0  0  0  0  0  0
  151.5922  141.0448  157.9964 C   0  0  0  0  0  0  0  0  0  0  0  0
  151.0131  141.4053  156.8409 N   0  0  0  0  0  0  0  0  0  0  0  0
  150.3684  140.4983  155.8910 C   0  0  1  0  0  0  0  0  0  0  0  0
  149.8148  141.3240  154.7073 C   0  0  0  0  0  0  0  0  0  0  0  0
  148.3087  141.3537  154.5757 C   0  0  0  0  0  0  0  0  0  0  0  0
  147.5045  140.8772  153.5577 C   0  0  0  0  0  0  0  0  0  0  0  0
  146.2007  141.1579  153.9242 N   0  0  0  0  0  0  0  0  0  0  0  0
  146.2530  141.7776  155.1034 C   0  0  0  0  0  0  0  0  0  0  0  0
  147.4910  141.9313  155.5544 N   0  0  0  0  0  0  0  0  0  0  0  0
  151.4027  139.5008  155.3465 C   0  0  0  0  0  0  0  0  0  0  0  0
  152.5679  139.5958  155.7900 O   0  0  0  0  0  0  0  0  0  0  0  0
  151.0158  138.6599  154.5036 O   0  5  0  0  0  0  0  0  0  0  0  0
  152.2153  142.1749  158.8262 C   0  0  0  0  0  0  0  0  0  0  0  0
  152.4985  141.7114  160.2711 C   0  0  0  0  0  0  0  0  0  0  0  0
  153.1048  142.8458  161.1140 C   0  0  0  0  0  0  0  0  0  0  0  0
  152.2012  144.0893  161.1072 C   0  0  0  0  0  0  0  0  0  0  0  0
  151.9099  144.5557  159.6720 C   0  0  0  0  0  0  0  0  0  0  0  0
  151.3035  143.4206  158.8308 C   0  0  0  0  0  0  0  0  0  0  0  0
  145.3677  140.9378  153.3977 H   0  0  0  0  0  0  0  0  0  0  0  0
  151.0457  142.3795  156.5790 H   0  0  0  0  0  0  0  0  0  0  0  0
  149.5538  139.9504  156.3689 H   0  0  0  0  0  0  0  0  0  0  0  0
  150.1623  142.3564  154.7748 H   0  0  0  0  0  0  0  0  0  0  0  0
  150.2087  140.9311  153.7688 H   0  0  0  0  0  0  0  0  0  0  0  0
  147.7480  140.3755  152.6325 H   0  0  0  0  0  0  0  0  0  0  0  0
  145.3785  142.1207  155.6365 H   0  0  0  0  0  0  0  0  0  0  0  0
  153.1663  142.4526  158.3677 H   0  0  0  0  0  0  0  0  0  0  0  0
  151.5776  141.3661  160.7438 H   0  0  0  0  0  0  0  0  0  0  0  0
  153.1791  140.8587  160.2644 H   0  0  0  0  0  0  0  0  0  0  0  0
  153.2608  142.5051  162.1379 H   0  0  0  0  0  0  0  0  0  0  0  0
  154.0885  143.1064  160.7212 H   0  0  0  0  0  0  0  0  0  0  0  0
  151.2627  143.8620  161.6143 H   0  0  0  0  0  0  0  0  0  0  0  0
  152.6712  144.8946  161.6723 H   0  0  0  0  0  0  0  0  0  0  0  0
  151.2310  145.4087  159.6890 H   0  0  0  0  0  0  0  0  0  0  0  0
  152.8326  144.9035  159.2060 H   0  0  0  0  0  0  0  0  0  0  0  0
  151.1413  143.7703  157.8102 H   0  0  0  0  0  0  0  0  0  0  0  0
  150.3200  143.1659  159.2293 H   0  0  0  0  0  0  0  0  0  0  0  0
  1  2  2  0  0  0  0
  2  3  1  0  0  0  0
  2 14  1  0  0  0  0
  3  4  1  0  0  0  0
  3 21  1  0  0  0  0
  4  5  1  0  0  0  0
  4 11  1  0  0  0  0
  4 22  1  0  0  0  0
  5  6  1  0  0  0  0
  5 23  1  0  0  0  0
  5 24  1  0  0  0  0
  6 10  1  0  0  0  0
  6  7  2  0  0  0  0
  7  8  1  0  0  0  0
  7 25  1  0  0  0  0
  8 20  1  0  0  0  0
  8  9  1  0  0  0  0
  9 10  2  0  0  0  0
  9 26  1  0  0  0  0
 11 12  2  0  0  0  0
 11 13  1  0  0  0  0
 14 19  1  0  0  0  0
 14 15  1  0  0  0  0
 14 27  1  0  0  0  0
 15 16  1  0  0  0  0
 15 28  1  0  0  0  0
 15 29  1  0  0  0  0
 16 17  1  0  0  0  0
 16 30  1  0  0  0  0
 16 31  1  0  0  0  0
 17 18  1  0  0  0  0
 17 32  1  0  0  0  0
 17 33  1  0  0  0  0
 18 19  1  0  0  0  0
 18 34  1  0  0  0  0
 18 35  1  0  0  0  0
 19 36  1  0  0  0  0
 19 37  1  0  0  0  0
M  CHG  1  13  -1
M  END
> <s_m_source_file>
AV-unprocessed.smi

> <i_m_source_file_index>
994

> <i_lp_mmshare_version>
43012

> <i_f3d_flags>
0

> <s_epik_input>
W0NIMl0xW0NIMl1bQ0gyXVtDSDJdW0NIMl1bQ0hdMUMoPU8pW05IXVtDQEBIXShDKD1PKVtPSF0pW0NIMl1jMltjSF1bbkhdW2NIXW4y

> <s_epik_cmdline>
J2VwaWtfcHl0aG9uJywgJy1waCcsICc3LjAnLCAnLXRuJywgJzgnLCAnLW1hJywgJzIwMCcsICctbWV0YWxfYmluZGluZycsICctaW1hZScsICc8aW5maWxlLm1hZT4nLCAnLW9tYWUnLCAnPG91dGZpbGUubWFlPic=

> <r_lp_tautomer_probability>
0.5

> <r_epik_Ionization_Penalty>
0.836077

> <r_epik_Ionization_Penalty_Charging>
0.836077

> <r_epik_Ionization_Penalty_Neutral>
7.85059e-08

> <r_epik_State_Penalty>
0.938582

> <r_epik_Charging_Adjusted_Penalty>
1.77466

> <i_epik_Tot_Q>
-1

> <i_epik_Tot_abs_Q>
1

> <r_epik_Metal_State_Penalty>
0.523638

> <b_epik_Metal_Only>
0

> <s_lp_Force_Field>
OPLS_2005

> <r_lp_Energy>
9.68515

> <b_lp_Chiralities_Consistent>
1

> <s_lp_Variant>
AV-unprocessed.smi:994-6

> <Gold.Version>
5.8.1

> <Gold.Id.Protein>
6NUR|6NUR_protein|mol2

> <Gold.PLP.Fitness>
49.1789

> <Gold.PLP.PLP>
-39.4294

> <Gold.PLP.part.hbond>
-2.0000

> <Gold.PLP.part.metal>
0.0000

> <Gold.PLP.part.buried>
-5.0402

> <Gold.PLP.part.nonpolar>
-32.8805

> <Gold.PLP.part.repulsive>
0.5835

> <Gold.PLP.ligand.clash>
0.0000

> <Gold.PLP.ligand.torsion>
1.1855

> <Gold.PLP.Chemscore.Hbond>
3.0000

> <Gold.PLP.Chemscore.CHOScore>
1.0000

> <Gold.PLP.Chemscore.Metal>
0.0000

> <Gold.Chemscore.Hbonds>
donor molecule, donor type, donor heavy atom, donor atom, acceptor molecule, acceptor atom, score
      L1  H     8    20       P1 10175  1.00
      P1  H  7997  8010       L1    12  2.00
      L1  C     7    25       P1  7957  1.00

> <Gold.PLP.Chemscore.Internal.Correction>
0.1205

> <Gold.Rescore>
     Score         DG    S(hbond)    S(metal)    S(lipo)     H(rot)  DE(clash)    DE(int)     intcor
     12.73     -16.45       1.99        0.00      95.13       2.66       0.11       3.60       ----

> <Gold.Chemscore.Fitness>
12.7335

> <Gold.Chemscore.DG>
-16.4464

> <Gold.Chemscore.ZeroCoef>
-5.4800

> <Gold.Chemscore.Hbond>
1.9885

> <Gold.Chemscore.Metal>
0.0000

> <Gold.Chemscore.Lipo>
95.1266

> <Gold.Chemscore.Internal_Hbond>
0.0000

> <Gold.Chemscore.DEClash>
0.1130

> <Gold.Chemscore.DEInternal>
3.5999

> <Gold.Chemscore.Rot>
2.6581

> <Gold.Chemscore.Internal.Correction>
   9.000000E+99

> <Gold.Chemscore.Hbonds>
donor molecule, donor type, donor heavy atom, donor atom, acceptor molecule, acceptor atom, score
      L1  H     8    20       P1 10175  0.64
      P1  H  7997  8010       L1    12  1.00

> <Gold.Chemscore.Hbond.Weighted>
-6.6414

> <Gold.Chemscore.Metal.Weighted>
-0.0000

> <Gold.Chemscore.Lipo.Weighted>
-11.1298

> <Gold.Chemscore.Internal_Hbond.Weighted>
0.0000

> <Gold.Chemscore.DEClash.Weighted>
0.1130

> <Gold.Chemscore.DEInternal.Weighted>
3.5999

> <Gold.Chemscore.Rot.Weighted>
6.8048

> <Gold.Chemscore.Internal.Correction.Weighted>
   9.000000E+99

> <Gold.Protein.RotatedTorsions>
[ 6907 6896 6895 6894 ] final   90.36 input  -60.11 | X-H torsion
[ 7974 7965 7964 7962 ] final  175.53 input  175.53 | X-H torsion
[ 8008 7997 7996 7995 ] final   89.39 input   59.86 | X-H torsion
[ 10167 10162 10161 10158 ] final  -32.95 input  -65.29 | X-H torsion
[ 10718 10713 10712 10709 ] final -120.74 input   66.30 | X-H torsion
[ 10763 10752 10751 10750 ] final -170.24 input  -60.55 | X-H torsion
[ 11005 11000 10999 10996 ] final  127.11 input  -57.11 | X-H torsion

> <Gold.Protein.ActiveResidues>
 VAL166  LYS551  ARG553  GLY616  TRP617  ASP618  TYR619  PRO620  LYS621  CYS622 
 ASP623  PHE694  ASN695  SER759  ASP760  ASP761  ALA762  ILE779  LEU786  VAL792 
 PHE793  MET794  SER795  GLU796  ALA797  LYS798  CYS799  TRP800  GLU811  SER814 

> <Gold.Protein.RotatedAtoms>
  152.5444  134.1824  159.8640 H   0  0  0  0  0  0  0  0  0  0  0  0  # atno 6907 bound_to 6896
  151.1826  133.4709  159.2601 H   0  0  0  0  0  0  0  0  0  0  0  0  # atno 6908 bound_to 6896
  151.1163  135.0066  159.8573 H   0  0  0  0  0  0  0  0  0  0  0  0  # atno 6909 bound_to 6896
  144.7200  139.9960  143.6440 H   0  0  0  0  0  0  0  0  0  0  0  0  # atno 7974 bound_to 7965
  155.9994  140.3361  155.6830 H   0  0  0  0  0  0  0  0  0  0  0  0  # atno 8008 bound_to 7997
  155.6311  140.0685  157.2666 H   0  0  0  0  0  0  0  0  0  0  0  0  # atno 8009 bound_to 7997
  154.4244  140.1759  156.1461 H   0  0  0  0  0  0  0  0  0  0  0  0  # atno 8010 bound_to 7997
  140.7213  143.3657  151.1876 H   0  0  0  0  0  0  0  0  0  0  0  0  # atno 10167 bound_to 10162
  156.1281  130.6375  150.9577 H   0  0  0  0  0  0  0  0  0  0  0  0  # atno 10718 bound_to 10713
  154.6436  135.2902  155.0073 H   0  0  0  0  0  0  0  0  0  0  0  0  # atno 10763 bound_to 10752
  154.1191  135.6551  153.4903 H   0  0  0  0  0  0  0  0  0  0  0  0  # atno 10764 bound_to 10752
  153.0339  135.5283  154.7314 H   0  0  0  0  0  0  0  0  0  0  0  0  # atno 10765 bound_to 10752
  139.9490  134.9625  156.8806 H   0  0  0  0  0  0  0  0  0  0  0  0  # atno 11005 bound_to 11000
  146.0374  139.3390  143.0718 LP  0  0  0  0  0  0  0  0  0  0  0  0  # atno 17320 bound_to 7965
  145.8378  140.9597  143.0815 LP  0  0  0  0  0  0  0  0  0  0  0  0  # atno 17321 bound_to 7965
  139.7218  143.9212  152.2988 LP  0  0  0  0  0  0  0  0  0  0  0  0  # atno 17342 bound_to 10162
  139.8971  144.6933  150.8706 LP  0  0  0  0  0  0  0  0  0  0  0  0  # atno 17343 bound_to 10162
  157.6462  131.0903  150.8149 LP  0  0  0  0  0  0  0  0  0  0  0  0  # atno 17370 bound_to 10713
  156.8237  130.4992  149.5340 LP  0  0  0  0  0  0  0  0  0  0  0  0  # atno 17371 bound_to 10713
  140.5764  134.0394  155.7448 LP  0  0  0  0  0  0  0  0  0  0  0  0  # atno 17394 bound_to 11000
  141.1149  133.9557  157.2842 LP  0  0  0  0  0  0  0  0  0  0  0  0  # atno 17395 bound_to 11000

$$$$
