AV-unprocessed.smi:218|AV-procd|sdf|1665|dock7
  -GOLD-   2262020 73D 1   1.00000     0.00000
 Structure written by MMmdl.
 54 57  0  0  0  0  0  0  0  0  1 V2000
  150.2875  142.5085  158.2834 C   0  0  0  0  0  0  0  0  0  0  0  0
  151.5944  142.6819  157.5000 C   0  0  0  0  0  0  0  0  0  0  0  0
  152.3325  143.9629  157.9258 C   0  0  0  0  0  0  0  0  0  0  0  0
  151.2439  142.7469  156.1163 O   0  0  0  0  0  0  0  0  0  0  0  0
  150.7973  141.6165  155.4589 C   0  0  0  0  0  0  0  0  0  0  0  0
  149.5299  141.6592  154.8429 C   0  0  0  0  0  0  0  0  0  0  0  0
  149.0575  140.5107  154.1767 C   0  0  0  0  0  0  0  0  0  0  0  0
  147.7064  140.5172  153.4952 C   0  0  0  0  0  0  0  0  0  0  0  0
  147.5182  139.3719  152.6167 N   0  0  0  0  0  0  0  0  0  0  0  0
  147.1502  138.1788  153.1301 C   0  0  0  0  0  0  0  0  0  0  0  0
  147.3407  137.8938  154.4449 N   0  0  0  0  0  0  0  0  0  0  0  0
  146.9692  136.7054  154.9296 C   0  0  0  0  0  0  0  0  0  0  0  0
  146.4044  135.6824  154.2855 N   0  0  0  0  0  0  0  0  0  0  0  0
  146.2088  135.9616  152.9640 C   0  0  0  0  0  0  0  0  0  0  0  0
  146.5530  137.1815  152.3163 C   0  0  0  0  0  0  0  0  0  0  0  0
  146.2116  137.1149  150.9722 N   0  0  0  0  0  0  0  0  0  0  0  0
  145.6951  135.9233  150.8376 C   0  0  0  0  0  0  0  0  0  0  0  0
  145.6545  135.1605  151.9835 N   0  0  0  0  0  0  0  0  0  0  0  0
  145.1157  133.7688  152.1172 C   0  0  1  0  0  0  0  0  0  0  0  0
  144.3486  133.4361  150.9979 O   0  0  0  0  0  0  0  0  0  0  0  0
  144.5770  132.0806  150.5959 C   0  0  1  0  0  0  0  0  0  0  0  0
  145.2228  132.0956  149.1949 C   0  0  0  0  0  0  0  0  0  0  0  0
  144.2749  132.5155  148.2375 O   0  0  0  0  0  0  0  0  0  0  0  0
  145.4623  131.5007  151.7145 C   0  0  1  0  0  0  0  0  0  0  0  0
  146.3078  130.4268  151.3451 O   0  0  0  0  0  0  0  0  0  0  0  0
  146.2122  132.7079  152.2500 C   0  0  1  0  0  0  0  0  0  0  0  0
  147.3825  133.0120  151.5090 O   0  0  0  0  0  0  0  0  0  0  0  0
  149.8746  139.3632  154.1441 C   0  0  0  0  0  0  0  0  0  0  0  0
  151.1259  139.4154  154.7879 C   0  0  0  0  0  0  0  0  0  0  0  0
  151.5816  140.5101  155.4333 N   0  0  0  0  0  0  0  0  0  0  0  0
  144.4642  133.8054  152.9915 H   0  0  0  0  0  0  0  0  0  0  0  0
  143.6333  131.5346  150.5595 H   0  0  0  0  0  0  0  0  0  0  0  0
  144.8051  131.1365  152.5059 H   0  0  0  0  0  0  0  0  0  0  0  0
  146.4870  132.5886  153.2985 H   0  0  0  0  0  0  0  0  0  0  0  0
  150.4782  142.4349  159.3543 H   0  0  0  0  0  0  0  0  0  0  0  0
  149.7671  141.6006  157.9771 H   0  0  0  0  0  0  0  0  0  0  0  0
  149.6132  143.3498  158.1206 H   0  0  0  0  0  0  0  0  0  0  0  0
  152.2130  141.8078  157.7084 H   0  0  0  0  0  0  0  0  0  0  0  0
  152.5695  143.9408  158.9896 H   0  0  0  0  0  0  0  0  0  0  0  0
  151.7235  144.8475  157.7387 H   0  0  0  0  0  0  0  0  0  0  0  0
  153.2708  144.0884  157.3861 H   0  0  0  0  0  0  0  0  0  0  0  0
  148.9325  142.5585  154.8822 H   0  0  0  0  0  0  0  0  0  0  0  0
  146.9236  140.5270  154.2548 H   0  0  0  0  0  0  0  0  0  0  0  0
  147.6079  141.4389  152.9199 H   0  0  0  0  0  0  0  0  0  0  0  0
  147.6966  139.5277  151.6350 H   0  0  0  0  0  0  0  0  0  0  0  0
  147.1511  136.5505  155.9830 H   0  0  0  0  0  0  0  0  0  0  0  0
  145.3237  135.5637  149.8891 H   0  0  0  0  0  0  0  0  0  0  0  0
  146.1058  132.7318  149.1563 H   0  0  0  0  0  0  0  0  0  0  0  0
  145.5386  131.0941  148.9038 H   0  0  0  0  0  0  0  0  0  0  0  0
  144.6351  133.2526  147.7678 H   0  0  0  0  0  0  0  0  0  0  0  0
  147.0806  130.7814  150.9319 H   0  0  0  0  0  0  0  0  0  0  0  0
  147.6920  132.2162  151.1040 H   0  0  0  0  0  0  0  0  0  0  0  0
  149.5532  138.4646  153.6382 H   0  0  0  0  0  0  0  0  0  0  0  0
  151.7787  138.5551  154.7846 H   0  0  0  0  0  0  0  0  0  0  0  0
  1  2  1  0  0  0  0
  1 35  1  0  0  0  0
  1 36  1  0  0  0  0
  1 37  1  0  0  0  0
  2  3  1  0  0  0  0
  2  4  1  0  0  0  0
  2 38  1  0  0  0  0
  3 39  1  0  0  0  0
  3 40  1  0  0  0  0
  3 41  1  0  0  0  0
  4  5  1  0  0  0  0
  5 30  1  0  0  0  0
  5  6  2  0  0  0  0
  6  7  1  0  0  0  0
  6 42  1  0  0  0  0
  7  8  1  0  0  0  0
  7 28  2  0  0  0  0
  8  9  1  0  0  0  0
  8 43  1  0  0  0  0
  8 44  1  0  0  0  0
  9 10  1  0  0  0  0
  9 45  1  0  0  0  0
 10 15  1  0  0  0  0
 10 11  2  0  0  0  0
 11 12  1  0  0  0  0
 12 13  2  0  0  0  0
 12 46  1  0  0  0  0
 13 14  1  0  0  0  0
 14 18  1  0  0  0  0
 14 15  2  0  0  0  0
 15 16  1  0  0  0  0
 16 17  2  0  0  0  0
 17 18  1  0  0  0  0
 17 47  1  0  0  0  0
 18 19  1  0  0  0  0
 19 31  1  0  0  0  0
 19 26  1  0  0  0  0
 19 20  1  0  0  0  0
 20 21  1  0  0  0  0
 21 32  1  0  0  0  0
 21 22  1  0  0  0  0
 21 24  1  0  0  0  0
 22 23  1  0  0  0  0
 22 48  1  0  0  0  0
 22 49  1  0  0  0  0
 23 50  1  0  0  0  0
 24 33  1  0  0  0  0
 24 25  1  0  0  0  0
 24 26  1  0  0  0  0
 25 51  1  0  0  0  0
 26 34  1  0  0  0  0
 26 27  1  0  0  0  0
 27 52  1  0  0  0  0
 28 29  1  0  0  0  0
 28 53  1  0  0  0  0
 29 30  2  0  0  0  0
 29 54  1  0  0  0  0
M  END
> <s_m_source_file>
AV-unprocessed.smi

> <i_m_source_file_index>
218

> <i_lp_mmshare_version>
43012

> <i_f3d_flags>
0

> <s_epik_input>
W0NIM11bQ0hdKFtDSDNdKU9jMVtjSF1jKFtjSF1bY0hdbjEpW0NIMl1bTkhdYyhuW2NIXW4yKWMoYzIzKW5bY0hdbjNbQ0BASF00T1tDQEhdKFtDSDJdW09IXSlbQ0BASF0oW09IXSlbQ0BIXTRbT0hd

> <s_epik_cmdline>
J2VwaWtfcHl0aG9uJywgJy1waCcsICc3LjAnLCAnLXRuJywgJzgnLCAnLW1hJywgJzIwMCcsICctbWV0YWxfYmluZGluZycsICctaW1hZScsICc8aW5maWxlLm1hZT4nLCAnLW9tYWUnLCAnPG91dGZpbGUubWFlPic=

> <r_lp_tautomer_probability>
1

> <r_epik_Ionization_Penalty>
0.00457014

> <r_epik_Ionization_Penalty_Charging>
0

> <r_epik_Ionization_Penalty_Neutral>
0.00457014

> <r_epik_State_Penalty>
-0

> <r_epik_Charging_Adjusted_Penalty>
0

> <i_epik_Tot_Q>
0

> <i_epik_Tot_abs_Q>
0

> <r_epik_Metal_State_Penalty>
-0

> <b_epik_Metal_Only>
0

> <s_epik_Chemistry_Notes>
This compound contains an acetal/aminal-like group ( X-CH(R)-Y where X, Y are N, S, or O) that may be acid/base labile, releasing an aldehyde.

> <s_lp_Force_Field>
OPLS_2005

> <r_lp_Energy>
50.2222

> <b_lp_Chiralities_Consistent>
1

> <s_lp_Variant>
AV-unprocessed.smi:218-4

> <Gold.Version>
5.8.1

> <Gold.Id.Protein>
6NUR|6NUR_protein|mol2

> <Gold.PLP.Fitness>
57.5262

> <Gold.PLP.PLP>
-45.3086

> <Gold.PLP.part.hbond>
-5.7063

> <Gold.PLP.part.metal>
0.0000

> <Gold.PLP.part.buried>
-1.0046

> <Gold.PLP.part.nonpolar>
-41.1509

> <Gold.PLP.part.repulsive>
3.0927

> <Gold.PLP.ligand.clash>
0.0000

> <Gold.PLP.ligand.torsion>
0.8511

> <Gold.PLP.Chemscore.Hbond>
3.5847

> <Gold.PLP.Chemscore.CHOScore>
1.0000

> <Gold.PLP.Chemscore.Metal>
0.0000

> <Gold.Chemscore.Hbonds>
donor molecule, donor type, donor heavy atom, donor atom, acceptor molecule, acceptor atom, score
      L1  H     9    45       P1  7957  0.35
      L1  H    23    50       P1  7921  0.73
      L1  H    25    51       P1 10747  1.00
      L1  H    27    52       P1 10747  0.98
      P1  H  7954  7966       L1    16  0.21
      L1  C    17    47       P1  7921  1.00

> <Gold.PLP.Chemscore.Internal.Correction>
0.1658

> <Gold.Rescore>
     Score         DG    S(hbond)    S(metal)    S(lipo)     H(rot)  DE(clash)    DE(int)     intcor
      8.12     -16.05       3.11        0.00     108.93       4.90       5.74       2.19       ----

> <Gold.Chemscore.Fitness>
8.1167

> <Gold.Chemscore.DG>
-16.0472

> <Gold.Chemscore.ZeroCoef>
-5.4800

> <Gold.Chemscore.Hbond>
3.1061

> <Gold.Chemscore.Metal>
0.0000

> <Gold.Chemscore.Lipo>
108.9260

> <Gold.Chemscore.Internal_Hbond>
0.0000

> <Gold.Chemscore.DEClash>
5.7396

> <Gold.Chemscore.DEInternal>
2.1909

> <Gold.Chemscore.Rot>
4.9029

> <Gold.Chemscore.Internal.Correction>
   9.000000E+99

> <Gold.Chemscore.Hbonds>
donor molecule, donor type, donor heavy atom, donor atom, acceptor molecule, acceptor atom, score
      L1  H     9    45       P1  7957  0.33
      L1  H    23    50       P1  7921  0.48
      L1  H    25    51       P1 10747  0.95
      L1  H    27    52       P1 10747  0.91
      P1  H  7954  7966       L1    16  0.08

> <Gold.Chemscore.Hbond.Weighted>
-10.3744

> <Gold.Chemscore.Metal.Weighted>
-0.0000

> <Gold.Chemscore.Lipo.Weighted>
-12.7443

> <Gold.Chemscore.Internal_Hbond.Weighted>
0.0000

> <Gold.Chemscore.DEClash.Weighted>
5.7396

> <Gold.Chemscore.DEInternal.Weighted>
2.1909

> <Gold.Chemscore.Rot.Weighted>
12.5515

> <Gold.Chemscore.Internal.Correction.Weighted>
   9.000000E+99

> <Gold.Protein.RotatedTorsions>
[ 6907 6896 6895 6894 ] final   34.98 input  -60.11 | X-H torsion
[ 7974 7965 7964 7962 ] final  149.72 input  175.53 | X-H torsion
[ 8008 7997 7996 7995 ] final   66.35 input   59.86 | X-H torsion
[ 10167 10162 10161 10158 ] final   50.36 input  -65.29 | X-H torsion
[ 10718 10713 10712 10709 ] final  -92.79 input   66.30 | X-H torsion
[ 10763 10752 10751 10750 ] final  138.01 input  -60.55 | X-H torsion
[ 11005 11000 10999 10996 ] final -113.67 input  -57.11 | X-H torsion

> <Gold.Protein.ActiveResidues>
 VAL166  LYS551  ARG553  GLY616  TRP617  ASP618  TYR619  PRO620  LYS621  CYS622 
 ASP623  PHE694  ASN695  SER759  ASP760  ASP761  ALA762  ILE779  LEU786  VAL792 
 PHE793  MET794  SER795  GLU796  ALA797  LYS798  CYS799  TRP800  GLU811  SER814 

> <Gold.Protein.RotatedAtoms>
  152.1099  134.9282  160.0566 H   0  0  0  0  0  0  0  0  0  0  0  0  # atno 6907 bound_to 6896
  152.0463  133.3994  159.4366 H   0  0  0  0  0  0  0  0  0  0  0  0  # atno 6908 bound_to 6896
  150.6843  134.3278  159.4858 H   0  0  0  0  0  0  0  0  0  0  0  0  # atno 6909 bound_to 6896
  144.8417  139.6316  143.6013 H   0  0  0  0  0  0  0  0  0  0  0  0  # atno 7974 bound_to 7965
  155.6760  140.3497  155.4836 H   0  0  0  0  0  0  0  0  0  0  0  0  # atno 8008 bound_to 7997
  155.9648  140.1144  157.0887 H   0  0  0  0  0  0  0  0  0  0  0  0  # atno 8009 bound_to 7997
  154.4151  140.1168  156.5213 H   0  0  0  0  0  0  0  0  0  0  0  0  # atno 8010 bound_to 7997
  140.2733  144.3241  150.6284 H   0  0  0  0  0  0  0  0  0  0  0  0  # atno 10167 bound_to 10162
  156.0006  130.5001  150.5678 H   0  0  0  0  0  0  0  0  0  0  0  0  # atno 10718 bound_to 10713
  153.8825  135.3042  155.3445 H   0  0  0  0  0  0  0  0  0  0  0  0  # atno 10763 bound_to 10752
  154.7754  135.4864  153.9737 H   0  0  0  0  0  0  0  0  0  0  0  0  # atno 10764 bound_to 10752
  153.1343  135.6810  153.9225 H   0  0  0  0  0  0  0  0  0  0  0  0  # atno 10765 bound_to 10752
  141.0599  133.9551  157.2685 H   0  0  0  0  0  0  0  0  0  0  0  0  # atno 11005 bound_to 11000
  146.2709  139.6632  142.9297 LP  0  0  0  0  0  0  0  0  0  0  0  0  # atno 17320 bound_to 7965
  145.4680  141.0435  143.2714 LP  0  0  0  0  0  0  0  0  0  0  0  0  # atno 17321 bound_to 7965
  140.5872  143.2169  151.7320 LP  0  0  0  0  0  0  0  0  0  0  0  0  # atno 17342 bound_to 10162
  139.4983  144.3993  152.0198 LP  0  0  0  0  0  0  0  0  0  0  0  0  # atno 17343 bound_to 10162
  157.3578  131.0744  151.1661 LP  0  0  0  0  0  0  0  0  0  0  0  0  # atno 17370 bound_to 10713
  157.2456  130.6590  149.5909 LP  0  0  0  0  0  0  0  0  0  0  0  0  # atno 17371 bound_to 10713
  139.9424  135.0189  156.8748 LP  0  0  0  0  0  0  0  0  0  0  0  0  # atno 17394 bound_to 11000
  140.5888  134.0281  155.7492 LP  0  0  0  0  0  0  0  0  0  0  0  0  # atno 17395 bound_to 11000

$$$$
