AV-unprocessed.smi:1879|AV-procd|sdf|7631|dock4
  -GOLD-   22720 9353D 1   1.00000     0.00000
 Structure written by MMmdl.
 46 48  0  0  0  0  0  0  0  0  1 V2000
  147.4809  132.5330  154.1313 O   0  0  0  0  0  0  0  0  0  0  0  0
  147.8323  133.5148  153.4773 C   0  0  0  0  0  0  0  0  0  0  0  0
  148.9576  134.2199  153.6815 N   0  0  0  0  0  0  0  0  0  0  0  0
  149.9954  133.9834  154.6276 C   0  0  0  0  0  0  0  0  0  0  0  0
  150.2730  132.7011  155.1613 C   0  0  0  0  0  0  0  0  0  0  0  0
  151.3365  132.5522  156.0701 C   0  0  0  0  0  0  0  0  0  0  0  0
  152.0910  133.6896  156.4090 C   0  0  0  0  0  0  0  0  0  0  0  0
  151.8490  134.9144  155.8995 N   0  0  0  0  0  0  0  0  0  0  0  0
  150.8259  135.0636  155.0227 C   0  0  0  0  0  0  0  0  0  0  0  0
  150.5965  136.3496  154.5010 N   0  0  0  0  0  0  0  0  0  0  0  0
  149.3364  136.9657  154.8825 C   0  0  0  0  0  0  0  0  0  0  0  0
  149.4842  138.4466  154.5258 C   0  0  0  0  0  0  0  0  0  0  0  0
  150.9974  138.6928  154.4844 C   0  0  0  0  0  0  0  0  0  0  0  0
  151.6288  137.3314  154.7890 C   0  0  0  0  0  0  0  0  0  0  0  0
  147.1177  134.0345  152.4690 N   0  0  0  0  0  0  0  0  0  0  0  0
  145.8407  133.5290  151.9724 C   0  0  2  0  0  0  0  0  0  0  0  0
  146.0686  132.1971  151.2316 C   0  0  0  0  0  0  0  0  0  0  0  0
  144.7682  131.6702  150.6039 C   0  0  0  0  0  0  0  0  0  0  0  0
  144.1421  132.7198  149.6699 C   0  0  1  0  0  0  0  0  0  0  0  0
  142.9226  132.2279  149.1559 O   0  0  0  0  0  0  0  0  0  0  0  0
  143.8922  134.0421  150.4152 C   0  0  0  0  0  0  0  0  0  0  0  0
  145.1890  134.5751  151.0464 C   0  0  0  0  0  0  0  0  0  0  0  0
  149.0593  135.0636  153.1362 H   0  0  0  0  0  0  0  0  0  0  0  0
  149.7035  131.8291  154.8793 H   0  0  0  0  0  0  0  0  0  0  0  0
  151.5718  131.5870  156.4932 H   0  0  0  0  0  0  0  0  0  0  0  0
  152.9152  133.6130  157.1024 H   0  0  0  0  0  0  0  0  0  0  0  0
  148.4992  136.5069  154.3556 H   0  0  0  0  0  0  0  0  0  0  0  0
  149.1618  136.8551  155.9536 H   0  0  0  0  0  0  0  0  0  0  0  0
  149.0499  138.6447  153.5451 H   0  0  0  0  0  0  0  0  0  0  0  0
  148.9776  139.0869  155.2485 H   0  0  0  0  0  0  0  0  0  0  0  0
  151.2906  139.0357  153.4915 H   0  0  0  0  0  0  0  0  0  0  0  0
  151.3136  139.4487  155.2038 H   0  0  0  0  0  0  0  0  0  0  0  0
  151.9244  137.2814  155.8379 H   0  0  0  0  0  0  0  0  0  0  0  0
  152.5162  137.1558  154.1801 H   0  0  0  0  0  0  0  0  0  0  0  0
  147.4901  134.8481  152.0014 H   0  0  0  0  0  0  0  0  0  0  0  0
  145.1600  133.3373  152.8040 H   0  0  0  0  0  0  0  0  0  0  0  0
  146.8167  132.3314  150.4488 H   0  0  0  0  0  0  0  0  0  0  0  0
  146.4716  131.4523  151.9190 H   0  0  0  0  0  0  0  0  0  0  0  0
  144.9709  130.7504  150.0541 H   0  0  0  0  0  0  0  0  0  0  0  0
  144.0646  131.4095  151.3958 H   0  0  0  0  0  0  0  0  0  0  0  0
  144.8119  132.8999  148.8279 H   0  0  0  0  0  0  0  0  0  0  0  0
  142.2468  132.8672  149.3222 H   0  0  0  0  0  0  0  0  0  0  0  0
  143.4816  134.7865  149.7318 H   0  0  0  0  0  0  0  0  0  0  0  0
  143.1452  133.8930  151.1964 H   0  0  0  0  0  0  0  0  0  0  0  0
  144.9765  135.4876  151.6049 H   0  0  0  0  0  0  0  0  0  0  0  0
  145.8856  134.8533  150.2540 H   0  0  0  0  0  0  0  0  0  0  0  0
  1  2  2  0  0  0  0
  2  3  1  0  0  0  0
  2 15  1  0  0  0  0
  3  4  1  0  0  0  0
  3 23  1  0  0  0  0
  4  9  1  0  0  0  0
  4  5  2  0  0  0  0
  5  6  1  0  0  0  0
  5 24  1  0  0  0  0
  6  7  2  0  0  0  0
  6 25  1  0  0  0  0
  7  8  1  0  0  0  0
  7 26  1  0  0  0  0
  8  9  2  0  0  0  0
  9 10  1  0  0  0  0
 10 14  1  0  0  0  0
 10 11  1  0  0  0  0
 11 12  1  0  0  0  0
 11 27  1  0  0  0  0
 11 28  1  0  0  0  0
 12 13  1  0  0  0  0
 12 29  1  0  0  0  0
 12 30  1  0  0  0  0
 13 14  1  0  0  0  0
 13 31  1  0  0  0  0
 13 32  1  0  0  0  0
 14 33  1  0  0  0  0
 14 34  1  0  0  0  0
 15 16  1  0  0  0  0
 15 35  1  0  0  0  0
 16 22  1  0  0  0  0
 16 17  1  0  0  0  0
 16 36  1  0  0  0  0
 17 18  1  0  0  0  0
 17 37  1  0  0  0  0
 17 38  1  0  0  0  0
 18 19  1  0  0  0  0
 18 39  1  0  0  0  0
 18 40  1  0  0  0  0
 19 20  1  0  0  0  0
 19 21  1  0  0  0  0
 19 41  1  0  0  0  0
 20 42  1  0  0  0  0
 21 22  1  0  0  0  0
 21 43  1  0  0  0  0
 21 44  1  0  0  0  0
 22 45  1  0  0  0  0
 22 46  1  0  0  0  0
M  END
> <s_m_source_file>
AV-unprocessed.smi

> <i_m_source_file_index>
1879

> <i_lp_mmshare_version>
43012

> <i_f3d_flags>
0

> <s_epik_input>
W0NIMl0xW0NIMl1bQ0BIXShbT0hdKVtDSDJdW0NIMl1bQ0BIXTFbTkhdQyg9TylbTkhdYzJbY0hdW2NIXVtjSF1uYzJOM1tDSDJdW0NIMl1bQ0gyXVtDSDJdMw==

> <s_epik_cmdline>
J2VwaWtfcHl0aG9uJywgJy1waCcsICc3LjAnLCAnLXRuJywgJzgnLCAnLW1hJywgJzIwMCcsICctbWV0YWxfYmluZGluZycsICctaW1hZScsICc8aW5maWxlLm1hZT4nLCAnLW9tYWUnLCAnPG91dGZpbGUubWFlPic=

> <r_lp_tautomer_probability>
1

> <r_epik_Ionization_Penalty>
0.104121

> <r_epik_Ionization_Penalty_Charging>
0

> <r_epik_Ionization_Penalty_Neutral>
0.104121

> <r_epik_State_Penalty>
0.0934704

> <r_epik_Charging_Adjusted_Penalty>
0.0934704

> <i_epik_Tot_Q>
0

> <i_epik_Tot_abs_Q>
0

> <r_epik_Metal_State_Penalty>
0.0794466

> <b_epik_Metal_Only>
0

> <s_lp_Force_Field>
OPLS_2005

> <r_lp_Energy>
38.1849

> <b_lp_Chiralities_Consistent>
1

> <s_lp_Variant>
AV-unprocessed.smi:1879-1

> <Gold.Version>
5.8.1

> <Gold.Id.Protein>
6NUR|6NUR_protein|mol2

> <Gold.PLP.Fitness>
51.2599

> <Gold.PLP.PLP>
-37.6975

> <Gold.PLP.part.hbond>
-5.8824

> <Gold.PLP.part.metal>
0.0000

> <Gold.PLP.part.buried>
-4.2039

> <Gold.PLP.part.nonpolar>
-29.3524

> <Gold.PLP.part.repulsive>
0.2437

> <Gold.PLP.ligand.clash>
0.0000

> <Gold.PLP.ligand.torsion>
0.3796

> <Gold.PLP.Chemscore.Hbond>
4.7637

> <Gold.PLP.Chemscore.CHOScore>
0.0000

> <Gold.PLP.Chemscore.Metal>
0.0000

> <Gold.Chemscore.Hbonds>
donor molecule, donor type, donor heavy atom, donor atom, acceptor molecule, acceptor atom, score
      L1  H     3    23       P1  7948  0.85
      L1  H    15    35       P1  7948  0.98
      L1  H    20    42       P1 10186  1.00
      P1  H 10752 10763       L1     8  0.86
      P1  H 10785 10796       L1    20  0.71

> <Gold.PLP.Chemscore.Internal.Correction>
0.0304

> <Gold.Rescore>
     Score         DG    S(hbond)    S(metal)    S(lipo)     H(rot)  DE(clash)    DE(int)     intcor
     19.52     -21.51       2.93        0.00      90.01       1.67       0.19       1.81       ----

> <Gold.Chemscore.Fitness>
19.5183

> <Gold.Chemscore.DG>
-21.5144

> <Gold.Chemscore.ZeroCoef>
-5.4800

> <Gold.Chemscore.Hbond>
2.9296

> <Gold.Chemscore.Metal>
0.0000

> <Gold.Chemscore.Lipo>
90.0068

> <Gold.Chemscore.Internal_Hbond>
0.0000

> <Gold.Chemscore.DEClash>
0.1851

> <Gold.Chemscore.DEInternal>
1.8110

> <Gold.Chemscore.Rot>
1.6723

> <Gold.Chemscore.Internal.Correction>
   9.000000E+99

> <Gold.Chemscore.Hbonds>
donor molecule, donor type, donor heavy atom, donor atom, acceptor molecule, acceptor atom, score
      L1  H     3    23       P1  7948  0.15
      L1  H    15    35       P1  7948  0.75
      L1  H    20    42       P1 10186  0.97
      P1  H 10752 10763       L1     8  0.28
      P1  H 10785 10796       L1    20  0.46

> <Gold.Chemscore.Hbond.Weighted>
-9.7848

> <Gold.Chemscore.Metal.Weighted>
-0.0000

> <Gold.Chemscore.Lipo.Weighted>
-10.5308

> <Gold.Chemscore.Internal_Hbond.Weighted>
0.0000

> <Gold.Chemscore.DEClash.Weighted>
0.1851

> <Gold.Chemscore.DEInternal.Weighted>
1.8110

> <Gold.Chemscore.Rot.Weighted>
4.2812

> <Gold.Chemscore.Internal.Correction.Weighted>
   9.000000E+99

> <Gold.Protein.RotatedTorsions>
[ 6907 6896 6895 6894 ] final -115.90 input  -60.11 | X-H torsion
[ 7974 7965 7964 7962 ] final   89.66 input  175.53 | X-H torsion
[ 8008 7997 7996 7995 ] final  -26.50 input   59.86 | X-H torsion
[ 10167 10162 10161 10158 ] final -135.69 input  -65.29 | X-H torsion
[ 10718 10713 10712 10709 ] final  -48.63 input   66.30 | X-H torsion
[ 10763 10752 10751 10750 ] final   94.08 input  -60.55 | X-H torsion
[ 11005 11000 10999 10996 ] final  -31.07 input  -57.11 | X-H torsion

> <Gold.Protein.ActiveResidues>
 VAL166  LYS551  ARG553  GLY616  TRP617  ASP618  TYR619  PRO620  LYS621  CYS622 
 ASP623  PHE694  ASN695  SER759  ASP760  ASP761  ALA762  ILE779  LEU786  VAL792 
 PHE793  MET794  SER795  GLU796  ALA797  LYS798  CYS799  TRP800  GLU811  SER814 

> <Gold.Protein.RotatedAtoms>
  150.8014  133.8593  159.3226 H   0  0  0  0  0  0  0  0  0  0  0  0  # atno 6907 bound_to 6896
  151.6404  135.1011  160.0149 H   0  0  0  0  0  0  0  0  0  0  0  0  # atno 6908 bound_to 6896
  152.4101  133.6911  159.6425 H   0  0  0  0  0  0  0  0  0  0  0  0  # atno 6909 bound_to 6896
  145.5293  139.2282  143.2627 H   0  0  0  0  0  0  0  0  0  0  0  0  # atno 7974 bound_to 7965
  154.4422  140.1898  156.0784 H   0  0  0  0  0  0  0  0  0  0  0  0  # atno 8008 bound_to 7997
  156.0457  140.3314  155.7267 H   0  0  0  0  0  0  0  0  0  0  0  0  # atno 8009 bound_to 7997
  155.5632  140.0605  157.2814 H   0  0  0  0  0  0  0  0  0  0  0  0  # atno 8010 bound_to 7997
  139.8753  143.6906  152.2634 H   0  0  0  0  0  0  0  0  0  0  0  0  # atno 10167 bound_to 10162
  156.1969  130.4154  149.9294 H   0  0  0  0  0  0  0  0  0  0  0  0  # atno 10718 bound_to 10713
  153.2376  135.4302  155.0663 H   0  0  0  0  0  0  0  0  0  0  0  0  # atno 10763 bound_to 10752
  154.8326  135.3394  154.6697 H   0  0  0  0  0  0  0  0  0  0  0  0  # atno 10764 bound_to 10752
  153.7121  135.7022  153.5091 H   0  0  0  0  0  0  0  0  0  0  0  0  # atno 10765 bound_to 10752
  140.9437  133.7263  156.1114 H   0  0  0  0  0  0  0  0  0  0  0  0  # atno 11005 bound_to 11000
  146.2054  140.6109  142.9083 LP  0  0  0  0  0  0  0  0  0  0  0  0  # atno 17320 bound_to 7965
  144.7634  140.5475  143.6720 LP  0  0  0  0  0  0  0  0  0  0  0  0  # atno 17321 bound_to 7965
  139.7246  144.7595  151.0900 LP  0  0  0  0  0  0  0  0  0  0  0  0  # atno 17342 bound_to 10162
  140.7754  143.5164  150.9589 LP  0  0  0  0  0  0  0  0  0  0  0  0  # atno 17343 bound_to 10162
  156.7016  130.8935  151.3600 LP  0  0  0  0  0  0  0  0  0  0  0  0  # atno 17370 bound_to 10713
  157.6963  130.9285  150.0654 LP  0  0  0  0  0  0  0  0  0  0  0  0  # atno 17371 bound_to 10713
  140.7699  134.3845  157.5510 LP  0  0  0  0  0  0  0  0  0  0  0  0  # atno 17394 bound_to 11000
  139.8827  134.9015  156.2812 LP  0  0  0  0  0  0  0  0  0  0  0  0  # atno 17395 bound_to 11000

$$$$
