AV-unprocessed.smi:321|AV-procd|sdf|2334|dock10
  -GOLD-   2262022243D 1   1.00000     0.00000
 Structure written by MMmdl.
 49 50  0  0  0  0  0  0  0  0  1 V2000
  152.4940  142.4427  159.5072 C   0  0  0  0  0  0  0  0  0  0  0  0
  151.9972  142.0470  158.1118 C   0  0  0  0  0  0  0  0  0  0  0  0
  151.9712  140.2130  157.8808 S   0  0  0  0  0  0  0  0  0  0  0  0
  153.3378  139.6930  158.0450 O   0  0  0  0  0  0  0  0  0  0  0  0
  150.8772  139.6634  158.6959 O   0  0  0  0  0  0  0  0  0  0  0  0
  151.5289  140.0028  156.2095 N   0  0  0  0  0  0  0  0  0  0  0  0
  152.4393  139.3139  155.2705 C   0  0  0  0  0  0  0  0  0  0  0  0
  151.9681  137.8843  154.9497 C   0  0  0  0  0  0  0  0  0  0  0  0
  150.5029  137.8637  154.4809 C   0  0  0  0  0  0  0  0  0  0  0  0
  150.0418  136.4954  154.2674 N   0  0  0  0  0  0  0  0  0  0  0  0
  150.1331  135.4941  155.1613 C   0  0  0  0  0  0  0  0  0  0  0  0
  150.6243  135.6426  156.2814 O   0  0  0  0  0  0  0  0  0  0  0  0
  149.5957  134.1819  154.7058 C   0  0  0  0  0  0  0  0  0  0  0  0
  150.1904  132.9837  155.2736 C   0  0  0  0  0  0  0  0  0  0  0  0
  149.7175  131.7825  154.8756 C   0  0  0  0  0  0  0  0  0  0  0  0
  148.6338  131.6606  153.8992 C   0  0  0  0  0  0  0  0  0  0  0  0
  148.1851  130.5770  153.5269 O   0  0  0  0  0  0  0  0  0  0  0  0
  148.1640  132.8602  153.4402 N   0  0  0  0  0  0  0  0  0  0  0  0
  147.0694  132.9284  152.4649 C   0  0  0  0  0  0  0  0  0  0  0  0
  145.7838  132.2776  153.0012 C   0  0  0  0  0  0  0  0  0  0  0  0
  144.7568  132.3612  152.0269 O   0  0  0  0  0  0  0  0  0  0  0  0
  145.0174  131.5563  150.8910 C   0  0  0  0  0  0  0  0  0  0  0  0
  148.6379  134.0995  153.8396 N   0  0  0  0  0  0  0  0  0  0  0  0
  149.6223  138.5492  155.5350 C   0  0  0  0  0  0  0  0  0  0  0  0
  150.1055  139.9816  155.8212 C   0  0  0  0  0  0  0  0  0  0  0  0
  152.5298  143.5269  159.6122 H   0  0  0  0  0  0  0  0  0  0  0  0
  153.4950  142.0567  159.6975 H   0  0  0  0  0  0  0  0  0  0  0  0
  151.8340  142.0568  160.2843 H   0  0  0  0  0  0  0  0  0  0  0  0
  150.9764  142.4064  157.9811 H   0  0  0  0  0  0  0  0  0  0  0  0
  152.5976  142.5021  157.3284 H   0  0  0  0  0  0  0  0  0  0  0  0
  152.4797  139.8948  154.3484 H   0  0  0  0  0  0  0  0  0  0  0  0
  153.4549  139.2972  155.6643 H   0  0  0  0  0  0  0  0  0  0  0  0
  152.6126  137.4609  154.1786 H   0  0  0  0  0  0  0  0  0  0  0  0
  152.0912  137.2457  155.8235 H   0  0  0  0  0  0  0  0  0  0  0  0
  150.4166  138.4205  153.5455 H   0  0  0  0  0  0  0  0  0  0  0  0
  149.6249  136.2893  153.3709 H   0  0  0  0  0  0  0  0  0  0  0  0
  150.9910  133.0433  155.9964 H   0  0  0  0  0  0  0  0  0  0  0  0
  150.1505  130.8839  155.2897 H   0  0  0  0  0  0  0  0  0  0  0  0
  146.8670  133.9760  152.2353 H   0  0  0  0  0  0  0  0  0  0  0  0
  147.3501  132.4779  151.5115 H   0  0  0  0  0  0  0  0  0  0  0  0
  145.9684  131.2371  153.2741 H   0  0  0  0  0  0  0  0  0  0  0  0
  145.4656  132.7976  153.9060 H   0  0  0  0  0  0  0  0  0  0  0  0
  144.2042  131.6620  150.1730 H   0  0  0  0  0  0  0  0  0  0  0  0
  145.0913  130.5026  151.1634 H   0  0  0  0  0  0  0  0  0  0  0  0
  145.9428  131.8568  150.3981 H   0  0  0  0  0  0  0  0  0  0  0  0
  148.5868  138.5774  155.1939 H   0  0  0  0  0  0  0  0  0  0  0  0
  149.6251  137.9663  156.4558 H   0  0  0  0  0  0  0  0  0  0  0  0
  149.4939  140.4407  156.5976 H   0  0  0  0  0  0  0  0  0  0  0  0
  149.9821  140.5953  154.9282 H   0  0  0  0  0  0  0  0  0  0  0  0
  1  2  1  0  0  0  0
  1 26  1  0  0  0  0
  1 27  1  0  0  0  0
  1 28  1  0  0  0  0
  2  3  1  0  0  0  0
  2 29  1  0  0  0  0
  2 30  1  0  0  0  0
  3  4  2  0  0  0  0
  3  5  2  0  0  0  0
  3  6  1  0  0  0  0
  6 25  1  0  0  0  0
  6  7  1  0  0  0  0
  7  8  1  0  0  0  0
  7 31  1  0  0  0  0
  7 32  1  0  0  0  0
  8  9  1  0  0  0  0
  8 33  1  0  0  0  0
  8 34  1  0  0  0  0
  9 10  1  0  0  0  0
  9 24  1  0  0  0  0
  9 35  1  0  0  0  0
 10 11  1  0  0  0  0
 10 36  1  0  0  0  0
 11 12  2  0  0  0  0
 11 13  1  0  0  0  0
 13 23  2  0  0  0  0
 13 14  1  0  0  0  0
 14 15  2  0  0  0  0
 14 37  1  0  0  0  0
 15 16  1  0  0  0  0
 15 38  1  0  0  0  0
 16 17  2  0  0  0  0
 16 18  1  0  0  0  0
 18 19  1  0  0  0  0
 18 23  1  0  0  0  0
 19 20  1  0  0  0  0
 19 39  1  0  0  0  0
 19 40  1  0  0  0  0
 20 21  1  0  0  0  0
 20 41  1  0  0  0  0
 20 42  1  0  0  0  0
 21 22  1  0  0  0  0
 22 43  1  0  0  0  0
 22 44  1  0  0  0  0
 22 45  1  0  0  0  0
 24 25  1  0  0  0  0
 24 46  1  0  0  0  0
 24 47  1  0  0  0  0
 25 48  1  0  0  0  0
 25 49  1  0  0  0  0
M  END
> <s_m_source_file>
AV-unprocessed.smi

> <i_m_source_file_index>
321

> <i_lp_mmshare_version>
43012

> <i_f3d_flags>
0

> <s_epik_input>
W0NIM11bQ0gyXVMoPU8pKD1PKU4xW0NIMl1bQ0gyXVtDSF0oW0NIMl1bQ0gyXTEpW05IXUMoPU8pYzJbY0hdW2NIXWMoPU8pbihuMilbQ0gyXVtDSDJdT1tDSDNd

> <s_epik_cmdline>
J2VwaWtfcHl0aG9uJywgJy1waCcsICc3LjAnLCAnLXRuJywgJzgnLCAnLW1hJywgJzIwMCcsICctbWV0YWxfYmluZGluZycsICctaW1hZScsICc8aW5maWxlLm1hZT4nLCAnLW9tYWUnLCAnPG91dGZpbGUubWFlPic=

> <r_lp_tautomer_probability>
1

> <r_epik_Ionization_Penalty>
1.38514e-06

> <r_epik_Ionization_Penalty_Charging>
6.369e-09

> <r_epik_Ionization_Penalty_Neutral>
1.37877e-06

> <r_epik_State_Penalty>
-0

> <r_epik_Charging_Adjusted_Penalty>
6.369e-09

> <i_epik_Tot_Q>
0

> <i_epik_Tot_abs_Q>
0

> <r_epik_Metal_State_Penalty>
-0

> <b_epik_Metal_Only>
0

> <s_lp_Force_Field>
OPLS_2005

> <r_lp_Energy>
23.8323

> <b_lp_Chiralities_Consistent>
1

> <s_lp_Variant>
AV-unprocessed.smi:321-1

> <Gold.Version>
5.8.1

> <Gold.Id.Protein>
6NUR|6NUR_protein|mol2

> <Gold.PLP.Fitness>
46.8949

> <Gold.PLP.PLP>
-41.7645

> <Gold.PLP.part.hbond>
-3.0000

> <Gold.PLP.part.metal>
0.0000

> <Gold.PLP.part.buried>
-5.1178

> <Gold.PLP.part.nonpolar>
-36.1551

> <Gold.PLP.part.repulsive>
2.0431

> <Gold.PLP.ligand.clash>
0.0000

> <Gold.PLP.ligand.torsion>
1.5365

> <Gold.PLP.Chemscore.Hbond>
2.0000

> <Gold.PLP.Chemscore.CHOScore>
0.0000

> <Gold.PLP.Chemscore.Metal>
0.0000

> <Gold.Chemscore.Hbonds>
donor molecule, donor type, donor heavy atom, donor atom, acceptor molecule, acceptor atom, score
      L1  H    10    36       P1  7948  1.00
      P1  H  7997  8009       L1     4  1.00

> <Gold.PLP.Chemscore.Internal.Correction>
2.2033

> <Gold.Rescore>
     Score         DG    S(hbond)    S(metal)    S(lipo)     H(rot)  DE(clash)    DE(int)     intcor
     13.69     -16.54       1.87        0.00      81.81       1.86       0.15       2.70       ----

> <Gold.Chemscore.Fitness>
13.6936

> <Gold.Chemscore.DG>
-16.5360

> <Gold.Chemscore.ZeroCoef>
-5.4800

> <Gold.Chemscore.Hbond>
1.8674

> <Gold.Chemscore.Metal>
0.0000

> <Gold.Chemscore.Lipo>
81.8114

> <Gold.Chemscore.Internal_Hbond>
0.0000

> <Gold.Chemscore.DEClash>
0.1461

> <Gold.Chemscore.DEInternal>
2.6963

> <Gold.Chemscore.Rot>
1.8567

> <Gold.Chemscore.Internal.Correction>
   9.000000E+99

> <Gold.Chemscore.Hbonds>
donor molecule, donor type, donor heavy atom, donor atom, acceptor molecule, acceptor atom, score
      L1  H    10    36       P1  7948  0.34
      P1  H  7997  8009       L1     4  0.94

> <Gold.Chemscore.Hbond.Weighted>
-6.2371

> <Gold.Chemscore.Metal.Weighted>
-0.0000

> <Gold.Chemscore.Lipo.Weighted>
-9.5719

> <Gold.Chemscore.Internal_Hbond.Weighted>
0.0000

> <Gold.Chemscore.DEClash.Weighted>
0.1461

> <Gold.Chemscore.DEInternal.Weighted>
2.6963

> <Gold.Chemscore.Rot.Weighted>
4.7530

> <Gold.Chemscore.Internal.Correction.Weighted>
   9.000000E+99

> <Gold.Protein.RotatedTorsions>
[ 6907 6896 6895 6894 ] final -102.70 input  -60.11 | X-H torsion
[ 7974 7965 7964 7962 ] final  148.69 input  175.53 | X-H torsion
[ 8008 7997 7996 7995 ] final  168.52 input   59.86 | X-H torsion
[ 10167 10162 10161 10158 ] final  -45.04 input  -65.29 | X-H torsion
[ 10718 10713 10712 10709 ] final  144.39 input   66.30 | X-H torsion
[ 10763 10752 10751 10750 ] final  115.23 input  -60.55 | X-H torsion
[ 11005 11000 10999 10996 ] final  146.13 input  -57.11 | X-H torsion

> <Gold.Protein.ActiveResidues>
 VAL166  LYS551  ARG553  GLY616  TRP617  ASP618  TYR619  PRO620  LYS621  CYS622 
 ASP623  PHE694  ASN695  SER759  ASP760  ASP761  ALA762  ILE779  LEU786  VAL792 
 PHE793  MET794  SER795  GLU796  ALA797  LYS798  CYS799  TRP800  GLU811  SER814 

> <Gold.Protein.RotatedAtoms>
  150.7207  134.0542  159.3808 H   0  0  0  0  0  0  0  0  0  0  0  0  # atno 6907 bound_to 6896
  151.8520  135.0552  160.0469 H   0  0  0  0  0  0  0  0  0  0  0  0  # atno 6908 bound_to 6896
  152.2783  133.5411  159.5518 H   0  0  0  0  0  0  0  0  0  0  0  0  # atno 6909 bound_to 6896
  144.8495  139.6185  143.5980 H   0  0  0  0  0  0  0  0  0  0  0  0  # atno 7974 bound_to 7965
  156.1540  140.1588  156.8724 H   0  0  0  0  0  0  0  0  0  0  0  0  # atno 8008 bound_to 7997
  154.5097  140.0804  156.8002 H   0  0  0  0  0  0  0  0  0  0  0  0  # atno 8009 bound_to 7997
  155.3841  140.3406  155.4250 H   0  0  0  0  0  0  0  0  0  0  0  0  # atno 8010 bound_to 7997
  140.6873  143.2899  151.3582 H   0  0  0  0  0  0  0  0  0  0  0  0  # atno 10167 bound_to 10162
  157.3577  131.0960  151.0943 H   0  0  0  0  0  0  0  0  0  0  0  0  # atno 10718 bound_to 10713
  153.5190  135.3602  155.2623 H   0  0  0  0  0  0  0  0  0  0  0  0  # atno 10763 bound_to 10752
  154.8736  135.4041  154.3281 H   0  0  0  0  0  0  0  0  0  0  0  0  # atno 10764 bound_to 10752
  153.3948  135.7073  153.6535 H   0  0  0  0  0  0  0  0  0  0  0  0  # atno 10765 bound_to 10752
  140.0768  134.9120  157.1436 H   0  0  0  0  0  0  0  0  0  0  0  0  # atno 11005 bound_to 11000
  146.2772  139.6784  142.9254 LP  0  0  0  0  0  0  0  0  0  0  0  0  # atno 17320 bound_to 7965
  145.4529  141.0429  143.2794 LP  0  0  0  0  0  0  0  0  0  0  0  0  # atno 17321 bound_to 7965
  139.6243  144.0844  152.2420 LP  0  0  0  0  0  0  0  0  0  0  0  0  # atno 17342 bound_to 10162
  140.0299  144.6089  150.7497 LP  0  0  0  0  0  0  0  0  0  0  0  0  # atno 17343 bound_to 10162
  157.2095  130.6431  149.5768 LP  0  0  0  0  0  0  0  0  0  0  0  0  # atno 17370 bound_to 10713
  155.9732  130.4665  150.6290 LP  0  0  0  0  0  0  0  0  0  0  0  0  # atno 17371 bound_to 10713
  140.3546  134.2561  155.7194 LP  0  0  0  0  0  0  0  0  0  0  0  0  # atno 17394 bound_to 11000
  141.2032  133.7917  157.0350 LP  0  0  0  0  0  0  0  0  0  0  0  0  # atno 17395 bound_to 11000

$$$$
