AV-unprocessed.smi:737|AV-procd|sdf|3536|dock5
  -GOLD-   22720 0533D 1   1.00000     0.00000
 Structure written by MMmdl.
 45 47  0  0  0  0  0  0  0  0  1 V2000
  149.5257  135.8951  154.9449 C   0  0  0  0  0  0  0  0  0  0  0  0
  148.9177  137.1492  154.5304 N   0  0  0  0  0  0  0  0  0  0  0  0
  149.6248  138.3553  154.6319 C   0  0  0  0  0  0  0  0  0  0  0  0
  150.9137  138.3493  155.0438 N   0  0  0  0  0  0  0  0  0  0  0  0
  151.5495  139.5248  155.1312 C   0  0  0  0  0  0  0  0  0  0  0  0
  151.0890  140.7572  154.8653 N   0  0  0  0  0  0  0  0  0  0  0  0
  149.8136  140.7742  154.4549 C   0  0  0  0  0  0  0  0  0  0  0  0
  149.0848  141.9010  154.1147 N   0  0  0  0  0  0  0  0  0  0  0  0
  147.9084  141.3734  153.7857 C   0  0  0  0  0  0  0  0  0  0  0  0
  147.7811  140.0349  153.8720 N   0  0  0  0  0  0  0  0  0  0  0  0
  146.5925  139.2599  153.5602 C   0  0  0  0  0  0  0  0  0  0  0  0
  146.8696  138.1349  152.5416 C   0  0  2  0  0  0  0  0  0  0  0  0
  146.8325  138.6033  151.2079 O   0  0  0  0  0  0  0  0  0  0  0  0
  145.9127  136.9406  152.6753 C   0  0  0  0  0  0  0  0  0  0  0  0
  144.5919  137.3457  152.3422 O   0  0  0  0  0  0  0  0  0  0  0  0
  143.6324  136.4203  152.6603 C   0  0  0  0  0  0  0  0  0  0  0  0
  143.6259  135.1490  152.0376 C   0  0  0  0  0  0  0  0  0  0  0  0
  144.6727  134.7815  151.0016 C   0  0  0  0  0  0  0  0  0  0  0  0
  142.6311  134.2092  152.3775 C   0  0  0  0  0  0  0  0  0  0  0  0
  141.6397  134.5355  153.3212 C   0  0  0  0  0  0  0  0  0  0  0  0
  141.6341  135.8061  153.9258 C   0  0  0  0  0  0  0  0  0  0  0  0
  142.6244  136.7534  153.5946 C   0  0  0  0  0  0  0  0  0  0  0  0
  142.6010  138.1242  154.2446 C   0  0  0  0  0  0  0  0  0  0  0  0
  149.0257  139.5919  154.3165 C   0  0  0  0  0  0  0  0  0  0  0  0
  148.8212  135.0760  154.8011 H   0  0  0  0  0  0  0  0  0  0  0  0
  149.8003  135.9276  155.9997 H   0  0  0  0  0  0  0  0  0  0  0  0
  150.4184  135.6848  154.3549 H   0  0  0  0  0  0  0  0  0  0  0  0
  147.9546  137.1512  154.2258 H   0  0  0  0  0  0  0  0  0  0  0  0
  152.5759  139.4737  155.4625 H   0  0  0  0  0  0  0  0  0  0  0  0
  147.0885  141.9982  153.4619 H   0  0  0  0  0  0  0  0  0  0  0  0
  146.2079  138.8326  154.4872 H   0  0  0  0  0  0  0  0  0  0  0  0
  145.8196  139.9376  153.2002 H   0  0  0  0  0  0  0  0  0  0  0  0
  147.8843  137.7690  152.7024 H   0  0  0  0  0  0  0  0  0  0  0  0
  147.6127  139.1113  151.0456 H   0  0  0  0  0  0  0  0  0  0  0  0
  146.2433  136.1107  152.0491 H   0  0  0  0  0  0  0  0  0  0  0  0
  145.9266  136.5835  153.7062 H   0  0  0  0  0  0  0  0  0  0  0  0
  144.2834  134.0418  150.3015 H   0  0  0  0  0  0  0  0  0  0  0  0
  145.5526  134.3600  151.4870 H   0  0  0  0  0  0  0  0  0  0  0  0
  144.9811  135.6538  150.4248 H   0  0  0  0  0  0  0  0  0  0  0  0
  142.6229  133.2348  151.9114 H   0  0  0  0  0  0  0  0  0  0  0  0
  140.8788  133.8126  153.5767 H   0  0  0  0  0  0  0  0  0  0  0  0
  140.8648  136.0509  154.6432 H   0  0  0  0  0  0  0  0  0  0  0  0
  141.6363  138.3231  154.7122 H   0  0  0  0  0  0  0  0  0  0  0  0
  142.7819  138.9050  153.5053 H   0  0  0  0  0  0  0  0  0  0  0  0
  143.3721  138.1916  155.0119 H   0  0  0  0  0  0  0  0  0  0  0  0
  1  2  1  0  0  0  0
  1 25  1  0  0  0  0
  1 26  1  0  0  0  0
  1 27  1  0  0  0  0
  2  3  1  0  0  0  0
  2 28  1  0  0  0  0
  3 24  1  0  0  0  0
  3  4  2  0  0  0  0
  4  5  1  0  0  0  0
  5  6  2  0  0  0  0
  5 29  1  0  0  0  0
  6  7  1  0  0  0  0
  7 24  2  0  0  0  0
  7  8  1  0  0  0  0
  8  9  2  0  0  0  0
  9 10  1  0  0  0  0
  9 30  1  0  0  0  0
 10 11  1  0  0  0  0
 10 24  1  0  0  0  0
 11 12  1  0  0  0  0
 11 31  1  0  0  0  0
 11 32  1  0  0  0  0
 12 13  1  0  0  0  0
 12 14  1  0  0  0  0
 12 33  1  0  0  0  0
 13 34  1  0  0  0  0
 14 15  1  0  0  0  0
 14 35  1  0  0  0  0
 14 36  1  0  0  0  0
 15 16  1  0  0  0  0
 16 22  1  0  0  0  0
 16 17  2  0  0  0  0
 17 18  1  0  0  0  0
 17 19  1  0  0  0  0
 18 37  1  0  0  0  0
 18 38  1  0  0  0  0
 18 39  1  0  0  0  0
 19 20  2  0  0  0  0
 19 40  1  0  0  0  0
 20 21  1  0  0  0  0
 20 41  1  0  0  0  0
 21 22  2  0  0  0  0
 21 42  1  0  0  0  0
 22 23  1  0  0  0  0
 23 43  1  0  0  0  0
 23 44  1  0  0  0  0
 23 45  1  0  0  0  0
M  END
> <s_m_source_file>
AV-unprocessed.smi

> <i_m_source_file_index>
737

> <i_lp_mmshare_version>
43012

> <i_f3d_flags>
0

> <s_epik_input>
bjFbY0hdbmMoW05IXVtDSDNdKWMoYzEyKW4oW2NIXW4yKVtDSDJdW0NASF0oW09IXSlbQ0gyXU9jM2MoW0NIM10pW2NIXVtjSF1bY0hdYzNbQ0gzXQ==

> <s_epik_cmdline>
J2VwaWtfcHl0aG9uJywgJy1waCcsICc3LjAnLCAnLXRuJywgJzgnLCAnLW1hJywgJzIwMCcsICctbWV0YWxfYmluZGluZycsICctaW1hZScsICc8aW5maWxlLm1hZT4nLCAnLW9tYWUnLCAnPG91dGZpbGUubWFlPic=

> <r_lp_tautomer_probability>
1

> <r_epik_Ionization_Penalty>
0.0070961

> <r_epik_Ionization_Penalty_Charging>
0

> <r_epik_Ionization_Penalty_Neutral>
0.0070961

> <r_epik_State_Penalty>
-0

> <r_epik_Charging_Adjusted_Penalty>
0

> <i_epik_Tot_Q>
0

> <i_epik_Tot_abs_Q>
0

> <r_epik_Metal_State_Penalty>
-0

> <b_epik_Metal_Only>
0

> <s_lp_Force_Field>
OPLS_2005

> <r_lp_Energy>
18.2803

> <b_lp_Chiralities_Consistent>
1

> <s_lp_Variant>
AV-unprocessed.smi:737-1

> <Gold.Version>
5.8.1

> <Gold.Id.Protein>
6NUR|6NUR_protein|mol2

> <Gold.PLP.Fitness>
44.0089

> <Gold.PLP.PLP>
-39.2272

> <Gold.PLP.part.hbond>
-6.1580

> <Gold.PLP.part.metal>
0.0000

> <Gold.PLP.part.buried>
1.5369

> <Gold.PLP.part.nonpolar>
-35.3488

> <Gold.PLP.part.repulsive>
1.9675

> <Gold.PLP.ligand.clash>
0.0000

> <Gold.PLP.ligand.torsion>
0.3717

> <Gold.PLP.Chemscore.Hbond>
1.7966

> <Gold.PLP.Chemscore.CHOScore>
0.0000

> <Gold.PLP.Chemscore.Metal>
0.0000

> <Gold.Chemscore.Hbonds>
donor molecule, donor type, donor heavy atom, donor atom, acceptor molecule, acceptor atom, score
      L1  H    13    34       P1  7957  0.71
      P1  H  7989  7998       L1     6  0.46
      P1  H  8011  8017       L1     8  0.46

> <Gold.PLP.Chemscore.Internal.Correction>
0.1353

> <Gold.Rescore>
     Score         DG    S(hbond)    S(metal)    S(lipo)     H(rot)  DE(clash)    DE(int)     intcor
      6.42      -8.03       0.98        0.00      57.43       2.91       1.22       0.39       ----

> <Gold.Chemscore.Fitness>
6.4195

> <Gold.Chemscore.DG>
-8.0335

> <Gold.Chemscore.ZeroCoef>
-5.4800

> <Gold.Chemscore.Hbond>
0.9805

> <Gold.Chemscore.Metal>
0.0000

> <Gold.Chemscore.Lipo>
57.4332

> <Gold.Chemscore.Internal_Hbond>
0.0000

> <Gold.Chemscore.DEClash>
1.2238

> <Gold.Chemscore.DEInternal>
0.3901

> <Gold.Chemscore.Rot>
2.9067

> <Gold.Chemscore.Internal.Correction>
   9.000000E+99

> <Gold.Chemscore.Hbonds>
donor molecule, donor type, donor heavy atom, donor atom, acceptor molecule, acceptor atom, score
      L1  H    13    34       P1  7957  0.39
      P1  H  7989  7998       L1     6  0.01
      P1  H  8011  8017       L1     8  0.08

> <Gold.Chemscore.Hbond.Weighted>
-3.2750

> <Gold.Chemscore.Metal.Weighted>
-0.0000

> <Gold.Chemscore.Lipo.Weighted>
-6.7197

> <Gold.Chemscore.Internal_Hbond.Weighted>
0.0000

> <Gold.Chemscore.DEClash.Weighted>
1.2238

> <Gold.Chemscore.DEInternal.Weighted>
0.3901

> <Gold.Chemscore.Rot.Weighted>
7.4412

> <Gold.Chemscore.Internal.Correction.Weighted>
   9.000000E+99

> <Gold.Protein.RotatedTorsions>
[ 6907 6896 6895 6894 ] final -169.60 input  -60.11 | X-H torsion
[ 7974 7965 7964 7962 ] final  -81.33 input  175.53 | X-H torsion
[ 8008 7997 7996 7995 ] final -150.78 input   59.86 | X-H torsion
[ 10167 10162 10161 10158 ] final   40.16 input  -65.29 | X-H torsion
[ 10718 10713 10712 10709 ] final -167.04 input   66.30 | X-H torsion
[ 10763 10752 10751 10750 ] final  106.40 input  -60.55 | X-H torsion
[ 11005 11000 10999 10996 ] final  -54.35 input  -57.11 | X-H torsion

> <Gold.Protein.ActiveResidues>
 VAL166  LYS551  ARG553  GLY616  TRP617  ASP618  TYR619  PRO620  LYS621  CYS622 
 ASP623  PHE694  ASN695  SER759  ASP760  ASP761  ALA762  ILE779  LEU786  VAL792 
 PHE793  MET794  SER795  GLU796  ALA797  LYS798  CYS799  TRP800  GLU811  SER814 

> <Gold.Protein.RotatedAtoms>
  151.4942  133.3518  159.2858 H   0  0  0  0  0  0  0  0  0  0  0  0  # atno 6907 bound_to 6896
  150.8815  134.8208  159.7239 H   0  0  0  0  0  0  0  0  0  0  0  0  # atno 6908 bound_to 6896
  152.4765  134.4840  159.9726 H   0  0  0  0  0  0  0  0  0  0  0  0  # atno 6909 bound_to 6896
  145.5481  140.9500  143.1514 H   0  0  0  0  0  0  0  0  0  0  0  0  # atno 7974 bound_to 7965
  155.6289  140.0689  157.2655 H   0  0  0  0  0  0  0  0  0  0  0  0  # atno 8008 bound_to 7997
  154.4211  140.1771  156.1500 H   0  0  0  0  0  0  0  0  0  0  0  0  # atno 8009 bound_to 7997
  155.9949  140.3341  155.6792 H   0  0  0  0  0  0  0  0  0  0  0  0  # atno 8010 bound_to 7997
  140.3769  144.2031  150.6131 H   0  0  0  0  0  0  0  0  0  0  0  0  # atno 10167 bound_to 10162
  156.6765  130.9105  151.3051 H   0  0  0  0  0  0  0  0  0  0  0  0  # atno 10718 bound_to 10713
  153.3925  135.3878  155.1933 H   0  0  0  0  0  0  0  0  0  0  0  0  # atno 10763 bound_to 10752
  154.8721  135.3752  154.4719 H   0  0  0  0  0  0  0  0  0  0  0  0  # atno 10764 bound_to 10752
  153.5208  135.7087  153.5794 H   0  0  0  0  0  0  0  0  0  0  0  0  # atno 10765 bound_to 10752
  141.1021  133.6617  156.4308 H   0  0  0  0  0  0  0  0  0  0  0  0  # atno 11005 bound_to 11000
  144.7543  139.7114  143.7260 LP  0  0  0  0  0  0  0  0  0  0  0  0  # atno 17320 bound_to 7965
  146.1936  139.5189  142.9789 LP  0  0  0  0  0  0  0  0  0  0  0  0  # atno 17321 bound_to 7965
  140.4977  143.2327  151.8726 LP  0  0  0  0  0  0  0  0  0  0  0  0  # atno 17342 bound_to 10162
  139.4798  144.5095  151.8952 LP  0  0  0  0  0  0  0  0  0  0  0  0  # atno 17343 bound_to 10162
  157.7059  130.9384  150.0928 LP  0  0  0  0  0  0  0  0  0  0  0  0  # atno 17370 bound_to 10713
  156.1899  130.3654  149.8923 LP  0  0  0  0  0  0  0  0  0  0  0  0  # atno 17371 bound_to 10713
  140.4994  134.6500  157.5242 LP  0  0  0  0  0  0  0  0  0  0  0  0  # atno 17394 bound_to 11000
  139.9877  134.7035  155.9744 LP  0  0  0  0  0  0  0  0  0  0  0  0  # atno 17395 bound_to 11000

$$$$
