#       Name:                AV-unprocessed.smi:72
#       Creating user name   scv26
#       Creation time:       Thu Mar 26 17:03:28 2020


#       File generated by GOLD software.
#

@<TRIPOS>MOLECULE
AV-unprocessed.smi:72
    41    42     1
SMALL
NO_CHARGES


@<TRIPOS>ATOM
      1 ****        -2.1766   4.5866  -0.9435 N.2            1 S1                 0.0000
      2 ****        -1.8102   3.4410  -0.5662 C.2            1 S1                 0.0000
      3 ****        -0.4039   3.1031  -0.5308 N.2            1 S1                 0.0000
      4 ****        -0.0775   1.9185  -0.1138 C.2            1 S1                 0.0000
      5 ****        -1.0785   0.9543   0.3220 N.am           1 S1                 0.0000
      6 ****        -0.6881  -0.4292   0.7967 C.3            1 S1                 0.0000
      7 ****         0.6034  -0.3905   1.3365 O.3            1 S1                 0.0000
      8 ****         1.3997  -1.4075   0.7418 C.3            1 S1                 0.0000
      9 ****         2.8960  -1.0520   0.8188 C.3            1 S1                 0.0000
     10 ****         3.2549  -0.0389  -0.0983 O.3            1 S1                 0.0000
     11 ****         0.7981  -1.6071  -0.6504 C.3            1 S1                 0.0000
     12 ****         1.1122  -2.8651  -1.2179 O.3            1 S1                 0.0000
     13 ****        -0.6921  -1.4190  -0.3839 C.3            1 S1                 0.0000
     14 ****        -1.3478  -2.6224  -0.0281 O.3            1 S1                 0.0000
     15 ****        -2.4534   1.2997   0.2404 C.2            1 S1                 0.0000
     16 ****        -3.2863   0.4517   0.5624 O.2            1 S1                 0.0000
     17 ****        -2.7899   2.5446  -0.1996 N.pl3          1 S1                -1.0000
     18 ****        -1.3881  -0.6840   1.5943 H              1 S1                 0.0000
     19 ****         1.2279  -2.3084   1.3340 H              1 S1                 0.0000
     20 ****         1.1290  -0.8196  -1.3281 H              1 S1                 0.0000
     21 ****        -1.2047  -0.9983  -1.2504 H              1 S1                 0.0000
     22 ****        -3.1805   4.6930  -0.9239 H              1 S1                 0.0000
     23 ****         0.9557   1.5737  -0.0690 H              1 S1                 0.0000
     24 ****         3.1639  -0.7421   1.8290 H              1 S1                 0.0000
     25 ****         3.4932  -1.9343   0.5876 H              1 S1                 0.0000
     26 ****         4.1788   0.1369  -0.0063 H              1 S1                 0.0000
     27 ****         0.6158  -2.9632  -2.0159 H              1 S1                 0.0000
     28 ****        -2.2522  -2.4217   0.1603 H              1 S1                 0.0000
     29 ****        -1.5452   5.3075  -1.2295 LP             1 S1                 0.0000
     30 ****         0.2931   3.7602  -0.8180 LP             1 S1                 0.0000
     31 ****         0.5560  -0.5399   2.3242 LP             1 S1                 0.0000
     32 ****         1.0138   0.5029   1.1539 LP             1 S1                 0.0000
     33 ****         2.7329   0.7916   0.0957 LP             1 S1                 0.0000
     34 ****         3.0612  -0.3442  -1.0306 LP             1 S1                 0.0000
     35 ****         0.8709  -3.5945  -0.5778 LP             1 S1                 0.0000
     36 ****         2.0905  -2.9098  -1.4206 LP             1 S1                 0.0000
     37 ****        -0.9133  -3.0182   0.7810 LP             1 S1                 0.0000
     38 ****        -1.2962  -3.2728  -0.7859 LP             1 S1                 0.0000
     39 ****        -2.9870  -0.4512   0.8710 LP             1 S1                 0.0000
     40 ****        -4.2619   0.6660   0.5153 LP             1 S1                 0.0000
     41 ****        -3.7526   2.8088  -0.2567 LP             1 S1                 0.0000
@<TRIPOS>BOND
    1    1    2 2     
    2    1   22 1     
    3    2   17 1     
    4    2    3 1     
    5    3    4 2     
    6    4    5 1     
    7    4   23 1     
    8    5    6 1     
    9    5   15 am    
   10    6   18 1     
   11    6   13 1     
   12    6    7 1     
   13    7    8 1     
   14    8   19 1     
   15    8    9 1     
   16    8   11 1     
   17    9   10 1     
   18    9   24 1     
   19    9   25 1     
   20   10   26 1     
   21   11   20 1     
   22   11   12 1     
   23   11   13 1     
   24   12   27 1     
   25   13   21 1     
   26   13   14 1     
   27   14   28 1     
   28   15   16 2     
   29   15   17 1     
   30    1   29 1     
   31    3   30 1     
   32    7   31 1     
   33    7   32 1     
   34   10   33 1     
   35   10   34 1     
   36   12   35 1     
   37   12   36 1     
   38   14   37 1     
   39   14   38 1     
   40   16   39 1     
   41   16   40 1     
   42   17   41 1     
@<TRIPOS>SUBSTRUCTURE
      1 S1             1
@<TRIPOS>SET
LONE_PAIRS      STATIC     ATOMS    <user>   **** ""
13 29 30 31 32 33 34 35 36 37 38 39 40 41
DONOR_HYDROGENS      STATIC     ATOMS    <user>   **** ""
4 22 26 27 28
ATOM$BLUE        STATIC     ATOMS    COLORGROUP SYSTEM
13 29 30 31 32 33 34 35 36 37 38 39 40 41
ATOM$RED        STATIC     ATOMS    COLORGROUP SYSTEM
4 22 26 27 28
