AV-unprocessed.smi:3150|AV-procd|sdf|12010|dock6
  -GOLD-   2272017423D 1   1.00000     0.00000
 Structure written by MMmdl.
 33 34  0  0  0  0  0  0  0  0  3 V2000
  147.3441  138.3653  156.9705 C   0  0  0  0  0  0  0  0  0  0  0  0
  148.7096  138.1603  157.6439 C   0  0  1  0  0  0  0  0  0  0  0  0
  148.9689  139.3118  158.4425 O   0  0  0  0  0  0  0  0  0  0  0  0
  148.8480  140.5602  157.7716 C   0  0  0  0  0  0  0  0  0  0  0  0
  149.8567  140.6044  156.6442 C   0  0  0  0  0  0  0  0  0  0  0  0
  150.7849  141.7885  156.4970 C   0  0  0  0  0  0  0  0  0  0  0  0
  149.6838  141.5676  155.4914 C   0  0  0  0  0  0  0  0  0  0  0  0
  148.7240  136.8934  158.5146 C   0  0  0  0  0  0  0  0  0  0  0  0
  149.5277  135.9922  158.2692 O   0  0  0  0  0  0  0  0  0  0  0  0
  147.8137  136.8566  159.5057 N   0  0  0  0  0  0  0  0  0  0  0  0
  147.5747  135.8272  160.4580 C   0  0  0  0  0  0  0  0  0  0  0  0
  147.5134  134.5183  160.1065 N   0  3  0  0  0  0  0  0  0  0  0  0
  147.2888  133.5180  160.9852 C   0  0  0  0  0  0  0  0  0  0  0  0
  147.1043  133.8130  162.3496 C   0  0  0  0  0  0  0  0  0  0  0  0
  147.1581  135.1565  162.7703 C   0  0  0  0  0  0  0  0  0  0  0  0
  147.3944  136.1726  161.8196 C   0  0  0  0  0  0  0  0  0  0  0  0
  147.4455  137.4760  162.2282 O   0  5  0  0  0  0  0  0  0  0  0  0
  147.0757  137.5112  156.3479 H   0  0  0  0  0  0  0  0  0  0  0  0
  147.3589  139.2473  156.3299 H   0  0  0  0  0  0  0  0  0  0  0  0
  146.5505  138.5089  157.7050 H   0  0  0  0  0  0  0  0  0  0  0  0
  149.4673  138.0833  156.8614 H   0  0  0  0  0  0  0  0  0  0  0  0
  147.8453  140.7050  157.3677 H   0  0  0  0  0  0  0  0  0  0  0  0
  149.0539  141.3807  158.4601 H   0  0  0  0  0  0  0  0  0  0  0  0
  150.2898  139.6353  156.4034 H   0  0  0  0  0  0  0  0  0  0  0  0
  150.6683  142.6153  157.1950 H   0  0  0  0  0  0  0  0  0  0  0  0
  151.8056  141.5885  156.1776 H   0  0  0  0  0  0  0  0  0  0  0  0
  149.9689  141.2207  154.5003 H   0  0  0  0  0  0  0  0  0  0  0  0
  148.8331  142.2459  155.5204 H   0  0  0  0  0  0  0  0  0  0  0  0
  147.2083  137.6608  159.5909 H   0  0  0  0  0  0  0  0  0  0  0  0
  147.2643  132.5202  160.5723 H   0  0  0  0  0  0  0  0  0  0  0  0
  146.9243  133.0225  163.0631 H   0  0  0  0  0  0  0  0  0  0  0  0
  147.0190  135.4037  163.8128 H   0  0  0  0  0  0  0  0  0  0  0  0
  147.6441  134.2789  159.1231 H   0  0  0  0  0  0  0  0  0  0  0  0
  1  2  1  0  0  0  0
  1 18  1  0  0  0  0
  1 19  1  0  0  0  0
  1 20  1  0  0  0  0
  2  3  1  0  0  0  0
  2  8  1  0  0  0  0
  2 21  1  0  0  0  0
  3  4  1  0  0  0  0
  4  5  1  0  0  0  0
  4 22  1  0  0  0  0
  4 23  1  0  0  0  0
  5  7  1  0  0  0  0
  5  6  1  0  0  0  0
  5 24  1  0  0  0  0
  6  7  1  0  0  0  0
  6 25  1  0  0  0  0
  6 26  1  0  0  0  0
  7 27  1  0  0  0  0
  7 28  1  0  0  0  0
  8  9  2  0  0  0  0
  8 10  1  0  0  0  0
 10 29  1  0  0  0  0
 10 11  1  0  0  0  0
 11 16  2  0  0  0  0
 11 12  1  0  0  0  0
 12 33  1  0  0  0  0
 12 13  2  0  0  0  0
 13 30  1  0  0  0  0
 13 14  1  0  0  0  0
 14 31  1  0  0  0  0
 14 15  2  0  0  0  0
 15 16  1  0  0  0  0
 15 32  1  0  0  0  0
 16 17  1  0  0  0  0
M  CHG  1  12   1
M  CHG  1  17  -1
M  END
> <s_m_source_file>
AV-unprocessed.smi

> <i_m_source_file_index>
3150

> <i_lp_mmshare_version>
43012

> <i_f3d_flags>
0

> <s_epik_input>
W0NIMl0xW0NIMl1bQ0hdMVtDSDJdT1tDQEBIXShbQ0gzXSlDKD1PKVtOSF1jMm5bY0hdW2NIXVtjSF1jMltPSF0=

> <s_epik_cmdline>
J2VwaWtfcHl0aG9uJywgJy1waCcsICc3LjAnLCAnLXRuJywgJzgnLCAnLW1hJywgJzIwMCcsICctbWV0YWxfYmluZGluZycsICctaW1hZScsICc8aW5maWxlLm1hZT4nLCAnLW9tYWUnLCAnPG91dGZpbGUubWFlPic=

> <r_lp_tautomer_probability>
0.56342

> <r_epik_Ionization_Penalty>
0.213151

> <r_epik_Ionization_Penalty_Charging>
0.0249427

> <r_epik_Ionization_Penalty_Neutral>
0.188209

> <r_epik_State_Penalty>
0.538305

> <r_epik_Charging_Adjusted_Penalty>
0.563248

> <i_epik_Tot_Q>
0

> <i_epik_Tot_abs_Q>
2

> <r_epik_Metal_State_Penalty>
2.57454

> <b_epik_Metal_Only>
0

> <s_lp_Force_Field>
OPLS_2005

> <r_lp_Energy>
15.4349

> <b_lp_Chiralities_Consistent>
1

> <s_lp_Variant>
AV-unprocessed.smi:3150-4

> <Gold.Version>
5.8.1

> <Gold.Id.Protein>
6NUR|6NUR_protein|mol2

> <Gold.PLP.Fitness>
40.9095

> <Gold.PLP.PLP>
-30.2810

> <Gold.PLP.part.hbond>
-3.6661

> <Gold.PLP.part.metal>
0.0000

> <Gold.PLP.part.buried>
-3.6467

> <Gold.PLP.part.nonpolar>
-22.5272

> <Gold.PLP.part.repulsive>
0.2437

> <Gold.PLP.ligand.clash>
0.0000

> <Gold.PLP.ligand.torsion>
0.8478

> <Gold.PLP.Chemscore.Hbond>
3.7520

> <Gold.PLP.Chemscore.CHOScore>
0.0000

> <Gold.PLP.Chemscore.Metal>
0.0000

> <Gold.Chemscore.Hbonds>
donor molecule, donor type, donor heavy atom, donor atom, acceptor molecule, acceptor atom, score
      P1  H  6896  6908       L1     9  0.46
      P1  H  6931  6943       L1    17  1.47
      P1  H  6934  6947       L1    17  1.09

> <Gold.PLP.Chemscore.Internal.Correction>
1.0681

> <Gold.Rescore>
     Score         DG    S(hbond)    S(metal)    S(lipo)     H(rot)  DE(clash)    DE(int)     intcor
     13.40     -14.18       1.96        0.00      55.28       1.68       0.00       0.77       ----

> <Gold.Chemscore.Fitness>
13.4050

> <Gold.Chemscore.DG>
-14.1753

> <Gold.Chemscore.ZeroCoef>
-5.4800

> <Gold.Chemscore.Hbond>
1.9571

> <Gold.Chemscore.Metal>
0.0000

> <Gold.Chemscore.Lipo>
55.2812

> <Gold.Chemscore.Internal_Hbond>
0.0000

> <Gold.Chemscore.DEClash>
0.0029

> <Gold.Chemscore.DEInternal>
0.7674

> <Gold.Chemscore.Rot>
1.6833

> <Gold.Chemscore.Internal.Correction>
   9.000000E+99

> <Gold.Chemscore.Hbonds>
donor molecule, donor type, donor heavy atom, donor atom, acceptor molecule, acceptor atom, score
      P1  H  6896  6908       L1     9  0.44
      P1  H  6931  6943       L1    17  0.65
      P1  H  6934  6947       L1    17  0.51

> <Gold.Chemscore.Hbond.Weighted>
-6.5368

> <Gold.Chemscore.Metal.Weighted>
-0.0000

> <Gold.Chemscore.Lipo.Weighted>
-6.4679

> <Gold.Chemscore.Internal_Hbond.Weighted>
0.0000

> <Gold.Chemscore.DEClash.Weighted>
0.0029

> <Gold.Chemscore.DEInternal.Weighted>
0.7674

> <Gold.Chemscore.Rot.Weighted>
4.3094

> <Gold.Chemscore.Internal.Correction.Weighted>
   9.000000E+99

> <Gold.Protein.RotatedTorsions>
[ 6907 6896 6895 6894 ] final -166.86 input  -60.11 | X-H torsion
[ 7974 7965 7964 7962 ] final  -62.34 input  175.53 | X-H torsion
[ 8008 7997 7996 7995 ] final   53.89 input   59.86 | X-H torsion
[ 10167 10162 10161 10158 ] final   15.98 input  -65.29 | X-H torsion
[ 10718 10713 10712 10709 ] final   71.43 input   66.30 | X-H torsion
[ 10763 10752 10751 10750 ] final  101.32 input  -60.55 | X-H torsion
[ 11005 11000 10999 10996 ] final   95.19 input  -57.11 | X-H torsion

> <Gold.Protein.ActiveResidues>
 VAL166  LYS551  ARG553  GLY616  TRP617  ASP618  TYR619  PRO620  LYS621  CYS622 
 ASP623  PHE694  ASN695  SER759  ASP760  ASP761  ALA762  ILE779  LEU786  VAL792 
 PHE793  MET794  SER795  GLU796  ALA797  LYS798  CYS799  TRP800  GLU811  SER814 

> <Gold.Protein.RotatedAtoms>
  151.4504  133.3619  159.2794 H   0  0  0  0  0  0  0  0  0  0  0  0  # atno 6907 bound_to 6896
  150.9095  134.8513  159.7426 H   0  0  0  0  0  0  0  0  0  0  0  0  # atno 6908 bound_to 6896
  152.4924  134.4432  159.9602 H   0  0  0  0  0  0  0  0  0  0  0  0  # atno 6909 bound_to 6896
  145.7925  140.8701  143.0273 H   0  0  0  0  0  0  0  0  0  0  0  0  # atno 7974 bound_to 7965
  155.4757  140.3466  155.4332 H   0  0  0  0  0  0  0  0  0  0  0  0  # atno 8008 bound_to 7997
  156.1072  140.1451  156.9417 H   0  0  0  0  0  0  0  0  0  0  0  0  # atno 8009 bound_to 7997
  154.4732  140.0894  156.7175 H   0  0  0  0  0  0  0  0  0  0  0  0  # atno 8010 bound_to 7997
  140.5829  143.8946  150.6805 H   0  0  0  0  0  0  0  0  0  0  0  0  # atno 10167 bound_to 10162
  157.6451  130.9528  150.0789 H   0  0  0  0  0  0  0  0  0  0  0  0  # atno 10718 bound_to 10713
  153.3251  135.4049  155.1449 H   0  0  0  0  0  0  0  0  0  0  0  0  # atno 10763 bound_to 10752
  154.8610  135.3597  154.5544 H   0  0  0  0  0  0  0  0  0  0  0  0  # atno 10764 bound_to 10752
  153.5980  135.7072  153.5455 H   0  0  0  0  0  0  0  0  0  0  0  0  # atno 10765 bound_to 10752
  139.8791  134.8885  156.3974 H   0  0  0  0  0  0  0  0  0  0  0  0  # atno 11005 bound_to 11000
  144.6780  140.0144  143.7484 LP  0  0  0  0  0  0  0  0  0  0  0  0  # atno 17320 bound_to 7965
  145.9961  139.3054  143.0955 LP  0  0  0  0  0  0  0  0  0  0  0  0  # atno 17321 bound_to 7965
  140.2449  143.3636  152.1455 LP  0  0  0  0  0  0  0  0  0  0  0  0  # atno 17342 bound_to 10162
  139.5180  144.7000  151.5520 LP  0  0  0  0  0  0  0  0  0  0  0  0  # atno 17343 bound_to 10162
  156.1771  130.3648  149.9086 LP  0  0  0  0  0  0  0  0  0  0  0  0  # atno 17370 bound_to 10713
  156.7047  130.8947  151.3603 LP  0  0  0  0  0  0  0  0  0  0  0  0  # atno 17371 bound_to 10713
  140.9290  133.7592  156.0001 LP  0  0  0  0  0  0  0  0  0  0  0  0  # atno 17394 bound_to 11000
  140.8352  134.3131  157.5334 LP  0  0  0  0  0  0  0  0  0  0  0  0  # atno 17395 bound_to 11000

$$$$
