AV-unprocessed.smi:2001|AV-procd|sdf|8103|dock8
  -GOLD-   2272010323D 1   1.00000     0.00000
 Structure written by MMmdl.
 50 51  0  0  0  0  0  0  0  0  1 V2000
  148.3254  141.3321  154.7672 C   0  0  0  0  0  0  0  0  0  0  0  0
  149.7397  141.3093  154.6824 O   0  0  0  0  0  0  0  0  0  0  0  0
  150.3621  141.6326  155.9142 C   0  0  0  0  0  0  0  0  0  0  0  0
  150.3798  140.3819  156.8065 C   0  0  0  0  0  0  0  0  0  0  0  0
  150.6622  139.1701  156.0305 N   0  0  0  0  0  0  0  0  0  0  0  0
  149.7481  138.1479  156.2262 N   0  0  0  0  0  0  0  0  0  0  0  0
  149.8891  137.0219  155.6042 C   0  0  0  0  0  0  0  0  0  0  0  0
  148.9258  135.8999  155.7809 C   0  0  0  0  0  0  0  0  0  0  0  0
  148.7050  135.3999  156.8853 O   0  0  0  0  0  0  0  0  0  0  0  0
  148.3226  135.4749  154.6562 N   0  0  0  0  0  0  0  0  0  0  0  0
  147.3583  134.3848  154.5844 C   0  0  0  0  0  0  0  0  0  0  0  0
  147.8163  133.2988  153.5937 C   0  0  0  0  0  0  0  0  0  0  0  0
  146.7351  132.6393  152.8642 N   0  0  0  0  0  0  0  0  0  0  0  0
  146.8859  131.1903  152.9033 C   0  0  0  0  0  0  0  0  0  0  0  0
  145.7329  130.4725  152.1792 C   0  0  2  0  0  0  0  0  0  0  0  0
  145.9273  128.9528  152.1507 C   0  0  0  0  0  0  0  0  0  0  0  0
  145.6601  130.9358  150.8323 O   0  0  0  0  0  0  0  0  0  0  0  0
  145.5460  132.3518  150.6808 C   0  0  1  0  0  0  0  0  0  0  0  0
  144.1347  132.8514  151.0329 C   0  0  0  0  0  0  0  0  0  0  0  0
  146.6609  133.0690  151.4689 C   0  0  0  0  0  0  0  0  0  0  0  0
  151.0037  136.8076  154.6967 C   0  0  0  0  0  0  0  0  0  0  0  0
  151.8869  137.8140  154.5160 C   0  0  0  0  0  0  0  0  0  0  0  0
  151.7505  139.0973  155.2061 C   0  0  0  0  0  0  0  0  0  0  0  0
  152.5439  140.0268  155.0614 O   0  0  0  0  0  0  0  0  0  0  0  0
  147.8959  141.0733  153.7994 H   0  0  0  0  0  0  0  0  0  0  0  0
  147.9628  142.3237  155.0412 H   0  0  0  0  0  0  0  0  0  0  0  0
  147.9620  140.6110  155.5006 H   0  0  0  0  0  0  0  0  0  0  0  0
  151.3786  141.9857  155.7341 H   0  0  0  0  0  0  0  0  0  0  0  0
  149.8153  142.4379  156.4072 H   0  0  0  0  0  0  0  0  0  0  0  0
  151.1312  140.5063  157.5885 H   0  0  0  0  0  0  0  0  0  0  0  0
  149.4282  140.2834  157.3318 H   0  0  0  0  0  0  0  0  0  0  0  0
  148.5558  135.9375  153.7892 H   0  0  0  0  0  0  0  0  0  0  0  0
  147.2557  133.9563  155.5817 H   0  0  0  0  0  0  0  0  0  0  0  0
  146.3805  134.7863  154.3165 H   0  0  0  0  0  0  0  0  0  0  0  0
  148.5316  133.7204  152.8855 H   0  0  0  0  0  0  0  0  0  0  0  0
  148.3662  132.5471  154.1620 H   0  0  0  0  0  0  0  0  0  0  0  0
  147.8369  130.9056  152.4497 H   0  0  0  0  0  0  0  0  0  0  0  0
  146.9220  130.8516  153.9396 H   0  0  0  0  0  0  0  0  0  0  0  0
  144.7929  130.6883  152.6880 H   0  0  0  0  0  0  0  0  0  0  0  0
  145.9798  128.5456  153.1606 H   0  0  0  0  0  0  0  0  0  0  0  0
  146.8470  128.6820  151.6314 H   0  0  0  0  0  0  0  0  0  0  0  0
  145.0987  128.4635  151.6381 H   0  0  0  0  0  0  0  0  0  0  0  0
  145.7001  132.5586  149.6214 H   0  0  0  0  0  0  0  0  0  0  0  0
  144.0306  133.9119  150.8024 H   0  0  0  0  0  0  0  0  0  0  0  0
  143.9065  132.7251  152.0912 H   0  0  0  0  0  0  0  0  0  0  0  0
  143.3782  132.3139  150.4611 H   0  0  0  0  0  0  0  0  0  0  0  0
  146.4991  134.1443  151.4055 H   0  0  0  0  0  0  0  0  0  0  0  0
  147.6169  132.8738  150.9805 H   0  0  0  0  0  0  0  0  0  0  0  0
  151.1292  135.8708  154.1736 H   0  0  0  0  0  0  0  0  0  0  0  0
  152.7192  137.6694  153.8428 H   0  0  0  0  0  0  0  0  0  0  0  0
  1  2  1  0  0  0  0
  1 25  1  0  0  0  0
  1 26  1  0  0  0  0
  1 27  1  0  0  0  0
  2  3  1  0  0  0  0
  3  4  1  0  0  0  0
  3 28  1  0  0  0  0
  3 29  1  0  0  0  0
  4  5  1  0  0  0  0
  4 30  1  0  0  0  0
  4 31  1  0  0  0  0
  5 23  1  0  0  0  0
  5  6  1  0  0  0  0
  6  7  2  0  0  0  0
  7  8  1  0  0  0  0
  7 21  1  0  0  0  0
  8  9  2  0  0  0  0
  8 10  1  0  0  0  0
 10 11  1  0  0  0  0
 10 32  1  0  0  0  0
 11 12  1  0  0  0  0
 11 33  1  0  0  0  0
 11 34  1  0  0  0  0
 12 13  1  0  0  0  0
 12 35  1  0  0  0  0
 12 36  1  0  0  0  0
 13 20  1  0  0  0  0
 13 14  1  0  0  0  0
 14 15  1  0  0  0  0
 14 37  1  0  0  0  0
 14 38  1  0  0  0  0
 15 16  1  0  0  0  0
 15 17  1  0  0  0  0
 15 39  1  0  0  0  0
 16 40  1  0  0  0  0
 16 41  1  0  0  0  0
 16 42  1  0  0  0  0
 17 18  1  0  0  0  0
 18 19  1  0  0  0  0
 18 20  1  0  0  0  0
 18 43  1  0  0  0  0
 19 44  1  0  0  0  0
 19 45  1  0  0  0  0
 19 46  1  0  0  0  0
 20 47  1  0  0  0  0
 20 48  1  0  0  0  0
 21 22  2  0  0  0  0
 21 49  1  0  0  0  0
 22 23  1  0  0  0  0
 22 50  1  0  0  0  0
 23 24  2  0  0  0  0
M  END
> <s_m_source_file>
AV-unprocessed.smi

> <i_m_source_file_index>
2001

> <i_lp_mmshare_version>
43012

> <i_f3d_flags>
0

> <s_epik_input>
W0NIM11PW0NIMl1bQ0gyXW4xbmMoW2NIXVtjSF1jMT1PKUMoPU8pW05IXVtDSDJdW0NIMl1OMltDSDJdW0NAQEhdKFtDSDNdKU9bQ0BASF0oW0NIM10pW0NIMl0y

> <s_epik_cmdline>
J2VwaWtfcHl0aG9uJywgJy1waCcsICc3LjAnLCAnLXRuJywgJzgnLCAnLW1hJywgJzIwMCcsICctbWV0YWxfYmluZGluZycsICctaW1hZScsICc8aW5maWxlLm1hZT4nLCAnLW9tYWUnLCAnPG91dGZpbGUubWFlPic=

> <r_lp_tautomer_probability>
1

> <r_epik_Ionization_Penalty>
0.206669

> <r_epik_Ionization_Penalty_Charging>
5.55992e-09

> <r_epik_Ionization_Penalty_Neutral>
0.206669

> <r_epik_State_Penalty>
0.196651

> <r_epik_Charging_Adjusted_Penalty>
0.196651

> <i_epik_Tot_Q>
0

> <i_epik_Tot_abs_Q>
0

> <r_epik_Metal_State_Penalty>
0.198372

> <b_epik_Metal_Only>
0

> <s_lp_Force_Field>
OPLS_2005

> <r_lp_Energy>
40.7423

> <b_lp_Chiralities_Consistent>
1

> <s_lp_Variant>
AV-unprocessed.smi:2001-2

> <Gold.Version>
5.8.1

> <Gold.Id.Protein>
6NUR|6NUR_protein|mol2

> <Gold.PLP.Fitness>
41.5489

> <Gold.PLP.PLP>
-38.5239

> <Gold.PLP.part.hbond>
-4.2417

> <Gold.PLP.part.metal>
0.0000

> <Gold.PLP.part.buried>
-4.2907

> <Gold.PLP.part.nonpolar>
-31.9557

> <Gold.PLP.part.repulsive>
0.3879

> <Gold.PLP.ligand.clash>
0.0000

> <Gold.PLP.ligand.torsion>
2.2541

> <Gold.PLP.Chemscore.Hbond>
2.4352

> <Gold.PLP.Chemscore.CHOScore>
0.0000

> <Gold.PLP.Chemscore.Metal>
0.0000

> <Gold.Chemscore.Hbonds>
donor molecule, donor type, donor heavy atom, donor atom, acceptor molecule, acceptor atom, score
      L1  H    10    32       P1  7948  1.00
      P1  H  7989  7998       L1    24  0.49
      P1  H  7997  8010       L1    24  0.88

> <Gold.PLP.Chemscore.Internal.Correction>
0.2276

> <Gold.Rescore>
     Score         DG    S(hbond)    S(metal)    S(lipo)     H(rot)  DE(clash)    DE(int)     intcor
     14.72     -18.08       2.01        0.00      94.09       2.00       0.16       3.20       ----

> <Gold.Chemscore.Fitness>
14.7174

> <Gold.Chemscore.DG>
-18.0779

> <Gold.Chemscore.ZeroCoef>
-5.4800

> <Gold.Chemscore.Hbond>
2.0103

> <Gold.Chemscore.Metal>
0.0000

> <Gold.Chemscore.Lipo>
94.0896

> <Gold.Chemscore.Internal_Hbond>
0.0000

> <Gold.Chemscore.DEClash>
0.1618

> <Gold.Chemscore.DEInternal>
3.1987

> <Gold.Chemscore.Rot>
2.0020

> <Gold.Chemscore.Internal.Correction>
   9.000000E+99

> <Gold.Chemscore.Hbonds>
donor molecule, donor type, donor heavy atom, donor atom, acceptor molecule, acceptor atom, score
      L1  H    10    32       P1  7948  0.97
      P1  H  7989  7998       L1    24  0.09
      P1  H  7997  8010       L1    24  0.85

> <Gold.Chemscore.Hbond.Weighted>
-6.7146

> <Gold.Chemscore.Metal.Weighted>
-0.0000

> <Gold.Chemscore.Lipo.Weighted>
-11.0085

> <Gold.Chemscore.Internal_Hbond.Weighted>
0.0000

> <Gold.Chemscore.DEClash.Weighted>
0.1618

> <Gold.Chemscore.DEInternal.Weighted>
3.1987

> <Gold.Chemscore.Rot.Weighted>
5.1252

> <Gold.Chemscore.Internal.Correction.Weighted>
   9.000000E+99

> <Gold.Protein.RotatedTorsions>
[ 6907 6896 6895 6894 ] final  -74.69 input  -60.11 | X-H torsion
[ 7974 7965 7964 7962 ] final  161.72 input  175.53 | X-H torsion
[ 8008 7997 7996 7995 ] final  101.17 input   59.86 | X-H torsion
[ 10167 10162 10161 10158 ] final   62.61 input  -65.29 | X-H torsion
[ 10718 10713 10712 10709 ] final  169.25 input   66.30 | X-H torsion
[ 10763 10752 10751 10750 ] final  159.13 input  -60.55 | X-H torsion
[ 11005 11000 10999 10996 ] final -112.44 input  -57.11 | X-H torsion

> <Gold.Protein.ActiveResidues>
 VAL166  LYS551  ARG553  GLY616  TRP617  ASP618  TYR619  PRO620  LYS621  CYS622 
 ASP623  PHE694  ASN695  SER759  ASP760  ASP761  ALA762  ILE779  LEU786  VAL792 
 PHE793  MET794  SER795  GLU796  ALA797  LYS798  CYS799  TRP800  GLU811  SER814 

> <Gold.Protein.RotatedAtoms>
  150.7084  134.4832  159.5480 H   0  0  0  0  0  0  0  0  0  0  0  0  # atno 6907 bound_to 6896
  152.2465  134.8173  160.0461 H   0  0  0  0  0  0  0  0  0  0  0  0  # atno 6908 bound_to 6896
  151.8936  133.3486  159.3843 H   0  0  0  0  0  0  0  0  0  0  0  0  # atno 6909 bound_to 6896
  144.7672  139.7938  143.6311 H   0  0  0  0  0  0  0  0  0  0  0  0  # atno 7974 bound_to 7965
  156.1274  140.3201  155.8298 H   0  0  0  0  0  0  0  0  0  0  0  0  # atno 8008 bound_to 7997
  155.4394  140.0524  157.3029 H   0  0  0  0  0  0  0  0  0  0  0  0  # atno 8009 bound_to 7997
  154.4873  140.2078  155.9640 H   0  0  0  0  0  0  0  0  0  0  0  0  # atno 8010 bound_to 7997
  140.1420  144.4544  150.6806 H   0  0  0  0  0  0  0  0  0  0  0  0  # atno 10167 bound_to 10162
  157.0254  131.0244  151.2761 H   0  0  0  0  0  0  0  0  0  0  0  0  # atno 10718 bound_to 10713
  154.2270  135.2780  155.2904 H   0  0  0  0  0  0  0  0  0  0  0  0  # atno 10763 bound_to 10752
  154.5655  135.5634  153.7050 H   0  0  0  0  0  0  0  0  0  0  0  0  # atno 10764 bound_to 10752
  153.0029  135.6308  154.2411 H   0  0  0  0  0  0  0  0  0  0  0  0  # atno 10765 bound_to 10752
  141.0675  133.9435  157.2550 H   0  0  0  0  0  0  0  0  0  0  0  0  # atno 11005 bound_to 11000
  146.1789  139.4972  142.9879 LP  0  0  0  0  0  0  0  0  0  0  0  0  # atno 17320 bound_to 7965
  145.6434  141.0279  143.1799 LP  0  0  0  0  0  0  0  0  0  0  0  0  # atno 17321 bound_to 7965
  140.6755  143.2303  151.5519 LP  0  0  0  0  0  0  0  0  0  0  0  0  # atno 17342 bound_to 10162
  139.5467  144.2502  152.1456 LP  0  0  0  0  0  0  0  0  0  0  0  0  # atno 17343 bound_to 10162
  157.5218  130.8003  149.7817 LP  0  0  0  0  0  0  0  0  0  0  0  0  # atno 17370 bound_to 10713
  156.0088  130.3843  150.2338 LP  0  0  0  0  0  0  0  0  0  0  0  0  # atno 17371 bound_to 10713
  139.9490  135.0179  156.8939 LP  0  0  0  0  0  0  0  0  0  0  0  0  # atno 17394 bound_to 11000
  140.5743  134.0413  155.7441 LP  0  0  0  0  0  0  0  0  0  0  0  0  # atno 17395 bound_to 11000

$$$$
