AV-unprocessed.smi:83|AV-procd|sdf|806|dock1
  -GOLD-   2262017193D 1   1.00000     0.00000
 Structure written by MMmdl.
 56 59  0  0  0  0  0  0  0  0  1 V2000
  152.6710  143.9806  159.1073 C   0  0  0  0  0  0  0  0  0  0  0  0
  152.6204  142.4526  159.0501 C   0  0  0  0  0  0  0  0  0  0  0  0
  153.5899  141.8091  159.4504 O   0  0  0  0  0  0  0  0  0  0  0  0
  151.5115  141.8623  158.5604 N   0  0  0  0  0  0  0  0  0  0  0  0
  150.3445  142.5961  158.0784 C   0  0  0  0  0  0  0  0  0  0  0  0
  149.3216  141.5253  157.6864 C   0  0  0  0  0  0  0  0  0  0  0  0
  150.1653  140.2920  157.3649 C   0  0  1  0  0  0  0  0  0  0  0  0
  150.6128  140.3245  155.8828 C   0  0  0  0  0  0  0  0  0  0  0  0
  149.5090  140.3180  154.9210 N   0  0  0  0  0  0  0  0  0  0  0  0
  148.9899  141.6170  154.4971 C   0  0  0  0  0  0  0  0  0  0  0  0
  148.7309  139.2086  154.7417 C   0  0  0  0  0  0  0  0  0  0  0  0
  148.9631  138.1281  155.5371 N   0  0  0  0  0  0  0  0  0  0  0  0
  148.2689  136.9978  155.3872 C   0  0  0  0  0  0  0  0  0  0  0  0
  147.3028  136.7251  154.5118 N   0  0  0  0  0  0  0  0  0  0  0  0
  147.0452  137.8002  153.7158 C   0  0  0  0  0  0  0  0  0  0  0  0
  147.6947  139.0696  153.7636 C   0  0  0  0  0  0  0  0  0  0  0  0
  147.1339  139.9004  152.7972 N   0  0  0  0  0  0  0  0  0  0  0  0
  146.2321  139.1672  152.2070 C   0  0  0  0  0  0  0  0  0  0  0  0
  146.1147  137.8893  152.6967 N   0  0  0  0  0  0  0  0  0  0  0  0
  145.2005  136.8609  152.2345 C   0  0  0  0  0  0  0  0  0  0  0  0
  145.9395  135.6286  151.6786 C   0  0  1  0  0  0  0  0  0  0  0  0
  146.6456  134.9616  152.7090 O   0  0  0  0  0  0  0  0  0  0  0  0
  145.0039  134.6475  150.9430 C   0  0  1  0  0  0  0  0  0  0  0  0
  145.6487  133.3273  150.4866 C   0  0  0  0  0  0  0  0  0  0  0  0
  144.8700  132.2692  151.2457 C   0  0  0  0  0  0  0  0  0  0  0  0
  143.5292  132.9537  151.4756 C   0  0  0  0  0  0  0  0  0  0  0  0
  143.8972  134.2915  151.7686 O   0  0  0  0  0  0  0  0  0  0  0  0
  151.3101  140.4265  158.3816 C   0  0  0  0  0  0  0  0  0  0  0  0
  152.4337  144.4138  158.1353 H   0  0  0  0  0  0  0  0  0  0  0  0
  153.6663  144.3222  159.3931 H   0  0  0  0  0  0  0  0  0  0  0  0
  151.9620  144.3612  159.8422 H   0  0  0  0  0  0  0  0  0  0  0  0
  149.9466  143.2711  158.8376 H   0  0  0  0  0  0  0  0  0  0  0  0
  150.6294  143.1915  157.2094 H   0  0  0  0  0  0  0  0  0  0  0  0
  148.6784  141.3106  158.5407 H   0  0  0  0  0  0  0  0  0  0  0  0
  148.6773  141.8378  156.8638 H   0  0  0  0  0  0  0  0  0  0  0  0
  149.5948  139.3801  157.5457 H   0  0  0  0  0  0  0  0  0  0  0  0
  151.1669  141.2490  155.7179 H   0  0  0  0  0  0  0  0  0  0  0  0
  151.3429  139.5477  155.6828 H   0  0  0  0  0  0  0  0  0  0  0  0
  148.6745  141.5877  153.4535 H   0  0  0  0  0  0  0  0  0  0  0  0
  149.7518  142.3915  154.5886 H   0  0  0  0  0  0  0  0  0  0  0  0
  148.1381  141.9110  155.1114 H   0  0  0  0  0  0  0  0  0  0  0  0
  148.5293  136.1960  156.0621 H   0  0  0  0  0  0  0  0  0  0  0  0
  145.6235  139.5410  151.3964 H   0  0  0  0  0  0  0  0  0  0  0  0
  144.5496  136.5785  153.0629 H   0  0  0  0  0  0  0  0  0  0  0  0
  144.5582  137.2951  151.4676 H   0  0  0  0  0  0  0  0  0  0  0  0
  146.6886  135.9705  150.9632 H   0  0  0  0  0  0  0  0  0  0  0  0
  147.5562  135.2087  152.6564 H   0  0  0  0  0  0  0  0  0  0  0  0
  144.5961  135.1501  150.0643 H   0  0  0  0  0  0  0  0  0  0  0  0
  145.5033  133.1985  149.4133 H   0  0  0  0  0  0  0  0  0  0  0  0
  146.7202  133.2696  150.6802 H   0  0  0  0  0  0  0  0  0  0  0  0
  144.7827  131.3281  150.7023 H   0  0  0  0  0  0  0  0  0  0  0  0
  145.3511  132.0683  152.2038 H   0  0  0  0  0  0  0  0  0  0  0  0
  142.9198  132.9316  150.5706 H   0  0  0  0  0  0  0  0  0  0  0  0
  142.9585  132.5057  152.2892 H   0  0  0  0  0  0  0  0  0  0  0  0
  152.2116  139.8974  158.0830 H   0  0  0  0  0  0  0  0  0  0  0  0
  151.0033  140.0084  159.3412 H   0  0  0  0  0  0  0  0  0  0  0  0
  1  2  1  0  0  0  0
  1 29  1  0  0  0  0
  1 30  1  0  0  0  0
  1 31  1  0  0  0  0
  2  3  2  0  0  0  0
  2  4  1  0  0  0  0
  4 28  1  0  0  0  0
  4  5  1  0  0  0  0
  5  6  1  0  0  0  0
  5 32  1  0  0  0  0
  5 33  1  0  0  0  0
  6  7  1  0  0  0  0
  6 34  1  0  0  0  0
  6 35  1  0  0  0  0
  7  8  1  0  0  0  0
  7 28  1  0  0  0  0
  7 36  1  0  0  0  0
  8  9  1  0  0  0  0
  8 37  1  0  0  0  0
  8 38  1  0  0  0  0
  9 10  1  0  0  0  0
  9 11  1  0  0  0  0
 10 39  1  0  0  0  0
 10 40  1  0  0  0  0
 10 41  1  0  0  0  0
 11 16  1  0  0  0  0
 11 12  2  0  0  0  0
 12 13  1  0  0  0  0
 13 14  2  0  0  0  0
 13 42  1  0  0  0  0
 14 15  1  0  0  0  0
 15 19  1  0  0  0  0
 15 16  2  0  0  0  0
 16 17  1  0  0  0  0
 17 18  2  0  0  0  0
 18 19  1  0  0  0  0
 18 43  1  0  0  0  0
 19 20  1  0  0  0  0
 20 21  1  0  0  0  0
 20 44  1  0  0  0  0
 20 45  1  0  0  0  0
 21 22  1  0  0  0  0
 21 23  1  0  0  0  0
 21 46  1  0  0  0  0
 22 47  1  0  0  0  0
 23 27  1  0  0  0  0
 23 24  1  0  0  0  0
 23 48  1  0  0  0  0
 24 25  1  0  0  0  0
 24 49  1  0  0  0  0
 24 50  1  0  0  0  0
 25 26  1  0  0  0  0
 25 51  1  0  0  0  0
 25 52  1  0  0  0  0
 26 27  1  0  0  0  0
 26 53  1  0  0  0  0
 26 54  1  0  0  0  0
 28 55  1  0  0  0  0
 28 56  1  0  0  0  0
M  END
> <s_m_source_file>
AV-unprocessed.smi

> <i_m_source_file_index>
83

> <i_lp_mmshare_version>
43012

> <i_f3d_flags>
0

> <s_epik_input>
W0NIM11DKD1PKU4xW0NIMl1bQ0gyXVtDQEhdKFtDSDJdMSlbQ0gyXU4oW0NIM10pYyhuW2NIXW4yKWMoYzIzKW5bY0hdbjNbQ0gyXVtDQEhdKFtPSF0pW0NAQEhdNFtDSDJdW0NIMl1bQ0gyXU80

> <s_epik_cmdline>
J2VwaWtfcHl0aG9uJywgJy1waCcsICc3LjAnLCAnLXRuJywgJzgnLCAnLW1hJywgJzIwMCcsICctbWV0YWxfYmluZGluZycsICctaW1hZScsICc8aW5maWxlLm1hZT4nLCAnLW9tYWUnLCAnPG91dGZpbGUubWFlPic=

> <r_lp_tautomer_probability>
1

> <r_epik_Ionization_Penalty>
0.00109752

> <r_epik_Ionization_Penalty_Charging>
0

> <r_epik_Ionization_Penalty_Neutral>
0.00109752

> <r_epik_State_Penalty>
0.000634803

> <r_epik_Charging_Adjusted_Penalty>
0.000634803

> <i_epik_Tot_Q>
0

> <i_epik_Tot_abs_Q>
0

> <r_epik_Metal_State_Penalty>
-0

> <b_epik_Metal_Only>
0

> <s_lp_Force_Field>
OPLS_2005

> <r_lp_Energy>
56.5247

> <b_lp_Chiralities_Consistent>
1

> <s_lp_Variant>
AV-unprocessed.smi:83-7

> <Gold.Version>
5.8.1

> <Gold.Id.Protein>
6NUR|6NUR_protein|mol2

> <Gold.PLP.Fitness>
49.3086

> <Gold.PLP.PLP>
-42.4005

> <Gold.PLP.part.hbond>
-1.0000

> <Gold.PLP.part.metal>
0.0000

> <Gold.PLP.part.buried>
-0.2616

> <Gold.PLP.part.nonpolar>
-43.6352

> <Gold.PLP.part.repulsive>
2.2611

> <Gold.PLP.ligand.clash>
0.0000

> <Gold.PLP.ligand.torsion>
0.4990

> <Gold.PLP.Chemscore.Hbond>
1.0000

> <Gold.PLP.Chemscore.CHOScore>
1.4378

> <Gold.PLP.Chemscore.Metal>
0.0000

> <Gold.Chemscore.Hbonds>
donor molecule, donor type, donor heavy atom, donor atom, acceptor molecule, acceptor atom, score
      L1  H    22    47       P1  7948  1.00
      L1  C    18    43       P1 10171  1.00
      L1  C    18    43       P1 10175  0.52

> <Gold.PLP.Chemscore.Internal.Correction>
0.5927

> <Gold.Rescore>
     Score         DG    S(hbond)    S(metal)    S(lipo)     H(rot)  DE(clash)    DE(int)     intcor
      8.49     -12.92       0.98        0.00      92.67       2.62       2.19       2.23       ----

> <Gold.Chemscore.Fitness>
8.4918

> <Gold.Chemscore.DG>
-12.9172

> <Gold.Chemscore.ZeroCoef>
-5.4800

> <Gold.Chemscore.Hbond>
0.9850

> <Gold.Chemscore.Metal>
0.0000

> <Gold.Chemscore.Lipo>
92.6684

> <Gold.Chemscore.Internal_Hbond>
0.0000

> <Gold.Chemscore.DEClash>
2.1911

> <Gold.Chemscore.DEInternal>
2.2342

> <Gold.Chemscore.Rot>
2.6152

> <Gold.Chemscore.Internal.Correction>
   9.000000E+99

> <Gold.Chemscore.Hbonds>
donor molecule, donor type, donor heavy atom, donor atom, acceptor molecule, acceptor atom, score
      L1  H    22    47       P1  7948  0.94

> <Gold.Chemscore.Hbond.Weighted>
-3.2899

> <Gold.Chemscore.Metal.Weighted>
-0.0000

> <Gold.Chemscore.Lipo.Weighted>
-10.8422

> <Gold.Chemscore.Internal_Hbond.Weighted>
0.0000

> <Gold.Chemscore.DEClash.Weighted>
2.1911

> <Gold.Chemscore.DEInternal.Weighted>
2.2342

> <Gold.Chemscore.Rot.Weighted>
6.6949

> <Gold.Chemscore.Internal.Correction.Weighted>
   9.000000E+99

> <Gold.Protein.RotatedTorsions>
[ 6907 6896 6895 6894 ] final    8.75 input  -60.11 | X-H torsion
[ 7974 7965 7964 7962 ] final   16.58 input  175.53 | X-H torsion
[ 8008 7997 7996 7995 ] final  159.89 input   59.86 | X-H torsion
[ 10167 10162 10161 10158 ] final  -73.29 input  -65.29 | X-H torsion
[ 10718 10713 10712 10709 ] final  -91.51 input   66.30 | X-H torsion
[ 10763 10752 10751 10750 ] final   30.77 input  -60.55 | X-H torsion
[ 11005 11000 10999 10996 ] final -169.60 input  -57.11 | X-H torsion

> <Gold.Protein.ActiveResidues>
 VAL166  LYS551  ARG553  GLY616  TRP617  ASP618  TYR619  PRO620  LYS621  CYS622 
 ASP623  PHE694  ASN695  SER759  ASP760  ASP761  ALA762  ILE779  LEU786  VAL792 
 PHE793  MET794  SER795  GLU796  ALA797  LYS798  CYS799  TRP800  GLU811  SER814 

> <Gold.Protein.RotatedAtoms>
  151.7111  135.0912  160.0267 H   0  0  0  0  0  0  0  0  0  0  0  0  # atno 6907 bound_to 6896
  152.3661  133.6354  159.6060 H   0  0  0  0  0  0  0  0  0  0  0  0  # atno 6908 bound_to 6896
  150.7639  133.9262  159.3454 H   0  0  0  0  0  0  0  0  0  0  0  0  # atno 6909 bound_to 6896
  146.2245  139.8728  142.8584 H   0  0  0  0  0  0  0  0  0  0  0  0  # atno 7974 bound_to 7965
  156.2209  140.1819  156.7479 H   0  0  0  0  0  0  0  0  0  0  0  0  # atno 8008 bound_to 7997
  154.5864  140.0658  156.9205 H   0  0  0  0  0  0  0  0  0  0  0  0  # atno 8009 bound_to 7997
  155.2413  140.3322  155.4294 H   0  0  0  0  0  0  0  0  0  0  0  0  # atno 8010 bound_to 7997
  140.5123  143.2343  151.7573 H   0  0  0  0  0  0  0  0  0  0  0  0  # atno 10167 bound_to 10162
  155.9994  130.4951  150.5486 H   0  0  0  0  0  0  0  0  0  0  0  0  # atno 10718 bound_to 10713
  153.0353  135.6456  154.1096 H   0  0  0  0  0  0  0  0  0  0  0  0  # atno 10763 bound_to 10752
  154.0812  135.2873  155.3291 H   0  0  0  0  0  0  0  0  0  0  0  0  # atno 10764 bound_to 10752
  154.6529  135.5419  153.7987 H   0  0  0  0  0  0  0  0  0  0  0  0  # atno 10765 bound_to 10752
  140.5289  134.5636  157.5069 H   0  0  0  0  0  0  0  0  0  0  0  0  # atno 11005 bound_to 11000
  145.2591  141.0071  143.3837 LP  0  0  0  0  0  0  0  0  0  0  0  0  # atno 17320 bound_to 7965
  144.9313  139.4296  143.6494 LP  0  0  0  0  0  0  0  0  0  0  0  0  # atno 17321 bound_to 7965
  139.4899  144.4373  151.9804 LP  0  0  0  0  0  0  0  0  0  0  0  0  # atno 17342 bound_to 10162
  140.3466  144.3139  150.5957 LP  0  0  0  0  0  0  0  0  0  0  0  0  # atno 17343 bound_to 10162
  157.3412  131.0717  151.1786 LP  0  0  0  0  0  0  0  0  0  0  0  0  # atno 17370 bound_to 10713
  157.2634  130.6670  149.5985 LP  0  0  0  0  0  0  0  0  0  0  0  0  # atno 17371 bound_to 10713
  139.9565  134.7526  156.0330 LP  0  0  0  0  0  0  0  0  0  0  0  0  # atno 17394 bound_to 11000
  141.1292  133.6591  156.3420 LP  0  0  0  0  0  0  0  0  0  0  0  0  # atno 17395 bound_to 11000

$$$$
