AV-unprocessed.smi:3112|AV-procd|sdf|11848|dock3
  -GOLD-   2272017233D 1   1.00000     0.00000
 Structure written by MMmdl.
 36 36  0  0  0  0  0  0  0  0  1 V2000
  146.9613  139.4426  152.6244 C   0  0  0  0  0  0  0  0  0  0  0  0
  147.6054  139.6001  154.0087 C   0  0  0  0  0  0  0  0  0  0  0  0
  148.3908  140.9168  154.1727 C   0  0  2  0  0  0  0  0  0  0  0  0
  149.5171  140.8776  153.3206 O   0  0  0  0  0  0  0  0  0  0  0  0
  148.9039  141.1359  155.6057 C   0  0  0  0  0  0  0  0  0  0  0  0
  150.0385  142.0573  155.6276 N   0  0  0  0  0  0  0  0  0  0  0  0
  151.2191  141.6280  156.3915 C   0  0  2  0  0  0  0  0  0  0  0  0
  151.5880  140.2056  155.9380 C   0  0  0  0  0  0  0  0  0  0  0  0
  151.0638  141.7041  157.9420 C   0  0  1  0  0  0  0  0  0  0  0  0
  151.6109  140.4761  158.6995 C   0  0  0  0  0  0  0  0  0  0  0  0
  151.4973  142.9775  158.5148 N   0  0  0  0  0  0  0  0  0  0  0  0
  151.3169  144.2445  157.9972 C   0  0  0  0  0  0  0  0  0  0  0  0
  151.9112  145.1289  158.8508 C   0  0  0  0  0  0  0  0  0  0  0  0
  152.4451  144.3001  159.8753 C   0  0  0  0  0  0  0  0  0  0  0  0
  152.1998  143.0170  159.6710 N   0  0  0  0  0  0  0  0  0  0  0  0
  146.3888  138.5167  152.5674 H   0  0  0  0  0  0  0  0  0  0  0  0
  147.7123  139.4143  151.8347 H   0  0  0  0  0  0  0  0  0  0  0  0
  146.2803  140.2670  152.4116 H   0  0  0  0  0  0  0  0  0  0  0  0
  146.8124  139.5545  154.7556 H   0  0  0  0  0  0  0  0  0  0  0  0
  148.2577  138.7491  154.2091 H   0  0  0  0  0  0  0  0  0  0  0  0
  147.7710  141.7640  153.8751 H   0  0  0  0  0  0  0  0  0  0  0  0
  149.3627  140.2299  152.6500 H   0  0  0  0  0  0  0  0  0  0  0  0
  148.0955  141.5102  156.2351 H   0  0  0  0  0  0  0  0  0  0  0  0
  149.2029  140.1718  156.0105 H   0  0  0  0  0  0  0  0  0  0  0  0
  149.7282  142.9602  155.9717 H   0  0  0  0  0  0  0  0  0  0  0  0
  152.0623  142.2600  156.1102 H   0  0  0  0  0  0  0  0  0  0  0  0
  152.4916  139.8519  156.4355 H   0  0  0  0  0  0  0  0  0  0  0  0
  151.7778  140.1742  154.8645 H   0  0  0  0  0  0  0  0  0  0  0  0
  150.7895  139.4945  156.1509 H   0  0  0  0  0  0  0  0  0  0  0  0
  149.9912  141.6582  158.1368 H   0  0  0  0  0  0  0  0  0  0  0  0
  151.1885  139.5539  158.2999 H   0  0  0  0  0  0  0  0  0  0  0  0
  151.3407  140.5242  159.7547 H   0  0  0  0  0  0  0  0  0  0  0  0
  152.6937  140.3862  158.6507 H   0  0  0  0  0  0  0  0  0  0  0  0
  150.7854  144.4098  157.0717 H   0  0  0  0  0  0  0  0  0  0  0  0
  151.9604  146.2033  158.7555 H   0  0  0  0  0  0  0  0  0  0  0  0
  153.0015  144.5899  160.7544 H   0  0  0  0  0  0  0  0  0  0  0  0
  1  2  1  0  0  0  0
  1 16  1  0  0  0  0
  1 17  1  0  0  0  0
  1 18  1  0  0  0  0
  2  3  1  0  0  0  0
  2 19  1  0  0  0  0
  2 20  1  0  0  0  0
  3  4  1  0  0  0  0
  3  5  1  0  0  0  0
  3 21  1  0  0  0  0
  4 22  1  0  0  0  0
  5  6  1  0  0  0  0
  5 23  1  0  0  0  0
  5 24  1  0  0  0  0
  6  7  1  0  0  0  0
  6 25  1  0  0  0  0
  7  8  1  0  0  0  0
  7  9  1  0  0  0  0
  7 26  1  0  0  0  0
  8 27  1  0  0  0  0
  8 28  1  0  0  0  0
  8 29  1  0  0  0  0
  9 10  1  0  0  0  0
  9 11  1  0  0  0  0
  9 30  1  0  0  0  0
 10 31  1  0  0  0  0
 10 32  1  0  0  0  0
 10 33  1  0  0  0  0
 11 15  1  0  0  0  0
 11 12  1  0  0  0  0
 12 13  2  0  0  0  0
 12 34  1  0  0  0  0
 13 14  1  0  0  0  0
 13 35  1  0  0  0  0
 14 15  2  0  0  0  0
 14 36  1  0  0  0  0
M  END
> <s_m_source_file>
AV-unprocessed.smi

> <i_m_source_file_index>
3112

> <i_lp_mmshare_version>
43012

> <i_f3d_flags>
0

> <s_epik_input>
W0NIM11bQ0gyXVtDQEhdKFtPSF0pW0NIMl1bTkhdW0NASF0oW0NIM10pW0NASF0oW0NIM10pbjFbY0hdW2NIXVtjSF1uMQ==

> <s_epik_cmdline>
J2VwaWtfcHl0aG9uJywgJy1waCcsICc3LjAnLCAnLXRuJywgJzgnLCAnLW1hJywgJzIwMCcsICctbWV0YWxfYmluZGluZycsICctaW1hZScsICc8aW5maWxlLm1hZT4nLCAnLW9tYWUnLCAnPG91dGZpbGUubWFlPic=

> <r_lp_tautomer_probability>
1

> <r_epik_Ionization_Penalty>
2.16876

> <r_epik_Ionization_Penalty_Charging>
0

> <r_epik_Ionization_Penalty_Neutral>
2.16876

> <r_epik_State_Penalty>
2.30854

> <r_epik_Charging_Adjusted_Penalty>
2.30854

> <i_epik_Tot_Q>
0

> <i_epik_Tot_abs_Q>
0

> <r_epik_Metal_State_Penalty>
2.3073

> <b_epik_Metal_Only>
0

> <s_lp_Force_Field>
OPLS_2005

> <r_lp_Energy>
16.8249

> <b_lp_Chiralities_Consistent>
1

> <s_lp_Variant>
AV-unprocessed.smi:3112-13

> <Gold.Version>
5.8.1

> <Gold.Id.Protein>
6NUR|6NUR_protein|mol2

> <Gold.PLP.Fitness>
44.5487

> <Gold.PLP.PLP>
-36.4346

> <Gold.PLP.part.hbond>
-3.3055

> <Gold.PLP.part.metal>
0.0000

> <Gold.PLP.part.buried>
-4.7188

> <Gold.PLP.part.nonpolar>
-28.0645

> <Gold.PLP.part.repulsive>
0.0000

> <Gold.PLP.ligand.clash>
0.0000

> <Gold.PLP.ligand.torsion>
2.0669

> <Gold.PLP.Chemscore.Hbond>
2.9641

> <Gold.PLP.Chemscore.CHOScore>
1.0000

> <Gold.PLP.Chemscore.Metal>
0.0000

> <Gold.Chemscore.Hbonds>
donor molecule, donor type, donor heavy atom, donor atom, acceptor molecule, acceptor atom, score
      L1  H     4    22       P1  7957  0.75
      L1  H     6    25       P1  8028  1.00
      P1  H  7989  7998       L1     4  0.21
      P1  H  8011  8017       L1     4  1.00
      L1  C    12    34       P1  8028  1.00

> <Gold.PLP.Chemscore.Internal.Correction>
0.3556

> <Gold.Rescore>
     Score         DG    S(hbond)    S(metal)    S(lipo)     H(rot)  DE(clash)    DE(int)     intcor
     16.11     -18.03       2.31        0.00      91.94       2.31       0.08       1.84       ----

> <Gold.Chemscore.Fitness>
16.1124

> <Gold.Chemscore.DG>
-18.0316

> <Gold.Chemscore.ZeroCoef>
-5.4800

> <Gold.Chemscore.Hbond>
2.3084

> <Gold.Chemscore.Metal>
0.0000

> <Gold.Chemscore.Lipo>
91.9419

> <Gold.Chemscore.Internal_Hbond>
0.0000

> <Gold.Chemscore.DEClash>
0.0815

> <Gold.Chemscore.DEInternal>
1.8376

> <Gold.Chemscore.Rot>
2.3108

> <Gold.Chemscore.Internal.Correction>
   9.000000E+99

> <Gold.Chemscore.Hbonds>
donor molecule, donor type, donor heavy atom, donor atom, acceptor molecule, acceptor atom, score
      L1  H     4    22       P1  7957  0.72
      L1  H     6    25       P1  8028  0.92
      P1  H  7989  7998       L1     4  0.07
      P1  H  8011  8017       L1     4  0.31

> <Gold.Chemscore.Hbond.Weighted>
-7.7100

> <Gold.Chemscore.Metal.Weighted>
-0.0000

> <Gold.Chemscore.Lipo.Weighted>
-10.7572

> <Gold.Chemscore.Internal_Hbond.Weighted>
0.0000

> <Gold.Chemscore.DEClash.Weighted>
0.0815

> <Gold.Chemscore.DEInternal.Weighted>
1.8376

> <Gold.Chemscore.Rot.Weighted>
5.9157

> <Gold.Chemscore.Internal.Correction.Weighted>
   9.000000E+99

> <Gold.Protein.RotatedTorsions>
[ 6907 6896 6895 6894 ] final -146.98 input  -60.11 | X-H torsion
[ 7974 7965 7964 7962 ] final -143.57 input  175.53 | X-H torsion
[ 8008 7997 7996 7995 ] final -160.21 input   59.86 | X-H torsion
[ 10167 10162 10161 10158 ] final   24.57 input  -65.29 | X-H torsion
[ 10718 10713 10712 10709 ] final  126.79 input   66.30 | X-H torsion
[ 10763 10752 10751 10750 ] final  -38.97 input  -60.55 | X-H torsion
[ 11005 11000 10999 10996 ] final -163.65 input  -57.11 | X-H torsion

> <Gold.Protein.ActiveResidues>
 VAL166  LYS551  ARG553  GLY616  TRP617  ASP618  TYR619  PRO620  LYS621  CYS622 
 ASP623  PHE694  ASN695  SER759  ASP760  ASP761  ALA762  ILE779  LEU786  VAL792 
 PHE793  MET794  SER795  GLU796  ALA797  LYS798  CYS799  TRP800  GLU811  SER814 

> <Gold.Protein.RotatedAtoms>
  151.1492  133.4919  159.2595 H   0  0  0  0  0  0  0  0  0  0  0  0  # atno 6907 bound_to 6896
  151.1572  135.0256  159.8704 H   0  0  0  0  0  0  0  0  0  0  0  0  # atno 6908 bound_to 6896
  152.5463  134.1369  159.8516 H   0  0  0  0  0  0  0  0  0  0  0  0  # atno 6909 bound_to 6896
  144.8360  140.5818  143.5484 H   0  0  0  0  0  0  0  0  0  0  0  0  # atno 7974 bound_to 7965
  155.7740  140.0856  157.2093 H   0  0  0  0  0  0  0  0  0  0  0  0  # atno 8008 bound_to 7997
  154.3994  140.1520  156.3032 H   0  0  0  0  0  0  0  0  0  0  0  0  # atno 8009 bound_to 7997
  155.8719  140.3425  155.5830 H   0  0  0  0  0  0  0  0  0  0  0  0  # atno 8010 bound_to 7997
  140.5178  144.0054  150.6402 H   0  0  0  0  0  0  0  0  0  0  0  0  # atno 10167 bound_to 10162
  157.5389  131.1097  150.8891 H   0  0  0  0  0  0  0  0  0  0  0  0  # atno 10718 bound_to 10713
  153.9216  135.6781  153.4747 H   0  0  0  0  0  0  0  0  0  0  0  0  # atno 10763 bound_to 10752
  153.1025  135.4821  154.8890 H   0  0  0  0  0  0  0  0  0  0  0  0  # atno 10764 bound_to 10752
  154.7475  135.3176  154.8575 H   0  0  0  0  0  0  0  0  0  0  0  0  # atno 10765 bound_to 10752
  140.5957  134.4999  157.5199 H   0  0  0  0  0  0  0  0  0  0  0  0  # atno 11005 bound_to 11000
  145.4794  139.1496  143.3770 LP  0  0  0  0  0  0  0  0  0  0  0  0  # atno 17320 bound_to 7965
  146.2658  140.4930  142.8834 LP  0  0  0  0  0  0  0  0  0  0  0  0  # atno 17321 bound_to 7965
  140.3394  143.3029  152.0604 LP  0  0  0  0  0  0  0  0  0  0  0  0  # atno 17342 bound_to 10162
  139.4914  144.6453  151.6791 LP  0  0  0  0  0  0  0  0  0  0  0  0  # atno 17343 bound_to 10162
  156.9449  130.5398  149.5281 LP  0  0  0  0  0  0  0  0  0  0  0  0  # atno 17370 bound_to 10713
  156.0481  130.5554  150.8926 LP  0  0  0  0  0  0  0  0  0  0  0  0  # atno 17371 bound_to 10713
  139.9254  134.8066  156.1084 LP  0  0  0  0  0  0  0  0  0  0  0  0  # atno 17394 bound_to 11000
  141.0905  133.6716  156.2531 LP  0  0  0  0  0  0  0  0  0  0  0  0  # atno 17395 bound_to 11000

$$$$
