AV-unprocessed.smi:923|AV-procd|sdf|4178|dock6
  -GOLD-   22720 2 83D 1   1.00000     0.00000
 Structure written by MMmdl.
 34 35  0  0  0  0  0  0  0  0  2 V2000
  149.8288  134.6952  154.7705 C   0  0  0  0  0  0  0  0  0  0  0  0
  150.2947  136.0889  155.0192 C   0  0  0  0  0  0  0  0  0  0  0  0
  151.5868  136.4126  155.1116 N   0  0  0  0  0  0  0  0  0  0  0  0
  151.7707  137.7684  155.3415 N   0  0  0  0  0  0  0  0  0  0  0  0
  150.6189  138.4516  155.4081 C   0  0  0  0  0  0  0  0  0  0  0  0
  150.5774  139.7770  155.6226 N   0  5  0  0  0  0  0  0  0  0  0  0
  151.4773  140.3551  156.4511 C   0  0  0  0  0  0  0  0  0  0  0  0
  152.5705  139.8885  156.7798 O   0  0  0  0  0  0  0  0  0  0  0  0
  151.0857  141.5472  156.9257 N   0  0  0  0  0  0  0  0  0  0  0  0
  151.8419  142.4131  157.8295 C   0  0  0  0  0  0  0  0  0  0  0  0
  152.1149  141.6556  159.1452 C   0  0  0  0  0  0  0  0  0  0  0  0
  152.8688  142.4564  160.2211 C   0  0  0  0  0  0  0  0  0  0  0  0
  151.9875  143.5161  160.9015 C   0  0  0  0  0  0  0  0  0  0  0  0
  151.9253  144.8782  160.1887 C   0  0  0  0  0  0  0  0  0  0  0  0
  151.9132  144.8499  158.6501 C   0  0  0  0  0  0  0  0  0  0  0  0
  151.0678  143.7353  158.0107 C   0  0  0  0  0  0  0  0  0  0  0  0
  149.1890  137.4389  155.2102 S   0  0  0  0  0  0  0  0  0  0  0  0
  149.9820  134.4331  153.7236 H   0  0  0  0  0  0  0  0  0  0  0  0
  148.7678  134.6033  155.0034 H   0  0  0  0  0  0  0  0  0  0  0  0
  150.3845  133.9942  155.3939 H   0  0  0  0  0  0  0  0  0  0  0  0
  150.1811  141.8834  156.6299 H   0  0  0  0  0  0  0  0  0  0  0  0
  152.7983  142.6508  157.3602 H   0  0  0  0  0  0  0  0  0  0  0  0
  151.1770  141.2834  159.5600 H   0  0  0  0  0  0  0  0  0  0  0  0
  152.7034  140.7668  158.9135 H   0  0  0  0  0  0  0  0  0  0  0  0
  153.1943  141.7508  160.9863 H   0  0  0  0  0  0  0  0  0  0  0  0
  153.7804  142.8993  159.8184 H   0  0  0  0  0  0  0  0  0  0  0  0
  150.9779  143.1221  161.0242 H   0  0  0  0  0  0  0  0  0  0  0  0
  152.3528  143.6848  161.9151 H   0  0  0  0  0  0  0  0  0  0  0  0
  151.0397  145.4063  160.5438 H   0  0  0  0  0  0  0  0  0  0  0  0
  152.7735  145.4854  160.5071 H   0  0  0  0  0  0  0  0  0  0  0  0
  151.5428  145.8151  158.3033 H   0  0  0  0  0  0  0  0  0  0  0  0
  152.9361  144.7884  158.2769 H   0  0  0  0  0  0  0  0  0  0  0  0
  150.7625  144.0854  157.0235 H   0  0  0  0  0  0  0  0  0  0  0  0
  150.1434  143.5786  158.5686 H   0  0  0  0  0  0  0  0  0  0  0  0
  1  2  1  0  0  0  0
  1 18  1  0  0  0  0
  1 19  1  0  0  0  0
  1 20  1  0  0  0  0
  2 17  1  0  0  0  0
  2  3  2  0  0  0  0
  3  4  1  0  0  0  0
  4  5  2  0  0  0  0
  5  6  1  0  0  0  0
  5 17  1  0  0  0  0
  6  7  1  0  0  0  0
  7  8  2  0  0  0  0
  7  9  1  0  0  0  0
  9 10  1  0  0  0  0
  9 21  1  0  0  0  0
 10 16  1  0  0  0  0
 10 11  1  0  0  0  0
 10 22  1  0  0  0  0
 11 12  1  0  0  0  0
 11 23  1  0  0  0  0
 11 24  1  0  0  0  0
 12 13  1  0  0  0  0
 12 25  1  0  0  0  0
 12 26  1  0  0  0  0
 13 14  1  0  0  0  0
 13 27  1  0  0  0  0
 13 28  1  0  0  0  0
 14 15  1  0  0  0  0
 14 29  1  0  0  0  0
 14 30  1  0  0  0  0
 15 16  1  0  0  0  0
 15 31  1  0  0  0  0
 15 32  1  0  0  0  0
 16 33  1  0  0  0  0
 16 34  1  0  0  0  0
M  CHG  1   6  -1
M  END
> <s_m_source_file>
AV-unprocessed.smi

> <i_m_source_file_index>
923

> <i_lp_mmshare_version>
43012

> <i_f3d_flags>
0

> <s_epik_input>
W0NIM11jMW5uYyhzMSlbTkhdQyg9TylbTkhdW0NIXTJbQ0gyXVtDSDJdW0NIMl1bQ0gyXVtDSDJdW0NIMl0y

> <s_epik_cmdline>
J2VwaWtfcHl0aG9uJywgJy1waCcsICc3LjAnLCAnLXRuJywgJzgnLCAnLW1hJywgJzIwMCcsICctbWV0YWxfYmluZGluZycsICctaW1hZScsICc8aW5maWxlLm1hZT4nLCAnLW9tYWUnLCAnPG91dGZpbGUubWFlPic=

> <r_lp_tautomer_probability>
1

> <r_epik_Ionization_Penalty>
4.57867

> <r_epik_Ionization_Penalty_Charging>
4.42407

> <r_epik_Ionization_Penalty_Neutral>
0.154599

> <r_epik_State_Penalty>
4.42373

> <r_epik_Charging_Adjusted_Penalty>
8.84779

> <i_epik_Tot_Q>
-1

> <i_epik_Tot_abs_Q>
1

> <r_epik_Metal_State_Penalty>
0.782603

> <b_epik_Metal_Only>
1

> <s_lp_Force_Field>
OPLS_2005

> <r_lp_Energy>
12.5708

> <b_lp_Chiralities_Consistent>
1

> <s_lp_Variant>
AV-unprocessed.smi:923-2

> <Gold.Version>
5.8.1

> <Gold.Id.Protein>
6NUR|6NUR_protein|mol2

> <Gold.PLP.Fitness>
39.2726

> <Gold.PLP.PLP>
-33.9997

> <Gold.PLP.part.hbond>
-2.0000

> <Gold.PLP.part.metal>
0.0000

> <Gold.PLP.part.buried>
-5.8479

> <Gold.PLP.part.nonpolar>
-27.2995

> <Gold.PLP.part.repulsive>
0.2680

> <Gold.PLP.ligand.clash>
0.0000

> <Gold.PLP.ligand.torsion>
0.3712

> <Gold.PLP.Chemscore.Hbond>
2.0000

> <Gold.PLP.Chemscore.CHOScore>
0.0000

> <Gold.PLP.Chemscore.Metal>
0.0000

> <Gold.Chemscore.Hbonds>
donor molecule, donor type, donor heavy atom, donor atom, acceptor molecule, acceptor atom, score
      P1  H  7997  8009       L1     8  1.00
      P1  H 10752 10764       L1     3  1.00

> <Gold.PLP.Chemscore.Internal.Correction>
0.0154

> <Gold.Rescore>
     Score         DG    S(hbond)    S(metal)    S(lipo)     H(rot)  DE(clash)    DE(int)     intcor
     18.14     -20.40       1.98        0.00      92.81       1.00       0.26       2.00       ----

> <Gold.Chemscore.Fitness>
18.1373

> <Gold.Chemscore.DG>
-20.3999

> <Gold.Chemscore.ZeroCoef>
-5.4800

> <Gold.Chemscore.Hbond>
1.9824

> <Gold.Chemscore.Metal>
0.0000

> <Gold.Chemscore.Lipo>
92.8087

> <Gold.Chemscore.Internal_Hbond>
0.0000

> <Gold.Chemscore.DEClash>
0.2631

> <Gold.Chemscore.DEInternal>
1.9994

> <Gold.Chemscore.Rot>
1.0000

> <Gold.Chemscore.Internal.Correction>
   9.000000E+99

> <Gold.Chemscore.Hbonds>
donor molecule, donor type, donor heavy atom, donor atom, acceptor molecule, acceptor atom, score
      P1  H  7997  8009       L1     8  0.99
      P1  H 10752 10764       L1     3  0.90

> <Gold.Chemscore.Hbond.Weighted>
-6.6213

> <Gold.Chemscore.Metal.Weighted>
-0.0000

> <Gold.Chemscore.Lipo.Weighted>
-10.8586

> <Gold.Chemscore.Internal_Hbond.Weighted>
0.0000

> <Gold.Chemscore.DEClash.Weighted>
0.2631

> <Gold.Chemscore.DEInternal.Weighted>
1.9994

> <Gold.Chemscore.Rot.Weighted>
2.5600

> <Gold.Chemscore.Internal.Correction.Weighted>
   9.000000E+99

> <Gold.Protein.RotatedTorsions>
[ 6907 6896 6895 6894 ] final -172.08 input  -60.11 | X-H torsion
[ 7974 7965 7964 7962 ] final  -69.84 input  175.53 | X-H torsion
[ 8008 7997 7996 7995 ] final -162.45 input   59.86 | X-H torsion
[ 10167 10162 10161 10158 ] final   78.95 input  -65.29 | X-H torsion
[ 10718 10713 10712 10709 ] final -134.98 input   66.30 | X-H torsion
[ 10763 10752 10751 10750 ] final  -61.51 input  -60.55 | X-H torsion
[ 11005 11000 10999 10996 ] final -152.78 input  -57.11 | X-H torsion

> <Gold.Protein.ActiveResidues>
 VAL166  LYS551  ARG553  GLY616  TRP617  ASP618  TYR619  PRO620  LYS621  CYS622 
 ASP623  PHE694  ASN695  SER759  ASP760  ASP761  ALA762  ILE779  LEU786  VAL792 
 PHE793  MET794  SER795  GLU796  ALA797  LYS798  CYS799  TRP800  GLU811  SER814 

> <Gold.Protein.RotatedAtoms>
  151.5342  133.3444  159.2923 H   0  0  0  0  0  0  0  0  0  0  0  0  # atno 6907 bound_to 6896
  150.8575  134.7920  159.7068 H   0  0  0  0  0  0  0  0  0  0  0  0  # atno 6908 bound_to 6896
  152.4604  134.5205  159.9833 H   0  0  0  0  0  0  0  0  0  0  0  0  # atno 6909 bound_to 6896
  145.6986  140.9125  143.0743 H   0  0  0  0  0  0  0  0  0  0  0  0  # atno 7974 bound_to 7965
  155.8070  140.0900  157.1925 H   0  0  0  0  0  0  0  0  0  0  0  0  # atno 8008 bound_to 7997
  154.3980  140.1461  156.3401 H   0  0  0  0  0  0  0  0  0  0  0  0  # atno 8009 bound_to 7997
  155.8404  140.3439  155.5631 H   0  0  0  0  0  0  0  0  0  0  0  0  # atno 8010 bound_to 7997
  139.9655  144.5931  150.8032 H   0  0  0  0  0  0  0  0  0  0  0  0  # atno 10167 bound_to 10162
  156.2612  130.7211  151.1146 H   0  0  0  0  0  0  0  0  0  0  0  0  # atno 10718 bound_to 10713
  154.2856  135.6263  153.5364 H   0  0  0  0  0  0  0  0  0  0  0  0  # atno 10763 bound_to 10752
  152.9859  135.5643  154.5447 H   0  0  0  0  0  0  0  0  0  0  0  0  # atno 10764 bound_to 10752
  154.5047  135.2874  155.1368 H   0  0  0  0  0  0  0  0  0  0  0  0  # atno 10765 bound_to 10752
  140.7152  134.3788  157.5192 H   0  0  0  0  0  0  0  0  0  0  0  0  # atno 11005 bound_to 11000
  144.6975  139.8917  143.7453 LP  0  0  0  0  0  0  0  0  0  0  0  0  # atno 17320 bound_to 7965
  146.0818  139.3806  143.0460 LP  0  0  0  0  0  0  0  0  0  0  0  0  # atno 17321 bound_to 7965
  140.7539  143.3017  151.3064 LP  0  0  0  0  0  0  0  0  0  0  0  0  # atno 17342 bound_to 10162
  139.6521  144.0344  152.2633 LP  0  0  0  0  0  0  0  0  0  0  0  0  # atno 17343 bound_to 10162
  157.7251  131.0655  150.5966 LP  0  0  0  0  0  0  0  0  0  0  0  0  # atno 17370 bound_to 10713
  156.6054  130.4365  149.5880 LP  0  0  0  0  0  0  0  0  0  0  0  0  # atno 17371 bound_to 10713
  139.8861  134.8917  156.2601 LP  0  0  0  0  0  0  0  0  0  0  0  0  # atno 17394 bound_to 11000
  141.0050  133.7129  156.1021 LP  0  0  0  0  0  0  0  0  0  0  0  0  # atno 17395 bound_to 11000

$$$$
