AV-unprocessed.smi:62|AV-procd|sdf|604|dock2
  -GOLD-   2262016493D 1   1.00000     0.00000
 Structure written by MMmdl.
 31 32  0  0  0  0  0  0  0  0  3 V2000
  152.0901  142.5665  159.2141 C   0  0  0  0  0  0  0  0  0  0  0  0
  151.5815  141.9140  158.0267 N   0  0  0  0  0  0  0  0  0  0  0  0
  150.4935  142.2529  157.2571 C   0  0  0  0  0  0  0  0  0  0  0  0
  150.3962  141.3496  156.2339 C   0  0  0  0  0  0  0  0  0  0  0  0
  149.3402  141.3790  155.1511 C   0  0  0  0  0  0  0  0  0  0  0  0
  148.1231  142.0875  155.6127 N   0  3  2  0  0  0  0  0  0  0  0  0
  147.5155  141.5384  156.8478 C   0  0  0  0  0  0  0  0  0  0  0  0
  145.9923  141.6370  156.6755 C   0  0  0  0  0  0  0  0  0  0  0  0
  145.8011  142.5317  155.4516 C   0  0  2  0  0  0  0  0  0  0  0  0
  144.6017  142.2408  154.7657 O   0  0  0  0  0  0  0  0  0  0  0  0
  147.0409  142.2259  154.6171 C   0  0  0  0  0  0  0  0  0  0  0  0
  151.5008  140.4624  156.4839 C   0  0  0  0  0  0  0  0  0  0  0  0
  151.8152  139.2728  155.6158 C   0  0  0  0  0  0  0  0  0  0  0  0
  152.7927  138.5409  155.8806 O   0  0  0  0  0  0  0  0  0  0  0  0
  151.0705  139.0536  154.6355 O   0  5  0  0  0  0  0  0  0  0  0  0
  152.2011  140.8190  157.5527 N   0  0  0  0  0  0  0  0  0  0  0  0
  151.6432  143.5557  159.3173 H   0  0  0  0  0  0  0  0  0  0  0  0
  153.1734  142.6732  159.1464 H   0  0  0  0  0  0  0  0  0  0  0  0
  151.8431  141.9710  160.0934 H   0  0  0  0  0  0  0  0  0  0  0  0
  149.8803  143.1095  157.4955 H   0  0  0  0  0  0  0  0  0  0  0  0
  149.6879  141.7976  154.2085 H   0  0  0  0  0  0  0  0  0  0  0  0
  149.0498  140.3559  154.9083 H   0  0  0  0  0  0  0  0  0  0  0  0
  147.8088  140.5005  157.0140 H   0  0  0  0  0  0  0  0  0  0  0  0
  147.8589  142.1219  157.7024 H   0  0  0  0  0  0  0  0  0  0  0  0
  145.5905  140.6411  156.4803 H   0  0  0  0  0  0  0  0  0  0  0  0
  145.4907  142.0273  157.5614 H   0  0  0  0  0  0  0  0  0  0  0  0
  145.8062  143.5802  155.7529 H   0  0  0  0  0  0  0  0  0  0  0  0
  144.7081  141.4246  154.3005 H   0  0  0  0  0  0  0  0  0  0  0  0
  147.2575  142.9982  153.8781 H   0  0  0  0  0  0  0  0  0  0  0  0
  146.9031  141.2783  154.0951 H   0  0  0  0  0  0  0  0  0  0  0  0
  148.4051  143.0287  155.8454 H   0  0  0  0  0  0  0  0  0  0  0  0
  1  2  1  0  0  0  0
  1 17  1  0  0  0  0
  1 18  1  0  0  0  0
  1 19  1  0  0  0  0
  2 16  1  0  0  0  0
  2  3  1  0  0  0  0
  3  4  2  0  0  0  0
  3 20  1  0  0  0  0
  4  5  1  0  0  0  0
  4 12  1  0  0  0  0
  5  6  1  0  0  0  0
  5 21  1  0  0  0  0
  5 22  1  0  0  0  0
  6 11  1  0  0  0  0
  6  7  1  0  0  0  0
  6 31  1  0  0  0  0
  7  8  1  0  0  0  0
  7 23  1  0  0  0  0
  7 24  1  0  0  0  0
  8  9  1  0  0  0  0
  8 25  1  0  0  0  0
  8 26  1  0  0  0  0
  9 10  1  0  0  0  0
  9 11  1  0  0  0  0
  9 27  1  0  0  0  0
 10 28  1  0  0  0  0
 11 29  1  0  0  0  0
 11 30  1  0  0  0  0
 12 13  1  0  0  0  0
 12 16  2  0  0  0  0
 13 14  2  0  0  0  0
 13 15  1  0  0  0  0
M  CHG  1   6   1
M  CHG  1  15  -1
M  END
> <s_m_source_file>
AV-unprocessed.smi

> <i_m_source_file_index>
62

> <i_lp_mmshare_version>
43012

> <i_f3d_flags>
0

> <s_epik_input>
W0NIM11uMVtjSF1jKGMobjEpQyg9TylbT0hdKVtDSDJdTjJbQ0gyXVtDSDJdW0NAQEhdKFtPSF0pW0NIMl0y

> <s_epik_cmdline>
J2VwaWtfcHl0aG9uJywgJy1waCcsICc3LjAnLCAnLXRuJywgJzgnLCAnLW1hJywgJzIwMCcsICctbWV0YWxfYmluZGluZycsICctaW1hZScsICc8aW5maWxlLm1hZT4nLCAnLW9tYWUnLCAnPG91dGZpbGUubWFlPic=

> <r_epik_Ionization_Penalty>
0.0522993

> <r_epik_Ionization_Penalty_Charging>
0.0522915

> <r_epik_Ionization_Penalty_Neutral>
7.84975e-06

> <r_epik_State_Penalty>
0.0448084

> <r_epik_Charging_Adjusted_Penalty>
0.0970998

> <i_epik_Tot_Q>
0

> <i_epik_Tot_abs_Q>
2

> <r_epik_Metal_State_Penalty>
0.0448097

> <b_epik_Metal_Only>
0

> <s_lp_Force_Field>
OPLS_2005

> <r_lp_Energy>
19.3538

> <b_lp_Chiralities_Consistent>
1

> <s_lp_Variant>
AV-unprocessed.smi:62-4

> <Gold.Version>
5.8.1

> <Gold.Id.Protein>
6NUR|6NUR_protein|mol2

> <Gold.PLP.Fitness>
47.5498

> <Gold.PLP.PLP>
-28.8807

> <Gold.PLP.part.hbond>
-5.3299

> <Gold.PLP.part.metal>
0.0000

> <Gold.PLP.part.buried>
0.2686

> <Gold.PLP.part.nonpolar>
-23.6274

> <Gold.PLP.part.repulsive>
0.2500

> <Gold.PLP.ligand.clash>
0.0000

> <Gold.PLP.ligand.torsion>
0.3480

> <Gold.PLP.Chemscore.Hbond>
5.5710

> <Gold.PLP.Chemscore.CHOScore>
0.8799

> <Gold.PLP.Chemscore.Metal>
0.0000

> <Gold.Chemscore.Hbonds>
donor molecule, donor type, donor heavy atom, donor atom, acceptor molecule, acceptor atom, score
      L1  H     6    31       P1  8028  2.00
      L1  H    10    28       P1 10175  0.26
      P1  H  7989  7998       L1    15  0.44
      P1  H  7997  8009       L1    14  0.86
      L1  C     3    20       P1  8028  0.66

> <Gold.PLP.Chemscore.Internal.Correction>
0.0126

> <Gold.Rescore>
     Score         DG    S(hbond)    S(metal)    S(lipo)     H(rot)  DE(clash)    DE(int)     intcor
     12.25     -14.17       2.07        0.00      54.82       1.81       0.40       1.51       ----

> <Gold.Chemscore.Fitness>
12.2548

> <Gold.Chemscore.DG>
-14.1724

> <Gold.Chemscore.ZeroCoef>
-5.4800

> <Gold.Chemscore.Hbond>
2.0688

> <Gold.Chemscore.Metal>
0.0000

> <Gold.Chemscore.Lipo>
54.8204

> <Gold.Chemscore.Internal_Hbond>
0.0000

> <Gold.Chemscore.DEClash>
0.4049

> <Gold.Chemscore.DEInternal>
1.5128

> <Gold.Chemscore.Rot>
1.8091

> <Gold.Chemscore.Internal.Correction>
   9.000000E+99

> <Gold.Chemscore.Hbonds>
donor molecule, donor type, donor heavy atom, donor atom, acceptor molecule, acceptor atom, score
      L1  H     6    31       P1  8028  0.96
      L1  H    10    28       P1 10175  0.13
      P1  H  7989  7998       L1    15  0.07
      P1  H  7997  8009       L1    14  0.10

> <Gold.Chemscore.Hbond.Weighted>
-6.9098

> <Gold.Chemscore.Metal.Weighted>
-0.0000

> <Gold.Chemscore.Lipo.Weighted>
-6.4140

> <Gold.Chemscore.Internal_Hbond.Weighted>
0.0000

> <Gold.Chemscore.DEClash.Weighted>
0.4049

> <Gold.Chemscore.DEInternal.Weighted>
1.5128

> <Gold.Chemscore.Rot.Weighted>
4.6314

> <Gold.Chemscore.Internal.Correction.Weighted>
   9.000000E+99

> <Gold.Protein.RotatedTorsions>
[ 6907 6896 6895 6894 ] final -160.27 input  -60.11 | X-H torsion
[ 7974 7965 7964 7962 ] final  -62.38 input  175.53 | X-H torsion
[ 8008 7997 7996 7995 ] final -154.21 input   59.86 | X-H torsion
[ 10167 10162 10161 10158 ] final   69.16 input  -65.29 | X-H torsion
[ 10718 10713 10712 10709 ] final  -93.37 input   66.30 | X-H torsion
[ 10763 10752 10751 10750 ] final   47.24 input  -60.55 | X-H torsion
[ 11005 11000 10999 10996 ] final  153.58 input  -57.11 | X-H torsion

> <Gold.Protein.ActiveResidues>
 VAL166  LYS551  ARG553  GLY616  TRP617  ASP618  TYR619  PRO620  LYS621  CYS622 
 ASP623  PHE694  ASN695  SER759  ASP760  ASP761  ALA762  ILE779  LEU786  VAL792 
 PHE793  MET794  SER795  GLU796  ALA797  LYS798  CYS799  TRP800  GLU811  SER814 

> <Gold.Protein.RotatedAtoms>
  151.3465  133.3942  159.2675 H   0  0  0  0  0  0  0  0  0  0  0  0  # atno 6907 bound_to 6896
  150.9835  134.9186  159.7869 H   0  0  0  0  0  0  0  0  0  0  0  0  # atno 6908 bound_to 6896
  152.5225  134.3429  159.9276 H   0  0  0  0  0  0  0  0  0  0  0  0  # atno 6909 bound_to 6896
  145.7920  140.8704  143.0275 H   0  0  0  0  0  0  0  0  0  0  0  0  # atno 7974 bound_to 7965
  155.6829  140.0746  157.2478 H   0  0  0  0  0  0  0  0  0  0  0  0  # atno 8008 bound_to 7997
  154.4102  140.1678  156.2054 H   0  0  0  0  0  0  0  0  0  0  0  0  # atno 8009 bound_to 7997
  155.9519  140.3376  155.6418 H   0  0  0  0  0  0  0  0  0  0  0  0  # atno 8010 bound_to 7997
  140.0708  144.5154  150.7229 H   0  0  0  0  0  0  0  0  0  0  0  0  # atno 10167 bound_to 10162
  156.0013  130.5024  150.5767 H   0  0  0  0  0  0  0  0  0  0  0  0  # atno 10718 bound_to 10713
  152.9802  135.5982  154.3731 H   0  0  0  0  0  0  0  0  0  0  0  0  # atno 10763 bound_to 10752
  154.3402  135.2768  155.2428 H   0  0  0  0  0  0  0  0  0  0  0  0  # atno 10764 bound_to 10752
  154.4513  135.5989  153.6249 H   0  0  0  0  0  0  0  0  0  0  0  0  # atno 10765 bound_to 10752
  140.1410  134.8738  157.2331 H   0  0  0  0  0  0  0  0  0  0  0  0  # atno 11005 bound_to 11000
  144.6780  140.0137  143.7484 LP  0  0  0  0  0  0  0  0  0  0  0  0  # atno 17320 bound_to 7965
  145.9966  139.3057  143.0952 LP  0  0  0  0  0  0  0  0  0  0  0  0  # atno 17321 bound_to 7965
  140.7126  143.2518  151.4533 LP  0  0  0  0  0  0  0  0  0  0  0  0  # atno 17342 bound_to 10162
  139.5837  144.1652  152.2002 LP  0  0  0  0  0  0  0  0  0  0  0  0  # atno 17343 bound_to 10162
  157.3653  131.0756  151.1603 LP  0  0  0  0  0  0  0  0  0  0  0  0  # atno 17370 bound_to 10713
  157.2374  130.6553  149.5875 LP  0  0  0  0  0  0  0  0  0  0  0  0  # atno 17371 bound_to 10713
  140.2722  134.3447  155.7370 LP  0  0  0  0  0  0  0  0  0  0  0  0  # atno 17394 bound_to 11000
  141.2186  133.7429  156.9239 LP  0  0  0  0  0  0  0  0  0  0  0  0  # atno 17395 bound_to 11000

$$$$
