AV-unprocessed.smi:1648|AV-procd|sdf|6632|dock6
  -GOLD-   22720 7333D 1   1.00000     0.00000
 Structure written by MMmdl.
 41 41  0  0  0  0  0  0  0  0  1 V2000
  150.0534  135.2608  154.9528 C   0  0  0  0  0  0  0  0  0  0  0  0
  149.6285  136.6783  155.3414 C   0  0  0  0  0  0  0  0  0  0  0  0
  149.9608  137.1289  156.4351 O   0  0  0  0  0  0  0  0  0  0  0  0
  148.9000  137.4086  154.4787 N   0  0  0  0  0  0  0  0  0  0  0  0
  148.3988  138.7747  154.6618 C   0  0  1  0  0  0  0  0  0  0  0  0
  149.5933  139.7161  154.9166 C   0  0  0  0  0  0  0  0  0  0  0  0
  150.5160  139.7909  154.1038 O   0  0  0  0  0  0  0  0  0  0  0  0
  149.5551  140.4277  156.0547 N   0  0  0  0  0  0  0  0  0  0  0  0
  150.5987  141.3293  156.5398 C   0  0  2  0  0  0  0  0  0  0  0  0
  151.8907  140.5226  156.7278 C   0  0  0  0  0  0  0  0  0  0  0  0
  150.1798  142.0236  157.8545 C   0  0  0  0  0  0  0  0  0  0  0  0
  151.1447  143.0054  158.3173 N   0  0  0  0  0  0  0  0  0  0  0  0
  151.5404  144.1664  157.6651 C   0  0  0  0  0  0  0  0  0  0  0  0
  152.4754  144.7731  158.4727 C   0  0  0  0  0  0  0  0  0  0  0  0
  152.6871  143.9966  159.6093 N   0  0  0  0  0  0  0  0  0  0  0  0
  151.8725  142.9632  159.4418 C   0  0  0  0  0  0  0  0  0  0  0  0
  147.6430  139.2107  153.3712 C   0  0  0  0  0  0  0  0  0  0  0  0
  147.1758  140.6798  153.4179 C   0  0  0  0  0  0  0  0  0  0  0  0
  146.4245  138.3122  153.0774 C   0  0  0  0  0  0  0  0  0  0  0  0
  149.1832  134.6286  154.7760 H   0  0  0  0  0  0  0  0  0  0  0  0
  150.6390  134.8049  155.7517 H   0  0  0  0  0  0  0  0  0  0  0  0
  150.6685  135.2728  154.0530 H   0  0  0  0  0  0  0  0  0  0  0  0
  148.6795  136.9768  153.5931 H   0  0  0  0  0  0  0  0  0  0  0  0
  147.7090  138.8067  155.5069 H   0  0  0  0  0  0  0  0  0  0  0  0
  148.7502  140.3082  156.6526 H   0  0  0  0  0  0  0  0  0  0  0  0
  150.8066  142.0886  155.7835 H   0  0  0  0  0  0  0  0  0  0  0  0
  152.7107  141.1643  157.0515 H   0  0  0  0  0  0  0  0  0  0  0  0
  152.1963  140.0463  155.7954 H   0  0  0  0  0  0  0  0  0  0  0  0
  151.7653  139.7400  157.4771 H   0  0  0  0  0  0  0  0  0  0  0  0
  149.2073  142.5049  157.7405 H   0  0  0  0  0  0  0  0  0  0  0  0
  150.0682  141.2826  158.6470 H   0  0  0  0  0  0  0  0  0  0  0  0
  151.1285  144.4619  156.7117 H   0  0  0  0  0  0  0  0  0  0  0  0
  153.0134  145.6971  158.3204 H   0  0  0  0  0  0  0  0  0  0  0  0
  151.8034  142.1567  160.1571 H   0  0  0  0  0  0  0  0  0  0  0  0
  148.3225  139.1130  152.5222 H   0  0  0  0  0  0  0  0  0  0  0  0
  146.5110  140.8560  154.2640 H   0  0  0  0  0  0  0  0  0  0  0  0
  146.6342  140.9484  152.5106 H   0  0  0  0  0  0  0  0  0  0  0  0
  148.0095  141.3742  153.5019 H   0  0  0  0  0  0  0  0  0  0  0  0
  145.7168  138.3241  153.9070 H   0  0  0  0  0  0  0  0  0  0  0  0
  146.7115  137.2759  152.8990 H   0  0  0  0  0  0  0  0  0  0  0  0
  145.8944  138.6491  152.1861 H   0  0  0  0  0  0  0  0  0  0  0  0
  1  2  1  0  0  0  0
  1 20  1  0  0  0  0
  1 21  1  0  0  0  0
  1 22  1  0  0  0  0
  2  3  2  0  0  0  0
  2  4  1  0  0  0  0
  4  5  1  0  0  0  0
  4 23  1  0  0  0  0
  5  6  1  0  0  0  0
  5 17  1  0  0  0  0
  5 24  1  0  0  0  0
  6  7  2  0  0  0  0
  6  8  1  0  0  0  0
  8  9  1  0  0  0  0
  8 25  1  0  0  0  0
  9 10  1  0  0  0  0
  9 11  1  0  0  0  0
  9 26  1  0  0  0  0
 10 27  1  0  0  0  0
 10 28  1  0  0  0  0
 10 29  1  0  0  0  0
 11 12  1  0  0  0  0
 11 30  1  0  0  0  0
 11 31  1  0  0  0  0
 12 16  1  0  0  0  0
 12 13  1  0  0  0  0
 13 14  2  0  0  0  0
 13 32  1  0  0  0  0
 14 15  1  0  0  0  0
 14 33  1  0  0  0  0
 15 16  2  0  0  0  0
 16 34  1  0  0  0  0
 17 18  1  0  0  0  0
 17 19  1  0  0  0  0
 17 35  1  0  0  0  0
 18 36  1  0  0  0  0
 18 37  1  0  0  0  0
 18 38  1  0  0  0  0
 19 39  1  0  0  0  0
 19 40  1  0  0  0  0
 19 41  1  0  0  0  0
M  END
> <s_m_source_file>
AV-unprocessed.smi

> <i_m_source_file_index>
1648

> <i_lp_mmshare_version>
43012

> <i_f3d_flags>
0

> <s_epik_input>
W0NIM11DKD1PKVtOSF1bQ0BASF0oW0NIXShbQ0gzXSlbQ0gzXSlDKD1PKVtOSF1bQ0BIXShbQ0gzXSlbQ0gyXW4xW2NIXVtjSF1uW2NIXTE=

> <s_epik_cmdline>
J2VwaWtfcHl0aG9uJywgJy1waCcsICc3LjAnLCAnLXRuJywgJzgnLCAnLW1hJywgJzIwMCcsICctbWV0YWxfYmluZGluZycsICctaW1hZScsICc8aW5maWxlLm1hZT4nLCAnLW9tYWUnLCAnPG91dGZpbGUubWFlPic=

> <r_lp_tautomer_probability>
1

> <r_epik_Ionization_Penalty>
0.628885

> <r_epik_Ionization_Penalty_Charging>
0.628884

> <r_epik_Ionization_Penalty_Neutral>
4.35155e-07

> <r_epik_State_Penalty>
0.64556

> <r_epik_Charging_Adjusted_Penalty>
1.27444

> <i_epik_Tot_Q>
0

> <i_epik_Tot_abs_Q>
0

> <r_epik_Metal_State_Penalty>
0.30874

> <b_epik_Metal_Only>
0

> <s_lp_Force_Field>
OPLS_2005

> <r_lp_Energy>
9.77282

> <b_lp_Chiralities_Consistent>
1

> <s_lp_Variant>
AV-unprocessed.smi:1648-6

> <Gold.Version>
5.8.1

> <Gold.Id.Protein>
6NUR|6NUR_protein|mol2

> <Gold.PLP.Fitness>
43.1826

> <Gold.PLP.PLP>
-34.2510

> <Gold.PLP.part.hbond>
-2.0000

> <Gold.PLP.part.metal>
0.0000

> <Gold.PLP.part.buried>
-4.1860

> <Gold.PLP.part.nonpolar>
-29.4331

> <Gold.PLP.part.repulsive>
0.4797

> <Gold.PLP.ligand.clash>
0.0000

> <Gold.PLP.ligand.torsion>
0.0528

> <Gold.PLP.Chemscore.Hbond>
2.0000

> <Gold.PLP.Chemscore.CHOScore>
1.0000

> <Gold.PLP.Chemscore.Metal>
0.0000

> <Gold.Chemscore.Hbonds>
donor molecule, donor type, donor heavy atom, donor atom, acceptor molecule, acceptor atom, score
      L1  H     4    23       P1  7948  1.00
      P1  H  7989  7998       L1     7  1.00
      L1  C    13    32       P1  8028  1.00

> <Gold.PLP.Chemscore.Internal.Correction>
0.0373

> <Gold.Rescore>
     Score         DG    S(hbond)    S(metal)    S(lipo)     H(rot)  DE(clash)    DE(int)     intcor
     14.12     -14.29       1.97        0.00      74.13       2.52       0.02       0.16       ----

> <Gold.Chemscore.Fitness>
14.1183

> <Gold.Chemscore.DG>
-14.2941

> <Gold.Chemscore.ZeroCoef>
-5.4800

> <Gold.Chemscore.Hbond>
1.9748

> <Gold.Chemscore.Metal>
0.0000

> <Gold.Chemscore.Lipo>
74.1330

> <Gold.Chemscore.Internal_Hbond>
0.0000

> <Gold.Chemscore.DEClash>
0.0203

> <Gold.Chemscore.DEInternal>
0.1556

> <Gold.Chemscore.Rot>
2.5216

> <Gold.Chemscore.Internal.Correction>
   9.000000E+99

> <Gold.Chemscore.Hbonds>
donor molecule, donor type, donor heavy atom, donor atom, acceptor molecule, acceptor atom, score
      L1  H     4    23       P1  7948  0.99
      P1  H  7989  7998       L1     7  0.99

> <Gold.Chemscore.Hbond.Weighted>
-6.5958

> <Gold.Chemscore.Metal.Weighted>
-0.0000

> <Gold.Chemscore.Lipo.Weighted>
-8.6736

> <Gold.Chemscore.Internal_Hbond.Weighted>
0.0000

> <Gold.Chemscore.DEClash.Weighted>
0.0203

> <Gold.Chemscore.DEInternal.Weighted>
0.1556

> <Gold.Chemscore.Rot.Weighted>
6.4553

> <Gold.Chemscore.Internal.Correction.Weighted>
   9.000000E+99

> <Gold.Protein.RotatedTorsions>
[ 6907 6896 6895 6894 ] final  112.70 input  -60.11 | X-H torsion
[ 7974 7965 7964 7962 ] final  105.71 input  175.53 | X-H torsion
[ 8008 7997 7996 7995 ] final   61.84 input   59.86 | X-H torsion
[ 10167 10162 10161 10158 ] final  132.25 input  -65.29 | X-H torsion
[ 10718 10713 10712 10709 ] final   90.12 input   66.30 | X-H torsion
[ 10763 10752 10751 10750 ] final   41.87 input  -60.55 | X-H torsion
[ 11005 11000 10999 10996 ] final   94.66 input  -57.11 | X-H torsion

> <Gold.Protein.ActiveResidues>
 VAL166  LYS551  ARG553  GLY616  TRP617  ASP618  TYR619  PRO620  LYS621  CYS622 
 ASP623  PHE694  ASN695  SER759  ASP760  ASP761  ALA762  ILE779  LEU786  VAL792 
 PHE793  MET794  SER795  GLU796  ALA797  LYS798  CYS799  TRP800  GLU811  SER814 

> <Gold.Protein.RotatedAtoms>
  152.4902  133.8478  159.7185 H   0  0  0  0  0  0  0  0  0  0  0  0  # atno 6907 bound_to 6896
  150.9024  133.7092  159.2882 H   0  0  0  0  0  0  0  0  0  0  0  0  # atno 6908 bound_to 6896
  151.4529  135.1035  159.9755 H   0  0  0  0  0  0  0  0  0  0  0  0  # atno 6909 bound_to 6896
  145.3161  139.2526  143.3736 H   0  0  0  0  0  0  0  0  0  0  0  0  # atno 7974 bound_to 7965
  155.6047  140.3494  155.4604 H   0  0  0  0  0  0  0  0  0  0  0  0  # atno 8008 bound_to 7997
  156.0201  140.1252  157.0391 H   0  0  0  0  0  0  0  0  0  0  0  0  # atno 8009 bound_to 7997
  154.4312  140.1064  156.5937 H   0  0  0  0  0  0  0  0  0  0  0  0  # atno 8010 bound_to 7997
  139.5348  144.6670  151.4825 H   0  0  0  0  0  0  0  0  0  0  0  0  # atno 10167 bound_to 10162
  157.6958  131.0359  150.3529 H   0  0  0  0  0  0  0  0  0  0  0  0  # atno 10718 bound_to 10713
  152.9897  135.6149  154.2858 H   0  0  0  0  0  0  0  0  0  0  0  0  # atno 10763 bound_to 10752
  154.2585  135.2783  155.2789 H   0  0  0  0  0  0  0  0  0  0  0  0  # atno 10764 bound_to 10752
  154.5226  135.5810  153.6750 H   0  0  0  0  0  0  0  0  0  0  0  0  # atno 10765 bound_to 10752
  139.8796  134.8857  156.3896 H   0  0  0  0  0  0  0  0  0  0  0  0  # atno 11005 bound_to 11000
  146.3100  140.3709  142.8674 LP  0  0  0  0  0  0  0  0  0  0  0  0  # atno 17320 bound_to 7965
  144.8976  140.7603  143.5887 LP  0  0  0  0  0  0  0  0  0  0  0  0  # atno 17321 bound_to 7965
  140.6548  143.8622  150.6823 LP  0  0  0  0  0  0  0  0  0  0  0  0  # atno 17342 bound_to 10162
  140.1998  143.3968  152.1800 LP  0  0  0  0  0  0  0  0  0  0  0  0  # atno 17343 bound_to 10162
  156.3975  130.3909  149.6984 LP  0  0  0  0  0  0  0  0  0  0  0  0  # atno 17370 bound_to 10713
  156.4313  130.7816  151.2836 LP  0  0  0  0  0  0  0  0  0  0  0  0  # atno 17371 bound_to 10713
  140.9342  133.7558  156.0063 LP  0  0  0  0  0  0  0  0  0  0  0  0  # atno 17394 bound_to 11000
  140.8295  134.3194  157.5354 LP  0  0  0  0  0  0  0  0  0  0  0  0  # atno 17395 bound_to 11000

$$$$
