AV-unprocessed.smi:38|AV-procd|sdf|337|dock3
  -GOLD-   2262016173D 1   1.00000     0.00000
 Structure written by MMmdl.
 28 29  0  0  0  0  0  0  0  0  1 V2000
  151.8117  141.1856  159.0219 O   0  0  0  0  0  0  0  0  0  0  0  0
  151.1899  141.1998  157.9614 C   0  0  0  0  0  0  0  0  0  0  0  0
  151.5696  140.3580  156.9126 N   0  0  0  0  0  0  0  0  0  0  0  0
  150.9431  140.2808  155.6676 C   0  0  0  0  0  0  0  0  0  0  0  0
  151.3767  139.5146  154.8082 O   0  0  0  0  0  0  0  0  0  0  0  0
  149.8191  141.1099  155.4540 N   0  0  0  0  0  0  0  0  0  0  0  0
  149.1346  141.0573  154.1027 C   0  0  1  0  0  0  0  0  0  0  0  0
  148.3231  139.7639  153.9351 C   0  0  0  0  0  0  0  0  0  0  0  0
  147.0923  140.2701  153.2151 C   0  0  1  0  0  0  0  0  0  0  0  0
  145.9943  139.3895  153.3465 O   0  0  0  0  0  0  0  0  0  0  0  0
  146.8844  141.6525  153.8451 C   0  0  1  0  0  0  0  0  0  0  0  0
  146.2012  141.6427  155.2311 C   0  0  0  0  0  0  0  0  0  0  0  0
  144.8741  141.1786  155.1073 O   0  0  0  0  0  0  0  0  0  0  0  0
  148.2276  142.1201  153.9845 O   0  0  0  0  0  0  0  0  0  0  0  0
  149.4224  141.9828  156.4618 C   0  0  0  0  0  0  0  0  0  0  0  0
  150.0418  142.0509  157.6641 C   0  0  0  0  0  0  0  0  0  0  0  0
  149.5980  142.9173  158.5906 F   0  0  0  0  0  0  0  0  0  0  0  0
  152.3680  139.7595  157.0668 H   0  0  0  0  0  0  0  0  0  0  0  0
  149.9300  141.1778  153.3647 H   0  0  0  0  0  0  0  0  0  0  0  0
  147.3209  140.3884  152.1549 H   0  0  0  0  0  0  0  0  0  0  0  0
  146.3262  142.2942  153.1620 H   0  0  0  0  0  0  0  0  0  0  0  0
  148.8796  139.0126  153.3741 H   0  0  0  0  0  0  0  0  0  0  0  0
  148.0625  139.3589  154.9145 H   0  0  0  0  0  0  0  0  0  0  0  0
  145.1982  139.8775  153.1997 H   0  0  0  0  0  0  0  0  0  0  0  0
  146.7092  140.9549  155.9069 H   0  0  0  0  0  0  0  0  0  0  0  0
  146.2163  142.6228  155.7067 H   0  0  0  0  0  0  0  0  0  0  0  0
  144.6870  141.0438  154.1906 H   0  0  0  0  0  0  0  0  0  0  0  0
  148.5877  142.6497  156.3082 H   0  0  0  0  0  0  0  0  0  0  0  0
  1  2  2  0  0  0  0
  2 16  1  0  0  0  0
  2  3  1  0  0  0  0
  3 18  1  0  0  0  0
  3  4  1  0  0  0  0
  4  5  2  0  0  0  0
  4  6  1  0  0  0  0
  6  7  1  0  0  0  0
  6 15  1  0  0  0  0
  7 19  1  0  0  0  0
  7 14  1  0  0  0  0
  7  8  1  0  0  0  0
  8  9  1  0  0  0  0
  8 22  1  0  0  0  0
  8 23  1  0  0  0  0
  9 20  1  0  0  0  0
  9 10  1  0  0  0  0
  9 11  1  0  0  0  0
 10 24  1  0  0  0  0
 11 21  1  0  0  0  0
 11 12  1  0  0  0  0
 11 14  1  0  0  0  0
 12 13  1  0  0  0  0
 12 25  1  0  0  0  0
 12 26  1  0  0  0  0
 13 27  1  0  0  0  0
 15 16  2  0  0  0  0
 15 28  1  0  0  0  0
 16 17  1  0  0  0  0
M  END
> <s_m_source_file>
AV-unprocessed.smi

> <i_m_source_file_index>
38

> <i_lp_mmshare_version>
43012

> <i_f3d_flags>
0

> <s_epik_input>
Tz1jMVtuSF1jKD1PKW4oW2NIXWMxRilbQ0BIXTJbQ0gyXVtDQEhdKFtPSF0pW0NASF0oTzIpW0NIMl1bT0hd

> <s_epik_cmdline>
J2VwaWtfcHl0aG9uJywgJy1waCcsICc3LjAnLCAnLXRuJywgJzgnLCAnLW1hJywgJzIwMCcsICctbWV0YWxfYmluZGluZycsICctaW1hZScsICc8aW5maWxlLm1hZT4nLCAnLW9tYWUnLCAnPG91dGZpbGUubWFlPic=

> <r_lp_tautomer_probability>
0.999537

> <r_epik_Ionization_Penalty>
0.0357432

> <r_epik_Ionization_Penalty_Charging>
0.0357431

> <r_epik_Ionization_Penalty_Neutral>
1.19946e-07

> <r_epik_State_Penalty>
0.0298169

> <r_epik_Charging_Adjusted_Penalty>
0.06556

> <i_epik_Tot_Q>
0

> <i_epik_Tot_abs_Q>
0

> <r_epik_Metal_State_Penalty>
2.348

> <b_epik_Metal_Only>
0

> <s_epik_Chemistry_Notes>
This compound contains an acetal/aminal-like group ( X-CH(R)-Y where X, Y are N, S, or O) that may be acid/base labile, releasing an aldehyde.

> <s_lp_Force_Field>
OPLS_2005

> <r_lp_Energy>
30.312

> <b_lp_Chiralities_Consistent>
1

> <s_lp_Variant>
AV-unprocessed.smi:38-3

> <Gold.Version>
5.8.1

> <Gold.Id.Protein>
6NUR|6NUR_protein|mol2

> <Gold.PLP.Fitness>
36.5251

> <Gold.PLP.PLP>
-25.9580

> <Gold.PLP.part.hbond>
-4.0000

> <Gold.PLP.part.metal>
0.0000

> <Gold.PLP.part.buried>
1.3123

> <Gold.PLP.part.nonpolar>
-22.8999

> <Gold.PLP.part.repulsive>
0.3841

> <Gold.PLP.ligand.clash>
0.0000

> <Gold.PLP.ligand.torsion>
0.2419

> <Gold.PLP.Chemscore.Hbond>
2.8500

> <Gold.PLP.Chemscore.CHOScore>
0.8259

> <Gold.PLP.Chemscore.Metal>
0.0000

> <Gold.Chemscore.Hbonds>
donor molecule, donor type, donor heavy atom, donor atom, acceptor molecule, acceptor atom, score
      L1  H    10    24       P1 10175  1.00
      L1  H    13    27       P1 10175  0.96
      P1  H  7989  7998       L1     5  0.75
      L1  C    15    28       P1  8028  0.84

> <Gold.PLP.Chemscore.Internal.Correction>
0.0234

> <Gold.Rescore>
     Score         DG    S(hbond)    S(metal)    S(lipo)     H(rot)  DE(clash)    DE(int)     intcor
     10.39     -11.37       2.81        0.00      33.94       2.91       0.52       0.46       ----

> <Gold.Chemscore.Fitness>
10.3862

> <Gold.Chemscore.DG>
-11.3694

> <Gold.Chemscore.ZeroCoef>
-5.4800

> <Gold.Chemscore.Hbond>
2.8079

> <Gold.Chemscore.Metal>
0.0000

> <Gold.Chemscore.Lipo>
33.9417

> <Gold.Chemscore.Internal_Hbond>
0.0000

> <Gold.Chemscore.DEClash>
0.5185

> <Gold.Chemscore.DEInternal>
0.4647

> <Gold.Chemscore.Rot>
2.9141

> <Gold.Chemscore.Internal.Correction>
   9.000000E+99

> <Gold.Chemscore.Hbonds>
donor molecule, donor type, donor heavy atom, donor atom, acceptor molecule, acceptor atom, score
      L1  H    10    24       P1 10175  1.00
      L1  H    13    27       P1 10175  0.80
      P1  H  7989  7998       L1     5  0.09

> <Gold.Chemscore.Hbond.Weighted>
-9.3783

> <Gold.Chemscore.Metal.Weighted>
-0.0000

> <Gold.Chemscore.Lipo.Weighted>
-3.9712

> <Gold.Chemscore.Internal_Hbond.Weighted>
0.0000

> <Gold.Chemscore.DEClash.Weighted>
0.5185

> <Gold.Chemscore.DEInternal.Weighted>
0.4647

> <Gold.Chemscore.Rot.Weighted>
7.4601

> <Gold.Chemscore.Internal.Correction.Weighted>
   9.000000E+99

> <Gold.Protein.RotatedTorsions>
[ 6907 6896 6895 6894 ] final  159.15 input  -60.11 | X-H torsion
[ 7974 7965 7964 7962 ] final   27.09 input  175.53 | X-H torsion
[ 8008 7997 7996 7995 ] final  -61.57 input   59.86 | X-H torsion
[ 10167 10162 10161 10158 ] final  130.24 input  -65.29 | X-H torsion
[ 10718 10713 10712 10709 ] final  170.98 input   66.30 | X-H torsion
[ 10763 10752 10751 10750 ] final  -10.67 input  -60.55 | X-H torsion
[ 11005 11000 10999 10996 ] final -119.79 input  -57.11 | X-H torsion

> <Gold.Protein.ActiveResidues>
 VAL166  LYS551  ARG553  GLY616  TRP617  ASP618  TYR619  PRO620  LYS621  CYS622 
 ASP623  PHE694  ASN695  SER759  ASP760  ASP761  ALA762  ILE779  LEU786  VAL792 
 PHE793  MET794  SER795  GLU796  ALA797  LYS798  CYS799  TRP800  GLU811  SER814 

> <Gold.Protein.RotatedAtoms>
  151.9898  133.3787  159.4139 H   0  0  0  0  0  0  0  0  0  0  0  0  # atno 6907 bound_to 6896
  150.6923  134.3949  159.5102 H   0  0  0  0  0  0  0  0  0  0  0  0  # atno 6908 bound_to 6896
  152.1681  134.8857  160.0587 H   0  0  0  0  0  0  0  0  0  0  0  0  # atno 6909 bound_to 6896
  146.1803  139.7239  142.8905 H   0  0  0  0  0  0  0  0  0  0  0  0  # atno 7974 bound_to 7965
  154.4455  140.1015  156.6452 H   0  0  0  0  0  0  0  0  0  0  0  0  # atno 8008 bound_to 7997
  155.5458  140.3484  155.4438 H   0  0  0  0  0  0  0  0  0  0  0  0  # atno 8009 bound_to 7997
  156.0564  140.1316  156.9980 H   0  0  0  0  0  0  0  0  0  0  0  0  # atno 8010 bound_to 7997
  139.5439  144.6756  151.4535 H   0  0  0  0  0  0  0  0  0  0  0  0  # atno 10167 bound_to 10162
  157.0003  131.0174  151.2832 H   0  0  0  0  0  0  0  0  0  0  0  0  # atno 10718 bound_to 10713
  153.4725  135.7017  153.5985 H   0  0  0  0  0  0  0  0  0  0  0  0  # atno 10763 bound_to 10752
  153.4232  135.3820  155.2125 H   0  0  0  0  0  0  0  0  0  0  0  0  # atno 10764 bound_to 10752
  154.8724  135.3933  154.4165 H   0  0  0  0  0  0  0  0  0  0  0  0  # atno 10765 bound_to 10752
  141.0190  134.0152  157.3309 H   0  0  0  0  0  0  0  0  0  0  0  0  # atno 11005 bound_to 11000
  145.4095  141.0395  143.3025 LP  0  0  0  0  0  0  0  0  0  0  0  0  # atno 17320 bound_to 7965
  144.8304  139.5639  143.6946 LP  0  0  0  0  0  0  0  0  0  0  0  0  # atno 17321 bound_to 7965
  140.6680  143.8355  150.6965 LP  0  0  0  0  0  0  0  0  0  0  0  0  # atno 17342 bound_to 10162
  140.1771  143.4146  152.1960 LP  0  0  0  0  0  0  0  0  0  0  0  0  # atno 17343 bound_to 10162
  157.5395  130.8110  149.8012 LP  0  0  0  0  0  0  0  0  0  0  0  0  # atno 17370 bound_to 10713
  156.0174  130.3808  150.2069 LP  0  0  0  0  0  0  0  0  0  0  0  0  # atno 17371 bound_to 10713
  139.9134  135.0193  156.7786 LP  0  0  0  0  0  0  0  0  0  0  0  0  # atno 17394 bound_to 11000
  140.6605  133.9649  155.7802 LP  0  0  0  0  0  0  0  0  0  0  0  0  # atno 17395 bound_to 11000

$$$$
