AV-unprocessed.smi:557|AV-procd|sdf|2920|dock1
  -GOLD-   2262023413D 1   1.00000     0.00000
 Structure written by MMmdl.
 47 49  0  0  0  0  0  0  0  0  2 V2000
  151.8453  138.2439  154.5813 C   0  0  0  0  0  0  0  0  0  0  0  0
  150.6830  139.1041  154.6401 N   0  0  0  0  0  0  0  0  0  0  0  0
  149.3727  138.8023  154.3372 C   0  0  0  0  0  0  0  0  0  0  0  0
  148.6327  139.9323  154.5447 C   0  0  0  0  0  0  0  0  0  0  0  0
  147.1553  140.1372  154.3582 C   0  0  0  0  0  0  0  0  0  0  0  0
  146.3601  138.8821  154.7415 C   0  0  0  0  0  0  0  0  0  0  0  0
  145.2956  138.6328  153.7730 N   0  0  0  0  0  0  0  0  0  0  0  0
  144.6966  137.4598  153.5065 C   0  0  0  0  0  0  0  0  0  0  0  0
  145.0053  136.4234  154.0913 O   0  0  0  0  0  0  0  0  0  0  0  0
  143.7427  137.5212  152.5619 N   0  0  0  0  0  0  0  0  0  0  0  0
  142.9517  136.3892  152.0891 C   0  0  2  0  0  0  0  0  0  0  0  0
  142.0315  135.8072  153.1768 C   0  0  0  0  0  0  0  0  0  0  0  0
  142.0587  134.2812  152.9629 C   0  0  0  0  0  0  0  0  0  0  0  0
  142.8658  134.0718  151.7461 N   0  3  2  0  0  0  0  0  0  0  0  0
  143.5152  132.7526  151.5865 C   0  0  0  0  0  0  0  0  0  0  0  0
  144.2304  132.7008  150.2219 C   0  0  0  0  0  0  0  0  0  0  0  0
  145.1966  133.8888  150.0382 C   0  0  0  0  0  0  0  0  0  0  0  0
  144.4889  135.2305  150.3113 C   0  0  0  0  0  0  0  0  0  0  0  0
  143.8197  135.1904  151.6962 C   0  0  1  0  0  0  0  0  0  0  0  0
  149.5982  140.8832  154.9828 C   0  0  0  0  0  0  0  0  0  0  0  0
  150.8226  140.3852  155.0389 N   0  0  0  0  0  0  0  0  0  0  0  0
  151.5998  137.3200  154.0565 H   0  0  0  0  0  0  0  0  0  0  0  0
  152.1743  138.0016  155.5921 H   0  0  0  0  0  0  0  0  0  0  0  0
  152.6550  138.7466  154.0516 H   0  0  0  0  0  0  0  0  0  0  0  0
  149.0775  137.8190  154.0015 H   0  0  0  0  0  0  0  0  0  0  0  0
  146.8102  140.9802  154.9581 H   0  0  0  0  0  0  0  0  0  0  0  0
  146.9360  140.4010  153.3228 H   0  0  0  0  0  0  0  0  0  0  0  0
  147.0252  138.0178  154.7797 H   0  0  0  0  0  0  0  0  0  0  0  0
  145.9279  139.0073  155.7357 H   0  0  0  0  0  0  0  0  0  0  0  0
  144.9751  139.4360  153.2512 H   0  0  0  0  0  0  0  0  0  0  0  0
  143.5581  138.4182  152.1363 H   0  0  0  0  0  0  0  0  0  0  0  0
  142.3321  136.6838  151.2392 H   0  0  0  0  0  0  0  0  0  0  0  0
  142.3951  136.0453  154.1776 H   0  0  0  0  0  0  0  0  0  0  0  0
  141.0219  136.2105  153.0918 H   0  0  0  0  0  0  0  0  0  0  0  0
  142.5324  133.7931  153.8161 H   0  0  0  0  0  0  0  0  0  0  0  0
  141.0605  133.8595  152.8427 H   0  0  0  0  0  0  0  0  0  0  0  0
  144.2265  132.5870  152.3971 H   0  0  0  0  0  0  0  0  0  0  0  0
  142.7641  131.9645  151.6485 H   0  0  0  0  0  0  0  0  0  0  0  0
  144.7706  131.7594  150.1182 H   0  0  0  0  0  0  0  0  0  0  0  0
  143.4863  132.7170  149.4244 H   0  0  0  0  0  0  0  0  0  0  0  0
  146.0394  133.7780  150.7217 H   0  0  0  0  0  0  0  0  0  0  0  0
  145.6134  133.8822  149.0304 H   0  0  0  0  0  0  0  0  0  0  0  0
  145.2109  136.0454  150.2603 H   0  0  0  0  0  0  0  0  0  0  0  0
  143.7436  135.4222  149.5382 H   0  0  0  0  0  0  0  0  0  0  0  0
  144.5815  135.0326  152.4635 H   0  0  0  0  0  0  0  0  0  0  0  0
  149.4455  141.9160  155.2590 H   0  0  0  0  0  0  0  0  0  0  0  0
  142.2407  134.1961  150.9622 H   0  0  0  0  0  0  0  0  0  0  0  0
  1  2  1  0  0  0  0
  1 22  1  0  0  0  0
  1 23  1  0  0  0  0
  1 24  1  0  0  0  0
  2 21  1  0  0  0  0
  2  3  1  0  0  0  0
  3  4  2  0  0  0  0
  3 25  1  0  0  0  0
  4  5  1  0  0  0  0
  4 20  1  0  0  0  0
  5  6  1  0  0  0  0
  5 26  1  0  0  0  0
  5 27  1  0  0  0  0
  6  7  1  0  0  0  0
  6 28  1  0  0  0  0
  6 29  1  0  0  0  0
  7  8  1  0  0  0  0
  7 30  1  0  0  0  0
  8  9  2  0  0  0  0
  8 10  1  0  0  0  0
 10 11  1  0  0  0  0
 10 31  1  0  0  0  0
 11 19  1  0  0  0  0
 11 12  1  0  0  0  0
 11 32  1  0  0  0  0
 12 13  1  0  0  0  0
 12 33  1  0  0  0  0
 12 34  1  0  0  0  0
 13 14  1  0  0  0  0
 13 35  1  0  0  0  0
 13 36  1  0  0  0  0
 14 19  1  0  0  0  0
 14 15  1  0  0  0  0
 14 47  1  0  0  0  0
 15 16  1  0  0  0  0
 15 37  1  0  0  0  0
 15 38  1  0  0  0  0
 16 17  1  0  0  0  0
 16 39  1  0  0  0  0
 16 40  1  0  0  0  0
 17 18  1  0  0  0  0
 17 41  1  0  0  0  0
 17 42  1  0  0  0  0
 18 19  1  0  0  0  0
 18 43  1  0  0  0  0
 18 44  1  0  0  0  0
 19 45  1  0  0  0  0
 20 21  2  0  0  0  0
 20 46  1  0  0  0  0
M  CHG  1  14   1
M  END
> <s_m_source_file>
AV-unprocessed.smi

> <i_m_source_file_index>
557

> <i_lp_mmshare_version>
43012

> <i_f3d_flags>
0

> <s_epik_input>
W0NIM11uMVtjSF1jKFtjSF1uMSlbQ0gyXVtDSDJdW05IXUMoPU8pW05IXVtDQEhdKFtDSDJdW0NIMl0yKVtDQEhdKE4yMylbQ0gyXVtDSDJdW0NIMl1bQ0gyXTM=

> <s_epik_cmdline>
J2VwaWtfcHl0aG9uJywgJy1waCcsICc3LjAnLCAnLXRuJywgJzgnLCAnLW1hJywgJzIwMCcsICctbWV0YWxfYmluZGluZycsICctaW1hZScsICc8aW5maWxlLm1hZT4nLCAnLW9tYWUnLCAnPG91dGZpbGUubWFlPic=

> <r_lp_tautomer_probability>
1

> <r_epik_Ionization_Penalty>
0.000956547

> <r_epik_Ionization_Penalty_Charging>
0.000435796

> <r_epik_Ionization_Penalty_Neutral>
0.000520752

> <r_epik_State_Penalty>
-0

> <r_epik_Charging_Adjusted_Penalty>
0.000435796

> <i_epik_Tot_Q>
1

> <i_epik_Tot_abs_Q>
1

> <r_epik_Metal_State_Penalty>
-0

> <b_epik_Metal_Only>
0

> <s_lp_Force_Field>
OPLS_2005

> <r_lp_Energy>
39.998

> <b_lp_Chiralities_Consistent>
1

> <s_lp_Variant>
AV-unprocessed.smi:557-7

> <Gold.Version>
5.8.1

> <Gold.Id.Protein>
6NUR|6NUR_protein|mol2

> <Gold.PLP.Fitness>
49.5464

> <Gold.PLP.PLP>
-34.3962

> <Gold.PLP.part.hbond>
-5.0000

> <Gold.PLP.part.metal>
0.0000

> <Gold.PLP.part.buried>
-1.2606

> <Gold.PLP.part.nonpolar>
-28.8935

> <Gold.PLP.part.repulsive>
0.1348

> <Gold.PLP.ligand.clash>
0.0000

> <Gold.PLP.ligand.torsion>
0.8615

> <Gold.PLP.Chemscore.Hbond>
4.6096

> <Gold.PLP.Chemscore.CHOScore>
1.0000

> <Gold.PLP.Chemscore.Metal>
0.0000

> <Gold.Chemscore.Hbonds>
donor molecule, donor type, donor heavy atom, donor atom, acceptor molecule, acceptor atom, score
      L1  H     7    30       P1 10175  1.00
      L1  H    10    31       P1 10175  0.87
      L1  H    14    47       P1 10186  1.70
      P1  H  7989  7998       L1    21  0.65
      L1  C     3    25       P1  7948  0.71
      L1  C    20    46       P1  8028  0.12

> <Gold.PLP.Chemscore.Internal.Correction>
0.0445

> <Gold.Rescore>
     Score         DG    S(hbond)    S(metal)    S(lipo)     H(rot)  DE(clash)    DE(int)     intcor
     14.93     -17.85       1.93        0.00      85.72       1.60       0.66       2.27       ----

> <Gold.Chemscore.Fitness>
14.9270

> <Gold.Chemscore.DG>
-17.8545

> <Gold.Chemscore.ZeroCoef>
-5.4800

> <Gold.Chemscore.Hbond>
1.9299

> <Gold.Chemscore.Metal>
0.0000

> <Gold.Chemscore.Lipo>
85.7185

> <Gold.Chemscore.Internal_Hbond>
0.0000

> <Gold.Chemscore.DEClash>
0.6592

> <Gold.Chemscore.DEInternal>
2.2683

> <Gold.Chemscore.Rot>
1.6018

> <Gold.Chemscore.Internal.Correction>
   9.000000E+99

> <Gold.Chemscore.Hbonds>
donor molecule, donor type, donor heavy atom, donor atom, acceptor molecule, acceptor atom, score
      L1  H     7    30       P1 10175  0.97
      L1  H    10    31       P1 10175  0.80
      L1  H    14    47       P1 10186  0.15
      P1  H  7989  7998       L1    21  0.03

> <Gold.Chemscore.Hbond.Weighted>
-6.4460

> <Gold.Chemscore.Metal.Weighted>
-0.0000

> <Gold.Chemscore.Lipo.Weighted>
-10.0291

> <Gold.Chemscore.Internal_Hbond.Weighted>
0.0000

> <Gold.Chemscore.DEClash.Weighted>
0.6592

> <Gold.Chemscore.DEInternal.Weighted>
2.2683

> <Gold.Chemscore.Rot.Weighted>
4.1006

> <Gold.Chemscore.Internal.Correction.Weighted>
   9.000000E+99

> <Gold.Protein.RotatedTorsions>
[ 6907 6896 6895 6894 ] final  -59.19 input  -60.11 | X-H torsion
[ 7974 7965 7964 7962 ] final   12.13 input  175.53 | X-H torsion
[ 8008 7997 7996 7995 ] final  149.49 input   59.86 | X-H torsion
[ 10167 10162 10161 10158 ] final  -21.36 input  -65.29 | X-H torsion
[ 10718 10713 10712 10709 ] final  -90.81 input   66.30 | X-H torsion
[ 10763 10752 10751 10750 ] final  -82.76 input  -60.55 | X-H torsion
[ 11005 11000 10999 10996 ] final    2.31 input  -57.11 | X-H torsion

> <Gold.Protein.ActiveResidues>
 VAL166  LYS551  ARG553  GLY616  TRP617  ASP618  TYR619  PRO620  LYS621  CYS622 
 ASP623  PHE694  ASN695  SER759  ASP760  ASP761  ALA762  ILE779  LEU786  VAL792 
 PHE793  MET794  SER795  GLU796  ALA797  LYS798  CYS799  TRP800  GLU811  SER814 

> <Gold.Protein.RotatedAtoms>
  150.7949  134.7001  159.6544 H   0  0  0  0  0  0  0  0  0  0  0  0  # atno 6907 bound_to 6896
  152.4060  134.6203  160.0058 H   0  0  0  0  0  0  0  0  0  0  0  0  # atno 6908 bound_to 6896
  151.6460  133.3286  159.3177 H   0  0  0  0  0  0  0  0  0  0  0  0  # atno 6909 bound_to 6896
  146.2357  139.9382  142.8487 H   0  0  0  0  0  0  0  0  0  0  0  0  # atno 7974 bound_to 7965
  156.2753  140.2100  156.5867 H   0  0  0  0  0  0  0  0  0  0  0  0  # atno 8008 bound_to 7997
  154.7015  140.0520  157.0486 H   0  0  0  0  0  0  0  0  0  0  0  0  # atno 8009 bound_to 7997
  155.0728  140.3178  155.4628 H   0  0  0  0  0  0  0  0  0  0  0  0  # atno 8010 bound_to 7997
  140.7281  143.4635  151.0346 H   0  0  0  0  0  0  0  0  0  0  0  0  # atno 10167 bound_to 10162
  155.9990  130.4924  150.5379 H   0  0  0  0  0  0  0  0  0  0  0  0  # atno 10718 bound_to 10713
  154.5797  135.5580  153.7173 H   0  0  0  0  0  0  0  0  0  0  0  0  # atno 10763 bound_to 10752
  153.0077  135.6317  154.2000 H   0  0  0  0  0  0  0  0  0  0  0  0  # atno 10764 bound_to 10752
  154.1941  135.2881  155.2992 H   0  0  0  0  0  0  0  0  0  0  0  0  # atno 10765 bound_to 10752
  140.6057  133.9795  155.8153 H   0  0  0  0  0  0  0  0  0  0  0  0  # atno 11005 bound_to 11000
  145.1978  140.9841  143.4173 LP  0  0  0  0  0  0  0  0  0  0  0  0  # atno 17320 bound_to 7965
  144.9800  139.3793  143.6266 LP  0  0  0  0  0  0  0  0  0  0  0  0  # atno 17321 bound_to 7965
  139.8322  143.7676  152.3180 LP  0  0  0  0  0  0  0  0  0  0  0  0  # atno 17342 bound_to 10162
  139.7795  144.7449  151.0108 LP  0  0  0  0  0  0  0  0  0  0  0  0  # atno 17343 bound_to 10162
  157.3319  131.0701  151.1854 LP  0  0  0  0  0  0  0  0  0  0  0  0  # atno 17370 bound_to 10713
  157.2732  130.6714  149.6029 LP  0  0  0  0  0  0  0  0  0  0  0  0  # atno 17371 bound_to 10713
  141.0842  134.0015  157.3339 LP  0  0  0  0  0  0  0  0  0  0  0  0  # atno 17394 bound_to 11000
  139.9213  135.0200  156.8076 LP  0  0  0  0  0  0  0  0  0  0  0  0  # atno 17395 bound_to 11000

$$$$
