AV-unprocessed.smi:3046|AV-procd|sdf|11619|dock10
  -GOLD-   2272017 03D 1   1.00000     0.00000
 Structure written by MMmdl.
 37 37  0  0  0  0  0  0  0  0  1 V2000
  147.8849  144.3003  152.4299 C   0  0  0  0  0  0  0  0  0  0  0  0
  148.1358  143.1297  153.0346 C   0  0  0  0  0  0  0  0  0  0  0  0
  149.4760  142.7383  153.6256 C   0  0  0  0  0  0  0  0  0  0  0  0
  149.3322  142.2640  154.9959 N   0  0  0  0  0  0  0  0  0  0  0  0
  149.9284  141.1743  155.5045 C   0  0  0  0  0  0  0  0  0  0  0  0
  150.6915  140.4571  154.8563 O   0  0  0  0  0  0  0  0  0  0  0  0
  149.5825  140.8188  156.9597 C   0  0  2  0  0  0  0  0  0  0  0  0
  148.0775  140.5471  157.1106 C   0  0  0  0  0  0  0  0  0  0  0  0
  149.9992  141.8547  157.9217 N   0  0  0  0  0  0  0  0  0  0  0  0
  151.2552  142.5364  157.6085 C   0  0  1  0  0  0  0  0  0  0  0  0
  151.0152  144.0537  157.6389 C   0  0  0  0  0  0  0  0  0  0  0  0
  152.3241  142.1142  158.6356 C   0  0  0  0  0  0  0  0  0  0  0  0
  151.9831  142.5300  159.9855 N   0  0  0  0  0  0  0  0  0  0  0  0
  151.7848  141.7401  161.0982 C   0  0  0  0  0  0  0  0  0  0  0  0
  151.4722  142.5705  162.1359 C   0  0  0  0  0  0  0  0  0  0  0  0
  151.5077  143.8678  161.5525 C   0  0  0  0  0  0  0  0  0  0  0  0
  151.8157  143.8406  160.2661 N   0  0  0  0  0  0  0  0  0  0  0  0
  148.6496  145.0570  152.3306 H   0  0  0  0  0  0  0  0  0  0  0  0
  146.9071  144.5167  152.0256 H   0  0  0  0  0  0  0  0  0  0  0  0
  147.3451  142.3971  153.1107 H   0  0  0  0  0  0  0  0  0  0  0  0
  149.9343  141.9688  153.0023 H   0  0  0  0  0  0  0  0  0  0  0  0
  150.1521  143.5939  153.6199 H   0  0  0  0  0  0  0  0  0  0  0  0
  148.7163  142.7903  155.5987 H   0  0  0  0  0  0  0  0  0  0  0  0
  150.1051  139.8962  157.2200 H   0  0  0  0  0  0  0  0  0  0  0  0
  147.7438  139.7713  156.4203 H   0  0  0  0  0  0  0  0  0  0  0  0
  147.4839  141.4419  156.9182 H   0  0  0  0  0  0  0  0  0  0  0  0
  147.8431  140.2066  158.1199 H   0  0  0  0  0  0  0  0  0  0  0  0
  149.2665  142.5269  158.0992 H   0  0  0  0  0  0  0  0  0  0  0  0
  151.6184  142.2601  156.6176 H   0  0  0  0  0  0  0  0  0  0  0  0
  151.9334  144.5970  157.4143 H   0  0  0  0  0  0  0  0  0  0  0  0
  150.6678  144.3825  158.6191 H   0  0  0  0  0  0  0  0  0  0  0  0
  150.2706  144.3568  156.9025 H   0  0  0  0  0  0  0  0  0  0  0  0
  152.4259  141.0284  158.6414 H   0  0  0  0  0  0  0  0  0  0  0  0
  153.3034  142.5160  158.3683 H   0  0  0  0  0  0  0  0  0  0  0  0
  151.8772  140.6649  161.0574 H   0  0  0  0  0  0  0  0  0  0  0  0
  151.2516  142.2938  163.1561 H   0  0  0  0  0  0  0  0  0  0  0  0
  151.3205  144.8220  162.0224 H   0  0  0  0  0  0  0  0  0  0  0  0
  1  2  2  0  0  0  0
  1 18  1  0  0  0  0
  1 19  1  0  0  0  0
  2  3  1  0  0  0  0
  2 20  1  0  0  0  0
  3  4  1  0  0  0  0
  3 21  1  0  0  0  0
  3 22  1  0  0  0  0
  4  5  1  0  0  0  0
  4 23  1  0  0  0  0
  5  6  2  0  0  0  0
  5  7  1  0  0  0  0
  7  8  1  0  0  0  0
  7  9  1  0  0  0  0
  7 24  1  0  0  0  0
  8 25  1  0  0  0  0
  8 26  1  0  0  0  0
  8 27  1  0  0  0  0
  9 10  1  0  0  0  0
  9 28  1  0  0  0  0
 10 11  1  0  0  0  0
 10 12  1  0  0  0  0
 10 29  1  0  0  0  0
 11 30  1  0  0  0  0
 11 31  1  0  0  0  0
 11 32  1  0  0  0  0
 12 13  1  0  0  0  0
 12 33  1  0  0  0  0
 12 34  1  0  0  0  0
 13 17  1  0  0  0  0
 13 14  1  0  0  0  0
 14 15  2  0  0  0  0
 14 35  1  0  0  0  0
 15 16  1  0  0  0  0
 15 36  1  0  0  0  0
 16 17  2  0  0  0  0
 16 37  1  0  0  0  0
M  END
> <s_m_source_file>
AV-unprocessed.smi

> <i_m_source_file_index>
3046

> <i_lp_mmshare_version>
43012

> <i_f3d_flags>
0

> <s_epik_input>
W0NIMl09W0NIXVtDSDJdW05IXUMoPU8pW0NASF0oW0NIM10pW05IXVtDQEhdKFtDSDNdKVtDSDJdbjFbY0hdW2NIXVtjSF1uMQ==

> <s_epik_cmdline>
J2VwaWtfcHl0aG9uJywgJy1waCcsICc3LjAnLCAnLXRuJywgJzgnLCAnLW1hJywgJzIwMCcsICctbWV0YWxfYmluZGluZycsICctaW1hZScsICc8aW5maWxlLm1hZT4nLCAnLW9tYWUnLCAnPG91dGZpbGUubWFlPic=

> <r_lp_tautomer_probability>
1

> <r_epik_Ionization_Penalty>
0.950627

> <r_epik_Ionization_Penalty_Charging>
0

> <r_epik_Ionization_Penalty_Neutral>
0.950627

> <r_epik_State_Penalty>
0.994814

> <r_epik_Charging_Adjusted_Penalty>
0.994814

> <i_epik_Tot_Q>
0

> <i_epik_Tot_abs_Q>
0

> <r_epik_Metal_State_Penalty>
0.994788

> <b_epik_Metal_Only>
0

> <s_lp_Force_Field>
OPLS_2005

> <r_lp_Energy>
6.36017

> <b_lp_Chiralities_Consistent>
1

> <s_lp_Variant>
AV-unprocessed.smi:3046-7

> <Gold.Version>
5.8.1

> <Gold.Id.Protein>
6NUR|6NUR_protein|mol2

> <Gold.PLP.Fitness>
40.1159

> <Gold.PLP.PLP>
-39.4757

> <Gold.PLP.part.hbond>
-1.0000

> <Gold.PLP.part.metal>
0.0000

> <Gold.PLP.part.buried>
-5.0588

> <Gold.PLP.part.nonpolar>
-33.1927

> <Gold.PLP.part.repulsive>
0.1745

> <Gold.PLP.ligand.clash>
0.0000

> <Gold.PLP.ligand.torsion>
1.0865

> <Gold.PLP.Chemscore.Hbond>
0.8960

> <Gold.PLP.Chemscore.CHOScore>
0.0000

> <Gold.PLP.Chemscore.Metal>
0.0000

> <Gold.Chemscore.Hbonds>
donor molecule, donor type, donor heavy atom, donor atom, acceptor molecule, acceptor atom, score
      L1  H     4    23       P1  8028  0.38
      P1  H  7989  7998       L1     6  1.00

> <Gold.PLP.Chemscore.Internal.Correction>
0.1253

> <Gold.Rescore>
     Score         DG    S(hbond)    S(metal)    S(lipo)     H(rot)  DE(clash)    DE(int)     intcor
     11.22     -13.77       0.77        0.00      96.48       2.17       0.47       2.07       ----

> <Gold.Chemscore.Fitness>
11.2199

> <Gold.Chemscore.DG>
-13.7652

> <Gold.Chemscore.ZeroCoef>
-5.4800

> <Gold.Chemscore.Hbond>
0.7672

> <Gold.Chemscore.Metal>
0.0000

> <Gold.Chemscore.Lipo>
96.4790

> <Gold.Chemscore.Internal_Hbond>
0.0000

> <Gold.Chemscore.DEClash>
0.4748

> <Gold.Chemscore.DEInternal>
2.0705

> <Gold.Chemscore.Rot>
2.1739

> <Gold.Chemscore.Internal.Correction>
   9.000000E+99

> <Gold.Chemscore.Hbonds>
donor molecule, donor type, donor heavy atom, donor atom, acceptor molecule, acceptor atom, score
      L1  H     4    23       P1  8028  0.38
      P1  H  7989  7998       L1     6  0.97

> <Gold.Chemscore.Hbond.Weighted>
-2.5624

> <Gold.Chemscore.Metal.Weighted>
-0.0000

> <Gold.Chemscore.Lipo.Weighted>
-11.2880

> <Gold.Chemscore.Internal_Hbond.Weighted>
0.0000

> <Gold.Chemscore.DEClash.Weighted>
0.4748

> <Gold.Chemscore.DEInternal.Weighted>
2.0705

> <Gold.Chemscore.Rot.Weighted>
5.5652

> <Gold.Chemscore.Internal.Correction.Weighted>
   9.000000E+99

> <Gold.Protein.RotatedTorsions>
[ 6907 6896 6895 6894 ] final  141.68 input  -60.11 | X-H torsion
[ 7974 7965 7964 7962 ] final    6.06 input  175.53 | X-H torsion
[ 8008 7997 7996 7995 ] final -177.07 input   59.86 | X-H torsion
[ 10167 10162 10161 10158 ] final  137.97 input  -65.29 | X-H torsion
[ 10718 10713 10712 10709 ] final  -61.24 input   66.30 | X-H torsion
[ 10763 10752 10751 10750 ] final -131.54 input  -60.55 | X-H torsion
[ 11005 11000 10999 10996 ] final  -20.81 input  -57.11 | X-H torsion

> <Gold.Protein.ActiveResidues>
 VAL166  LYS551  ARG553  GLY616  TRP617  ASP618  TYR619  PRO620  LYS621  CYS622 
 ASP623  PHE694  ASN695  SER759  ASP760  ASP761  ALA762  ILE779  LEU786  VAL792 
 PHE793  MET794  SER795  GLU796  ALA797  LYS798  CYS799  TRP800  GLU811  SER814 

> <Gold.Protein.RotatedAtoms>
  152.2280  133.5035  159.5199 H   0  0  0  0  0  0  0  0  0  0  0  0  # atno 6907 bound_to 6896
  150.7030  134.1254  159.4059 H   0  0  0  0  0  0  0  0  0  0  0  0  # atno 6908 bound_to 6896
  151.9175  135.0312  160.0570 H   0  0  0  0  0  0  0  0  0  0  0  0  # atno 6909 bound_to 6896
  146.2437  140.0290  142.8391 H   0  0  0  0  0  0  0  0  0  0  0  0  # atno 7974 bound_to 7965
  156.0026  140.1223  157.0533 H   0  0  0  0  0  0  0  0  0  0  0  0  # atno 8008 bound_to 7997
  154.4247  140.1104  156.5786 H   0  0  0  0  0  0  0  0  0  0  0  0  # atno 8009 bound_to 7997
  155.6192  140.3472  155.4649 H   0  0  0  0  0  0  0  0  0  0  0  0  # atno 8010 bound_to 7997
  139.5126  144.6380  151.5645 H   0  0  0  0  0  0  0  0  0  0  0  0  # atno 10167 bound_to 10162
  156.0935  130.4196  150.0966 H   0  0  0  0  0  0  0  0  0  0  0  0  # atno 10718 bound_to 10713
  154.8750  135.3827  154.4263 H   0  0  0  0  0  0  0  0  0  0  0  0  # atno 10763 bound_to 10752
  153.4962  135.7030  153.5862 H   0  0  0  0  0  0  0  0  0  0  0  0  # atno 10764 bound_to 10752
  153.4214  135.3900  155.2080 H   0  0  0  0  0  0  0  0  0  0  0  0  # atno 10765 bound_to 10752
  140.8500  133.7863  155.9955 H   0  0  0  0  0  0  0  0  0  0  0  0  # atno 11005 bound_to 11000
  145.1172  140.9440  143.4622 LP  0  0  0  0  0  0  0  0  0  0  0  0  # atno 17320 bound_to 7965
  145.0517  139.3176  143.5925 LP  0  0  0  0  0  0  0  0  0  0  0  0  # atno 17321 bound_to 7965
  140.6136  143.9390  150.6471 LP  0  0  0  0  0  0  0  0  0  0  0  0  # atno 17342 bound_to 10162
  140.2641  143.3503  152.1297 LP  0  0  0  0  0  0  0  0  0  0  0  0  # atno 17343 bound_to 10162
  156.8970  130.9608  151.3581 LP  0  0  0  0  0  0  0  0  0  0  0  0  # atno 17370 bound_to 10713
  157.6091  130.8569  149.8922 LP  0  0  0  0  0  0  0  0  0  0  0  0  # atno 17371 bound_to 10713
  140.8800  134.2622  157.5148 LP  0  0  0  0  0  0  0  0  0  0  0  0  # atno 17394 bound_to 11000
  139.8704  134.9610  156.4383 LP  0  0  0  0  0  0  0  0  0  0  0  0  # atno 17395 bound_to 11000

$$$$
