#       Name:                AV-unprocessed.smi:1076
#       Creating user name   scv26
#       Creation time:       Fri Mar 27 03:22:20 2020


#       File generated by GOLD software.
#

@<TRIPOS>MOLECULE
AV-unprocessed.smi:1076
    50    51     1
SMALL
NO_CHARGES


@<TRIPOS>ATOM
      1 ****        -1.4410  -0.6864  -5.4493 C.3            1 S1                 0.0000
      2 ****        -2.1986  -0.5715  -4.1581 C.2            1 S1                 0.0000
      3 ****        -3.2147   0.3685  -3.8243 C.2            1 S1                 0.0000
      4 ****        -3.6900   0.1998  -2.6013 N.2            1 S1                 0.0000
      5 ****        -2.9918  -0.8458  -2.1095 N.pl3          1 S1                 0.0000
      6 ****        -3.2578  -1.3252  -0.7640 C.3            1 S1                 0.0000
      7 ****        -2.8242  -0.3228   0.3251 C.3            1 S1                 0.0000
      8 ****        -3.2596  -0.8067   1.7198 C.3            1 S1                 0.0000
      9 ****        -1.3731  -0.1756   0.2793 N.3            1 S1                 0.0000
     10 ****        -0.9334   1.0782   0.8810 C.3            1 S1                 0.0000
     11 ****         0.6049   1.1981   0.8709 C.3            1 S1                 0.0000
     12 ****         1.3501   0.1654   1.7410 C.2            1 S1                 0.0000
     13 ****         0.7001  -0.5727   2.4835 O.2            1 S1                 0.0000
     14 ****         2.7018   0.0994   1.6697 N.am           1 S1                 0.0000
     15 ****         3.4986  -0.8512   2.4513 C.3            1 S1                 0.0000
     16 ****         4.3724  -0.0605   3.4406 C.3            1 S1                 0.0000
     17 ****         5.2001   0.8506   2.7223 O.3            1 S1                 0.0000
     18 ****         4.4559   1.7761   1.9344 C.3            1 S1                 0.0000
     19 ****         3.5750   1.0149   0.9267 C.3            1 S1                 0.0000
     20 ****        -2.0892  -1.3346  -3.0301 C.2            1 S1                 0.0000
     21 ****        -1.0580   0.2795  -5.7784 H              1 S1                 0.0000
     22 ****        -2.0714  -1.0723  -6.2504 H              1 S1                 0.0000
     23 ****        -0.5863  -1.3572  -5.3609 H              1 S1                 0.0000
     24 ****        -3.6203   1.1630  -4.4333 H              1 S1                 0.0000
     25 ****        -4.3279  -1.5224  -0.6864 H              1 S1                 0.0000
     26 ****        -2.7562  -2.2845  -0.6269 H              1 S1                 0.0000
     27 ****        -3.2953   0.6389   0.1158 H              1 S1                 0.0000
     28 ****        -4.3373  -0.9677   1.7547 H              1 S1                 0.0000
     29 ****        -3.0209  -0.0835   2.4989 H              1 S1                 0.0000
     30 ****        -2.7768  -1.7492   1.9812 H              1 S1                 0.0000
     31 ****        -1.0713  -0.1918  -0.6845 H              1 S1                 0.0000
     32 ****        -1.3655   1.9091   0.3224 H              1 S1                 0.0000
     33 ****        -1.2978   1.1625   1.9046 H              1 S1                 0.0000
     34 ****         0.9491   1.1130  -0.1607 H              1 S1                 0.0000
     35 ****         0.8809   2.1945   1.2176 H              1 S1                 0.0000
     36 ****         2.8891  -1.5741   2.9947 H              1 S1                 0.0000
     37 ****         4.1274  -1.4344   1.7771 H              1 S1                 0.0000
     38 ****         3.7545   0.4812   4.1586 H              1 S1                 0.0000
     39 ****         5.0061  -0.7391   4.0113 H              1 S1                 0.0000
     40 ****         3.8475   2.4105   2.5808 H              1 S1                 0.0000
     41 ****         5.1522   2.4298   1.4089 H              1 S1                 0.0000
     42 ****         4.2000   0.4378   0.2440 H              1 S1                 0.0000
     43 ****         3.0401   1.7328   0.3077 H              1 S1                 0.0000
     44 ****        -1.4493  -2.1762  -2.8079 H              1 S1                 0.0000
     45 ****        -4.4054   0.7280  -2.1439 LP             1 S1                 0.0000
     46 ****        -0.9723  -0.9307   0.7982 LP             1 S1                 0.0000
     47 ****        -0.2965  -0.4971   2.5160 LP             1 S1                 0.0000
     48 ****         1.1693  -1.2471   3.0536 LP             1 S1                 0.0000
     49 ****         5.8001   0.3272   2.1173 LP             1 S1                 0.0000
     50 ****         5.7537   1.3635   3.3784 LP             1 S1                 0.0000
@<TRIPOS>BOND
    1    1    2 1     
    2    1   21 1     
    3    1   22 1     
    4    1   23 1     
    5    2   20 2     
    6    2    3 1     
    7    3    4 2     
    8    3   24 1     
    9    4    5 1     
   10    5    6 1     
   11    5   20 1     
   12    6    7 1     
   13    6   25 1     
   14    6   26 1     
   15    7    8 1     
   16    7    9 1     
   17    7   27 1     
   18    8   28 1     
   19    8   29 1     
   20    8   30 1     
   21    9   10 1     
   22    9   31 1     
   23   10   11 1     
   24   10   32 1     
   25   10   33 1     
   26   11   12 1     
   27   11   34 1     
   28   11   35 1     
   29   12   13 2     
   30   12   14 am    
   31   14   19 1     
   32   14   15 1     
   33   15   16 1     
   34   15   36 1     
   35   15   37 1     
   36   16   17 1     
   37   16   38 1     
   38   16   39 1     
   39   17   18 1     
   40   18   19 1     
   41   18   40 1     
   42   18   41 1     
   43   19   42 1     
   44   19   43 1     
   45   20   44 1     
   46    4   45 1     
   47    9   46 1     
   48   13   47 1     
   49   13   48 1     
   50   17   49 1     
   51   17   50 1     
@<TRIPOS>SUBSTRUCTURE
      1 S1             1
@<TRIPOS>SET
LONE_PAIRS      STATIC     ATOMS    <user>   **** ""
6 45 46 47 48 49 50
DONOR_HYDROGENS      STATIC     ATOMS    <user>   **** ""
1 31
ATOM$BLUE        STATIC     ATOMS    COLORGROUP SYSTEM
6 45 46 47 48 49 50
ATOM$RED        STATIC     ATOMS    COLORGROUP SYSTEM
1 31
