AV-unprocessed.smi:1401|AV-procd|sdf|5690|dock3
  -GOLD-   22720 5313D 1   1.00000     0.00000
 Structure written by MMmdl.
 48 50  0  0  0  0  0  0  0  0  1 V2000
  148.3956  141.0729  154.1801 C   0  0  0  0  0  0  0  0  0  0  0  0
  149.1196  139.8018  154.5333 C   0  0  0  0  0  0  0  0  0  0  0  0
  150.4039  139.8801  154.6556 N   0  0  0  0  0  0  0  0  0  0  0  0
  151.1656  138.7713  154.9701 N   0  0  0  0  0  0  0  0  0  0  0  0
  152.6093  139.0379  155.0485 C   0  0  0  0  0  0  0  0  0  0  0  0
  153.1319  139.1313  156.4893 C   0  0  0  0  0  0  0  0  0  0  0  0
  154.0936  138.4548  156.8567 O   0  0  0  0  0  0  0  0  0  0  0  0
  152.4924  139.9973  157.2901 N   0  0  0  0  0  0  0  0  0  0  0  0
  152.8301  140.2741  158.6847 C   0  0  2  0  0  0  0  0  0  0  0  0
  152.5618  139.0154  159.5299 C   0  0  0  0  0  0  0  0  0  0  0  0
  152.0273  141.4990  159.1872 C   0  0  1  0  0  0  0  0  0  0  0  0
  152.4423  141.9753  160.6009 C   0  0  0  0  0  0  0  0  0  0  0  0
  152.7479  143.4698  160.3979 C   0  0  2  0  0  0  0  0  0  0  0  0
  151.4399  144.2310  160.1159 C   0  0  0  0  0  0  0  0  0  0  0  0
  151.0897  143.7807  158.6854 C   0  0  0  0  0  0  0  0  0  0  0  0
  152.2238  142.7919  158.3527 C   0  0  1  0  0  0  0  0  0  0  0  0
  153.4154  143.4616  159.0293 C   0  0  0  0  0  0  0  0  0  0  0  0
  150.6652  137.5202  155.1830 C   0  0  0  0  0  0  0  0  0  0  0  0
  151.3831  136.5579  155.4593 O   0  0  0  0  0  0  0  0  0  0  0  0
  149.2088  137.4402  155.0491 C   0  0  0  0  0  0  0  0  0  0  0  0
  148.6428  136.1481  155.2666 C   0  0  0  0  0  0  0  0  0  0  0  0
  148.1648  135.1082  155.4399 N   0  0  0  0  0  0  0  0  0  0  0  0
  148.4504  138.5214  154.7388 C   0  0  0  0  0  0  0  0  0  0  0  0
  146.9358  138.4912  154.5865 C   0  0  0  0  0  0  0  0  0  0  0  0
  147.7095  141.3607  154.9770 H   0  0  0  0  0  0  0  0  0  0  0  0
  147.8185  140.9486  153.2636 H   0  0  0  0  0  0  0  0  0  0  0  0
  149.0852  141.9037  154.0220 H   0  0  0  0  0  0  0  0  0  0  0  0
  153.1660  138.2487  154.5399 H   0  0  0  0  0  0  0  0  0  0  0  0
  152.8502  139.9570  154.5105 H   0  0  0  0  0  0  0  0  0  0  0  0
  151.7149  140.5120  156.9025 H   0  0  0  0  0  0  0  0  0  0  0  0
  153.8938  140.5111  158.7477 H   0  0  0  0  0  0  0  0  0  0  0  0
  152.8367  139.1654  160.5736 H   0  0  0  0  0  0  0  0  0  0  0  0
  153.1389  138.1649  159.1655 H   0  0  0  0  0  0  0  0  0  0  0  0
  151.5079  138.7364  159.5021 H   0  0  0  0  0  0  0  0  0  0  0  0
  150.9697  141.2293  159.1871 H   0  0  0  0  0  0  0  0  0  0  0  0
  151.6593  141.8075  161.3412 H   0  0  0  0  0  0  0  0  0  0  0  0
  153.3397  141.4625  160.9493 H   0  0  0  0  0  0  0  0  0  0  0  0
  153.3448  143.9067  161.1990 H   0  0  0  0  0  0  0  0  0  0  0  0
  150.6566  143.9853  160.8339 H   0  0  0  0  0  0  0  0  0  0  0  0
  151.6005  145.3094  160.1500 H   0  0  0  0  0  0  0  0  0  0  0  0
  150.1018  143.3232  158.6210 H   0  0  0  0  0  0  0  0  0  0  0  0
  151.1065  144.6315  158.0031 H   0  0  0  0  0  0  0  0  0  0  0  0
  152.3406  142.6317  157.2810 H   0  0  0  0  0  0  0  0  0  0  0  0
  153.6259  144.4611  158.6447 H   0  0  0  0  0  0  0  0  0  0  0  0
  154.3296  142.8667  158.9945 H   0  0  0  0  0  0  0  0  0  0  0  0
  146.5198  137.5038  154.7847 H   0  0  0  0  0  0  0  0  0  0  0  0
  146.6483  138.7704  153.5725 H   0  0  0  0  0  0  0  0  0  0  0  0
  146.4666  139.1883  155.2812 H   0  0  0  0  0  0  0  0  0  0  0  0
  1  2  1  0  0  0  0
  1 25  1  0  0  0  0
  1 26  1  0  0  0  0
  1 27  1  0  0  0  0
  2 23  1  0  0  0  0
  2  3  2  0  0  0  0
  3  4  1  0  0  0  0
  4  5  1  0  0  0  0
  4 18  1  0  0  0  0
  5  6  1  0  0  0  0
  5 28  1  0  0  0  0
  5 29  1  0  0  0  0
  6  7  2  0  0  0  0
  6  8  1  0  0  0  0
  8  9  1  0  0  0  0
  8 30  1  0  0  0  0
  9 10  1  0  0  0  0
  9 11  1  0  0  0  0
  9 31  1  0  0  0  0
 10 32  1  0  0  0  0
 10 33  1  0  0  0  0
 10 34  1  0  0  0  0
 11 16  1  0  0  0  0
 11 12  1  0  0  0  0
 11 35  1  0  0  0  0
 12 13  1  0  0  0  0
 12 36  1  0  0  0  0
 12 37  1  0  0  0  0
 13 17  1  0  0  0  0
 13 14  1  0  0  0  0
 13 38  1  0  0  0  0
 14 15  1  0  0  0  0
 14 39  1  0  0  0  0
 14 40  1  0  0  0  0
 15 16  1  0  0  0  0
 15 41  1  0  0  0  0
 15 42  1  0  0  0  0
 16 17  1  0  0  0  0
 16 43  1  0  0  0  0
 17 44  1  0  0  0  0
 17 45  1  0  0  0  0
 18 19  2  0  0  0  0
 18 20  1  0  0  0  0
 20 21  1  0  0  0  0
 20 23  2  0  0  0  0
 21 22  3  0  0  0  0
 23 24  1  0  0  0  0
 24 46  1  0  0  0  0
 24 47  1  0  0  0  0
 24 48  1  0  0  0  0
M  END
> <s_m_source_file>
AV-unprocessed.smi

> <i_m_source_file_index>
1401

> <i_lp_mmshare_version>
43012

> <i_f3d_flags>
0

> <s_epik_input>
TiNDYyhjMVtDSDNdKWMoPU8pbihuYzFbQ0gzXSlbQ0gyXUMoPU8pW05IXVtDQEhdKFtDSDNdKVtDQEhdKFtDSDJdW0NASF0yMylbQ0BIXShbQ0gyXTMpW0NIMl1bQ0gyXTI=

> <s_epik_cmdline>
J2VwaWtfcHl0aG9uJywgJy1waCcsICc3LjAnLCAnLXRuJywgJzgnLCAnLW1hJywgJzIwMCcsICctbWV0YWxfYmluZGluZycsICctaW1hZScsICc8aW5maWxlLm1hZT4nLCAnLW9tYWUnLCAnPG91dGZpbGUubWFlPic=

> <r_lp_tautomer_probability>
1

> <r_epik_Ionization_Penalty>
2.16501e-08

> <r_epik_Ionization_Penalty_Charging>
2.29436e-11

> <r_epik_Ionization_Penalty_Neutral>
2.16271e-08

> <r_epik_State_Penalty>
-0

> <r_epik_Charging_Adjusted_Penalty>
2.29436e-11

> <i_epik_Tot_Q>
0

> <i_epik_Tot_abs_Q>
0

> <r_epik_Metal_State_Penalty>
-0

> <b_epik_Metal_Only>
0

> <s_lp_Force_Field>
OPLS_2005

> <r_lp_Energy>
65.9265

> <b_lp_Chiralities_Consistent>
1

> <s_lp_Variant>
AV-unprocessed.smi:1401-3

> <Gold.Version>
5.8.1

> <Gold.Id.Protein>
6NUR|6NUR_protein|mol2

> <Gold.PLP.Fitness>
44.8181

> <Gold.PLP.PLP>
-39.1439

> <Gold.PLP.part.hbond>
-2.5001

> <Gold.PLP.part.metal>
0.0000

> <Gold.PLP.part.buried>
-2.8593

> <Gold.PLP.part.nonpolar>
-35.4598

> <Gold.PLP.part.repulsive>
1.4678

> <Gold.PLP.ligand.clash>
0.0000

> <Gold.PLP.ligand.torsion>
0.3662

> <Gold.PLP.Chemscore.Hbond>
2.1280

> <Gold.PLP.Chemscore.CHOScore>
0.0000

> <Gold.PLP.Chemscore.Metal>
0.0000

> <Gold.Chemscore.Hbonds>
donor molecule, donor type, donor heavy atom, donor atom, acceptor molecule, acceptor atom, score
      P1  H  7989  7998       L1     3  1.00
      P1  H  7997  8009       L1     7  0.12
      P1  H 10752 10764       L1    19  1.00

> <Gold.PLP.Chemscore.Internal.Correction>
0.0225

> <Gold.Rescore>
     Score         DG    S(hbond)    S(metal)    S(lipo)     H(rot)  DE(clash)    DE(int)     intcor
     19.72     -21.75       1.79        0.00     123.63       1.63       1.66       0.37       ----

> <Gold.Chemscore.Fitness>
19.7189

> <Gold.Chemscore.DG>
-21.7463

> <Gold.Chemscore.ZeroCoef>
-5.4800

> <Gold.Chemscore.Hbond>
1.7871

> <Gold.Chemscore.Metal>
0.0000

> <Gold.Chemscore.Lipo>
123.6342

> <Gold.Chemscore.Internal_Hbond>
0.0000

> <Gold.Chemscore.DEClash>
1.6555

> <Gold.Chemscore.DEInternal>
0.3718

> <Gold.Chemscore.Rot>
1.6281

> <Gold.Chemscore.Internal.Correction>
   9.000000E+99

> <Gold.Chemscore.Hbonds>
donor molecule, donor type, donor heavy atom, donor atom, acceptor molecule, acceptor atom, score
      P1  H  7989  7998       L1     3  0.30
      P1  H 10752 10764       L1    19  0.95

> <Gold.Chemscore.Hbond.Weighted>
-5.9689

> <Gold.Chemscore.Metal.Weighted>
-0.0000

> <Gold.Chemscore.Lipo.Weighted>
-14.4652

> <Gold.Chemscore.Internal_Hbond.Weighted>
0.0000

> <Gold.Chemscore.DEClash.Weighted>
1.6555

> <Gold.Chemscore.DEInternal.Weighted>
0.3718

> <Gold.Chemscore.Rot.Weighted>
4.1678

> <Gold.Chemscore.Internal.Correction.Weighted>
   9.000000E+99

> <Gold.Protein.RotatedTorsions>
[ 6907 6896 6895 6894 ] final  -82.57 input  -60.11 | X-H torsion
[ 7974 7965 7964 7962 ] final   16.51 input  175.53 | X-H torsion
[ 8008 7997 7996 7995 ] final  127.96 input   59.86 | X-H torsion
[ 10167 10162 10161 10158 ] final  125.14 input  -65.29 | X-H torsion
[ 10718 10713 10712 10709 ] final  -41.99 input   66.30 | X-H torsion
[ 10763 10752 10751 10750 ] final  -51.82 input  -60.55 | X-H torsion
[ 11005 11000 10999 10996 ] final -173.33 input  -57.11 | X-H torsion

> <Gold.Protein.ActiveResidues>
 VAL166  LYS551  ARG553  GLY616  TRP617  ASP618  TYR619  PRO620  LYS621  CYS622 
 ASP623  PHE694  ASN695  SER759  ASP760  ASP761  ALA762  ILE779  LEU786  VAL792 
 PHE793  MET794  SER795  GLU796  ALA797  LYS798  CYS799  TRP800  GLU811  SER814 

> <Gold.Protein.RotatedAtoms>
  150.6896  134.3644  159.4964 H   0  0  0  0  0  0  0  0  0  0  0  0  # atno 6907 bound_to 6896
  152.1469  134.9016  160.0559 H   0  0  0  0  0  0  0  0  0  0  0  0  # atno 6908 bound_to 6896
  152.0129  133.3833  159.4264 H   0  0  0  0  0  0  0  0  0  0  0  0  # atno 6909 bound_to 6896
  146.2247  139.8737  142.8583 H   0  0  0  0  0  0  0  0  0  0  0  0  # atno 7974 bound_to 7965
  156.2903  140.2656  156.2358 H   0  0  0  0  0  0  0  0  0  0  0  0  # atno 8008 bound_to 7997
  155.0027  140.0387  157.2385 H   0  0  0  0  0  0  0  0  0  0  0  0  # atno 8009 bound_to 7997
  154.7587  140.2757  155.6236 H   0  0  0  0  0  0  0  0  0  0  0  0  # atno 8010 bound_to 7997
  139.5702  144.6934  151.3800 H   0  0  0  0  0  0  0  0  0  0  0  0  # atno 10167 bound_to 10162
  156.2644  130.4200  149.8506 H   0  0  0  0  0  0  0  0  0  0  0  0  # atno 10718 bound_to 10713
  154.1327  135.6517  153.4925 H   0  0  0  0  0  0  0  0  0  0  0  0  # atno 10763 bound_to 10752
  153.0190  135.5296  154.6985 H   0  0  0  0  0  0  0  0  0  0  0  0  # atno 10764 bound_to 10752
  154.6224  135.2966  155.0281 H   0  0  0  0  0  0  0  0  0  0  0  0  # atno 10765 bound_to 10752
  140.4870  134.6021  157.4940 H   0  0  0  0  0  0  0  0  0  0  0  0  # atno 11005 bound_to 11000
  145.2582  141.0068  143.3842 LP  0  0  0  0  0  0  0  0  0  0  0  0  # atno 17320 bound_to 7965
  144.9320  139.4288  143.6490 LP  0  0  0  0  0  0  0  0  0  0  0  0  # atno 17321 bound_to 7965
  140.6986  143.7687  150.7366 LP  0  0  0  0  0  0  0  0  0  0  0  0  # atno 17342 bound_to 10162
  140.1191  143.4628  152.2324 LP  0  0  0  0  0  0  0  0  0  0  0  0  # atno 17343 bound_to 10162
  156.6010  130.8547  151.3432 LP  0  0  0  0  0  0  0  0  0  0  0  0  # atno 17370 bound_to 10713
  157.7262  130.9626  150.1646 LP  0  0  0  0  0  0  0  0  0  0  0  0  # atno 17371 bound_to 10713
  139.9792  134.7165  155.9892 LP  0  0  0  0  0  0  0  0  0  0  0  0  # atno 17394 bound_to 11000
  141.1503  133.6549  156.3993 LP  0  0  0  0  0  0  0  0  0  0  0  0  # atno 17395 bound_to 11000

$$$$
