AV-unprocessed.smi:110|AV-procd|sdf|1067|dock6
  -GOLD-   2262018143D 1   1.00000     0.00000
 Structure written by MMmdl.
 46 50  0  0  0  0  0  0  0  0  1 V2000
  151.9435  132.4148  157.4126 O   0  0  0  0  0  0  0  0  0  0  0  0
  150.5492  132.2256  157.5225 C   0  0  0  0  0  0  0  0  0  0  0  0
  149.8061  133.3239  156.7456 C   0  0  1  0  0  0  0  0  0  0  0  0
  149.8419  134.5227  157.5165 O   0  0  0  0  0  0  0  0  0  0  0  0
  149.9880  135.6080  156.6651 C   0  0  1  0  0  0  0  0  0  0  0  0
  150.5513  136.7571  157.4334 N   0  0  0  0  0  0  0  0  0  0  0  0
  150.7423  136.8874  158.7911 C   0  0  0  0  0  0  0  0  0  0  0  0
  151.2673  138.0214  159.1704 N   0  0  0  0  0  0  0  0  0  0  0  0
  151.4423  138.7329  157.9881 C   0  0  0  0  0  0  0  0  0  0  0  0
  151.9578  140.0191  157.6575 C   0  0  0  0  0  0  0  0  0  0  0  0
  152.4314  140.9142  158.5561 N   0  0  0  0  0  0  0  0  0  0  0  0
  153.3765  140.4726  159.5916 C   0  0  0  0  0  0  0  0  0  0  0  0
  153.3848  141.5436  160.6986 C   0  0  0  0  0  0  0  0  0  0  0  0
  152.5209  142.5963  160.0824 C   0  0  0  0  0  0  0  0  0  0  0  0
  152.2334  143.8716  160.5991 C   0  0  0  0  0  0  0  0  0  0  0  0
  151.4097  144.7273  159.8369 C   0  0  0  0  0  0  0  0  0  0  0  0
  150.9030  144.3041  158.5862 C   0  0  0  0  0  0  0  0  0  0  0  0
  151.2067  143.0187  158.0863 C   0  0  0  0  0  0  0  0  0  0  0  0
  152.0126  142.1604  158.8624 C   0  0  0  0  0  0  0  0  0  0  0  0
  152.0250  140.3489  156.3419 N   0  0  0  0  0  0  0  0  0  0  0  0
  151.5813  139.4995  155.4110 C   0  0  0  0  0  0  0  0  0  0  0  0
  151.0543  138.2846  155.5734 N   0  0  0  0  0  0  0  0  0  0  0  0
  151.0100  137.9354  156.8911 C   0  0  0  0  0  0  0  0  0  0  0  0
  150.9129  135.1310  155.5451 C   0  0  1  0  0  0  0  0  0  0  0  0
  152.2849  135.2228  155.8849 O   0  0  0  0  0  0  0  0  0  0  0  0
  150.4822  133.6757  155.4006 C   0  0  2  0  0  0  0  0  0  0  0  0
  149.5353  133.5585  154.3556 O   0  0  0  0  0  0  0  0  0  0  0  0
  148.7654  133.0354  156.5836 H   0  0  0  0  0  0  0  0  0  0  0  0
  149.0117  135.9404  156.3087 H   0  0  0  0  0  0  0  0  0  0  0  0
  150.7422  135.7223  154.6444 H   0  0  0  0  0  0  0  0  0  0  0  0
  151.3253  133.0239  155.1659 H   0  0  0  0  0  0  0  0  0  0  0  0
  152.1203  132.8965  156.6191 H   0  0  0  0  0  0  0  0  0  0  0  0
  150.2696  131.2314  157.1721 H   0  0  0  0  0  0  0  0  0  0  0  0
  150.2995  132.2791  158.5825 H   0  0  0  0  0  0  0  0  0  0  0  0
  150.4837  136.1108  159.4962 H   0  0  0  0  0  0  0  0  0  0  0  0
  153.0936  139.4974  159.9902 H   0  0  0  0  0  0  0  0  0  0  0  0
  154.3686  140.3774  159.1485 H   0  0  0  0  0  0  0  0  0  0  0  0
  152.9347  141.1785  161.6223 H   0  0  0  0  0  0  0  0  0  0  0  0
  154.3868  141.9200  160.9063 H   0  0  0  0  0  0  0  0  0  0  0  0
  152.6360  144.1899  161.5492 H   0  0  0  0  0  0  0  0  0  0  0  0
  151.1725  145.7138  160.2070 H   0  0  0  0  0  0  0  0  0  0  0  0
  150.2836  144.9714  158.0053 H   0  0  0  0  0  0  0  0  0  0  0  0
  150.8305  142.7104  157.1222 H   0  0  0  0  0  0  0  0  0  0  0  0
  151.6599  139.8425  154.3901 H   0  0  0  0  0  0  0  0  0  0  0  0
  152.6396  134.3484  155.9343 H   0  0  0  0  0  0  0  0  0  0  0  0
  149.0964  132.7256  154.4373 H   0  0  0  0  0  0  0  0  0  0  0  0
  1  2  1  0  0  0  0
  1 32  1  0  0  0  0
  2  3  1  0  0  0  0
  2 33  1  0  0  0  0
  2 34  1  0  0  0  0
  3 28  1  0  0  0  0
  3 26  1  0  0  0  0
  3  4  1  0  0  0  0
  4  5  1  0  0  0  0
  5 29  1  0  0  0  0
  5  6  1  0  0  0  0
  5 24  1  0  0  0  0
  6 23  1  0  0  0  0
  6  7  1  0  0  0  0
  7  8  2  0  0  0  0
  7 35  1  0  0  0  0
  8  9  1  0  0  0  0
  9 23  2  0  0  0  0
  9 10  1  0  0  0  0
 10 11  1  0  0  0  0
 10 20  2  0  0  0  0
 11 19  1  0  0  0  0
 11 12  1  0  0  0  0
 12 13  1  0  0  0  0
 12 36  1  0  0  0  0
 12 37  1  0  0  0  0
 13 14  1  0  0  0  0
 13 38  1  0  0  0  0
 13 39  1  0  0  0  0
 14 19  2  0  0  0  0
 14 15  1  0  0  0  0
 15 16  2  0  0  0  0
 15 40  1  0  0  0  0
 16 17  1  0  0  0  0
 16 41  1  0  0  0  0
 17 18  2  0  0  0  0
 17 42  1  0  0  0  0
 18 19  1  0  0  0  0
 18 43  1  0  0  0  0
 20 21  1  0  0  0  0
 21 22  2  0  0  0  0
 21 44  1  0  0  0  0
 22 23  1  0  0  0  0
 24 30  1  0  0  0  0
 24 25  1  0  0  0  0
 24 26  1  0  0  0  0
 25 45  1  0  0  0  0
 26 31  1  0  0  0  0
 26 27  1  0  0  0  0
 27 46  1  0  0  0  0
M  END
> <s_m_source_file>
AV-unprocessed.smi

> <i_m_source_file_index>
110

> <i_lp_mmshare_version>
43012

> <i_f3d_flags>
0

> <s_epik_input>
W09IXVtDSDJdW0NASF0xT1tDQEhdKFtDQEhdKFtPSF0pW0NAQEhdMVtPSF0pbihbY0hdbjIpYyhjMjMpbltjSF1uYzNOKFtDSDJdW0NIMl00KWMoYzQ1KVtjSF1bY0hdW2NIXVtjSF01

> <s_epik_cmdline>
J2VwaWtfcHl0aG9uJywgJy1waCcsICc3LjAnLCAnLXRuJywgJzgnLCAnLW1hJywgJzIwMCcsICctbWV0YWxfYmluZGluZycsICctaW1hZScsICc8aW5maWxlLm1hZT4nLCAnLW9tYWUnLCAnPG91dGZpbGUubWFlPic=

> <r_lp_tautomer_probability>
1

> <r_epik_Ionization_Penalty>
0.00068475

> <r_epik_Ionization_Penalty_Charging>
0

> <r_epik_Ionization_Penalty_Neutral>
0.00068475

> <r_epik_State_Penalty>
0.000417442

> <r_epik_Charging_Adjusted_Penalty>
0.000417442

> <i_epik_Tot_Q>
0

> <i_epik_Tot_abs_Q>
0

> <r_epik_Metal_State_Penalty>
-0

> <b_epik_Metal_Only>
0

> <s_epik_Chemistry_Notes>
This compound contains an acetal/aminal-like group ( X-CH(R)-Y where X, Y are N, S, or O) that may be acid/base labile, releasing an aldehyde.

> <s_lp_Force_Field>
OPLS_2005

> <r_lp_Energy>
58.5768

> <b_lp_Chiralities_Consistent>
1

> <s_lp_Variant>
AV-unprocessed.smi:110-5

> <Gold.Version>
5.8.1

> <Gold.Id.Protein>
6NUR|6NUR_protein|mol2

> <Gold.PLP.Fitness>
52.1598

> <Gold.PLP.PLP>
-45.7062

> <Gold.PLP.part.hbond>
-3.5801

> <Gold.PLP.part.metal>
0.0000

> <Gold.PLP.part.buried>
-5.9680

> <Gold.PLP.part.nonpolar>
-36.2550

> <Gold.PLP.part.repulsive>
0.0247

> <Gold.PLP.ligand.clash>
0.0000

> <Gold.PLP.ligand.torsion>
1.3039

> <Gold.PLP.Chemscore.Hbond>
3.0000

> <Gold.PLP.Chemscore.CHOScore>
0.0000

> <Gold.PLP.Chemscore.Metal>
0.0000

> <Gold.Chemscore.Hbonds>
donor molecule, donor type, donor heavy atom, donor atom, acceptor molecule, acceptor atom, score
      P1  H  6896  6907       L1     4  0.01
      P1  H  7997  8008       L1    20  0.19
      P1  H 10752 10763       L1    25  0.09

> <Gold.PLP.Chemscore.Internal.Correction>
0.0613

> <Gold.Rescore>
     Score         DG    S(hbond)    S(metal)    S(lipo)     H(rot)  DE(clash)    DE(int)     intcor
     13.71     -15.58       1.94        0.00     104.98       3.38       0.22       1.65       ----

> <Gold.Chemscore.Fitness>
13.7055

> <Gold.Chemscore.DG>
-15.5772

> <Gold.Chemscore.ZeroCoef>
-5.4800

> <Gold.Chemscore.Hbond>
1.9390

> <Gold.Chemscore.Metal>
0.0000

> <Gold.Chemscore.Lipo>
104.9831

> <Gold.Chemscore.Internal_Hbond>
0.0000

> <Gold.Chemscore.DEClash>
0.2234

> <Gold.Chemscore.DEInternal>
1.6483

> <Gold.Chemscore.Rot>
3.3837

> <Gold.Chemscore.Internal.Correction>
   9.000000E+99

> <Gold.Chemscore.Hbonds>
donor molecule, donor type, donor heavy atom, donor atom, acceptor molecule, acceptor atom, score
      P1  H  7997  8008       L1    20  0.01

> <Gold.Chemscore.Hbond.Weighted>
-6.4764

> <Gold.Chemscore.Metal.Weighted>
-0.0000

> <Gold.Chemscore.Lipo.Weighted>
-12.2830

> <Gold.Chemscore.Internal_Hbond.Weighted>
0.0000

> <Gold.Chemscore.DEClash.Weighted>
0.2234

> <Gold.Chemscore.DEInternal.Weighted>
1.6483

> <Gold.Chemscore.Rot.Weighted>
8.6622

> <Gold.Chemscore.Internal.Correction.Weighted>
   9.000000E+99

> <Gold.Protein.RotatedTorsions>
[ 6907 6896 6895 6894 ] final -153.25 input  -60.11 | X-H torsion
[ 7974 7965 7964 7962 ] final   93.37 input  175.53 | X-H torsion
[ 8008 7997 7996 7995 ] final  -40.61 input   59.86 | X-H torsion
[ 10167 10162 10161 10158 ] final   58.56 input  -65.29 | X-H torsion
[ 10718 10713 10712 10709 ] final -153.83 input   66.30 | X-H torsion
[ 10763 10752 10751 10750 ] final   85.07 input  -60.55 | X-H torsion
[ 11005 11000 10999 10996 ] final  -93.56 input  -57.11 | X-H torsion

> <Gold.Protein.ActiveResidues>
 VAL166  LYS551  ARG553  GLY616  TRP617  ASP618  TYR619  PRO620  LYS621  CYS622 
 ASP623  PHE694  ASN695  SER759  ASP760  ASP761  ALA762  ILE779  LEU786  VAL792 
 PHE793  MET794  SER795  GLU796  ALA797  LYS798  CYS799  TRP800  GLU811  SER814 

> <Gold.Protein.RotatedAtoms>
  151.2398  133.4405  159.2606 H   0  0  0  0  0  0  0  0  0  0  0  0  # atno 6907 bound_to 6896
  151.0716  134.9802  159.8321 H   0  0  0  0  0  0  0  0  0  0  0  0  # atno 6908 bound_to 6896
  152.5413  134.2343  159.8890 H   0  0  0  0  0  0  0  0  0  0  0  0  # atno 6909 bound_to 6896
  145.4798  139.2279  143.2889 H   0  0  0  0  0  0  0  0  0  0  0  0  # atno 7974 bound_to 7965
  154.4010  140.1521  156.3054 H   0  0  0  0  0  0  0  0  0  0  0  0  # atno 8008 bound_to 7997
  155.8663  140.3451  155.5769 H   0  0  0  0  0  0  0  0  0  0  0  0  # atno 8009 bound_to 7997
  155.7824  140.0845  157.2042 H   0  0  0  0  0  0  0  0  0  0  0  0  # atno 8010 bound_to 7997
  140.1859  144.4134  150.6593 H   0  0  0  0  0  0  0  0  0  0  0  0  # atno 10167 bound_to 10162
  156.4910  130.8347  151.2570 H   0  0  0  0  0  0  0  0  0  0  0  0  # atno 10718 bound_to 10713
  153.1441  135.4630  154.9539 H   0  0  0  0  0  0  0  0  0  0  0  0  # atno 10763 bound_to 10752
  154.7771  135.3176  154.8071 H   0  0  0  0  0  0  0  0  0  0  0  0  # atno 10764 bound_to 10752
  153.8588  135.6914  153.4839 H   0  0  0  0  0  0  0  0  0  0  0  0  # atno 10765 bound_to 10752
  141.1494  133.7896  157.0177 H   0  0  0  0  0  0  0  0  0  0  0  0  # atno 11005 bound_to 11000
  146.2348  140.5583  142.8960 LP  0  0  0  0  0  0  0  0  0  0  0  0  # atno 17320 bound_to 7965
  144.7896  140.6004  143.6551 LP  0  0  0  0  0  0  0  0  0  0  0  0  # atno 17321 bound_to 7965
  140.6488  143.2220  151.6124 LP  0  0  0  0  0  0  0  0  0  0  0  0  # atno 17342 bound_to 10162
  139.5276  144.3012  152.1072 LP  0  0  0  0  0  0  0  0  0  0  0  0  # atno 17343 bound_to 10162
  157.7473  131.0013  150.2959 LP  0  0  0  0  0  0  0  0  0  0  0  0  # atno 17370 bound_to 10713
  156.3426  130.3818  149.7396 LP  0  0  0  0  0  0  0  0  0  0  0  0  # atno 17371 bound_to 10713
  140.0836  134.9634  157.1664 LP  0  0  0  0  0  0  0  0  0  0  0  0  # atno 17394 bound_to 11000
  140.3542  134.2565  155.7194 LP  0  0  0  0  0  0  0  0  0  0  0  0  # atno 17395 bound_to 11000

$$$$
