AV-unprocessed.smi:1886|AV-procd|sdf|7654|dock3
  -GOLD-   22720 9383D 1   1.00000     0.00000
 Structure written by MMmdl.
 39 40  0  0  0  0  0  0  0  0  1 V2000
  145.9768  135.5913  155.3063 O   0  0  0  0  0  0  0  0  0  0  0  0
  146.7351  135.7415  154.3484 C   0  0  0  0  0  0  0  0  0  0  0  0
  147.8445  136.4925  154.3763 N   0  0  0  0  0  0  0  0  0  0  0  0
  148.3389  137.2132  155.5445 C   0  0  0  0  0  0  0  0  0  0  0  0
  149.7065  137.8377  155.3056 C   0  0  0  0  0  0  0  0  0  0  0  0
  150.8649  137.0369  155.3954 C   0  0  0  0  0  0  0  0  0  0  0  0
  152.1235  137.6218  155.1651 C   0  0  0  0  0  0  0  0  0  0  0  0
  152.1751  138.9925  154.8512 C   0  0  0  0  0  0  0  0  0  0  0  0
  151.0775  139.7715  154.7611 N   0  0  0  0  0  0  0  0  0  0  0  0
  149.8637  139.2103  154.9812 C   0  0  0  0  0  0  0  0  0  0  0  0
  148.7397  140.0451  154.8803 N   0  0  0  0  0  0  0  0  0  0  0  0
  148.0480  140.2469  156.1464 C   0  0  0  0  0  0  0  0  0  0  0  0
  146.7430  141.0242  155.9080 C   0  0  0  0  0  0  0  0  0  0  0  0
  147.0315  142.2516  155.2441 O   0  0  0  0  0  0  0  0  0  0  0  0
  147.6453  142.0421  153.9749 C   0  0  0  0  0  0  0  0  0  0  0  0
  148.9749  141.2913  154.1630 C   0  0  0  0  0  0  0  0  0  0  0  0
  146.5490  135.1755  153.1486 N   0  0  0  0  0  0  0  0  0  0  0  0
  145.4207  134.3227  152.7878 C   0  0  0  0  0  0  0  0  0  0  0  0
  145.2758  134.1520  151.2656 C   0  0  0  0  0  0  0  0  0  0  0  0
  146.3958  133.6187  150.7798 F   0  0  0  0  0  0  0  0  0  0  0  0
  144.2588  133.3362  150.9857 F   0  0  0  0  0  0  0  0  0  0  0  0
  145.0755  135.3265  150.6688 F   0  0  0  0  0  0  0  0  0  0  0  0
  148.3988  136.5568  153.5351 H   0  0  0  0  0  0  0  0  0  0  0  0
  147.6148  137.9863  155.8038 H   0  0  0  0  0  0  0  0  0  0  0  0
  148.4118  136.5564  156.4130 H   0  0  0  0  0  0  0  0  0  0  0  0
  150.7934  135.9868  155.6376 H   0  0  0  0  0  0  0  0  0  0  0  0
  153.0273  137.0341  155.2260 H   0  0  0  0  0  0  0  0  0  0  0  0
  153.1230  139.4763  154.6666 H   0  0  0  0  0  0  0  0  0  0  0  0
  147.8310  139.2834  156.6091 H   0  0  0  0  0  0  0  0  0  0  0  0
  148.6904  140.7992  156.8338 H   0  0  0  0  0  0  0  0  0  0  0  0
  146.0473  140.4338  155.3113 H   0  0  0  0  0  0  0  0  0  0  0  0
  146.2506  141.2368  156.8569 H   0  0  0  0  0  0  0  0  0  0  0  0
  146.9725  141.4837  153.3216 H   0  0  0  0  0  0  0  0  0  0  0  0
  147.8224  143.0078  153.5014 H   0  0  0  0  0  0  0  0  0  0  0  0
  149.6755  141.9139  154.7215 H   0  0  0  0  0  0  0  0  0  0  0  0
  149.4289  141.0806  153.1939 H   0  0  0  0  0  0  0  0  0  0  0  0
  147.2318  135.3536  152.4268 H   0  0  0  0  0  0  0  0  0  0  0  0
  145.5077  133.3492  153.2736 H   0  0  0  0  0  0  0  0  0  0  0  0
  144.5187  134.7853  153.1893 H   0  0  0  0  0  0  0  0  0  0  0  0
  1  2  2  0  0  0  0
  2  3  1  0  0  0  0
  2 17  1  0  0  0  0
  3  4  1  0  0  0  0
  3 23  1  0  0  0  0
  4  5  1  0  0  0  0
  4 24  1  0  0  0  0
  4 25  1  0  0  0  0
  5 10  1  0  0  0  0
  5  6  2  0  0  0  0
  6  7  1  0  0  0  0
  6 26  1  0  0  0  0
  7  8  2  0  0  0  0
  7 27  1  0  0  0  0
  8  9  1  0  0  0  0
  8 28  1  0  0  0  0
  9 10  2  0  0  0  0
 10 11  1  0  0  0  0
 11 16  1  0  0  0  0
 11 12  1  0  0  0  0
 12 13  1  0  0  0  0
 12 29  1  0  0  0  0
 12 30  1  0  0  0  0
 13 14  1  0  0  0  0
 13 31  1  0  0  0  0
 13 32  1  0  0  0  0
 14 15  1  0  0  0  0
 15 16  1  0  0  0  0
 15 33  1  0  0  0  0
 15 34  1  0  0  0  0
 16 35  1  0  0  0  0
 16 36  1  0  0  0  0
 17 18  1  0  0  0  0
 17 37  1  0  0  0  0
 18 19  1  0  0  0  0
 18 38  1  0  0  0  0
 18 39  1  0  0  0  0
 19 20  1  0  0  0  0
 19 21  1  0  0  0  0
 19 22  1  0  0  0  0
M  END
> <s_m_source_file>
AV-unprocessed.smi

> <i_m_source_file_index>
1886

> <i_lp_mmshare_version>
43012

> <i_f3d_flags>
0

> <s_epik_input>
RkMoRikoRilbQ0gyXVtOSF1DKD1PKVtOSF1bQ0gyXWMxW2NIXVtjSF1bY0hdbmMxTjJbQ0gyXVtDSDJdT1tDSDJdW0NIMl0y

> <s_epik_cmdline>
J2VwaWtfcHl0aG9uJywgJy1waCcsICc3LjAnLCAnLXRuJywgJzgnLCAnLW1hJywgJzIwMCcsICctbWV0YWxfYmluZGluZycsICctaW1hZScsICc8aW5maWxlLm1hZT4nLCAnLW9tYWUnLCAnPG91dGZpbGUubWFlPic=

> <r_lp_tautomer_probability>
1

> <r_epik_Ionization_Penalty>
0.00288023

> <r_epik_Ionization_Penalty_Charging>
0

> <r_epik_Ionization_Penalty_Neutral>
0.00288023

> <r_epik_State_Penalty>
0.00199456

> <r_epik_Charging_Adjusted_Penalty>
0.00199456

> <i_epik_Tot_Q>
0

> <i_epik_Tot_abs_Q>
0

> <r_epik_Metal_State_Penalty>
-0

> <b_epik_Metal_Only>
0

> <s_lp_Force_Field>
OPLS_2005

> <r_lp_Energy>
16.0982

> <b_lp_Chiralities_Consistent>
1

> <s_lp_Variant>
AV-unprocessed.smi:1886-1

> <Gold.Version>
5.8.1

> <Gold.Id.Protein>
6NUR|6NUR_protein|mol2

> <Gold.PLP.Fitness>
38.6965

> <Gold.PLP.PLP>
-31.6840

> <Gold.PLP.part.hbond>
-3.0000

> <Gold.PLP.part.metal>
0.0000

> <Gold.PLP.part.buried>
-3.6845

> <Gold.PLP.part.nonpolar>
-25.5919

> <Gold.PLP.part.repulsive>
0.3095

> <Gold.PLP.ligand.clash>
0.0000

> <Gold.PLP.ligand.torsion>
0.6931

> <Gold.PLP.Chemscore.Hbond>
2.7500

> <Gold.PLP.Chemscore.CHOScore>
0.0000

> <Gold.PLP.Chemscore.Metal>
0.0000

> <Gold.Chemscore.Hbonds>
donor molecule, donor type, donor heavy atom, donor atom, acceptor molecule, acceptor atom, score
      L1  H     3    23       P1  7948  1.00
      L1  H    17    37       P1  7948  1.00
      P1  H  7989  7998       L1     9  0.90

> <Gold.PLP.Chemscore.Internal.Correction>
0.1487

> <Gold.Rescore>
     Score         DG    S(hbond)    S(metal)    S(lipo)     H(rot)  DE(clash)    DE(int)     intcor
     12.25     -13.02       2.05        0.00      51.74       2.09       0.12       0.65       ----

> <Gold.Chemscore.Fitness>
12.2493

> <Gold.Chemscore.DG>
-13.0160

> <Gold.Chemscore.ZeroCoef>
-5.4800

> <Gold.Chemscore.Hbond>
2.0455

> <Gold.Chemscore.Metal>
0.0000

> <Gold.Chemscore.Lipo>
51.7449

> <Gold.Chemscore.Internal_Hbond>
0.0000

> <Gold.Chemscore.DEClash>
0.1187

> <Gold.Chemscore.DEInternal>
0.6479

> <Gold.Chemscore.Rot>
2.0899

> <Gold.Chemscore.Internal.Correction>
   9.000000E+99

> <Gold.Chemscore.Hbonds>
donor molecule, donor type, donor heavy atom, donor atom, acceptor molecule, acceptor atom, score
      L1  H     3    23       P1  7948  1.00
      L1  H    17    37       P1  7948  0.91
      P1  H  7989  7998       L1     9  0.18

> <Gold.Chemscore.Hbond.Weighted>
-6.8321

> <Gold.Chemscore.Metal.Weighted>
-0.0000

> <Gold.Chemscore.Lipo.Weighted>
-6.0542

> <Gold.Chemscore.Internal_Hbond.Weighted>
0.0000

> <Gold.Chemscore.DEClash.Weighted>
0.1187

> <Gold.Chemscore.DEInternal.Weighted>
0.6479

> <Gold.Chemscore.Rot.Weighted>
5.3502

> <Gold.Chemscore.Internal.Correction.Weighted>
   9.000000E+99

> <Gold.Protein.RotatedTorsions>
[ 6907 6896 6895 6894 ] final  141.53 input  -60.11 | X-H torsion
[ 7974 7965 7964 7962 ] final   31.46 input  175.53 | X-H torsion
[ 8008 7997 7996 7995 ] final  178.99 input   59.86 | X-H torsion
[ 10167 10162 10161 10158 ] final  -15.52 input  -65.29 | X-H torsion
[ 10718 10713 10712 10709 ] final  -94.22 input   66.30 | X-H torsion
[ 10763 10752 10751 10750 ] final  -15.09 input  -60.55 | X-H torsion
[ 11005 11000 10999 10996 ] final  118.80 input  -57.11 | X-H torsion

> <Gold.Protein.ActiveResidues>
 VAL166  LYS551  ARG553  GLY616  TRP617  ASP618  TYR619  PRO620  LYS621  CYS622 
 ASP623  PHE694  ASN695  SER759  ASP760  ASP761  ALA762  ILE779  LEU786  VAL792 
 PHE793  MET794  SER795  GLU796  ALA797  LYS798  CYS799  TRP800  GLU811  SER814 

> <Gold.Protein.RotatedAtoms>
  152.2298  133.5049  159.5209 H   0  0  0  0  0  0  0  0  0  0  0  0  # atno 6907 bound_to 6896
  150.7034  134.1231  159.4051 H   0  0  0  0  0  0  0  0  0  0  0  0  # atno 6908 bound_to 6896
  151.9152  135.0321  160.0568 H   0  0  0  0  0  0  0  0  0  0  0  0  # atno 6909 bound_to 6896
  146.1548  139.6653  142.9074 H   0  0  0  0  0  0  0  0  0  0  0  0  # atno 7974 bound_to 7965
  156.0485  140.1320  157.0077 H   0  0  0  0  0  0  0  0  0  0  0  0  # atno 8008 bound_to 7997
  154.4423  140.1016  156.6412 H   0  0  0  0  0  0  0  0  0  0  0  0  # atno 8009 bound_to 7997
  155.5560  140.3464  155.4482 H   0  0  0  0  0  0  0  0  0  0  0  0  # atno 8010 bound_to 7997
  140.7220  143.5209  150.9634 H   0  0  0  0  0  0  0  0  0  0  0  0  # atno 10167 bound_to 10162
  156.0024  130.5059  150.5894 H   0  0  0  0  0  0  0  0  0  0  0  0  # atno 10718 bound_to 10713
  153.5381  135.7013  153.5650 H   0  0  0  0  0  0  0  0  0  0  0  0  # atno 10763 bound_to 10752
  153.3628  135.3965  155.1731 H   0  0  0  0  0  0  0  0  0  0  0  0  # atno 10764 bound_to 10752
  154.8677  135.3793  154.4883 H   0  0  0  0  0  0  0  0  0  0  0  0  # atno 10765 bound_to 10752
  139.9123  134.9623  156.7559 H   0  0  0  0  0  0  0  0  0  0  0  0  # atno 11005 bound_to 11000
  145.4735  141.0436  143.2685 LP  0  0  0  0  0  0  0  0  0  0  0  0  # atno 17320 bound_to 7965
  144.7950  139.6253  143.7097 LP  0  0  0  0  0  0  0  0  0  0  0  0  # atno 17321 bound_to 7965
  139.8926  143.6934  152.3143 LP  0  0  0  0  0  0  0  0  0  0  0  0  # atno 17342 bound_to 10162
  139.7255  144.7594  151.0886 LP  0  0  0  0  0  0  0  0  0  0  0  0  # atno 17343 bound_to 10162
  157.3761  131.0773  151.1516 LP  0  0  0  0  0  0  0  0  0  0  0  0  # atno 17370 bound_to 10713
  157.2254  130.6500  149.5828 LP  0  0  0  0  0  0  0  0  0  0  0  0  # atno 17371 bound_to 10713
  140.6736  133.9537  155.7870 LP  0  0  0  0  0  0  0  0  0  0  0  0  # atno 17394 bound_to 11000
  141.0560  134.0416  157.3722 LP  0  0  0  0  0  0  0  0  0  0  0  0  # atno 17395 bound_to 11000

$$$$
