#       Name:                AV-unprocessed.smi:193
#       Creating user name   scv26
#       Creation time:       Thu Mar 26 19:34:31 2020


#       File generated by GOLD software.
#

@<TRIPOS>MOLECULE
AV-unprocessed.smi:193
    69    73     1
SMALL
NO_CHARGES


@<TRIPOS>ATOM
      1 ****        -3.7931  -3.9908  -1.0277 C.3            1 S1                 0.0000
      2 ****        -3.2764  -2.5487  -0.8973 C.3            1 S1                 0.0000
      3 ****        -1.7389  -2.5412  -1.0198 C.3            1 S1                 0.0000
      4 ****        -1.0926  -1.3789  -0.4065 N.pl3          1 S1                 0.0000
      5 ****         0.2109  -1.4909  -0.0385 C.ar           1 S1                 0.0000
      6 ****         1.0224  -2.3250  -0.7417 N.ar           1 S1                 0.0000
      7 ****         2.3108  -2.4539  -0.4126 C.ar           1 S1                 0.0000
      8 ****         2.9837  -1.8545   0.5706 N.ar           1 S1                 0.0000
      9 ****         2.1755  -1.0229   1.2877 C.ar           1 S1                 0.0000
     10 ****         0.7908  -0.7845   1.0556 C.ar           1 S1                 0.0000
     11 ****         0.3037   0.1107   2.0019 N.2            1 S1                 0.0000
     12 ****         1.3422   0.3948   2.7397 C.2            1 S1                 0.0000
     13 ****         2.5096  -0.2368   2.3764 N.pl3          1 S1                 0.0000
     14 ****         3.8079  -0.1043   3.0196 C.3            1 S1                 0.0000
     15 ****         4.6417   1.0968   2.5086 C.3            1 S1                 0.0000
     16 ****         3.9408   2.2817   2.8455 O.3            1 S1                 0.0000
     17 ****         6.0166   1.1307   3.2056 C.3            1 S1                 0.0000
     18 ****         6.9445   2.2042   2.6094 C.3            1 S1                 0.0000
     19 ****         7.0801   2.0066   1.2075 O.3            1 S1                 0.0000
     20 ****         5.8480   2.1450   0.5107 C.3            1 S1                 0.0000
     21 ****         4.8505   1.0703   0.9785 C.3            1 S1                 0.0000
     22 ****        -1.6931  -0.0454  -0.4189 C.3            1 S1                 0.0000
     23 ****        -2.4278   0.2845  -1.7255 C.3            1 S1                 0.0000
     24 ****        -3.8260  -0.2072  -1.7012 N.4            1 S1                 1.0000
     25 ****        -4.6977   0.5803  -2.6025 C.3            1 S1                 0.0000
     26 ****        -6.1337   0.6603  -2.1375 C.3            1 S1                 0.0000
     27 ****        -5.2217   1.8583  -1.9841 C.3            1 S1                 0.0000
     28 ****        -5.4400   3.0934  -2.8302 C.3            1 S1                 0.0000
     29 ****        -3.9462  -1.6613  -1.9689 C.3            1 S1                 0.0000
     30 ****        -3.5411  -4.4173  -1.9992 H              1 S1                 0.0000
     31 ****        -4.8769  -4.0357  -0.9149 H              1 S1                 0.0000
     32 ****        -3.3622  -4.6349  -0.2604 H              1 S1                 0.0000
     33 ****        -3.5644  -2.2007   0.0960 H              1 S1                 0.0000
     34 ****        -1.3524  -3.4315  -0.5207 H              1 S1                 0.0000
     35 ****        -1.4368  -2.6215  -2.0648 H              1 S1                 0.0000
     36 ****         2.8846  -3.1338  -1.0250 H              1 S1                 0.0000
     37 ****         1.2869   1.0798   3.5735 H              1 S1                 0.0000
     38 ****         3.6480  -0.0246   4.0958 H              1 S1                 0.0000
     39 ****         4.3576  -1.0335   2.8649 H              1 S1                 0.0000
     40 ****         4.4474   3.0231   2.5511 H              1 S1                 0.0000
     41 ****         5.8986   1.2912   4.2781 H              1 S1                 0.0000
     42 ****         6.5003   0.1593   3.0945 H              1 S1                 0.0000
     43 ****         6.5689   3.2081   2.8129 H              1 S1                 0.0000
     44 ****         7.9310   2.1382   3.0684 H              1 S1                 0.0000
     45 ****         5.4443   3.1476   0.6588 H              1 S1                 0.0000
     46 ****         6.0364   2.0372  -0.5575 H              1 S1                 0.0000
     47 ****         5.2344   0.0922   0.6856 H              1 S1                 0.0000
     48 ****         3.9033   1.1976   0.4531 H              1 S1                 0.0000
     49 ****        -2.3527   0.0718   0.4416 H              1 S1                 0.0000
     50 ****        -0.9071   0.7014  -0.3030 H              1 S1                 0.0000
     51 ****        -2.4532   1.3718  -1.8114 H              1 S1                 0.0000
     52 ****        -1.8889  -0.0742  -2.6040 H              1 S1                 0.0000
     53 ****        -4.4650   0.5299  -3.6650 H              1 S1                 0.0000
     54 ****        -6.9051   0.7091  -2.9036 H              1 S1                 0.0000
     55 ****        -6.4147   0.1267  -1.2313 H              1 S1                 0.0000
     56 ****        -4.8963   2.0802  -0.9689 H              1 S1                 0.0000
     57 ****        -5.7646   2.8223  -3.8354 H              1 S1                 0.0000
     58 ****        -4.5139   3.6633  -2.9060 H              1 S1                 0.0000
     59 ****        -6.2027   3.7271  -2.3772 H              1 S1                 0.0000
     60 ****        -3.5548  -1.8915  -2.9613 H              1 S1                 0.0000
     61 ****        -5.0097  -1.9020  -2.0008 H              1 S1                 0.0000
     62 ****        -4.1746  -0.0477  -0.7669 H              1 S1                 0.0000
     63 ****         0.6522  -2.8458  -1.5109 LP             1 S1                 0.0000
     64 ****         3.9557  -1.9967   0.7577 LP             1 S1                 0.0000
     65 ****        -0.6294   0.4576   2.0957 LP             1 S1                 0.0000
     66 ****         3.8166   2.3300   3.8365 LP             1 S1                 0.0000
     67 ****         3.0471   2.2842   2.3970 LP             1 S1                 0.0000
     68 ****         7.4363   1.0860   1.0474 LP             1 S1                 0.0000
     69 ****         7.7267   2.6809   0.8507 LP             1 S1                 0.0000
@<TRIPOS>BOND
    1    1    2 1     
    2    1   30 1     
    3    1   31 1     
    4    1   32 1     
    5    2   29 1     
    6    2    3 1     
    7    2   33 1     
    8    3    4 1     
    9    3   34 1     
   10    3   35 1     
   11    4    5 1     
   12    4   22 1     
   13    5   10 ar    
   14    5    6 ar    
   15    6    7 ar    
   16    7    8 ar    
   17    7   36 1     
   18    8    9 ar    
   19    9   13 1     
   20    9   10 ar    
   21   10   11 1     
   22   11   12 2     
   23   12   13 1     
   24   12   37 1     
   25   13   14 1     
   26   14   15 1     
   27   14   38 1     
   28   14   39 1     
   29   15   21 1     
   30   15   16 1     
   31   15   17 1     
   32   16   40 1     
   33   17   18 1     
   34   17   41 1     
   35   17   42 1     
   36   18   19 1     
   37   18   43 1     
   38   18   44 1     
   39   19   20 1     
   40   20   21 1     
   41   20   45 1     
   42   20   46 1     
   43   21   47 1     
   44   21   48 1     
   45   22   23 1     
   46   22   49 1     
   47   22   50 1     
   48   23   24 1     
   49   23   51 1     
   50   23   52 1     
   51   24   25 1     
   52   24   29 1     
   53   24   62 1     
   54   25   27 1     
   55   25   26 1     
   56   25   53 1     
   57   26   27 1     
   58   26   54 1     
   59   26   55 1     
   60   27   28 1     
   61   27   56 1     
   62   28   57 1     
   63   28   58 1     
   64   28   59 1     
   65   29   60 1     
   66   29   61 1     
   67    6   63 1     
   68    8   64 1     
   69   11   65 1     
   70   16   66 1     
   71   16   67 1     
   72   19   68 1     
   73   19   69 1     
@<TRIPOS>SUBSTRUCTURE
      1 S1             1
@<TRIPOS>SET
LONE_PAIRS      STATIC     ATOMS    <user>   **** ""
7 63 64 65 66 67 68 69
DONOR_HYDROGENS      STATIC     ATOMS    <user>   **** ""
2 40 62
ATOM$BLUE        STATIC     ATOMS    COLORGROUP SYSTEM
7 63 64 65 66 67 68 69
ATOM$RED        STATIC     ATOMS    COLORGROUP SYSTEM
2 40 62
