AV-unprocessed.smi:2091|AV-procd|sdf|8539|dock6
  -GOLD-   2272011263D 1   1.00000     0.00000
 Structure written by MMmdl.
 36 37  0  0  0  0  0  0  0  0  1 V2000
  151.2768  141.2563  157.4517 O   0  0  0  0  0  0  0  0  0  0  0  0
  150.9092  142.3347  156.9833 C   0  0  0  0  0  0  0  0  0  0  0  0
  151.5819  143.6453  157.4142 C   0  0  0  0  0  0  0  0  0  0  0  0
  151.8642  143.6923  158.8560 N   0  0  0  0  0  0  0  0  0  0  0  0
  152.6945  142.7460  159.4396 C   0  0  0  0  0  0  0  0  0  0  0  0
  153.0053  142.7388  160.7574 C   0  0  0  0  0  0  0  0  0  0  0  0
  152.4640  143.7581  161.6499 C   0  0  0  0  0  0  0  0  0  0  0  0
  152.6854  143.8343  162.8563 O   0  0  0  0  0  0  0  0  0  0  0  0
  151.6354  144.6935  161.0248 N   0  0  0  0  0  0  0  0  0  0  0  0
  151.3122  144.7078  159.6672 C   0  0  0  0  0  0  0  0  0  0  0  0
  150.5731  145.5822  159.2166 O   0  0  0  0  0  0  0  0  0  0  0  0
  149.9070  142.4472  156.0969 N   0  0  0  0  0  0  0  0  0  0  0  0
  149.1465  141.3321  155.5284 C   0  0  1  0  0  0  0  0  0  0  0  0
  148.3504  141.8765  154.3202 C   0  0  0  0  0  0  0  0  0  0  0  0
  147.1275  141.0207  153.9461 C   0  0  0  0  0  0  0  0  0  0  0  0
  147.4526  139.6037  153.4489 C   0  0  0  0  0  0  0  0  0  0  0  0
  148.1567  138.7264  154.4981 C   0  0  0  0  0  0  0  0  0  0  0  0
  149.5715  139.0513  154.6227 N   0  0  0  0  0  0  0  0  0  0  0  0
  150.0973  140.2104  155.0472 C   0  0  0  0  0  0  0  0  0  0  0  0
  151.3170  140.3761  155.0470 O   0  0  0  0  0  0  0  0  0  0  0  0
  151.2397  145.4210  161.6021 H   0  0  0  0  0  0  0  0  0  0  0  0
  152.5037  143.7963  156.8481 H   0  0  0  0  0  0  0  0  0  0  0  0
  150.9292  144.4706  157.1268 H   0  0  0  0  0  0  0  0  0  0  0  0
  153.1224  141.9742  158.8157 H   0  0  0  0  0  0  0  0  0  0  0  0
  153.6592  141.9753  161.1534 H   0  0  0  0  0  0  0  0  0  0  0  0
  149.6736  143.3711  155.7639 H   0  0  0  0  0  0  0  0  0  0  0  0
  148.4623  140.9452  156.2858 H   0  0  0  0  0  0  0  0  0  0  0  0
  147.9786  142.8740  154.5604 H   0  0  0  0  0  0  0  0  0  0  0  0
  148.9986  142.0097  153.4520 H   0  0  0  0  0  0  0  0  0  0  0  0
  146.4549  140.9581  154.8024 H   0  0  0  0  0  0  0  0  0  0  0  0
  146.5669  141.5392  153.1677 H   0  0  0  0  0  0  0  0  0  0  0  0
  146.5160  139.1210  153.1685 H   0  0  0  0  0  0  0  0  0  0  0  0
  148.0484  139.6510  152.5360 H   0  0  0  0  0  0  0  0  0  0  0  0
  147.6608  138.7925  155.4674 H   0  0  0  0  0  0  0  0  0  0  0  0
  148.0936  137.6818  154.1926 H   0  0  0  0  0  0  0  0  0  0  0  0
  150.2200  138.3365  154.3257 H   0  0  0  0  0  0  0  0  0  0  0  0
  1  2  2  0  0  0  0
  2  3  1  0  0  0  0
  2 12  1  0  0  0  0
  3  4  1  0  0  0  0
  3 22  1  0  0  0  0
  3 23  1  0  0  0  0
  4 10  1  0  0  0  0
  4  5  1  0  0  0  0
  5  6  2  0  0  0  0
  5 24  1  0  0  0  0
  6  7  1  0  0  0  0
  6 25  1  0  0  0  0
  7  8  2  0  0  0  0
  7  9  1  0  0  0  0
  9 21  1  0  0  0  0
  9 10  1  0  0  0  0
 10 11  2  0  0  0  0
 12 13  1  0  0  0  0
 12 26  1  0  0  0  0
 13 19  1  0  0  0  0
 13 14  1  0  0  0  0
 13 27  1  0  0  0  0
 14 15  1  0  0  0  0
 14 28  1  0  0  0  0
 14 29  1  0  0  0  0
 15 16  1  0  0  0  0
 15 30  1  0  0  0  0
 15 31  1  0  0  0  0
 16 17  1  0  0  0  0
 16 32  1  0  0  0  0
 16 33  1  0  0  0  0
 17 18  1  0  0  0  0
 17 34  1  0  0  0  0
 17 35  1  0  0  0  0
 18 19  1  0  0  0  0
 18 36  1  0  0  0  0
 19 20  2  0  0  0  0
M  END
> <s_m_source_file>
AV-unprocessed.smi

> <i_m_source_file_index>
2091

> <i_lp_mmshare_version>
43012

> <i_f3d_flags>
0

> <s_epik_input>
Tz1jMVtuSF1jKD1PKVtjSF1bY0hdbjFbQ0gyXUMoPU8pW05IXVtDQEBIXTJbQ0gyXVtDSDJdW0NIMl1bQ0gyXVtOSF1DMj1P

> <s_epik_cmdline>
J2VwaWtfcHl0aG9uJywgJy1waCcsICc3LjAnLCAnLXRuJywgJzgnLCAnLW1hJywgJzIwMCcsICctbWV0YWxfYmluZGluZycsICctaW1hZScsICc8aW5maWxlLm1hZT4nLCAnLW9tYWUnLCAnPG91dGZpbGUubWFlPic=

> <r_lp_tautomer_probability>
0.999537

> <r_epik_Ionization_Penalty>
0.00356328

> <r_epik_Ionization_Penalty_Charging>
0.00356323

> <r_epik_Ionization_Penalty_Neutral>
5.33217e-08

> <r_epik_State_Penalty>
0.00253125

> <r_epik_Charging_Adjusted_Penalty>
0.00609448

> <i_epik_Tot_Q>
0

> <i_epik_Tot_abs_Q>
0

> <r_epik_Metal_State_Penalty>
0.368636

> <b_epik_Metal_Only>
0

> <s_lp_Force_Field>
OPLS_2005

> <r_lp_Energy>
10.1396

> <b_lp_Chiralities_Consistent>
1

> <s_lp_Variant>
AV-unprocessed.smi:2091-2

> <Gold.Version>
5.8.1

> <Gold.Id.Protein>
6NUR|6NUR_protein|mol2

> <Gold.PLP.Fitness>
46.8654

> <Gold.PLP.PLP>
-41.6838

> <Gold.PLP.part.hbond>
-4.3364

> <Gold.PLP.part.metal>
0.0000

> <Gold.PLP.part.buried>
-3.0198

> <Gold.PLP.part.nonpolar>
-34.1298

> <Gold.PLP.part.repulsive>
1.0550

> <Gold.PLP.ligand.clash>
0.0000

> <Gold.PLP.ligand.torsion>
0.4101

> <Gold.PLP.Chemscore.Hbond>
2.0000

> <Gold.PLP.Chemscore.CHOScore>
0.0000

> <Gold.PLP.Chemscore.Metal>
0.0000

> <Gold.Chemscore.Hbonds>
donor molecule, donor type, donor heavy atom, donor atom, acceptor molecule, acceptor atom, score
      L1  H    12    26       P1  8028  1.00
      P1  H  7989  7998       L1    20  1.00

> <Gold.PLP.Chemscore.Internal.Correction>
0.0018

> <Gold.Rescore>
     Score         DG    S(hbond)    S(metal)    S(lipo)     H(rot)  DE(clash)    DE(int)     intcor
      8.46     -14.34       1.92        0.00      62.16       1.88       0.28       5.60       ----

> <Gold.Chemscore.Fitness>
8.4562

> <Gold.Chemscore.DG>
-14.3397

> <Gold.Chemscore.ZeroCoef>
-5.4800

> <Gold.Chemscore.Hbond>
1.9194

> <Gold.Chemscore.Metal>
0.0000

> <Gold.Chemscore.Lipo>
62.1617

> <Gold.Chemscore.Internal_Hbond>
0.0000

> <Gold.Chemscore.DEClash>
0.2826

> <Gold.Chemscore.DEInternal>
5.6009

> <Gold.Chemscore.Rot>
1.8844

> <Gold.Chemscore.Internal.Correction>
   9.000000E+99

> <Gold.Chemscore.Hbonds>
donor molecule, donor type, donor heavy atom, donor atom, acceptor molecule, acceptor atom, score
      L1  H    12    26       P1  8028  0.96
      P1  H  7989  7998       L1    20  0.43

> <Gold.Chemscore.Hbond.Weighted>
-6.4109

> <Gold.Chemscore.Metal.Weighted>
-0.0000

> <Gold.Chemscore.Lipo.Weighted>
-7.2729

> <Gold.Chemscore.Internal_Hbond.Weighted>
0.0000

> <Gold.Chemscore.DEClash.Weighted>
0.2826

> <Gold.Chemscore.DEInternal.Weighted>
5.6009

> <Gold.Chemscore.Rot.Weighted>
4.8242

> <Gold.Chemscore.Internal.Correction.Weighted>
   9.000000E+99

> <Gold.Protein.RotatedTorsions>
[ 6907 6896 6895 6894 ] final  -88.81 input  -60.11 | X-H torsion
[ 7974 7965 7964 7962 ] final   10.24 input  175.53 | X-H torsion
[ 8008 7997 7996 7995 ] final  -88.69 input   59.86 | X-H torsion
[ 10167 10162 10161 10158 ] final  107.43 input  -65.29 | X-H torsion
[ 10718 10713 10712 10709 ] final  123.70 input   66.30 | X-H torsion
[ 10763 10752 10751 10750 ] final -112.47 input  -60.55 | X-H torsion
[ 11005 11000 10999 10996 ] final  155.48 input  -57.11 | X-H torsion

> <Gold.Protein.ActiveResidues>
 VAL166  LYS551  ARG553  GLY616  TRP617  ASP618  TYR619  PRO620  LYS621  CYS622 
 ASP623  PHE694  ASN695  SER759  ASP760  ASP761  ALA762  ILE779  LEU786  VAL792 
 PHE793  MET794  SER795  GLU796  ALA797  LYS798  CYS799  TRP800  GLU811  SER814 

> <Gold.Protein.RotatedAtoms>
  150.6870  134.2684  159.4577 H   0  0  0  0  0  0  0  0  0  0  0  0  # atno 6907 bound_to 6896
  152.0608  134.9593  160.0584 H   0  0  0  0  0  0  0  0  0  0  0  0  # atno 6908 bound_to 6896
  152.1020  133.4220  159.4628 H   0  0  0  0  0  0  0  0  0  0  0  0  # atno 6909 bound_to 6896
  146.2391  139.9663  142.8452 H   0  0  0  0  0  0  0  0  0  0  0  0  # atno 7974 bound_to 7965
  154.6777  140.0550  157.0233 H   0  0  0  0  0  0  0  0  0  0  0  0  # atno 8008 bound_to 7997
  155.0996  140.3227  155.4532 H   0  0  0  0  0  0  0  0  0  0  0  0  # atno 8009 bound_to 7997
  156.2682  140.2033  156.6122 H   0  0  0  0  0  0  0  0  0  0  0  0  # atno 8010 bound_to 7997
  139.6927  144.7105  151.1320 H   0  0  0  0  0  0  0  0  0  0  0  0  # atno 10167 bound_to 10162
  157.5644  131.1087  150.8481 H   0  0  0  0  0  0  0  0  0  0  0  0  # atno 10718 bound_to 10713
  154.8351  135.4489  154.1199 H   0  0  0  0  0  0  0  0  0  0  0  0  # atno 10763 bound_to 10752
  153.2438  135.6919  153.7760 H   0  0  0  0  0  0  0  0  0  0  0  0  # atno 10764 bound_to 10752
  153.7098  135.3358  155.3219 H   0  0  0  0  0  0  0  0  0  0  0  0  # atno 10765 bound_to 10752
  140.1585  134.8626  157.2545 H   0  0  0  0  0  0  0  0  0  0  0  0  # atno 11005 bound_to 11000
  145.1723  140.9727  143.4314 LP  0  0  0  0  0  0  0  0  0  0  0  0  # atno 17320 bound_to 7965
  145.0017  139.3592  143.6164 LP  0  0  0  0  0  0  0  0  0  0  0  0  # atno 17321 bound_to 7965
  140.7687  143.5535  150.9178 LP  0  0  0  0  0  0  0  0  0  0  0  0  # atno 17342 bound_to 10162
  139.9213  143.6602  152.3096 LP  0  0  0  0  0  0  0  0  0  0  0  0  # atno 17343 bound_to 10162
  156.8970  130.5233  149.5284 LP  0  0  0  0  0  0  0  0  0  0  0  0  # atno 17370 bound_to 10713
  156.0693  130.5730  150.9352 LP  0  0  0  0  0  0  0  0  0  0  0  0  # atno 17371 bound_to 10713
  140.2518  134.3674  155.7439 LP  0  0  0  0  0  0  0  0  0  0  0  0  # atno 17394 bound_to 11000
  141.2207  133.7321  156.8947 LP  0  0  0  0  0  0  0  0  0  0  0  0  # atno 17395 bound_to 11000

$$$$
