AV-unprocessed.smi:72|AV-procd|sdf|746|dock5
  -GOLD-   2262017 83D 1   1.00000     0.00000
 Structure written by MMmdl.
 29 30  0  0  0  0  0  0  0  0  1 V2000
  147.5234  138.4748  152.3743 N   0  0  0  0  0  0  0  0  0  0  0  0
  146.7852  137.3202  152.2214 C   0  0  0  0  0  0  0  0  0  0  0  0
  146.3756  137.0104  150.9171 N   0  0  0  0  0  0  0  0  0  0  0  0
  145.6746  135.9309  150.7716 C   0  0  0  0  0  0  0  0  0  0  0  0
  145.3354  135.0918  151.9067 N   0  0  0  0  0  0  0  0  0  0  0  0
  144.5157  133.8292  151.7316 C   0  0  1  0  0  0  0  0  0  0  0  0
  143.8883  133.8676  150.4839 O   0  0  0  0  0  0  0  0  0  0  0  0
  143.9681  132.5856  149.8726 C   0  0  1  0  0  0  0  0  0  0  0  0
  143.7679  132.6884  148.3502 C   0  0  0  0  0  0  0  0  0  0  0  0
  143.4762  134.0198  147.9827 O   0  0  0  0  0  0  0  0  0  0  0  0
  145.3072  132.0181  150.3661 C   0  0  1  0  0  0  0  0  0  0  0  0
  146.3855  132.4895  149.5750 O   0  0  0  0  0  0  0  0  0  0  0  0
  145.3616  132.5381  151.7996 C   0  0  1  0  0  0  0  0  0  0  0  0
  146.6820  132.6863  152.2927 O   0  0  0  0  0  0  0  0  0  0  0  0
  145.7984  135.4577  153.2008 C   0  0  0  0  0  0  0  0  0  0  0  0
  145.5487  134.7477  154.1750 O   0  0  0  0  0  0  0  0  0  0  0  0
  146.5453  136.6374  153.3041 N   0  0  0  0  0  0  0  0  0  0  0  0
  143.7363  133.8562  152.4941 H   0  0  0  0  0  0  0  0  0  0  0  0
  143.1604  131.9859  150.2970 H   0  0  0  0  0  0  0  0  0  0  0  0
  145.3177  130.9280  150.3348 H   0  0  0  0  0  0  0  0  0  0  0  0
  144.8289  131.8428  152.4496 H   0  0  0  0  0  0  0  0  0  0  0  0
  147.8721  138.7977  153.2650 H   0  0  0  0  0  0  0  0  0  0  0  0
  147.7704  139.0824  151.6069 H   0  0  0  0  0  0  0  0  0  0  0  0
  145.3018  135.5869  149.8059 H   0  0  0  0  0  0  0  0  0  0  0  0
  144.6805  132.3842  147.8370 H   0  0  0  0  0  0  0  0  0  0  0  0
  142.9748  132.0265  148.0017 H   0  0  0  0  0  0  0  0  0  0  0  0
  144.2808  134.4432  147.7244 H   0  0  0  0  0  0  0  0  0  0  0  0
  147.1385  131.9435  149.7432 H   0  0  0  0  0  0  0  0  0  0  0  0
  147.2434  132.9141  151.5672 H   0  0  0  0  0  0  0  0  0  0  0  0
  1  2  1  0  0  0  0
  1 22  1  0  0  0  0
  1 23  1  0  0  0  0
  2 17  2  0  0  0  0
  2  3  1  0  0  0  0
  3  4  2  0  0  0  0
  4  5  1  0  0  0  0
  4 24  1  0  0  0  0
  5  6  1  0  0  0  0
  5 15  1  0  0  0  0
  6 18  1  0  0  0  0
  6 13  1  0  0  0  0
  6  7  1  0  0  0  0
  7  8  1  0  0  0  0
  8 19  1  0  0  0  0
  8  9  1  0  0  0  0
  8 11  1  0  0  0  0
  9 10  1  0  0  0  0
  9 25  1  0  0  0  0
  9 26  1  0  0  0  0
 10 27  1  0  0  0  0
 11 20  1  0  0  0  0
 11 12  1  0  0  0  0
 11 13  1  0  0  0  0
 12 28  1  0  0  0  0
 13 21  1  0  0  0  0
 13 14  1  0  0  0  0
 14 29  1  0  0  0  0
 15 16  2  0  0  0  0
 15 17  1  0  0  0  0
M  END
> <s_m_source_file>
AV-unprocessed.smi

> <i_m_source_file_index>
72

> <i_lp_mmshare_version>
43012

> <i_f3d_flags>
0

> <s_epik_input>
W05IMl1jMW5bY0hdbihjKD1PKW4xKVtDQEBIXTJPW0NASF0oW0NIMl1bT0hdKVtDQEBIXShbT0hdKVtDQEhdMltPSF0=

> <s_epik_cmdline>
J2VwaWtfcHl0aG9uJywgJy1waCcsICc3LjAnLCAnLXRuJywgJzgnLCAnLW1hJywgJzIwMCcsICctbWV0YWxfYmluZGluZycsICctaW1hZScsICc8aW5maWxlLm1hZT4nLCAnLW9tYWUnLCAnPG91dGZpbGUubWFlPic=

> <r_lp_tautomer_probability>
4.77166e-05

> <r_epik_Ionization_Penalty>
1.3546

> <r_epik_Ionization_Penalty_Charging>
1.46833e-10

> <r_epik_Ionization_Penalty_Neutral>
1.3546

> <r_epik_State_Penalty>
3.51908

> <r_epik_Charging_Adjusted_Penalty>
3.51908

> <i_epik_Tot_Q>
0

> <i_epik_Tot_abs_Q>
0

> <r_epik_Metal_State_Penalty>
3.44088

> <b_epik_Metal_Only>
1

> <s_epik_Chemistry_Notes>
This compound contains an acetal/aminal-like group ( X-CH(R)-Y where X, Y are N, S, or O) that may be acid/base labile, releasing an aldehyde.

> <s_lp_Force_Field>
OPLS_2005

> <r_lp_Energy>
35.7585

> <b_lp_Chiralities_Consistent>
1

> <s_lp_Variant>
AV-unprocessed.smi:72-84

> <Gold.Version>
5.8.1

> <Gold.Id.Protein>
6NUR|6NUR_protein|mol2

> <Gold.PLP.Fitness>
36.2244

> <Gold.PLP.PLP>
-25.5339

> <Gold.PLP.part.hbond>
-8.1570

> <Gold.PLP.part.metal>
0.0000

> <Gold.PLP.part.buried>
-1.4180

> <Gold.PLP.part.nonpolar>
-20.1856

> <Gold.PLP.part.repulsive>
4.2093

> <Gold.PLP.ligand.clash>
0.0000

> <Gold.PLP.ligand.torsion>
1.1551

> <Gold.PLP.Chemscore.Hbond>
3.3328

> <Gold.PLP.Chemscore.CHOScore>
1.0000

> <Gold.PLP.Chemscore.Metal>
0.0000

> <Gold.Chemscore.Hbonds>
donor molecule, donor type, donor heavy atom, donor atom, acceptor molecule, acceptor atom, score
      L1  H     1    23       P1  7957  0.55
      L1  H    10    27       P1  7921  1.00
      L1  H    12    28       P1 10747  0.62
      P1  H  7954  7966       L1     3  0.44
      P1  H 10192 10197       L1    10  1.00
      L1  C     4    24       P1  7921  1.00

> <Gold.PLP.Chemscore.Internal.Correction>
0.0023

> <Gold.Rescore>
     Score         DG    S(hbond)    S(metal)    S(lipo)     H(rot)  DE(clash)    DE(int)     intcor
      6.55     -12.34       3.71        0.00      41.57       4.06       4.32       1.47       ----

> <Gold.Chemscore.Fitness>
6.5468

> <Gold.Chemscore.DG>
-12.3401

> <Gold.Chemscore.ZeroCoef>
-5.4800

> <Gold.Chemscore.Hbond>
3.7096

> <Gold.Chemscore.Metal>
0.0000

> <Gold.Chemscore.Lipo>
41.5685

> <Gold.Chemscore.Internal_Hbond>
0.0000

> <Gold.Chemscore.DEClash>
4.3213

> <Gold.Chemscore.DEInternal>
1.4720

> <Gold.Chemscore.Rot>
4.0600

> <Gold.Chemscore.Internal.Correction>
   9.000000E+99

> <Gold.Chemscore.Hbonds>
donor molecule, donor type, donor heavy atom, donor atom, acceptor molecule, acceptor atom, score
      L1  H     1    23       P1  7957  0.49
      L1  H    10    27       P1  7921  1.00
      L1  H    12    28       P1 10747  0.63
      P1  H  7954  7966       L1     3  0.07
      P1  H 10192 10197       L1    10  0.42

> <Gold.Chemscore.Hbond.Weighted>
-12.3902

> <Gold.Chemscore.Metal.Weighted>
-0.0000

> <Gold.Chemscore.Lipo.Weighted>
-4.8635

> <Gold.Chemscore.Internal_Hbond.Weighted>
0.0000

> <Gold.Chemscore.DEClash.Weighted>
4.3213

> <Gold.Chemscore.DEInternal.Weighted>
1.4720

> <Gold.Chemscore.Rot.Weighted>
10.3936

> <Gold.Chemscore.Internal.Correction.Weighted>
   9.000000E+99

> <Gold.Protein.RotatedTorsions>
[ 6907 6896 6895 6894 ] final   10.11 input  -60.11 | X-H torsion
[ 7974 7965 7964 7962 ] final   81.51 input  175.53 | X-H torsion
[ 8008 7997 7996 7995 ] final   34.60 input   59.86 | X-H torsion
[ 10167 10162 10161 10158 ] final   32.86 input  -65.29 | X-H torsion
[ 10718 10713 10712 10709 ] final  137.64 input   66.30 | X-H torsion
[ 10763 10752 10751 10750 ] final  177.47 input  -60.55 | X-H torsion
[ 11005 11000 10999 10996 ] final  109.31 input  -57.11 | X-H torsion

> <Gold.Protein.ActiveResidues>
 VAL166  LYS551  ARG553  GLY616  TRP617  ASP618  TYR619  PRO620  LYS621  CYS622 
 ASP623  PHE694  ASN695  SER759  ASP760  ASP761  ALA762  ILE779  LEU786  VAL792 
 PHE793  MET794  SER795  GLU796  ALA797  LYS798  CYS799  TRP800  GLU811  SER814 

> <Gold.Protein.RotatedAtoms>
  151.7330  135.0870  160.0302 H   0  0  0  0  0  0  0  0  0  0  0  0  # atno 6907 bound_to 6896
  152.3529  133.6197  159.5966 H   0  0  0  0  0  0  0  0  0  0  0  0  # atno 6908 bound_to 6896
  150.7551  133.9462  159.3513 H   0  0  0  0  0  0  0  0  0  0  0  0  # atno 6909 bound_to 6896
  145.6371  139.2417  143.2051 H   0  0  0  0  0  0  0  0  0  0  0  0  # atno 7974 bound_to 7965
  155.1575  140.3280  155.4418 H   0  0  0  0  0  0  0  0  0  0  0  0  # atno 8008 bound_to 7997
  156.2554  140.1966  156.6634 H   0  0  0  0  0  0  0  0  0  0  0  0  # atno 8009 bound_to 7997
  154.6429  140.0568  156.9852 H   0  0  0  0  0  0  0  0  0  0  0  0  # atno 8010 bound_to 7997
  140.4460  144.1118  150.6182 H   0  0  0  0  0  0  0  0  0  0  0  0  # atno 10167 bound_to 10162
  157.4339  131.1051  151.0219 H   0  0  0  0  0  0  0  0  0  0  0  0  # atno 10718 bound_to 10713
  154.4949  135.2781  155.1467 H   0  0  0  0  0  0  0  0  0  0  0  0  # atno 10763 bound_to 10752
  154.3124  135.6226  153.5475 H   0  0  0  0  0  0  0  0  0  0  0  0  # atno 10764 bound_to 10752
  152.9893  135.5723  154.5378 H   0  0  0  0  0  0  0  0  0  0  0  0  # atno 10765 bound_to 10752
  139.8859  134.9454  156.6105 H   0  0  0  0  0  0  0  0  0  0  0  0  # atno 11005 bound_to 11000
  146.1310  140.7185  142.9412 LP  0  0  0  0  0  0  0  0  0  0  0  0  # atno 17320 bound_to 7965
  144.7171  140.4248  143.7036 LP  0  0  0  0  0  0  0  0  0  0  0  0  # atno 17321 bound_to 7965
  140.4263  143.2588  151.9652 LP  0  0  0  0  0  0  0  0  0  0  0  0  # atno 17342 bound_to 10162
  139.4793  144.5785  151.7971 LP  0  0  0  0  0  0  0  0  0  0  0  0  # atno 17343 bound_to 10162
  157.1106  130.6020  149.5481 LP  0  0  0  0  0  0  0  0  0  0  0  0  # atno 17370 bound_to 10713
  155.9923  130.4981  150.7336 LP  0  0  0  0  0  0  0  0  0  0  0  0  # atno 17371 bound_to 10713
  140.7815  133.8656  155.8571 LP  0  0  0  0  0  0  0  0  0  0  0  0  # atno 17394 bound_to 11000
  140.9756  134.1473  157.4539 LP  0  0  0  0  0  0  0  0  0  0  0  0  # atno 17395 bound_to 11000

$$$$
