AV-unprocessed.smi:3183|AV-procd|sdf|12154|dock7
  -GOLD-   2272017593D 1   1.00000     0.00000
 Structure written by MMmdl.
 43 44  0  0  0  0  0  0  0  0  2 V2000
  145.2905  132.8273  153.0051 C   0  0  0  0  0  0  0  0  0  0  0  0
  144.1853  133.8446  152.6562 C   0  0  1  0  0  0  0  0  0  0  0  0
  144.1865  135.0423  153.6293 C   0  0  0  0  0  0  0  0  0  0  0  0
  145.3695  135.9946  153.3841 C   0  0  0  0  0  0  0  0  0  0  0  0
  145.3946  136.4895  151.9279 C   0  0  1  0  0  0  0  0  0  0  0  0
  146.5658  137.3637  151.7020 N   0  3  0  0  0  0  0  0  0  0  0  0
  146.4082  138.7455  152.1986 C   0  0  0  0  0  0  0  0  0  0  0  0
  146.4923  138.7970  153.7310 C   0  0  0  0  0  0  0  0  0  0  0  0
  147.3764  139.8844  154.2635 C   0  0  0  0  0  0  0  0  0  0  0  0
  147.3387  141.2402  154.0803 C   0  0  0  0  0  0  0  0  0  0  0  0
  148.4367  141.7271  154.8410 C   0  0  0  0  0  0  0  0  0  0  0  0
  149.1016  140.7592  155.4456 N   0  0  0  0  0  0  0  0  0  0  0  0
  148.4549  139.6283  155.0940 N   0  0  0  0  0  0  0  0  0  0  0  0
  148.9498  138.3639  155.6053 C   0  0  0  0  0  0  0  0  0  0  0  0
  145.4141  135.3026  150.9473 C   0  0  0  0  0  0  0  0  0  0  0  0
  144.2262  134.3484  151.1899 C   0  0  1  0  0  0  0  0  0  0  0  0
  144.1844  133.2121  150.1550 C   0  0  0  0  0  0  0  0  0  0  0  0
  146.2891  133.2263  152.8303 H   0  0  0  0  0  0  0  0  0  0  0  0
  145.1917  131.9136  152.4189 H   0  0  0  0  0  0  0  0  0  0  0  0
  145.2332  132.5363  154.0542 H   0  0  0  0  0  0  0  0  0  0  0  0
  143.2367  133.3242  152.7970 H   0  0  0  0  0  0  0  0  0  0  0  0
  143.2550  135.5982  153.5126 H   0  0  0  0  0  0  0  0  0  0  0  0
  144.1982  134.6915  154.6619 H   0  0  0  0  0  0  0  0  0  0  0  0
  145.2978  136.8445  154.0638 H   0  0  0  0  0  0  0  0  0  0  0  0
  146.3063  135.4903  153.6241 H   0  0  0  0  0  0  0  0  0  0  0  0
  144.4803  137.0587  151.7494 H   0  0  0  0  0  0  0  0  0  0  0  0
  147.3648  136.9479  152.1590 H   0  0  0  0  0  0  0  0  0  0  0  0
  147.1871  139.3713  151.7603 H   0  0  0  0  0  0  0  0  0  0  0  0
  145.4460  139.1356  151.8630 H   0  0  0  0  0  0  0  0  0  0  0  0
  145.4886  138.9259  154.1386 H   0  0  0  0  0  0  0  0  0  0  0  0
  146.8526  137.8359  154.1004 H   0  0  0  0  0  0  0  0  0  0  0  0
  146.6328  141.8063  153.4909 H   0  0  0  0  0  0  0  0  0  0  0  0
  148.7678  142.7471  154.9709 H   0  0  0  0  0  0  0  0  0  0  0  0
  148.3437  137.5326  155.2471 H   0  0  0  0  0  0  0  0  0  0  0  0
  148.9221  138.3728  156.6953 H   0  0  0  0  0  0  0  0  0  0  0  0
  149.9788  138.2132  155.2777 H   0  0  0  0  0  0  0  0  0  0  0  0
  145.3765  135.6780  149.9236 H   0  0  0  0  0  0  0  0  0  0  0  0
  146.3551  134.7585  151.0368 H   0  0  0  0  0  0  0  0  0  0  0  0
  143.3167  134.9314  151.0352 H   0  0  0  0  0  0  0  0  0  0  0  0
  145.0988  132.6189  150.1674 H   0  0  0  0  0  0  0  0  0  0  0  0
  144.0680  133.6087  149.1462 H   0  0  0  0  0  0  0  0  0  0  0  0
  143.3457  132.5409  150.3417 H   0  0  0  0  0  0  0  0  0  0  0  0
  146.7482  137.3991  150.7092 H   0  0  0  0  0  0  0  0  0  0  0  0
  1  2  1  0  0  0  0
  1 18  1  0  0  0  0
  1 19  1  0  0  0  0
  1 20  1  0  0  0  0
  2 16  1  0  0  0  0
  2  3  1  0  0  0  0
  2 21  1  0  0  0  0
  3  4  1  0  0  0  0
  3 22  1  0  0  0  0
  3 23  1  0  0  0  0
  4  5  1  0  0  0  0
  4 24  1  0  0  0  0
  4 25  1  0  0  0  0
  5  6  1  0  0  0  0
  5 15  1  0  0  0  0
  5 26  1  0  0  0  0
  6  7  1  0  0  0  0
  6 27  1  0  0  0  0
  6 43  1  0  0  0  0
  7  8  1  0  0  0  0
  7 28  1  0  0  0  0
  7 29  1  0  0  0  0
  8  9  1  0  0  0  0
  8 30  1  0  0  0  0
  8 31  1  0  0  0  0
  9 13  1  0  0  0  0
  9 10  2  0  0  0  0
 10 11  1  0  0  0  0
 10 32  1  0  0  0  0
 11 12  2  0  0  0  0
 11 33  1  0  0  0  0
 12 13  1  0  0  0  0
 13 14  1  0  0  0  0
 14 34  1  0  0  0  0
 14 35  1  0  0  0  0
 14 36  1  0  0  0  0
 15 16  1  0  0  0  0
 15 37  1  0  0  0  0
 15 38  1  0  0  0  0
 16 17  1  0  0  0  0
 16 39  1  0  0  0  0
 17 40  1  0  0  0  0
 17 41  1  0  0  0  0
 17 42  1  0  0  0  0
M  CHG  1   6   1
M  END
> <s_m_source_file>
AV-unprocessed.smi

> <i_m_source_file_index>
3183

> <i_lp_mmshare_version>
43012

> <i_f3d_flags>
0

> <s_epik_input>
W0NIM11bQ0BASF0xW0NIMl1bQ0gyXVtDQEhdKFtDSDJdW0NASF0xW0NIM10pW05IXVtDSDJdW0NIMl1jMltjSF1bY0hdbm4yW0NIM10=

> <s_epik_cmdline>
J2VwaWtfcHl0aG9uJywgJy1waCcsICc3LjAnLCAnLXRuJywgJzgnLCAnLW1hJywgJzIwMCcsICctbWV0YWxfYmluZGluZycsICctaW1hZScsICc8aW5maWxlLm1hZT4nLCAnLW9tYWUnLCAnPG91dGZpbGUubWFlPic=

> <r_lp_tautomer_probability>
1

> <r_epik_Ionization_Penalty>
0.000327718

> <r_epik_Ionization_Penalty_Charging>
0.000294043

> <r_epik_Ionization_Penalty_Neutral>
3.36755e-05

> <r_epik_State_Penalty>
-0

> <r_epik_Charging_Adjusted_Penalty>
0.000294043

> <i_epik_Tot_Q>
1

> <i_epik_Tot_abs_Q>
1

> <r_epik_Metal_State_Penalty>
-0

> <b_epik_Metal_Only>
0

> <s_lp_Force_Field>
OPLS_2005

> <r_lp_Energy>
15.8905

> <b_lp_Chiralities_Consistent>
1

> <s_lp_Variant>
AV-unprocessed.smi:3183-2

> <Gold.Version>
5.8.1

> <Gold.Id.Protein>
6NUR|6NUR_protein|mol2

> <Gold.PLP.Fitness>
43.4237

> <Gold.PLP.PLP>
-32.8280

> <Gold.PLP.part.hbond>
-2.0000

> <Gold.PLP.part.metal>
0.0000

> <Gold.PLP.part.buried>
-2.5691

> <Gold.PLP.part.nonpolar>
-28.6787

> <Gold.PLP.part.repulsive>
0.2005

> <Gold.PLP.ligand.clash>
0.0000

> <Gold.PLP.ligand.torsion>
0.5750

> <Gold.PLP.Chemscore.Hbond>
2.9120

> <Gold.PLP.Chemscore.CHOScore>
1.0000

> <Gold.PLP.Chemscore.Metal>
0.0000

> <Gold.Chemscore.Hbonds>
donor molecule, donor type, donor heavy atom, donor atom, acceptor molecule, acceptor atom, score
      L1  H     6    27       P1  7948  1.66
      L1  C    11    33       P1  8028  1.00

> <Gold.PLP.Chemscore.Internal.Correction>
0.0098

> <Gold.Rescore>
     Score         DG    S(hbond)    S(metal)    S(lipo)     H(rot)  DE(clash)    DE(int)     intcor
     15.23     -16.77       1.63        0.00      79.96       1.38       0.25       1.29       ----

> <Gold.Chemscore.Fitness>
15.2329

> <Gold.Chemscore.DG>
-16.7694

> <Gold.Chemscore.ZeroCoef>
-5.4800

> <Gold.Chemscore.Hbond>
1.6345

> <Gold.Chemscore.Metal>
0.0000

> <Gold.Chemscore.Lipo>
79.9563

> <Gold.Chemscore.Internal_Hbond>
0.0000

> <Gold.Chemscore.DEClash>
0.2505

> <Gold.Chemscore.DEInternal>
1.2860

> <Gold.Chemscore.Rot>
1.3768

> <Gold.Chemscore.Internal.Correction>
   9.000000E+99

> <Gold.Chemscore.Hbonds>
donor molecule, donor type, donor heavy atom, donor atom, acceptor molecule, acceptor atom, score
      L1  H     6    27       P1  7948  0.83

> <Gold.Chemscore.Hbond.Weighted>
-5.4592

> <Gold.Chemscore.Metal.Weighted>
-0.0000

> <Gold.Chemscore.Lipo.Weighted>
-9.3549

> <Gold.Chemscore.Internal_Hbond.Weighted>
0.0000

> <Gold.Chemscore.DEClash.Weighted>
0.2505

> <Gold.Chemscore.DEInternal.Weighted>
1.2860

> <Gold.Chemscore.Rot.Weighted>
3.5247

> <Gold.Chemscore.Internal.Correction.Weighted>
   9.000000E+99

> <Gold.Protein.RotatedTorsions>
[ 6907 6896 6895 6894 ] final -146.78 input  -60.11 | X-H torsion
[ 7974 7965 7964 7962 ] final   19.40 input  175.53 | X-H torsion
[ 8008 7997 7996 7995 ] final  -91.91 input   59.86 | X-H torsion
[ 10167 10162 10161 10158 ] final   63.62 input  -65.29 | X-H torsion
[ 10718 10713 10712 10709 ] final   -7.88 input   66.30 | X-H torsion
[ 10763 10752 10751 10750 ] final   86.24 input  -60.55 | X-H torsion
[ 11005 11000 10999 10996 ] final  168.65 input  -57.11 | X-H torsion

> <Gold.Protein.ActiveResidues>
 VAL166  LYS551  ARG553  GLY616  TRP617  ASP618  TYR619  PRO620  LYS621  CYS622 
 ASP623  PHE694  ASN695  SER759  ASP760  ASP761  ALA762  ILE779  LEU786  VAL792 
 PHE793  MET794  SER795  GLU796  ALA797  LYS798  CYS799  TRP800  GLU811  SER814 

> <Gold.Protein.RotatedAtoms>
  151.1464  133.4937  159.2595 H   0  0  0  0  0  0  0  0  0  0  0  0  # atno 6907 bound_to 6896
  151.1600  135.0268  159.8716 H   0  0  0  0  0  0  0  0  0  0  0  0  # atno 6908 bound_to 6896
  152.5463  134.1339  159.8503 H   0  0  0  0  0  0  0  0  0  0  0  0  # atno 6909 bound_to 6896
  146.2151  139.8319  142.8658 H   0  0  0  0  0  0  0  0  0  0  0  0  # atno 7974 bound_to 7965
  154.7166  140.0514  157.0600 H   0  0  0  0  0  0  0  0  0  0  0  0  # atno 8008 bound_to 7997
  155.0483  140.3176  155.4681 H   0  0  0  0  0  0  0  0  0  0  0  0  # atno 8009 bound_to 7997
  156.2804  140.2120  156.5608 H   0  0  0  0  0  0  0  0  0  0  0  0  # atno 8010 bound_to 7997
  140.1311  144.4642  150.6864 H   0  0  0  0  0  0  0  0  0  0  0  0  # atno 10167 bound_to 10162
  156.7107  130.5121  149.5893 H   0  0  0  0  0  0  0  0  0  0  0  0  # atno 10718 bound_to 10713
  153.1551  135.4587  154.9693 H   0  0  0  0  0  0  0  0  0  0  0  0  # atno 10763 bound_to 10752
  154.7855  135.3202  154.7898 H   0  0  0  0  0  0  0  0  0  0  0  0  # atno 10764 bound_to 10752
  153.8396  135.6931  153.4859 H   0  0  0  0  0  0  0  0  0  0  0  0  # atno 10765 bound_to 10752
  140.2895  134.7685  157.3826 H   0  0  0  0  0  0  0  0  0  0  0  0  # atno 11005 bound_to 11000
  145.2988  141.0188  143.3620 LP  0  0  0  0  0  0  0  0  0  0  0  0  # atno 17320 bound_to 7965
  144.9021  139.4636  143.6627 LP  0  0  0  0  0  0  0  0  0  0  0  0  # atno 17321 bound_to 7965
  140.6816  143.2329  151.5368 LP  0  0  0  0  0  0  0  0  0  0  0  0  # atno 17342 bound_to 10162
  139.5519  144.2373  152.1545 LP  0  0  0  0  0  0  0  0  0  0  0  0  # atno 17343 bound_to 10162
  156.1663  130.6407  151.0782 LP  0  0  0  0  0  0  0  0  0  0  0  0  # atno 17370 bound_to 10713
  157.6937  131.0801  150.7033 LP  0  0  0  0  0  0  0  0  0  0  0  0  # atno 17371 bound_to 10713
  140.1208  134.5222  155.8185 LP  0  0  0  0  0  0  0  0  0  0  0  0  # atno 17394 bound_to 11000
  141.2149  133.6756  156.6862 LP  0  0  0  0  0  0  0  0  0  0  0  0  # atno 17395 bound_to 11000

$$$$
