AV-unprocessed.smi:2928|AV-procd|sdf|11237|dock8
  -GOLD-   2272016133D 1   1.00000     0.00000
 Structure written by MMmdl.
 56 59  0  0  0  0  0  0  0  0  3 V2000
  149.8377  140.9825  156.6510 C   0  0  0  0  0  0  0  0  0  0  0  0
  149.6889  139.5737  156.2140 N   0  3  2  0  0  0  0  0  0  0  0  0
  148.8255  138.7396  157.0850 C   0  0  2  0  0  0  0  0  0  0  0  0
  149.5045  138.4612  158.4507 C   0  0  0  0  0  0  0  0  0  0  0  0
  150.9375  137.9058  158.3398 C   0  0  0  0  0  0  0  0  0  0  0  0
  151.7576  138.6041  157.2385 C   0  0  0  0  0  0  0  0  0  0  0  0
  150.9637  138.8687  155.9344 C   0  0  1  0  0  0  0  0  0  0  0  0
  150.6647  137.6065  155.0915 C   0  0  0  0  0  0  0  0  0  0  0  0
  149.5751  136.6783  155.6875 C   0  0  2  0  0  0  0  0  0  0  0  0
  149.0572  135.7804  154.6571 N   0  0  0  0  0  0  0  0  0  0  0  0
  149.0248  134.4425  154.7431 C   0  0  0  0  0  0  0  0  0  0  0  0
  149.4535  133.8109  155.7086 O   0  0  0  0  0  0  0  0  0  0  0  0
  148.4886  133.8945  153.6398 N   0  0  0  0  0  0  0  0  0  0  0  0
  148.3110  132.5115  153.3518 C   0  0  0  0  0  0  0  0  0  0  0  0
  148.9179  131.5129  154.1564 C   0  0  0  0  0  0  0  0  0  0  0  0
  148.6658  130.1525  153.8977 C   0  0  0  0  0  0  0  0  0  0  0  0
  147.7968  129.8098  152.8479 C   0  0  0  0  0  0  0  0  0  0  0  0
  147.2259  130.7824  152.1079 N   0  3  0  0  0  0  0  0  0  0  0  0
  147.4411  132.1086  152.2970 C   0  0  0  0  0  0  0  0  0  0  0  0
  146.7851  133.0142  151.4322 N   0  0  0  0  0  0  0  0  0  0  0  0
  145.7196  133.8746  151.9339 C   0  0  0  0  0  0  0  0  0  0  0  0
  145.0272  134.4161  150.6863 C   0  0  0  0  0  0  0  0  0  0  0  0
  145.1223  133.2383  149.7211 C   0  0  0  0  0  0  0  0  0  0  0  0
  146.4630  132.5858  150.0744 C   0  0  0  0  0  0  0  0  0  0  0  0
  148.4001  137.4760  156.3016 C   0  0  0  0  0  0  0  0  0  0  0  0
  150.3418  141.0677  157.6132 H   0  0  0  0  0  0  0  0  0  0  0  0
  148.8600  141.4567  156.7400 H   0  0  0  0  0  0  0  0  0  0  0  0
  150.4121  141.5494  155.9178 H   0  0  0  0  0  0  0  0  0  0  0  0
  147.9120  139.3014  157.2858 H   0  0  0  0  0  0  0  0  0  0  0  0
  149.5398  139.3901  159.0205 H   0  0  0  0  0  0  0  0  0  0  0  0
  148.8909  137.7826  159.0443 H   0  0  0  0  0  0  0  0  0  0  0  0
  151.4454  138.0202  159.2979 H   0  0  0  0  0  0  0  0  0  0  0  0
  150.9172  136.8323  158.1729 H   0  0  0  0  0  0  0  0  0  0  0  0
  152.1190  139.5557  157.6294 H   0  0  0  0  0  0  0  0  0  0  0  0
  152.6543  138.0226  157.0213 H   0  0  0  0  0  0  0  0  0  0  0  0
  151.5754  139.5210  155.3092 H   0  0  0  0  0  0  0  0  0  0  0  0
  150.3341  137.9410  154.1066 H   0  0  0  0  0  0  0  0  0  0  0  0
  151.5834  137.0445  154.9181 H   0  0  0  0  0  0  0  0  0  0  0  0
  150.0122  136.0560  156.4646 H   0  0  0  0  0  0  0  0  0  0  0  0
  148.6846  136.2120  153.8238 H   0  0  0  0  0  0  0  0  0  0  0  0
  148.2736  134.5285  152.8839 H   0  0  0  0  0  0  0  0  0  0  0  0
  149.5575  131.7710  154.9869 H   0  0  0  0  0  0  0  0  0  0  0  0
  149.1225  129.3849  154.5051 H   0  0  0  0  0  0  0  0  0  0  0  0
  147.5386  128.7951  152.5810 H   0  0  0  0  0  0  0  0  0  0  0  0
  145.0078  133.2965  152.5246 H   0  0  0  0  0  0  0  0  0  0  0  0
  146.1146  134.6768  152.5579 H   0  0  0  0  0  0  0  0  0  0  0  0
  144.0013  134.7348  150.8732 H   0  0  0  0  0  0  0  0  0  0  0  0
  145.5813  135.2681  150.2899 H   0  0  0  0  0  0  0  0  0  0  0  0
  144.3094  132.5376  149.9176 H   0  0  0  0  0  0  0  0  0  0  0  0
  145.0606  133.5388  148.6747 H   0  0  0  0  0  0  0  0  0  0  0  0
  147.2402  132.9455  149.3998 H   0  0  0  0  0  0  0  0  0  0  0  0
  146.4106  131.4996  149.9857 H   0  0  0  0  0  0  0  0  0  0  0  0
  147.7957  136.8247  156.9342 H   0  0  0  0  0  0  0  0  0  0  0  0
  147.7397  137.7997  155.4950 H   0  0  0  0  0  0  0  0  0  0  0  0
  149.2084  139.6318  155.3276 H   0  0  0  0  0  0  0  0  0  0  0  0
  146.5996  130.5015  151.3533 H   0  0  0  0  0  0  0  0  0  0  0  0
  1  2  1  0  0  0  0
  1 26  1  0  0  0  0
  1 27  1  0  0  0  0
  1 28  1  0  0  0  0
  2  7  1  0  0  0  0
  2  3  1  0  0  0  0
  2 55  1  0  0  0  0
  3 25  1  0  0  0  0
  3  4  1  0  0  0  0
  3 29  1  0  0  0  0
  4  5  1  0  0  0  0
  4 30  1  0  0  0  0
  4 31  1  0  0  0  0
  5  6  1  0  0  0  0
  5 32  1  0  0  0  0
  5 33  1  0  0  0  0
  6  7  1  0  0  0  0
  6 34  1  0  0  0  0
  6 35  1  0  0  0  0
  7  8  1  0  0  0  0
  7 36  1  0  0  0  0
  8  9  1  0  0  0  0
  8 37  1  0  0  0  0
  8 38  1  0  0  0  0
  9 10  1  0  0  0  0
  9 25  1  0  0  0  0
  9 39  1  0  0  0  0
 10 11  1  0  0  0  0
 10 40  1  0  0  0  0
 11 12  2  0  0  0  0
 11 13  1  0  0  0  0
 13 14  1  0  0  0  0
 13 41  1  0  0  0  0
 14 19  1  0  0  0  0
 14 15  2  0  0  0  0
 15 16  1  0  0  0  0
 15 42  1  0  0  0  0
 16 17  2  0  0  0  0
 16 43  1  0  0  0  0
 17 18  1  0  0  0  0
 17 44  1  0  0  0  0
 18 19  2  0  0  0  0
 18 56  1  0  0  0  0
 19 20  1  0  0  0  0
 20 24  1  0  0  0  0
 20 21  1  0  0  0  0
 21 22  1  0  0  0  0
 21 45  1  0  0  0  0
 21 46  1  0  0  0  0
 22 23  1  0  0  0  0
 22 47  1  0  0  0  0
 22 48  1  0  0  0  0
 23 24  1  0  0  0  0
 23 49  1  0  0  0  0
 23 50  1  0  0  0  0
 24 51  1  0  0  0  0
 24 52  1  0  0  0  0
 25 53  1  0  0  0  0
 25 54  1  0  0  0  0
M  CHG  1   2   1
M  CHG  1  18   1
M  END
> <s_m_source_file>
AV-unprocessed.smi

> <i_m_source_file_index>
2928

> <i_lp_mmshare_version>
43012

> <i_f3d_flags>
0

> <s_epik_input>
W0NIMl0xW0NIMl1bQ0gyXVtDQEhdKE4oW0NIM10pW0NIXTEyKVtDSDJdW0NASF0oW0NIMl0yKVtOSF1DKD1PKVtOSF1jM1tjSF1bY0hdW2NIXW5jM040W0NIMl1bQ0gyXVtDSDJdW0NIMl00

> <s_epik_cmdline>
J2VwaWtfcHl0aG9uJywgJy1waCcsICc3LjAnLCAnLXRuJywgJzgnLCAnLW1hJywgJzIwMCcsICctbWV0YWxfYmluZGluZycsICctaW1hZScsICc8aW5maWxlLm1hZT4nLCAnLW9tYWUnLCAnPG91dGZpbGUubWFlPic=

> <r_lp_tautomer_probability>
0.999994

> <r_epik_Ionization_Penalty>
1.2404

> <r_epik_Ionization_Penalty_Charging>
1.24038

> <r_epik_Ionization_Penalty_Neutral>
1.86539e-05

> <r_epik_State_Penalty>
1.30821

> <r_epik_Charging_Adjusted_Penalty>
2.54859

> <i_epik_Tot_Q>
2

> <i_epik_Tot_abs_Q>
2

> <r_epik_Metal_State_Penalty>
1.3782

> <b_epik_Metal_Only>
0

> <s_lp_Force_Field>
OPLS_2005

> <r_lp_Energy>
72.5254

> <b_lp_Chiralities_Consistent>
1

> <s_lp_Variant>
AV-unprocessed.smi:2928-7

> <Gold.Version>
5.8.1

> <Gold.Id.Protein>
6NUR|6NUR_protein|mol2

> <Gold.PLP.Fitness>
42.3533

> <Gold.PLP.PLP>
-38.0674

> <Gold.PLP.part.hbond>
-3.0398

> <Gold.PLP.part.metal>
0.0000

> <Gold.PLP.part.buried>
-3.4356

> <Gold.PLP.part.nonpolar>
-31.9550

> <Gold.PLP.part.repulsive>
0.3162

> <Gold.PLP.ligand.clash>
0.0000

> <Gold.PLP.ligand.torsion>
0.5424

> <Gold.PLP.Chemscore.Hbond>
1.6640

> <Gold.PLP.Chemscore.CHOScore>
0.0000

> <Gold.PLP.Chemscore.Metal>
0.0000

> <Gold.Chemscore.Hbonds>
donor molecule, donor type, donor heavy atom, donor atom, acceptor molecule, acceptor atom, score
      L1  H    10    40       P1  7948  0.78
      L1  H    13    41       P1  7948  0.80

> <Gold.PLP.Chemscore.Internal.Correction>
0.3787

> <Gold.Rescore>
     Score         DG    S(hbond)    S(metal)    S(lipo)     H(rot)  DE(clash)    DE(int)     intcor
     15.02     -17.22       1.11        0.00      94.66       1.19       0.16       2.03       ----

> <Gold.Chemscore.Fitness>
15.0189

> <Gold.Chemscore.DG>
-17.2153

> <Gold.Chemscore.ZeroCoef>
-5.4800

> <Gold.Chemscore.Hbond>
1.1082

> <Gold.Chemscore.Metal>
0.0000

> <Gold.Chemscore.Lipo>
94.6592

> <Gold.Chemscore.Internal_Hbond>
0.0000

> <Gold.Chemscore.DEClash>
0.1635

> <Gold.Chemscore.DEInternal>
2.0329

> <Gold.Chemscore.Rot>
1.1879

> <Gold.Chemscore.Internal.Correction>
   9.000000E+99

> <Gold.Chemscore.Hbonds>
donor molecule, donor type, donor heavy atom, donor atom, acceptor molecule, acceptor atom, score
      L1  H    10    40       P1  7948  0.76
      L1  H    13    41       P1  7948  0.34

> <Gold.Chemscore.Hbond.Weighted>
-3.7012

> <Gold.Chemscore.Metal.Weighted>
-0.0000

> <Gold.Chemscore.Lipo.Weighted>
-11.0751

> <Gold.Chemscore.Internal_Hbond.Weighted>
0.0000

> <Gold.Chemscore.DEClash.Weighted>
0.1635

> <Gold.Chemscore.DEInternal.Weighted>
2.0329

> <Gold.Chemscore.Rot.Weighted>
3.0410

> <Gold.Chemscore.Internal.Correction.Weighted>
   9.000000E+99

> <Gold.Protein.RotatedTorsions>
[ 6907 6896 6895 6894 ] final  142.57 input  -60.11 | X-H torsion
[ 7974 7965 7964 7962 ] final   92.79 input  175.53 | X-H torsion
[ 8008 7997 7996 7995 ] final   -5.73 input   59.86 | X-H torsion
[ 10167 10162 10161 10158 ] final  -87.93 input  -65.29 | X-H torsion
[ 10718 10713 10712 10709 ] final  124.72 input   66.30 | X-H torsion
[ 10763 10752 10751 10750 ] final   -3.19 input  -60.55 | X-H torsion
[ 11005 11000 10999 10996 ] final   43.19 input  -57.11 | X-H torsion

> <Gold.Protein.ActiveResidues>
 VAL166  LYS551  ARG553  GLY616  TRP617  ASP618  TYR619  PRO620  LYS621  CYS622 
 ASP623  PHE694  ASN695  SER759  ASP760  ASP761  ALA762  ILE779  LEU786  VAL792 
 PHE793  MET794  SER795  GLU796  ALA797  LYS798  CYS799  TRP800  GLU811  SER814 

> <Gold.Protein.RotatedAtoms>
  152.2170  133.4954  159.5141 H   0  0  0  0  0  0  0  0  0  0  0  0  # atno 6907 bound_to 6896
  150.7003  134.1392  159.4107 H   0  0  0  0  0  0  0  0  0  0  0  0  # atno 6908 bound_to 6896
  151.9312  135.0255  160.0580 H   0  0  0  0  0  0  0  0  0  0  0  0  # atno 6909 bound_to 6896
  145.4876  139.2277  143.2848 H   0  0  0  0  0  0  0  0  0  0  0  0  # atno 7974 bound_to 7965
  154.6009  140.2451  155.7794 H   0  0  0  0  0  0  0  0  0  0  0  0  # atno 8008 bound_to 7997
  156.2310  140.2966  156.0140 H   0  0  0  0  0  0  0  0  0  0  0  0  # atno 8009 bound_to 7997
  155.2213  140.0400  157.2939 H   0  0  0  0  0  0  0  0  0  0  0  0  # atno 8010 bound_to 7997
  140.3796  143.2755  151.9400 H   0  0  0  0  0  0  0  0  0  0  0  0  # atno 10167 bound_to 10162
  157.5562  131.1092  150.8617 H   0  0  0  0  0  0  0  0  0  0  0  0  # atno 10718 bound_to 10713
  153.3680  135.6993  153.6660 H   0  0  0  0  0  0  0  0  0  0  0  0  # atno 10763 bound_to 10752
  153.5321  135.3590  155.2681 H   0  0  0  0  0  0  0  0  0  0  0  0  # atno 10764 bound_to 10752
  154.8677  135.4183  154.2952 H   0  0  0  0  0  0  0  0  0  0  0  0  # atno 10765 bound_to 10752
  140.1668  134.4272  155.8282 H   0  0  0  0  0  0  0  0  0  0  0  0  # atno 11005 bound_to 11000
  146.2304  140.5667  142.8978 LP  0  0  0  0  0  0  0  0  0  0  0  0  # atno 17320 bound_to 7965
  144.7852  140.5923  143.6578 LP  0  0  0  0  0  0  0  0  0  0  0  0  # atno 17321 bound_to 7965
  139.4796  144.5830  151.7900 LP  0  0  0  0  0  0  0  0  0  0  0  0  # atno 17342 bound_to 10162
  140.4950  144.1253  150.5958 LP  0  0  0  0  0  0  0  0  0  0  0  0  # atno 17343 bound_to 10162
  156.9128  130.5287  149.5280 LP  0  0  0  0  0  0  0  0  0  0  0  0  # atno 17370 bound_to 10713
  156.0621  130.5671  150.9213 LP  0  0  0  0  0  0  0  0  0  0  0  0  # atno 17371 bound_to 10713
  141.2214  133.6938  156.7692 LP  0  0  0  0  0  0  0  0  0  0  0  0  # atno 17394 bound_to 11000
  140.2424  134.8603  157.3587 LP  0  0  0  0  0  0  0  0  0  0  0  0  # atno 17395 bound_to 11000

$$$$
