AV-unprocessed.smi:1057|AV-procd|sdf|4650|dock2
  -GOLD-   22720 3153D 1   1.00000     0.00000
 Structure written by MMmdl.
 44 45  0  0  0  0  0  0  0  0  1 V2000
  142.9926  133.9290  162.1423 C   0  0  0  0  0  0  0  0  0  0  0  0
  144.0546  134.4887  162.3662 C   0  0  0  0  0  0  0  0  0  0  0  0
  145.3380  135.1670  162.6150 C   0  0  0  0  0  0  0  0  0  0  0  0
  146.2936  134.9770  161.5300 N   0  0  0  0  0  0  0  0  0  0  0  0
  147.2225  135.8677  161.1383 C   0  0  0  0  0  0  0  0  0  0  0  0
  147.3595  136.9660  161.6756 O   0  0  0  0  0  0  0  0  0  0  0  0
  148.1406  135.4942  159.9631 C   0  0  0  0  0  0  0  0  0  0  0  0
  148.8399  136.6251  159.3531 N   0  0  0  0  0  0  0  0  0  0  0  0
  149.6419  136.5528  158.2807 C   0  0  0  0  0  0  0  0  0  0  0  0
  149.9110  135.5015  157.6999 O   0  0  0  0  0  0  0  0  0  0  0  0
  150.0747  137.7707  157.9178 N   0  0  0  0  0  0  0  0  0  0  0  0
  150.8746  138.1129  156.7924 C   0  0  0  0  0  0  0  0  0  0  0  0
  150.7879  137.4286  155.5564 C   0  0  0  0  0  0  0  0  0  0  0  0
  151.6342  137.8146  154.5007 C   0  0  0  0  0  0  0  0  0  0  0  0
  152.5431  138.8657  154.7209 C   0  0  0  0  0  0  0  0  0  0  0  0
  152.6472  139.5186  155.8968 N   0  0  0  0  0  0  0  0  0  0  0  0
  151.8339  139.1495  156.9154 C   0  0  0  0  0  0  0  0  0  0  0  0
  151.9617  139.8466  158.1279 N   0  0  0  0  0  0  0  0  0  0  0  0
  153.1929  139.5418  158.8508 C   0  0  0  0  0  0  0  0  0  0  0  0
  153.1489  140.1355  160.2694 C   0  0  0  0  0  0  0  0  0  0  0  0
  152.8474  141.6428  160.2251 C   0  0  0  0  0  0  0  0  0  0  0  0
  151.5626  141.9069  159.4224 C   0  0  0  0  0  0  0  0  0  0  0  0
  151.6477  141.2691  158.0251 C   0  0  0  0  0  0  0  0  0  0  0  0
  142.0648  133.4425  161.9403 H   0  0  0  0  0  0  0  0  0  0  0  0
  145.1461  136.2259  162.7930 H   0  0  0  0  0  0  0  0  0  0  0  0
  145.7617  134.7585  163.5326 H   0  0  0  0  0  0  0  0  0  0  0  0
  146.2507  134.0969  161.0372 H   0  0  0  0  0  0  0  0  0  0  0  0
  148.8915  134.7929  160.3272 H   0  0  0  0  0  0  0  0  0  0  0  0
  147.5585  134.9576  159.2119 H   0  0  0  0  0  0  0  0  0  0  0  0
  148.6762  137.5326  159.7637 H   0  0  0  0  0  0  0  0  0  0  0  0
  149.6927  138.5522  158.4301 H   0  0  0  0  0  0  0  0  0  0  0  0
  150.1005  136.6098  155.4082 H   0  0  0  0  0  0  0  0  0  0  0  0
  151.5910  137.3128  153.5455 H   0  0  0  0  0  0  0  0  0  0  0  0
  153.2081  139.1877  153.9334 H   0  0  0  0  0  0  0  0  0  0  0  0
  153.3319  138.4610  158.9031 H   0  0  0  0  0  0  0  0  0  0  0  0
  154.0449  139.9484  158.3041 H   0  0  0  0  0  0  0  0  0  0  0  0
  152.3801  139.6270  160.8529 H   0  0  0  0  0  0  0  0  0  0  0  0
  154.0954  139.9561  160.7796 H   0  0  0  0  0  0  0  0  0  0  0  0
  152.7490  142.0384  161.2364 H   0  0  0  0  0  0  0  0  0  0  0  0
  153.6829  142.1696  159.7627 H   0  0  0  0  0  0  0  0  0  0  0  0
  150.7059  141.4963  159.9584 H   0  0  0  0  0  0  0  0  0  0  0  0
  151.3883  142.9794  159.3339 H   0  0  0  0  0  0  0  0  0  0  0  0
  152.4167  141.7700  157.4352 H   0  0  0  0  0  0  0  0  0  0  0  0
  150.7021  141.4011  157.4973 H   0  0  0  0  0  0  0  0  0  0  0  0
  1  2  3  0  0  0  0
  1 24  1  0  0  0  0
  2  3  1  0  0  0  0
  3  4  1  0  0  0  0
  3 25  1  0  0  0  0
  3 26  1  0  0  0  0
  4  5  1  0  0  0  0
  4 27  1  0  0  0  0
  5  6  2  0  0  0  0
  5  7  1  0  0  0  0
  7  8  1  0  0  0  0
  7 28  1  0  0  0  0
  7 29  1  0  0  0  0
  8  9  1  0  0  0  0
  8 30  1  0  0  0  0
  9 10  2  0  0  0  0
  9 11  1  0  0  0  0
 11 12  1  0  0  0  0
 11 31  1  0  0  0  0
 12 17  1  0  0  0  0
 12 13  2  0  0  0  0
 13 14  1  0  0  0  0
 13 32  1  0  0  0  0
 14 15  2  0  0  0  0
 14 33  1  0  0  0  0
 15 16  1  0  0  0  0
 15 34  1  0  0  0  0
 16 17  2  0  0  0  0
 17 18  1  0  0  0  0
 18 23  1  0  0  0  0
 18 19  1  0  0  0  0
 19 20  1  0  0  0  0
 19 35  1  0  0  0  0
 19 36  1  0  0  0  0
 20 21  1  0  0  0  0
 20 37  1  0  0  0  0
 20 38  1  0  0  0  0
 21 22  1  0  0  0  0
 21 39  1  0  0  0  0
 21 40  1  0  0  0  0
 22 23  1  0  0  0  0
 22 41  1  0  0  0  0
 22 42  1  0  0  0  0
 23 43  1  0  0  0  0
 23 44  1  0  0  0  0
M  END
> <s_m_source_file>
AV-unprocessed.smi

> <i_m_source_file_index>
1057

> <i_lp_mmshare_version>
43012

> <i_f3d_flags>
0

> <s_epik_input>
W0NIXSNDW0NIMl1bTkhdQyg9TylbQ0gyXVtOSF1DKD1PKVtOSF1jMVtjSF1bY0hdW2NIXW5jMU4yW0NIMl1bQ0gyXVtDSDJdW0NIMl1bQ0gyXTI=

> <s_epik_cmdline>
J2VwaWtfcHl0aG9uJywgJy1waCcsICc3LjAnLCAnLXRuJywgJzgnLCAnLW1hJywgJzIwMCcsICctbWV0YWxfYmluZGluZycsICctaW1hZScsICc8aW5maWxlLm1hZT4nLCAnLW9tYWUnLCAnPG91dGZpbGUubWFlPic=

> <r_lp_tautomer_probability>
1

> <r_epik_Ionization_Penalty>
0.251144

> <r_epik_Ionization_Penalty_Charging>
0

> <r_epik_Ionization_Penalty_Neutral>
0.251144

> <r_epik_State_Penalty>
0.236346

> <r_epik_Charging_Adjusted_Penalty>
0.236346

> <i_epik_Tot_Q>
0

> <i_epik_Tot_abs_Q>
0

> <r_epik_Metal_State_Penalty>
0.166327

> <b_epik_Metal_Only>
0

> <s_lp_Force_Field>
OPLS_2005

> <r_lp_Energy>
16.5817

> <b_lp_Chiralities_Consistent>
1

> <s_lp_Variant>
AV-unprocessed.smi:1057-1

> <Gold.Version>
5.8.1

> <Gold.Id.Protein>
6NUR|6NUR_protein|mol2

> <Gold.PLP.Fitness>
47.0281

> <Gold.PLP.PLP>
-37.7809

> <Gold.PLP.part.hbond>
-4.0000

> <Gold.PLP.part.metal>
0.0000

> <Gold.PLP.part.buried>
-5.3529

> <Gold.PLP.part.nonpolar>
-29.1658

> <Gold.PLP.part.repulsive>
0.3148

> <Gold.PLP.ligand.clash>
0.0000

> <Gold.PLP.ligand.torsion>
0.7749

> <Gold.PLP.Chemscore.Hbond>
3.5280

> <Gold.PLP.Chemscore.CHOScore>
0.0000

> <Gold.PLP.Chemscore.Metal>
0.0000

> <Gold.Chemscore.Hbonds>
donor molecule, donor type, donor heavy atom, donor atom, acceptor molecule, acceptor atom, score
      P1  H  6896  6909       L1    10  0.34
      P1  H  6931  6943       L1     6  0.78
      P1  H  6934  6947       L1     6  0.53
      P1  H  7997  8008       L1    16  1.00

> <Gold.PLP.Chemscore.Internal.Correction>
0.2130

> <Gold.Rescore>
     Score         DG    S(hbond)    S(metal)    S(lipo)     H(rot)  DE(clash)    DE(int)     intcor
     20.03     -21.68       3.02        0.00      91.40       1.79       0.09       1.56       ----

> <Gold.Chemscore.Fitness>
20.0291

> <Gold.Chemscore.DG>
-21.6848

> <Gold.Chemscore.ZeroCoef>
-5.4800

> <Gold.Chemscore.Hbond>
3.0189

> <Gold.Chemscore.Metal>
0.0000

> <Gold.Chemscore.Lipo>
91.4004

> <Gold.Chemscore.Internal_Hbond>
0.0000

> <Gold.Chemscore.DEClash>
0.0944

> <Gold.Chemscore.DEInternal>
1.5613

> <Gold.Chemscore.Rot>
1.7860

> <Gold.Chemscore.Internal.Correction>
   9.000000E+99

> <Gold.Chemscore.Hbonds>
donor molecule, donor type, donor heavy atom, donor atom, acceptor molecule, acceptor atom, score
      P1  H  6896  6909       L1    10  0.03
      P1  H  6931  6943       L1     6  0.72
      P1  H  6934  6947       L1     6  0.52
      P1  H  7997  8008       L1    16  0.48

> <Gold.Chemscore.Hbond.Weighted>
-10.0830

> <Gold.Chemscore.Metal.Weighted>
-0.0000

> <Gold.Chemscore.Lipo.Weighted>
-10.6939

> <Gold.Chemscore.Internal_Hbond.Weighted>
0.0000

> <Gold.Chemscore.DEClash.Weighted>
0.0944

> <Gold.Chemscore.DEInternal.Weighted>
1.5613

> <Gold.Chemscore.Rot.Weighted>
4.5721

> <Gold.Chemscore.Internal.Correction.Weighted>
   9.000000E+99

> <Gold.Protein.RotatedTorsions>
[ 6907 6896 6895 6894 ] final   48.80 input  -60.11 | X-H torsion
[ 7974 7965 7964 7962 ] final  -53.40 input  175.53 | X-H torsion
[ 8008 7997 7996 7995 ] final  -17.34 input   59.86 | X-H torsion
[ 10167 10162 10161 10158 ] final    7.58 input  -65.29 | X-H torsion
[ 10718 10713 10712 10709 ] final  -58.41 input   66.30 | X-H torsion
[ 10763 10752 10751 10750 ] final -153.30 input  -60.55 | X-H torsion
[ 11005 11000 10999 10996 ] final    8.73 input  -57.11 | X-H torsion

> <Gold.Protein.ActiveResidues>
 VAL166  LYS551  ARG553  GLY616  TRP617  ASP618  TYR619  PRO620  LYS621  CYS622 
 ASP623  PHE694  ASN695  SER759  ASP760  ASP761  ALA762  ILE779  LEU786  VAL792 
 PHE793  MET794  SER795  GLU796  ALA797  LYS798  CYS799  TRP800  GLU811  SER814 

> <Gold.Protein.RotatedAtoms>
  152.2836  134.7800  160.0391 H   0  0  0  0  0  0  0  0  0  0  0  0  # atno 6907 bound_to 6896
  151.8371  133.3412  159.3639 H   0  0  0  0  0  0  0  0  0  0  0  0  # atno 6908 bound_to 6896
  150.7200  134.5356  159.5766 H   0  0  0  0  0  0  0  0  0  0  0  0  # atno 6909 bound_to 6896
  145.8973  140.8023  142.9761 H   0  0  0  0  0  0  0  0  0  0  0  0  # atno 7974 bound_to 7965
  154.4985  140.2145  155.9395 H   0  0  0  0  0  0  0  0  0  0  0  0  # atno 8008 bound_to 7997
  156.1403  140.3181  155.8452 H   0  0  0  0  0  0  0  0  0  0  0  0  # atno 8009 bound_to 7997
  155.4133  140.0492  157.3021 H   0  0  0  0  0  0  0  0  0  0  0  0  # atno 8010 bound_to 7997
  140.6363  143.7877  150.7365 H   0  0  0  0  0  0  0  0  0  0  0  0  # atno 10167 bound_to 10162
  156.1137  130.4172  150.0573 H   0  0  0  0  0  0  0  0  0  0  0  0  # atno 10718 bound_to 10713
  154.7937  135.3216  154.7718 H   0  0  0  0  0  0  0  0  0  0  0  0  # atno 10763 bound_to 10752
  153.8401  135.6871  153.4808 H   0  0  0  0  0  0  0  0  0  0  0  0  # atno 10764 bound_to 10752
  153.1618  135.4658  154.9724 H   0  0  0  0  0  0  0  0  0  0  0  0  # atno 10765 bound_to 10752
  140.5337  134.0441  155.7881 H   0  0  0  0  0  0  0  0  0  0  0  0  # atno 11005 bound_to 11000
  144.6733  140.1622  143.7421 LP  0  0  0  0  0  0  0  0  0  0  0  0  # atno 17320 bound_to 7965
  145.8835  139.2336  143.1591 LP  0  0  0  0  0  0  0  0  0  0  0  0  # atno 17321 bound_to 7965
  140.1500  143.4366  152.2138 LP  0  0  0  0  0  0  0  0  0  0  0  0  # atno 17342 bound_to 10162
  139.5574  144.7382  151.4255 LP  0  0  0  0  0  0  0  0  0  0  0  0  # atno 17343 bound_to 10162
  156.8530  130.9465  151.3624 LP  0  0  0  0  0  0  0  0  0  0  0  0  # atno 17370 bound_to 10713
  157.6320  130.8736  149.9291 LP  0  0  0  0  0  0  0  0  0  0  0  0  # atno 17371 bound_to 10713
  141.1267  133.9372  157.2621 LP  0  0  0  0  0  0  0  0  0  0  0  0  # atno 17394 bound_to 11000
  139.9540  135.0169  156.9076 LP  0  0  0  0  0  0  0  0  0  0  0  0  # atno 17395 bound_to 11000

$$$$
