#       Name:                AV-unprocessed.smi:754
#       Creating user name   scv26
#       Creation time:       Fri Mar 27 01:00:40 2020


#       File generated by GOLD software.
#

@<TRIPOS>MOLECULE
AV-unprocessed.smi:754
    44    45     1
SMALL
NO_CHARGES


@<TRIPOS>ATOM
      1 ****        -4.8210   1.3675  -0.1085 C.3            1 S1                 0.0000
      2 ****        -3.3062   1.5844  -0.1012 C.3            1 S1                 0.0000
      3 ****        -2.6680   0.3557   0.2032 O.3            1 S1                 0.0000
      4 ****        -1.2529   0.4588   0.2212 C.3            1 S1                 0.0000
      5 ****        -0.6761   1.1182   1.4774 C.3            1 S1                 0.0000
      6 ****         0.4094   0.0369   1.4616 C.3            1 S1                 0.0000
      7 ****         1.5882   0.4890   0.7239 N.am           1 S1                 0.0000
      8 ****         2.7970  -0.0886   0.7858 C.2            1 S1                 0.0000
      9 ****         3.0702  -1.0169   1.5459 O.2            1 S1                 0.0000
     10 ****         3.8497   0.4402  -0.1871 C.3            1 S1                 0.0000
     11 ****         3.5385   0.0242  -1.5419 N.pl3          1 S1                 0.0000
     12 ****         3.7341  -1.1374  -2.1694 C.2            1 S1                 0.0000
     13 ****         3.2671  -1.1082  -3.4081 N.2            1 S1                 0.0000
     14 ****         2.7564   0.1741  -3.5220 N.2            1 S1                 0.0000
     15 ****         2.9132   0.8503  -2.4174 N.2            1 S1                 0.0000
     16 ****        -0.5471  -0.8593   0.6219 C.3            1 S1                 0.0000
     17 ****        -1.3811  -1.8370   1.4606 C.3            1 S1                 0.0000
     18 ****         0.0479  -1.6752  -0.5331 C.3            1 S1                 0.0000
     19 ****        -5.3460   2.2952  -0.3359 H              1 S1                 0.0000
     20 ****        -5.1701   1.0143   0.8621 H              1 S1                 0.0000
     21 ****        -5.1072   0.6287  -0.8574 H              1 S1                 0.0000
     22 ****        -2.9776   1.9474  -1.0760 H              1 S1                 0.0000
     23 ****        -3.0444   2.3421   0.6385 H              1 S1                 0.0000
     24 ****        -0.8434   0.8813  -0.6993 H              1 S1                 0.0000
     25 ****        -0.3235   2.1405   1.3347 H              1 S1                 0.0000
     26 ****        -1.3374   1.0411   2.3418 H              1 S1                 0.0000
     27 ****         0.6282  -0.3563   2.4561 H              1 S1                 0.0000
     28 ****         1.4560   1.2486   0.0714 H              1 S1                 0.0000
     29 ****         3.8956   1.5292  -0.1388 H              1 S1                 0.0000
     30 ****         4.8363   0.0593   0.0802 H              1 S1                 0.0000
     31 ****         4.2037  -1.9994  -1.7188 H              1 S1                 0.0000
     32 ****        -0.7619  -2.6337   1.8738 H              1 S1                 0.0000
     33 ****        -2.1674  -2.3060   0.8681 H              1 S1                 0.0000
     34 ****        -1.8675  -1.3412   2.3012 H              1 S1                 0.0000
     35 ****         0.7637  -2.4143  -0.1720 H              1 S1                 0.0000
     36 ****         0.5685  -1.0448  -1.2544 H              1 S1                 0.0000
     37 ****        -0.7253  -2.2083  -1.0871 H              1 S1                 0.0000
     38 ****        -2.9301  -0.3195  -0.4863 LP             1 S1                 0.0000
     39 ****        -2.9772   0.0499   1.1036 LP             1 S1                 0.0000
     40 ****         2.3718  -1.3805   2.1623 LP             1 S1                 0.0000
     41 ****         3.9907  -1.4077   1.5472 LP             1 S1                 0.0000
     42 ****         3.2800  -1.8353  -4.0945 LP             1 S1                 0.0000
     43 ****         2.3222   0.5360  -4.3469 LP             1 S1                 0.0000
     44 ****         2.6280   1.7938  -2.2490 LP             1 S1                 0.0000
@<TRIPOS>BOND
    1    1    2 1     
    2    1   19 1     
    3    1   20 1     
    4    1   21 1     
    5    2    3 1     
    6    2   22 1     
    7    2   23 1     
    8    3    4 1     
    9    4   16 1     
   10    4    5 1     
   11    4   24 1     
   12    5    6 1     
   13    5   25 1     
   14    5   26 1     
   15    6    7 1     
   16    6   16 1     
   17    6   27 1     
   18    7    8 am    
   19    7   28 1     
   20    8    9 2     
   21    8   10 1     
   22   10   11 1     
   23   10   29 1     
   24   10   30 1     
   25   11   15 1     
   26   11   12 1     
   27   12   13 2     
   28   12   31 1     
   29   13   14 1     
   30   14   15 2     
   31   16   17 1     
   32   16   18 1     
   33   17   32 1     
   34   17   33 1     
   35   17   34 1     
   36   18   35 1     
   37   18   36 1     
   38   18   37 1     
   39    3   38 1     
   40    3   39 1     
   41    9   40 1     
   42    9   41 1     
   43   13   42 1     
   44   14   43 1     
   45   15   44 1     
@<TRIPOS>SUBSTRUCTURE
      1 S1             1
@<TRIPOS>SET
LONE_PAIRS      STATIC     ATOMS    <user>   **** ""
7 38 39 40 41 42 43 44
DONOR_HYDROGENS      STATIC     ATOMS    <user>   **** ""
1 28
ATOM$BLUE        STATIC     ATOMS    COLORGROUP SYSTEM
7 38 39 40 41 42 43 44
ATOM$RED        STATIC     ATOMS    COLORGROUP SYSTEM
1 28
