AV-unprocessed.smi:438|AV-procd|sdf|2566|dock2
  -GOLD-   2262022543D 1   1.00000     0.00000
 Structure written by MMmdl.
 48 49  0  0  0  0  0  0  0  0  1 V2000
  148.0862  136.6055  163.2725 C   0  0  0  0  0  0  0  0  0  0  0  0
  148.3349  136.0819  161.8689 C   0  0  0  0  0  0  0  0  0  0  0  0
  148.8884  137.0040  160.9734 N   0  0  0  0  0  0  0  0  0  0  0  0
  149.1680  136.6501  159.7599 C   0  0  0  0  0  0  0  0  0  0  0  0
  149.9154  137.6211  158.4136 S   0  0  0  0  0  0  0  0  0  0  0  0
  151.6052  137.9043  159.0264 C   0  0  0  0  0  0  0  0  0  0  0  0
  152.2166  139.2094  158.5161 C   0  0  0  0  0  0  0  0  0  0  0  0
  153.1966  139.1786  157.7727 O   0  0  0  0  0  0  0  0  0  0  0  0
  151.6424  140.3421  158.9564 N   0  0  0  0  0  0  0  0  0  0  0  0
  152.1028  141.7168  158.7508 C   0  0  1  0  0  0  0  0  0  0  0  0
  151.0689  142.5426  157.9548 C   0  0  0  0  0  0  0  0  0  0  0  0
  151.6023  143.9486  157.6468 C   0  0  0  0  0  0  0  0  0  0  0  0
  152.0211  144.6726  158.9352 C   0  0  0  0  0  0  0  0  0  0  0  0
  153.0527  143.8530  159.7276 C   0  0  0  0  0  0  0  0  0  0  0  0
  152.5343  142.4378  160.0561 C   0  0  2  0  0  0  0  0  0  0  0  0
  153.5871  141.6469  160.8526 C   0  0  0  0  0  0  0  0  0  0  0  0
  148.9014  135.3513  159.3262 N   0  0  0  0  0  0  0  0  0  0  0  0
  148.3600  134.3901  160.1073 C   0  0  0  0  0  0  0  0  0  0  0  0
  148.1565  133.2635  159.6573 O   0  0  0  0  0  0  0  0  0  0  0  0
  148.0544  134.8040  161.4873 C   0  0  0  0  0  0  0  0  0  0  0  0
  147.4652  133.7540  162.4292 C   0  0  0  0  0  0  0  0  0  0  0  0
  146.0250  134.0709  162.8691 C   0  0  0  0  0  0  0  0  0  0  0  0
  145.3338  132.8898  163.2172 O   0  0  0  0  0  0  0  0  0  0  0  0
  147.0491  136.4461  163.5673 H   0  0  0  0  0  0  0  0  0  0  0  0
  148.2914  137.6747  163.3389 H   0  0  0  0  0  0  0  0  0  0  0  0
  148.7341  136.0976  163.9872 H   0  0  0  0  0  0  0  0  0  0  0  0
  152.2314  137.0511  158.7611 H   0  0  0  0  0  0  0  0  0  0  0  0
  151.5732  137.9423  160.1154 H   0  0  0  0  0  0  0  0  0  0  0  0
  150.8384  140.2384  159.5588 H   0  0  0  0  0  0  0  0  0  0  0  0
  152.9896  141.6212  158.1227 H   0  0  0  0  0  0  0  0  0  0  0  0
  150.8212  142.0344  157.0218 H   0  0  0  0  0  0  0  0  0  0  0  0
  150.1373  142.6297  158.5148 H   0  0  0  0  0  0  0  0  0  0  0  0
  152.4559  143.8769  156.9716 H   0  0  0  0  0  0  0  0  0  0  0  0
  150.8408  144.5284  157.1239 H   0  0  0  0  0  0  0  0  0  0  0  0
  152.4338  145.6521  158.6920 H   0  0  0  0  0  0  0  0  0  0  0  0
  151.1427  144.8528  159.5563 H   0  0  0  0  0  0  0  0  0  0  0  0
  153.9772  143.7826  159.1530 H   0  0  0  0  0  0  0  0  0  0  0  0
  153.3032  144.3810  160.6484 H   0  0  0  0  0  0  0  0  0  0  0  0
  151.6603  142.5563  160.6973 H   0  0  0  0  0  0  0  0  0  0  0  0
  154.4838  141.4710  160.2578 H   0  0  0  0  0  0  0  0  0  0  0  0
  153.2041  140.6785  161.1748 H   0  0  0  0  0  0  0  0  0  0  0  0
  153.8850  142.1886  161.7506 H   0  0  0  0  0  0  0  0  0  0  0  0
  149.1287  135.1066  158.3736 H   0  0  0  0  0  0  0  0  0  0  0  0
  148.0927  133.6244  163.3102 H   0  0  0  0  0  0  0  0  0  0  0  0
  147.4843  132.7867  161.9256 H   0  0  0  0  0  0  0  0  0  0  0  0
  146.0134  134.7564  163.7167 H   0  0  0  0  0  0  0  0  0  0  0  0
  145.4864  134.5601  162.0573 H   0  0  0  0  0  0  0  0  0  0  0  0
  144.6475  132.7455  162.5833 H   0  0  0  0  0  0  0  0  0  0  0  0
  1 24  1  0  0  0  0
  1 25  1  0  0  0  0
  1 26  1  0  0  0  0
  1  2  1  0  0  0  0
  2 20  2  0  0  0  0
  2  3  1  0  0  0  0
  3  4  2  0  0  0  0
  4  5  1  0  0  0  0
  4 17  1  0  0  0  0
  5  6  1  0  0  0  0
  6  7  1  0  0  0  0
  6 27  1  0  0  0  0
  6 28  1  0  0  0  0
  7  8  2  0  0  0  0
  7  9  1  0  0  0  0
  9 10  1  0  0  0  0
  9 29  1  0  0  0  0
 10 15  1  0  0  0  0
 10 11  1  0  0  0  0
 10 30  1  0  0  0  0
 11 12  1  0  0  0  0
 11 31  1  0  0  0  0
 11 32  1  0  0  0  0
 12 13  1  0  0  0  0
 12 33  1  0  0  0  0
 12 34  1  0  0  0  0
 13 14  1  0  0  0  0
 13 35  1  0  0  0  0
 13 36  1  0  0  0  0
 14 15  1  0  0  0  0
 14 37  1  0  0  0  0
 14 38  1  0  0  0  0
 15 16  1  0  0  0  0
 15 39  1  0  0  0  0
 16 40  1  0  0  0  0
 16 41  1  0  0  0  0
 16 42  1  0  0  0  0
 17 43  1  0  0  0  0
 17 18  1  0  0  0  0
 18 19  2  0  0  0  0
 18 20  1  0  0  0  0
 20 21  1  0  0  0  0
 21 22  1  0  0  0  0
 21 44  1  0  0  0  0
 21 45  1  0  0  0  0
 22 23  1  0  0  0  0
 22 46  1  0  0  0  0
 22 47  1  0  0  0  0
 23 48  1  0  0  0  0
M  END
> <s_m_source_file>
AV-unprocessed.smi

> <i_m_source_file_index>
438

> <i_lp_mmshare_version>
43012

> <i_f3d_flags>
0

> <s_epik_input>
W09IXVtDSDJdW0NIMl1jMWMoW09IXSluYyhuYzFbQ0gzXSlTW0NIMl1DKD1PKVtOSF1bQ0BASF0yW0NIMl1bQ0gyXVtDSDJdW0NIMl1bQ0BIXTJbQ0gzXQ==

> <s_epik_cmdline>
J2VwaWtfcHl0aG9uJywgJy1waCcsICc3LjAnLCAnLXRuJywgJzgnLCAnLW1hJywgJzIwMCcsICctbWV0YWxfYmluZGluZycsICctaW1hZScsICc8aW5maWxlLm1hZT4nLCAnLW9tYWUnLCAnPG91dGZpbGUubWFlPic=

> <r_lp_tautomer_probability>
0.660323

> <r_epik_Ionization_Penalty>
0.00860626

> <r_epik_Ionization_Penalty_Charging>
0.00860522

> <r_epik_Ionization_Penalty_Neutral>
1.04215e-06

> <r_epik_State_Penalty>
0.156825

> <r_epik_Charging_Adjusted_Penalty>
0.16543

> <i_epik_Tot_Q>
0

> <i_epik_Tot_abs_Q>
0

> <r_epik_Metal_State_Penalty>
0.752038

> <b_epik_Metal_Only>
0

> <s_lp_Force_Field>
OPLS_2005

> <r_lp_Energy>
14.076

> <b_lp_Chiralities_Consistent>
1

> <s_lp_Variant>
AV-unprocessed.smi:438-4

> <Gold.Version>
5.8.1

> <Gold.Id.Protein>
6NUR|6NUR_protein|mol2

> <Gold.PLP.Fitness>
58.0034

> <Gold.PLP.PLP>
-52.3086

> <Gold.PLP.part.hbond>
-3.9659

> <Gold.PLP.part.metal>
0.0000

> <Gold.PLP.part.buried>
-5.5978

> <Gold.PLP.part.nonpolar>
-43.7807

> <Gold.PLP.part.repulsive>
0.2820

> <Gold.PLP.ligand.clash>
0.0000

> <Gold.PLP.ligand.torsion>
0.4698

> <Gold.PLP.Chemscore.Hbond>
2.1452

> <Gold.PLP.Chemscore.CHOScore>
0.0000

> <Gold.PLP.Chemscore.Metal>
0.0000

> <Gold.Chemscore.Hbonds>
donor molecule, donor type, donor heavy atom, donor atom, acceptor molecule, acceptor atom, score
      P1  H  6931  6943       L1     3  0.93
      P1  H  7997  8008       L1     8  1.00

> <Gold.PLP.Chemscore.Internal.Correction>
0.1989

> <Gold.Rescore>
     Score         DG    S(hbond)    S(metal)    S(lipo)     H(rot)  DE(clash)    DE(int)     intcor
     17.76     -18.43       1.81        0.00     121.63       2.86       0.15       0.53       ----

> <Gold.Chemscore.Fitness>
17.7619

> <Gold.Chemscore.DG>
-18.4344

> <Gold.Chemscore.ZeroCoef>
-5.4800

> <Gold.Chemscore.Hbond>
1.8136

> <Gold.Chemscore.Metal>
0.0000

> <Gold.Chemscore.Lipo>
121.6260

> <Gold.Chemscore.Internal_Hbond>
0.0000

> <Gold.Chemscore.DEClash>
0.1456

> <Gold.Chemscore.DEInternal>
0.5268

> <Gold.Chemscore.Rot>
2.8645

> <Gold.Chemscore.Internal.Correction>
   9.000000E+99

> <Gold.Chemscore.Hbonds>
donor molecule, donor type, donor heavy atom, donor atom, acceptor molecule, acceptor atom, score
      P1  H  6931  6943       L1     3  0.26
      P1  H  7997  8008       L1     8  0.98

> <Gold.Chemscore.Hbond.Weighted>
-6.0573

> <Gold.Chemscore.Metal.Weighted>
-0.0000

> <Gold.Chemscore.Lipo.Weighted>
-14.2302

> <Gold.Chemscore.Internal_Hbond.Weighted>
0.0000

> <Gold.Chemscore.DEClash.Weighted>
0.1456

> <Gold.Chemscore.DEInternal.Weighted>
0.5268

> <Gold.Chemscore.Rot.Weighted>
7.3331

> <Gold.Chemscore.Internal.Correction.Weighted>
   9.000000E+99

> <Gold.Protein.RotatedTorsions>
[ 6907 6896 6895 6894 ] final  143.78 input  -60.11 | X-H torsion
[ 7974 7965 7964 7962 ] final  131.20 input  175.53 | X-H torsion
[ 8008 7997 7996 7995 ] final  -97.14 input   59.86 | X-H torsion
[ 10167 10162 10161 10158 ] final -179.27 input  -65.29 | X-H torsion
[ 10718 10713 10712 10709 ] final  -81.68 input   66.30 | X-H torsion
[ 10763 10752 10751 10750 ] final -104.41 input  -60.55 | X-H torsion
[ 11005 11000 10999 10996 ] final -168.52 input  -57.11 | X-H torsion

> <Gold.Protein.ActiveResidues>
 VAL166  LYS551  ARG553  GLY616  TRP617  ASP618  TYR619  PRO620  LYS621  CYS622 
 ASP623  PHE694  ASN695  SER759  ASP760  ASP761  ALA762  ILE779  LEU786  VAL792 
 PHE793  MET794  SER795  GLU796  ALA797  LYS798  CYS799  TRP800  GLU811  SER814 

> <Gold.Protein.RotatedAtoms>
  152.2020  133.4848  159.5063 H   0  0  0  0  0  0  0  0  0  0  0  0  # atno 6907 bound_to 6896
  150.6971  134.1578  159.4174 H   0  0  0  0  0  0  0  0  0  0  0  0  # atno 6908 bound_to 6896
  151.9496  135.0175  160.0592 H   0  0  0  0  0  0  0  0  0  0  0  0  # atno 6909 bound_to 6896
  145.0098  139.4231  143.5250 H   0  0  0  0  0  0  0  0  0  0  0  0  # atno 7974 bound_to 7965
  154.7837  140.0465  157.1147 H   0  0  0  0  0  0  0  0  0  0  0  0  # atno 8008 bound_to 7997
  154.9673  140.3085  155.4984 H   0  0  0  0  0  0  0  0  0  0  0  0  # atno 8009 bound_to 7997
  156.2940  140.2259  156.4763 H   0  0  0  0  0  0  0  0  0  0  0  0  # atno 8010 bound_to 7997
  139.5394  144.2406  152.0863 H   0  0  0  0  0  0  0  0  0  0  0  0  # atno 10167 bound_to 10162
  156.0046  130.4611  150.3989 H   0  0  0  0  0  0  0  0  0  0  0  0  # atno 10718 bound_to 10713
  154.7876  135.4787  153.9981 H   0  0  0  0  0  0  0  0  0  0  0  0  # atno 10763 bound_to 10752
  153.1583  135.6804  153.8787 H   0  0  0  0  0  0  0  0  0  0  0  0  # atno 10764 bound_to 10752
  153.8409  135.3179  155.3404 H   0  0  0  0  0  0  0  0  0  0  0  0  # atno 10765 bound_to 10752
  140.5411  134.5522  157.5100 H   0  0  0  0  0  0  0  0  0  0  0  0  # atno 11005 bound_to 11000
  146.3468  139.9536  142.8726 LP  0  0  0  0  0  0  0  0  0  0  0  0  # atno 17320 bound_to 7965
  145.2038  140.9866  143.4140 LP  0  0  0  0  0  0  0  0  0  0  0  0  # atno 17321 bound_to 7965
  140.1882  144.4778  150.6493 LP  0  0  0  0  0  0  0  0  0  0  0  0  # atno 17342 bound_to 10162
  140.6617  143.2254  151.5841 LP  0  0  0  0  0  0  0  0  0  0  0  0  # atno 17343 bound_to 10162
  157.2059  131.0449  151.2625 LP  0  0  0  0  0  0  0  0  0  0  0  0  # atno 17370 bound_to 10713
  157.3933  130.7294  149.6713 LP  0  0  0  0  0  0  0  0  0  0  0  0  # atno 17371 bound_to 10713
  139.9504  134.7628  156.0463 LP  0  0  0  0  0  0  0  0  0  0  0  0  # atno 17394 bound_to 11000
  141.1227  133.6608  156.3255 LP  0  0  0  0  0  0  0  0  0  0  0  0  # atno 17395 bound_to 11000

$$$$
