AV-unprocessed.smi:796|AV-procd|sdf|3765|dock2
  -GOLD-   22720 1203D 1   1.00000     0.00000
 Structure written by MMmdl.
 46 47  0  0  0  0  0  0  0  0  1 V2000
  146.8655  133.5043  154.9614 C   0  0  0  0  0  0  0  0  0  0  0  0
  148.2844  132.9529  155.1901 C   0  0  0  0  0  0  0  0  0  0  0  0
  149.3365  133.3061  154.1001 C   0  0  1  0  0  0  0  0  0  0  0  0
  150.6962  132.6778  154.4758 C   0  0  0  0  0  0  0  0  0  0  0  0
  148.8635  132.7276  152.7387 C   0  0  0  0  0  0  0  0  0  0  0  0
  148.8687  131.3128  152.7244 O   0  0  0  0  0  0  0  0  0  0  0  0
  149.5340  134.7608  154.0064 N   0  0  0  0  0  0  0  0  0  0  0  0
  150.0240  135.5991  154.9349 C   0  0  0  0  0  0  0  0  0  0  0  0
  150.4322  135.2413  156.0391 O   0  0  0  0  0  0  0  0  0  0  0  0
  150.0238  136.8645  154.4827 N   0  0  0  0  0  0  0  0  0  0  0  0
  150.3946  138.0538  155.1669 C   0  0  0  0  0  0  0  0  0  0  0  0
  150.2248  139.3600  154.6523 C   0  0  0  0  0  0  0  0  0  0  0  0
  150.6572  140.4576  155.4210 C   0  0  0  0  0  0  0  0  0  0  0  0
  151.2587  140.2288  156.6810 C   0  0  0  0  0  0  0  0  0  0  0  0
  151.7074  141.3160  157.4629 N   0  0  0  0  0  0  0  0  0  0  0  0
  152.2878  140.9659  158.7572 C   0  0  0  0  0  0  0  0  0  0  0  0
  153.0059  142.1808  159.3697 C   0  0  0  0  0  0  0  0  0  0  0  0
  152.1098  143.2842  159.4468 O   0  0  0  0  0  0  0  0  0  0  0  0
  151.6449  143.6791  158.1605 C   0  0  0  0  0  0  0  0  0  0  0  0
  150.8753  142.5173  157.5093 C   0  0  0  0  0  0  0  0  0  0  0  0
  151.4217  138.9746  157.1692 N   0  0  0  0  0  0  0  0  0  0  0  0
  151.0069  137.9254  156.4292 C   0  0  0  0  0  0  0  0  0  0  0  0
  146.2001  133.1841  155.7632 H   0  0  0  0  0  0  0  0  0  0  0  0
  146.4370  133.1481  154.0249 H   0  0  0  0  0  0  0  0  0  0  0  0
  146.8503  134.5936  154.9465 H   0  0  0  0  0  0  0  0  0  0  0  0
  148.6404  133.3061  156.1585 H   0  0  0  0  0  0  0  0  0  0  0  0
  148.2118  131.8699  155.2945 H   0  0  0  0  0  0  0  0  0  0  0  0
  150.6164  131.5955  154.5836 H   0  0  0  0  0  0  0  0  0  0  0  0
  151.0831  133.0748  155.4141 H   0  0  0  0  0  0  0  0  0  0  0  0
  151.4550  132.8742  153.7177 H   0  0  0  0  0  0  0  0  0  0  0  0
  147.8490  133.0629  152.5206 H   0  0  0  0  0  0  0  0  0  0  0  0
  149.4828  133.0831  151.9152 H   0  0  0  0  0  0  0  0  0  0  0  0
  148.8775  131.0219  151.8254 H   0  0  0  0  0  0  0  0  0  0  0  0
  149.2372  135.1776  153.1365 H   0  0  0  0  0  0  0  0  0  0  0  0
  149.7450  136.9901  153.5207 H   0  0  0  0  0  0  0  0  0  0  0  0
  149.7867  139.5452  153.6842 H   0  0  0  0  0  0  0  0  0  0  0  0
  150.5146  141.4572  155.0387 H   0  0  0  0  0  0  0  0  0  0  0  0
  151.4897  140.6313  159.4208 H   0  0  0  0  0  0  0  0  0  0  0  0
  152.9960  140.1429  158.6744 H   0  0  0  0  0  0  0  0  0  0  0  0
  153.3587  141.9407  160.3728 H   0  0  0  0  0  0  0  0  0  0  0  0
  153.8834  142.4511  158.7800 H   0  0  0  0  0  0  0  0  0  0  0  0
  150.9933  144.5463  158.2693 H   0  0  0  0  0  0  0  0  0  0  0  0
  152.4850  143.9879  157.5362 H   0  0  0  0  0  0  0  0  0  0  0  0
  150.5711  142.8055  156.5022 H   0  0  0  0  0  0  0  0  0  0  0  0
  149.9680  142.3064  158.0768 H   0  0  0  0  0  0  0  0  0  0  0  0
  151.1688  136.9495  156.8632 H   0  0  0  0  0  0  0  0  0  0  0  0
  1  2  1  0  0  0  0
  1 23  1  0  0  0  0
  1 24  1  0  0  0  0
  1 25  1  0  0  0  0
  2  3  1  0  0  0  0
  2 26  1  0  0  0  0
  2 27  1  0  0  0  0
  3  4  1  0  0  0  0
  3  5  1  0  0  0  0
  3  7  1  0  0  0  0
  4 28  1  0  0  0  0
  4 29  1  0  0  0  0
  4 30  1  0  0  0  0
  5  6  1  0  0  0  0
  5 31  1  0  0  0  0
  5 32  1  0  0  0  0
  6 33  1  0  0  0  0
  7  8  1  0  0  0  0
  7 34  1  0  0  0  0
  8  9  2  0  0  0  0
  8 10  1  0  0  0  0
 10 11  1  0  0  0  0
 10 35  1  0  0  0  0
 11 22  1  0  0  0  0
 11 12  2  0  0  0  0
 12 13  1  0  0  0  0
 12 36  1  0  0  0  0
 13 14  2  0  0  0  0
 13 37  1  0  0  0  0
 14 15  1  0  0  0  0
 14 21  1  0  0  0  0
 15 20  1  0  0  0  0
 15 16  1  0  0  0  0
 16 17  1  0  0  0  0
 16 38  1  0  0  0  0
 16 39  1  0  0  0  0
 17 18  1  0  0  0  0
 17 40  1  0  0  0  0
 17 41  1  0  0  0  0
 18 19  1  0  0  0  0
 19 20  1  0  0  0  0
 19 42  1  0  0  0  0
 19 43  1  0  0  0  0
 20 44  1  0  0  0  0
 20 45  1  0  0  0  0
 21 22  2  0  0  0  0
 22 46  1  0  0  0  0
M  END
> <s_m_source_file>
AV-unprocessed.smi

> <i_m_source_file_index>
796

> <i_lp_mmshare_version>
43012

> <i_f3d_flags>
0

> <s_epik_input>
W0NIM11bQ0gyXVtDQEBdKFtDSDNdKShbQ0gyXVtPSF0pW05IXUMoPU8pW05IXWMxW2NIXVtjSF1jKG5bY0hdMSlOMltDSDJdW0NIMl1PW0NIMl1bQ0gyXTI=

> <s_epik_cmdline>
J2VwaWtfcHl0aG9uJywgJy1waCcsICc3LjAnLCAnLXRuJywgJzgnLCAnLW1hJywgJzIwMCcsICctbWV0YWxfYmluZGluZycsICctaW1hZScsICc8aW5maWxlLm1hZT4nLCAnLW9tYWUnLCAnPG91dGZpbGUubWFlPic=

> <r_lp_tautomer_probability>
1

> <r_epik_Ionization_Penalty>
0.00214298

> <r_epik_Ionization_Penalty_Charging>
0

> <r_epik_Ionization_Penalty_Neutral>
0.00214298

> <r_epik_State_Penalty>
0.00144388

> <r_epik_Charging_Adjusted_Penalty>
0.00144388

> <i_epik_Tot_Q>
0

> <i_epik_Tot_abs_Q>
0

> <r_epik_Metal_State_Penalty>
-0

> <b_epik_Metal_Only>
0

> <s_lp_Force_Field>
OPLS_2005

> <r_lp_Energy>
27.2445

> <b_lp_Chiralities_Consistent>
1

> <s_lp_Variant>
AV-unprocessed.smi:796-1

> <Gold.Version>
5.8.1

> <Gold.Id.Protein>
6NUR|6NUR_protein|mol2

> <Gold.PLP.Fitness>
43.2362

> <Gold.PLP.PLP>
-34.6451

> <Gold.PLP.part.hbond>
-3.0000

> <Gold.PLP.part.metal>
0.0000

> <Gold.PLP.part.buried>
-3.0433

> <Gold.PLP.part.nonpolar>
-28.5707

> <Gold.PLP.part.repulsive>
0.0776

> <Gold.PLP.ligand.clash>
0.0000

> <Gold.PLP.ligand.torsion>
0.3795

> <Gold.PLP.Chemscore.Hbond>
3.0000

> <Gold.PLP.Chemscore.CHOScore>
0.0000

> <Gold.PLP.Chemscore.Metal>
0.0000

> <Gold.Chemscore.Hbonds>
donor molecule, donor type, donor heavy atom, donor atom, acceptor molecule, acceptor atom, score
      L1  H     6    33       P1 10747  1.00
      L1  H     7    34       P1  7948  0.70
      L1  H    10    35       P1  7948  0.99

> <Gold.PLP.Chemscore.Internal.Correction>
0.3500

> <Gold.Rescore>
     Score         DG    S(hbond)    S(metal)    S(lipo)     H(rot)  DE(clash)    DE(int)     intcor
     15.61     -17.28       2.49        0.00      78.66       2.24       0.04       1.63       ----

> <Gold.Chemscore.Fitness>
15.6088

> <Gold.Chemscore.DG>
-17.2810

> <Gold.Chemscore.ZeroCoef>
-5.4800

> <Gold.Chemscore.Hbond>
2.4938

> <Gold.Chemscore.Metal>
0.0000

> <Gold.Chemscore.Lipo>
78.6555

> <Gold.Chemscore.Internal_Hbond>
0.0000

> <Gold.Chemscore.DEClash>
0.0446

> <Gold.Chemscore.DEInternal>
1.6276

> <Gold.Chemscore.Rot>
2.2387

> <Gold.Chemscore.Internal.Correction>
   9.000000E+99

> <Gold.Chemscore.Hbonds>
donor molecule, donor type, donor heavy atom, donor atom, acceptor molecule, acceptor atom, score
      L1  H     6    33       P1 10747  0.70
      L1  H     7    34       P1  7948  0.07
      L1  H    10    35       P1  7948  0.56

> <Gold.Chemscore.Hbond.Weighted>
-8.3293

> <Gold.Chemscore.Metal.Weighted>
-0.0000

> <Gold.Chemscore.Lipo.Weighted>
-9.2027

> <Gold.Chemscore.Internal_Hbond.Weighted>
0.0000

> <Gold.Chemscore.DEClash.Weighted>
0.0446

> <Gold.Chemscore.DEInternal.Weighted>
1.6276

> <Gold.Chemscore.Rot.Weighted>
5.7310

> <Gold.Chemscore.Internal.Correction.Weighted>
   9.000000E+99

> <Gold.Protein.RotatedTorsions>
[ 6907 6896 6895 6894 ] final   28.99 input  -60.11 | X-H torsion
[ 7974 7965 7964 7962 ] final    6.21 input  175.53 | X-H torsion
[ 8008 7997 7996 7995 ] final   25.88 input   59.86 | X-H torsion
[ 10167 10162 10161 10158 ] final  120.62 input  -65.29 | X-H torsion
[ 10718 10713 10712 10709 ] final   12.81 input   66.30 | X-H torsion
[ 10763 10752 10751 10750 ] final   35.44 input  -60.55 | X-H torsion
[ 11005 11000 10999 10996 ] final  103.33 input  -57.11 | X-H torsion

> <Gold.Protein.ActiveResidues>
 VAL166  LYS551  ARG553  GLY616  TRP617  ASP618  TYR619  PRO620  LYS621  CYS622 
 ASP623  PHE694  ASN695  SER759  ASP760  ASP761  ALA762  ILE779  LEU786  VAL792 
 PHE793  MET794  SER795  GLU796  ALA797  LYS798  CYS799  TRP800  GLU811  SER814 

> <Gold.Protein.RotatedAtoms>
  152.0251  134.9800  160.0571 H   0  0  0  0  0  0  0  0  0  0  0  0  # atno 6907 bound_to 6896
  152.1300  133.4397  159.4724 H   0  0  0  0  0  0  0  0  0  0  0  0  # atno 6908 bound_to 6896
  150.6855  134.2351  159.4493 H   0  0  0  0  0  0  0  0  0  0  0  0  # atno 6909 bound_to 6896
  146.2436  140.0268  142.8393 H   0  0  0  0  0  0  0  0  0  0  0  0  # atno 7974 bound_to 7965
  155.0186  140.3145  155.4802 H   0  0  0  0  0  0  0  0  0  0  0  0  # atno 8008 bound_to 7997
  156.2896  140.2201  156.5245 H   0  0  0  0  0  0  0  0  0  0  0  0  # atno 8009 bound_to 7997
  154.7472  140.0469  157.0850 H   0  0  0  0  0  0  0  0  0  0  0  0  # atno 8010 bound_to 7997
  139.5971  144.7045  151.3151 H   0  0  0  0  0  0  0  0  0  0  0  0  # atno 10167 bound_to 10162
  157.0156  130.6134  149.5714 H   0  0  0  0  0  0  0  0  0  0  0  0  # atno 10718 bound_to 10713
  153.0119  135.6333  154.1828 H   0  0  0  0  0  0  0  0  0  0  0  0  # atno 10763 bound_to 10752
  154.1569  135.2826  155.3121 H   0  0  0  0  0  0  0  0  0  0  0  0  # atno 10764 bound_to 10752
  154.6011  135.5587  153.7436 H   0  0  0  0  0  0  0  0  0  0  0  0  # atno 10765 bound_to 10752
  139.8783  134.9259  156.5194 H   0  0  0  0  0  0  0  0  0  0  0  0  # atno 11005 bound_to 11000
  145.1191  140.9451  143.4611 LP  0  0  0  0  0  0  0  0  0  0  0  0  # atno 17320 bound_to 7965
  145.0499  139.3190  143.5934 LP  0  0  0  0  0  0  0  0  0  0  0  0  # atno 17321 bound_to 7965
  140.7220  143.7109  150.7770 LP  0  0  0  0  0  0  0  0  0  0  0  0  # atno 17342 bound_to 10162
  140.0677  143.5092  152.2595 LP  0  0  0  0  0  0  0  0  0  0  0  0  # atno 17343 bound_to 10162
  156.0120  130.5212  150.8019 LP  0  0  0  0  0  0  0  0  0  0  0  0  # atno 17370 bound_to 10713
  157.5288  131.0935  150.9982 LP  0  0  0  0  0  0  0  0  0  0  0  0  # atno 17371 bound_to 10713
  140.8462  133.8167  155.9123 LP  0  0  0  0  0  0  0  0  0  0  0  0  # atno 17394 bound_to 11000
  140.9189  134.2166  157.4939 LP  0  0  0  0  0  0  0  0  0  0  0  0  # atno 17395 bound_to 11000

$$$$
