AV-unprocessed.smi:1836|AV-procd|sdf|7478|dock4
  -GOLD-   22720 9173D 1   1.00000     0.00000
 Structure written by MMmdl.
 33 34  0  0  0  0  0  0  0  0  1 V2000
  142.7336  136.5993  152.1318 C   0  0  0  0  0  0  0  0  0  0  0  0
  144.2487  136.5187  152.3640 C   0  0  1  0  0  0  0  0  0  0  0  0
  144.9741  135.9846  151.1069 C   0  0  0  0  0  0  0  0  0  0  0  0
  144.9978  134.5238  151.0478 N   0  0  0  0  0  0  0  0  0  0  0  0
  144.2853  133.8105  150.0004 C   0  0  0  0  0  0  0  0  0  0  0  0
  144.7935  132.3657  150.0944 C   0  0  0  0  0  0  0  0  0  0  0  0
  145.4520  132.2513  151.4735 C   0  0  0  0  0  0  0  0  0  0  0  0
  145.6217  133.6999  151.8987 C   0  0  0  0  0  0  0  0  0  0  0  0
  146.2624  134.0338  152.8943 O   0  0  0  0  0  0  0  0  0  0  0  0
  144.7339  137.8538  152.7104 N   0  0  0  0  0  0  0  0  0  0  0  0
  145.8437  138.1207  153.4159 C   0  0  0  0  0  0  0  0  0  0  0  0
  146.5854  137.2508  153.8731 O   0  0  0  0  0  0  0  0  0  0  0  0
  146.0318  139.4457  153.5438 N   0  0  0  0  0  0  0  0  0  0  0  0
  147.1197  140.1234  154.1549 C   0  0  0  0  0  0  0  0  0  0  0  0
  148.1678  139.4973  154.7129 N   0  0  0  0  0  0  0  0  0  0  0  0
  149.0937  140.3942  155.2300 N   0  0  0  0  0  0  0  0  0  0  0  0
  148.7089  141.6594  155.0403 C   0  0  0  0  0  0  0  0  0  0  0  0
  147.1792  141.8792  154.2084 S   0  0  0  0  0  0  0  0  0  0  0  0
  142.3191  135.6153  151.9106 H   0  0  0  0  0  0  0  0  0  0  0  0
  142.4918  137.2574  151.2965 H   0  0  0  0  0  0  0  0  0  0  0  0
  142.2197  136.9788  153.0157 H   0  0  0  0  0  0  0  0  0  0  0  0
  144.4063  135.8369  153.2016 H   0  0  0  0  0  0  0  0  0  0  0  0
  144.4695  136.3453  150.2091 H   0  0  0  0  0  0  0  0  0  0  0  0
  145.9909  136.3772  151.0570 H   0  0  0  0  0  0  0  0  0  0  0  0
  143.2139  133.8614  150.1987 H   0  0  0  0  0  0  0  0  0  0  0  0
  144.4716  134.2418  149.0163 H   0  0  0  0  0  0  0  0  0  0  0  0
  143.9892  131.6421  149.9594 H   0  0  0  0  0  0  0  0  0  0  0  0
  145.5363  132.1819  149.3165 H   0  0  0  0  0  0  0  0  0  0  0  0
  144.8035  131.7386  152.1844 H   0  0  0  0  0  0  0  0  0  0  0  0
  146.4102  131.7323  151.4313 H   0  0  0  0  0  0  0  0  0  0  0  0
  144.1855  138.6331  152.3776 H   0  0  0  0  0  0  0  0  0  0  0  0
  145.3229  140.0403  153.1408 H   0  0  0  0  0  0  0  0  0  0  0  0
  149.3315  142.4691  155.3911 H   0  0  0  0  0  0  0  0  0  0  0  0
  1  2  1  0  0  0  0
  1 19  1  0  0  0  0
  1 20  1  0  0  0  0
  1 21  1  0  0  0  0
  2  3  1  0  0  0  0
  2 10  1  0  0  0  0
  2 22  1  0  0  0  0
  3  4  1  0  0  0  0
  3 23  1  0  0  0  0
  3 24  1  0  0  0  0
  4  8  1  0  0  0  0
  4  5  1  0  0  0  0
  5  6  1  0  0  0  0
  5 25  1  0  0  0  0
  5 26  1  0  0  0  0
  6  7  1  0  0  0  0
  6 27  1  0  0  0  0
  6 28  1  0  0  0  0
  7  8  1  0  0  0  0
  7 29  1  0  0  0  0
  7 30  1  0  0  0  0
  8  9  2  0  0  0  0
 10 11  1  0  0  0  0
 10 31  1  0  0  0  0
 11 12  2  0  0  0  0
 11 13  1  0  0  0  0
 13 14  1  0  0  0  0
 13 32  1  0  0  0  0
 14 18  1  0  0  0  0
 14 15  2  0  0  0  0
 15 16  1  0  0  0  0
 16 17  2  0  0  0  0
 17 18  1  0  0  0  0
 17 33  1  0  0  0  0
M  END
> <s_m_source_file>
AV-unprocessed.smi

> <i_m_source_file_index>
1836

> <i_lp_mmshare_version>
43012

> <i_f3d_flags>
0

> <s_epik_input>
Tz1DMVtDSDJdW0NIMl1bQ0gyXU4xW0NIMl1bQ0BASF0oW0NIM10pW05IXUMoPU8pW05IXWMybm5bY0hdczI=

> <s_epik_cmdline>
J2VwaWtfcHl0aG9uJywgJy1waCcsICc3LjAnLCAnLXRuJywgJzgnLCAnLW1hJywgJzIwMCcsICctbWV0YWxfYmluZGluZycsICctaW1hZScsICc8aW5maWxlLm1hZT4nLCAnLW9tYWUnLCAnPG91dGZpbGUubWFlPic=

> <r_lp_tautomer_probability>
1

> <r_epik_Ionization_Penalty>
0.00192022

> <r_epik_Ionization_Penalty_Charging>
0

> <r_epik_Ionization_Penalty_Neutral>
0.00192022

> <r_epik_State_Penalty>
-0

> <r_epik_Charging_Adjusted_Penalty>
0

> <i_epik_Tot_Q>
0

> <i_epik_Tot_abs_Q>
0

> <r_epik_Metal_State_Penalty>
0.336618

> <b_epik_Metal_Only>
0

> <s_lp_Force_Field>
OPLS_2005

> <r_lp_Energy>
17.3914

> <b_lp_Chiralities_Consistent>
1

> <s_lp_Variant>
AV-unprocessed.smi:1836-2

> <Gold.Version>
5.8.1

> <Gold.Id.Protein>
6NUR|6NUR_protein|mol2

> <Gold.PLP.Fitness>
35.8606

> <Gold.PLP.PLP>
-28.1335

> <Gold.PLP.part.hbond>
-2.0000

> <Gold.PLP.part.metal>
0.0000

> <Gold.PLP.part.buried>
-4.6279

> <Gold.PLP.part.nonpolar>
-22.8684

> <Gold.PLP.part.repulsive>
1.3367

> <Gold.PLP.ligand.clash>
0.0000

> <Gold.PLP.ligand.torsion>
0.6436

> <Gold.PLP.Chemscore.Hbond>
2.0000

> <Gold.PLP.Chemscore.CHOScore>
1.0000

> <Gold.PLP.Chemscore.Metal>
0.0000

> <Gold.Chemscore.Hbonds>
donor molecule, donor type, donor heavy atom, donor atom, acceptor molecule, acceptor atom, score
      L1  H    10    31       P1 10175  1.00
      L1  H    13    32       P1 10175  1.00
      L1  C    17    33       P1  8028  1.00

> <Gold.PLP.Chemscore.Internal.Correction>
0.0143

> <Gold.Rescore>
     Score         DG    S(hbond)    S(metal)    S(lipo)     H(rot)  DE(clash)    DE(int)     intcor
     11.74     -13.72       1.94        0.00      53.54       1.76       0.12       1.87       ----

> <Gold.Chemscore.Fitness>
11.7361

> <Gold.Chemscore.DG>
-13.7243

> <Gold.Chemscore.ZeroCoef>
-5.4800

> <Gold.Chemscore.Hbond>
1.9398

> <Gold.Chemscore.Metal>
0.0000

> <Gold.Chemscore.Lipo>
53.5352

> <Gold.Chemscore.Internal_Hbond>
0.0000

> <Gold.Chemscore.DEClash>
0.1177

> <Gold.Chemscore.DEInternal>
1.8706

> <Gold.Chemscore.Rot>
1.7571

> <Gold.Chemscore.Internal.Correction>
   9.000000E+99

> <Gold.Chemscore.Hbonds>
donor molecule, donor type, donor heavy atom, donor atom, acceptor molecule, acceptor atom, score
      L1  H    10    31       P1 10175  0.96
      L1  H    13    32       P1 10175  0.99

> <Gold.Chemscore.Hbond.Weighted>
-6.4790

> <Gold.Chemscore.Metal.Weighted>
-0.0000

> <Gold.Chemscore.Lipo.Weighted>
-6.2636

> <Gold.Chemscore.Internal_Hbond.Weighted>
0.0000

> <Gold.Chemscore.DEClash.Weighted>
0.1177

> <Gold.Chemscore.DEInternal.Weighted>
1.8706

> <Gold.Chemscore.Rot.Weighted>
4.4983

> <Gold.Chemscore.Internal.Correction.Weighted>
   9.000000E+99

> <Gold.Protein.RotatedTorsions>
[ 6907 6896 6895 6894 ] final -175.82 input  -60.11 | X-H torsion
[ 7974 7965 7964 7962 ] final  115.71 input  175.53 | X-H torsion
[ 8008 7997 7996 7995 ] final   73.22 input   59.86 | X-H torsion
[ 10167 10162 10161 10158 ] final  -86.16 input  -65.29 | X-H torsion
[ 10718 10713 10712 10709 ] final   73.90 input   66.30 | X-H torsion
[ 10763 10752 10751 10750 ] final   91.31 input  -60.55 | X-H torsion
[ 11005 11000 10999 10996 ] final  154.64 input  -57.11 | X-H torsion

> <Gold.Protein.ActiveResidues>
 VAL166  LYS551  ARG553  GLY616  TRP617  ASP618  TYR619  PRO620  LYS621  CYS622 
 ASP623  PHE694  ASN695  SER759  ASP760  ASP761  ALA762  ILE779  LEU786  VAL792 
 PHE793  MET794  SER795  GLU796  ALA797  LYS798  CYS799  TRP800  GLU811  SER814 

> <Gold.Protein.RotatedAtoms>
  151.5948  133.3362  159.3034 H   0  0  0  0  0  0  0  0  0  0  0  0  # atno 6907 bound_to 6896
  150.8240  134.7465  159.6808 H   0  0  0  0  0  0  0  0  0  0  0  0  # atno 6908 bound_to 6896
  152.4331  134.5745  159.9982 H   0  0  0  0  0  0  0  0  0  0  0  0  # atno 6909 bound_to 6896
  145.1885  139.3012  143.4380 H   0  0  0  0  0  0  0  0  0  0  0  0  # atno 7974 bound_to 7965
  155.7804  140.3482  155.5294 H   0  0  0  0  0  0  0  0  0  0  0  0  # atno 8008 bound_to 7997
  155.8734  140.0990  157.1555 H   0  0  0  0  0  0  0  0  0  0  0  0  # atno 8009 bound_to 7997
  154.4019  140.1336  156.4094 H   0  0  0  0  0  0  0  0  0  0  0  0  # atno 8010 bound_to 7997
  140.3968  143.2680  151.9194 H   0  0  0  0  0  0  0  0  0  0  0  0  # atno 10167 bound_to 10162
  157.6568  130.9651  150.1134 H   0  0  0  0  0  0  0  0  0  0  0  0  # atno 10718 bound_to 10713
  153.2069  135.4402  155.0334 H   0  0  0  0  0  0  0  0  0  0  0  0  # atno 10763 bound_to 10752
  154.8179  135.3323  154.7127 H   0  0  0  0  0  0  0  0  0  0  0  0  # atno 10764 bound_to 10752
  153.7568  135.6994  153.4989 H   0  0  0  0  0  0  0  0  0  0  0  0  # atno 10765 bound_to 10752
  140.1508  134.8676  157.2452 H   0  0  0  0  0  0  0  0  0  0  0  0  # atno 11005 bound_to 11000
  146.3440  140.2090  142.8590 LP  0  0  0  0  0  0  0  0  0  0  0  0  # atno 17320 bound_to 7965
  145.0064  140.8677  143.5250 LP  0  0  0  0  0  0  0  0  0  0  0  0  # atno 17321 bound_to 7965
  139.4786  144.5673  151.8144 LP  0  0  0  0  0  0  0  0  0  0  0  0  # atno 17342 bound_to 10162
  140.4782  144.1488  150.5928 LP  0  0  0  0  0  0  0  0  0  0  0  0  # atno 17343 bound_to 10162
  156.2025  130.3661  149.8770 LP  0  0  0  0  0  0  0  0  0  0  0  0  # atno 17370 bound_to 10713
  156.6670  130.8805  151.3556 LP  0  0  0  0  0  0  0  0  0  0  0  0  # atno 17371 bound_to 10713
  140.2607  134.3574  155.7408 LP  0  0  0  0  0  0  0  0  0  0  0  0  # atno 17394 bound_to 11000
  141.2198  133.7368  156.9075 LP  0  0  0  0  0  0  0  0  0  0  0  0  # atno 17395 bound_to 11000

$$$$
