AV-unprocessed.smi:1869|AV-procd|sdf|7592|dock3
  -GOLD-   22720 9303D 1   1.00000     0.00000
 Structure written by MMmdl.
 39 40  0  0  0  0  0  0  0  0  1 V2000
  145.9564  137.5955  151.8082 C   0  0  0  0  0  0  0  0  0  0  0  0
  146.8580  138.4587  151.1381 O   0  0  0  0  0  0  0  0  0  0  0  0
  146.8782  139.7623  151.6958 C   0  0  0  0  0  0  0  0  0  0  0  0
  147.1327  139.6601  153.2028 C   0  0  0  0  0  0  0  0  0  0  0  0
  148.4899  139.2832  153.4148 O   0  0  0  0  0  0  0  0  0  0  0  0
  149.2110  139.9371  154.3925 C   0  0  0  0  0  0  0  0  0  0  0  0
  148.5962  140.9989  155.0852 C   0  0  0  0  0  0  0  0  0  0  0  0
  149.3226  141.6701  156.0872 C   0  0  0  0  0  0  0  0  0  0  0  0
  150.6434  141.2496  156.3714 C   0  0  0  0  0  0  0  0  0  0  0  0
  151.4827  141.8573  157.3435 N   0  0  0  0  0  0  0  0  0  0  0  0
  151.1863  142.8437  158.2132 C   0  0  0  0  0  0  0  0  0  0  0  0
  150.0752  143.3699  158.2839 O   0  0  0  0  0  0  0  0  0  0  0  0
  152.2159  143.1998  159.0248 N   0  0  0  0  0  0  0  0  0  0  0  0
  153.3729  142.3606  159.3806 C   0  0  0  0  0  0  0  0  0  0  0  0
  153.1176  141.7076  160.7490 C   0  0  0  0  0  0  0  0  0  0  0  0
  152.9626  142.9690  162.0523 S   0  0  0  0  0  0  0  0  0  0  0  0
  151.7531  144.0783  161.2642 C   0  0  0  0  0  0  0  0  0  0  0  0
  152.1770  144.4286  159.8276 C   0  0  0  0  0  0  0  0  0  0  0  0
  151.1736  140.1889  155.6086 C   0  0  0  0  0  0  0  0  0  0  0  0
  150.4826  139.5407  154.6475 N   0  0  0  0  0  0  0  0  0  0  0  0
  145.9754  136.6115  151.3397 H   0  0  0  0  0  0  0  0  0  0  0  0
  144.9344  137.9734  151.7561 H   0  0  0  0  0  0  0  0  0  0  0  0
  146.2325  137.4742  152.8565 H   0  0  0  0  0  0  0  0  0  0  0  0
  147.6800  140.3376  151.2306 H   0  0  0  0  0  0  0  0  0  0  0  0
  145.9417  140.2872  151.5013 H   0  0  0  0  0  0  0  0  0  0  0  0
  146.9021  140.6102  153.6880 H   0  0  0  0  0  0  0  0  0  0  0  0
  146.4756  138.8986  153.6259 H   0  0  0  0  0  0  0  0  0  0  0  0
  147.5849  141.2963  154.8495 H   0  0  0  0  0  0  0  0  0  0  0  0
  148.8601  142.4966  156.6042 H   0  0  0  0  0  0  0  0  0  0  0  0
  152.3994  141.4461  157.4418 H   0  0  0  0  0  0  0  0  0  0  0  0
  153.5934  141.5955  158.6362 H   0  0  0  0  0  0  0  0  0  0  0  0
  154.2753  142.9722  159.4250 H   0  0  0  0  0  0  0  0  0  0  0  0
  152.2074  141.1074  160.7219 H   0  0  0  0  0  0  0  0  0  0  0  0
  153.9361  141.0362  161.0088 H   0  0  0  0  0  0  0  0  0  0  0  0
  150.7748  143.5961  161.2653 H   0  0  0  0  0  0  0  0  0  0  0  0
  151.6637  144.9826  161.8661 H   0  0  0  0  0  0  0  0  0  0  0  0
  153.1563  144.9092  159.8297 H   0  0  0  0  0  0  0  0  0  0  0  0
  151.4945  145.1705  159.4104 H   0  0  0  0  0  0  0  0  0  0  0  0
  152.1833  139.8437  155.7777 H   0  0  0  0  0  0  0  0  0  0  0  0
  1  2  1  0  0  0  0
  1 21  1  0  0  0  0
  1 22  1  0  0  0  0
  1 23  1  0  0  0  0
  2  3  1  0  0  0  0
  3  4  1  0  0  0  0
  3 24  1  0  0  0  0
  3 25  1  0  0  0  0
  4  5  1  0  0  0  0
  4 26  1  0  0  0  0
  4 27  1  0  0  0  0
  5  6  1  0  0  0  0
  6 20  1  0  0  0  0
  6  7  2  0  0  0  0
  7  8  1  0  0  0  0
  7 28  1  0  0  0  0
  8  9  2  0  0  0  0
  8 29  1  0  0  0  0
  9 10  1  0  0  0  0
  9 19  1  0  0  0  0
 10 11  1  0  0  0  0
 10 30  1  0  0  0  0
 11 12  2  0  0  0  0
 11 13  1  0  0  0  0
 13 18  1  0  0  0  0
 13 14  1  0  0  0  0
 14 15  1  0  0  0  0
 14 31  1  0  0  0  0
 14 32  1  0  0  0  0
 15 16  1  0  0  0  0
 15 33  1  0  0  0  0
 15 34  1  0  0  0  0
 16 17  1  0  0  0  0
 17 18  1  0  0  0  0
 17 35  1  0  0  0  0
 17 36  1  0  0  0  0
 18 37  1  0  0  0  0
 18 38  1  0  0  0  0
 19 20  2  0  0  0  0
 19 39  1  0  0  0  0
M  END
> <s_m_source_file>
AV-unprocessed.smi

> <i_m_source_file_index>
1869

> <i_lp_mmshare_version>
43012

> <i_f3d_flags>
0

> <s_epik_input>
W0NIM11PW0NIMl1bQ0gyXU9jMVtjSF1bY0hdYyhbY0hdbjEpW05IXUMoPU8pTjJbQ0gyXVtDSDJdU1tDSDJdW0NIMl0y

> <s_epik_cmdline>
J2VwaWtfcHl0aG9uJywgJy1waCcsICc3LjAnLCAnLXRuJywgJzgnLCAnLW1hJywgJzIwMCcsICctbWV0YWxfYmluZGluZycsICctaW1hZScsICc8aW5maWxlLm1hZT4nLCAnLW9tYWUnLCAnPG91dGZpbGUubWFlPic=

> <r_lp_tautomer_probability>
1

> <r_epik_Ionization_Penalty>
6.51674e-05

> <r_epik_Ionization_Penalty_Charging>
0

> <r_epik_Ionization_Penalty_Neutral>
6.51674e-05

> <r_epik_State_Penalty>
-0

> <r_epik_Charging_Adjusted_Penalty>
0

> <i_epik_Tot_Q>
0

> <i_epik_Tot_abs_Q>
0

> <r_epik_Metal_State_Penalty>
-0

> <b_epik_Metal_Only>
0

> <s_lp_Force_Field>
OPLS_2005

> <r_lp_Energy>
28.6984

> <b_lp_Chiralities_Consistent>
1

> <s_lp_Variant>
AV-unprocessed.smi:1869-1

> <Gold.Version>
5.8.1

> <Gold.Id.Protein>
6NUR|6NUR_protein|mol2

> <Gold.PLP.Fitness>
43.8056

> <Gold.PLP.PLP>
-42.3486

> <Gold.PLP.part.hbond>
-1.7158

> <Gold.PLP.part.metal>
0.0000

> <Gold.PLP.part.buried>
-0.4015

> <Gold.PLP.part.nonpolar>
-43.2986

> <Gold.PLP.part.repulsive>
3.8166

> <Gold.PLP.ligand.clash>
0.5609

> <Gold.PLP.ligand.torsion>
0.5391

> <Gold.PLP.Chemscore.Hbond>
1.0000

> <Gold.PLP.Chemscore.CHOScore>
0.0000

> <Gold.PLP.Chemscore.Metal>
0.0000

> <Gold.Chemscore.Hbonds>
donor molecule, donor type, donor heavy atom, donor atom, acceptor molecule, acceptor atom, score
      P1  H  7954  7966       L1     2  1.00

> <Gold.PLP.Chemscore.Internal.Correction>
0.0961

> <Gold.Rescore>
     Score         DG    S(hbond)    S(metal)    S(lipo)     H(rot)  DE(clash)    DE(int)     intcor
     13.33     -17.18       0.96        0.00     107.77       1.61       2.03       1.82       ----

> <Gold.Chemscore.Fitness>
13.3281

> <Gold.Chemscore.DG>
-17.1782

> <Gold.Chemscore.ZeroCoef>
-5.4800

> <Gold.Chemscore.Hbond>
0.9595

> <Gold.Chemscore.Metal>
0.0000

> <Gold.Chemscore.Lipo>
107.7729

> <Gold.Chemscore.Internal_Hbond>
0.0000

> <Gold.Chemscore.DEClash>
2.0308

> <Gold.Chemscore.DEInternal>
1.8193

> <Gold.Chemscore.Rot>
1.6078

> <Gold.Chemscore.Internal.Correction>
   9.000000E+99

> <Gold.Chemscore.Hbonds>
donor molecule, donor type, donor heavy atom, donor atom, acceptor molecule, acceptor atom, score
      P1  H  7954  7966       L1     2  0.97

> <Gold.Chemscore.Hbond.Weighted>
-3.2049

> <Gold.Chemscore.Metal.Weighted>
-0.0000

> <Gold.Chemscore.Lipo.Weighted>
-12.6094

> <Gold.Chemscore.Internal_Hbond.Weighted>
0.0000

> <Gold.Chemscore.DEClash.Weighted>
2.0308

> <Gold.Chemscore.DEInternal.Weighted>
1.8193

> <Gold.Chemscore.Rot.Weighted>
4.1161

> <Gold.Chemscore.Internal.Correction.Weighted>
   9.000000E+99

> <Gold.Protein.RotatedTorsions>
[ 6907 6896 6895 6894 ] final -116.19 input  -60.11 | X-H torsion
[ 7974 7965 7964 7962 ] final  -27.60 input  175.53 | X-H torsion
[ 8008 7997 7996 7995 ] final -136.53 input   59.86 | X-H torsion
[ 10167 10162 10161 10158 ] final  126.05 input  -65.29 | X-H torsion
[ 10718 10713 10712 10709 ] final  136.32 input   66.30 | X-H torsion
[ 10763 10752 10751 10750 ] final  -91.93 input  -60.55 | X-H torsion
[ 11005 11000 10999 10996 ] final  -24.42 input  -57.11 | X-H torsion

> <Gold.Protein.ActiveResidues>
 VAL166  LYS551  ARG553  GLY616  TRP617  ASP618  TYR619  PRO620  LYS621  CYS622 
 ASP623  PHE694  ASN695  SER759  ASP760  ASP761  ALA762  ILE779  LEU786  VAL792 
 PHE793  MET794  SER795  GLU796  ALA797  LYS798  CYS799  TRP800  GLU811  SER814 

> <Gold.Protein.RotatedAtoms>
  150.8037  133.8551  159.3216 H   0  0  0  0  0  0  0  0  0  0  0  0  # atno 6907 bound_to 6896
  151.6357  135.1016  160.0140 H   0  0  0  0  0  0  0  0  0  0  0  0  # atno 6908 bound_to 6896
  152.4126  133.6947  159.6446 H   0  0  0  0  0  0  0  0  0  0  0  0  # atno 6909 bound_to 6896
  146.1346  140.5174  142.8678 H   0  0  0  0  0  0  0  0  0  0  0  0  # atno 7974 bound_to 7965
  155.3968  140.0503  157.3038 H   0  0  0  0  0  0  0  0  0  0  0  0  # atno 8008 bound_to 7997
  154.5009  140.2156  155.9309 H   0  0  0  0  0  0  0  0  0  0  0  0  # atno 8009 bound_to 7997
  156.1466  140.3144  155.8586 H   0  0  0  0  0  0  0  0  0  0  0  0  # atno 8010 bound_to 7997
  139.5652  144.6907  151.3930 H   0  0  0  0  0  0  0  0  0  0  0  0  # atno 10167 bound_to 10162
  157.4479  131.1063  151.0068 H   0  0  0  0  0  0  0  0  0  0  0  0  # atno 10718 bound_to 10713
  154.6810  135.5250  153.8263 H   0  0  0  0  0  0  0  0  0  0  0  0  # atno 10763 bound_to 10752
  153.0565  135.6552  154.0575 H   0  0  0  0  0  0  0  0  0  0  0  0  # atno 10764 bound_to 10752
  154.0462  135.2973  155.3327 H   0  0  0  0  0  0  0  0  0  0  0  0  # atno 10765 bound_to 10752
  140.8843  133.7632  156.0341 H   0  0  0  0  0  0  0  0  0  0  0  0  # atno 11005 bound_to 11000
  144.7726  140.5671  143.6659 LP  0  0  0  0  0  0  0  0  0  0  0  0  # atno 17320 bound_to 7965
  145.5184  139.1477  143.3566 LP  0  0  0  0  0  0  0  0  0  0  0  0  # atno 17321 bound_to 7965
  140.6935  143.7805  150.7291 LP  0  0  0  0  0  0  0  0  0  0  0  0  # atno 17342 bound_to 10162
  140.1294  143.4539  152.2263 LP  0  0  0  0  0  0  0  0  0  0  0  0  # atno 17343 bound_to 10162
  157.0908  130.5941  149.5439 LP  0  0  0  0  0  0  0  0  0  0  0  0  # atno 17370 bound_to 10713
  155.9975  130.5047  150.7536 LP  0  0  0  0  0  0  0  0  0  0  0  0  # atno 17371 bound_to 10713
  140.8423  134.3051  157.5308 LP  0  0  0  0  0  0  0  0  0  0  0  0  # atno 17394 bound_to 11000
  139.8723  134.9423  156.3821 LP  0  0  0  0  0  0  0  0  0  0  0  0  # atno 17395 bound_to 11000

$$$$
