AV-unprocessed.smi:2997|AV-procd|sdf|11413|dock2
  -GOLD-   2272016333D 1   1.00000     0.00000
 Structure written by MMmdl.
 38 40  0  0  0  0  0  0  0  0  1 V2000
  152.7895  143.2253  161.2040 C   0  0  0  0  0  0  0  0  0  0  0  0
  152.2126  142.7815  159.8713 C   0  0  0  0  0  0  0  0  0  0  0  0
  152.6932  141.5932  159.2763 C   0  0  0  0  0  0  0  0  0  0  0  0
  152.1827  141.1455  158.0383 C   0  0  0  0  0  0  0  0  0  0  0  0
  152.5009  140.0274  157.2864 N   0  0  0  0  0  0  0  0  0  0  0  0
  151.6872  140.1661  156.2435 C   0  0  0  0  0  0  0  0  0  0  0  0
  150.8786  141.2434  156.2309 N   0  0  0  0  0  0  0  0  0  0  0  0
  149.9137  141.6060  155.2084 C   0  0  0  0  0  0  0  0  0  0  0  0
  148.4626  141.3235  155.6412 C   0  0  1  0  0  0  0  0  0  0  0  0
  148.0529  142.2868  156.5948 O   0  0  0  0  0  0  0  0  0  0  0  0
  147.4942  141.3294  154.4425 C   0  0  0  0  0  0  0  0  0  0  0  0
  146.4224  142.2982  154.5904 N   0  0  0  0  0  0  0  0  0  0  0  0
  146.0729  143.3272  153.7412 C   0  0  0  0  0  0  0  0  0  0  0  0
  145.0007  143.9654  154.2958 C   0  0  0  0  0  0  0  0  0  0  0  0
  144.7629  143.2431  155.4986 C   0  0  0  0  0  0  0  0  0  0  0  0
  145.6129  142.2434  155.6703 N   0  0  0  0  0  0  0  0  0  0  0  0
  151.1710  141.9260  157.4062 C   0  0  0  0  0  0  0  0  0  0  0  0
  150.6853  143.1105  157.9874 C   0  0  0  0  0  0  0  0  0  0  0  0
  151.2061  143.5433  159.2250 C   0  0  0  0  0  0  0  0  0  0  0  0
  150.6760  144.8240  159.8451 C   0  0  0  0  0  0  0  0  0  0  0  0
  153.5265  142.5130  161.5760 H   0  0  0  0  0  0  0  0  0  0  0  0
  152.0016  143.3116  161.9525 H   0  0  0  0  0  0  0  0  0  0  0  0
  153.2805  144.1935  161.1038 H   0  0  0  0  0  0  0  0  0  0  0  0
  153.4608  141.0133  159.7675 H   0  0  0  0  0  0  0  0  0  0  0  0
  151.6796  139.4441  155.4400 H   0  0  0  0  0  0  0  0  0  0  0  0
  150.0424  142.6613  154.9630 H   0  0  0  0  0  0  0  0  0  0  0  0
  150.1523  141.0451  154.3039 H   0  0  0  0  0  0  0  0  0  0  0  0
  148.4228  140.3455  156.1229 H   0  0  0  0  0  0  0  0  0  0  0  0
  148.2205  143.1481  156.2444 H   0  0  0  0  0  0  0  0  0  0  0  0
  148.0331  141.5472  153.5193 H   0  0  0  0  0  0  0  0  0  0  0  0
  147.0463  140.3428  154.3158 H   0  0  0  0  0  0  0  0  0  0  0  0
  146.6109  143.5182  152.8244 H   0  0  0  0  0  0  0  0  0  0  0  0
  144.4677  144.8181  153.9024 H   0  0  0  0  0  0  0  0  0  0  0  0
  144.0020  143.4137  156.2459 H   0  0  0  0  0  0  0  0  0  0  0  0
  149.9191  143.6808  157.4832 H   0  0  0  0  0  0  0  0  0  0  0  0
  149.9199  145.2893  159.2119 H   0  0  0  0  0  0  0  0  0  0  0  0
  151.4828  145.5435  159.9857 H   0  0  0  0  0  0  0  0  0  0  0  0
  150.2209  144.6192  160.8142 H   0  0  0  0  0  0  0  0  0  0  0  0
  1  2  1  0  0  0  0
  1 21  1  0  0  0  0
  1 22  1  0  0  0  0
  1 23  1  0  0  0  0
  2 19  1  0  0  0  0
  2  3  2  0  0  0  0
  3  4  1  0  0  0  0
  3 24  1  0  0  0  0
  4 17  2  0  0  0  0
  4  5  1  0  0  0  0
  5  6  2  0  0  0  0
  6  7  1  0  0  0  0
  6 25  1  0  0  0  0
  7  8  1  0  0  0  0
  7 17  1  0  0  0  0
  8  9  1  0  0  0  0
  8 26  1  0  0  0  0
  8 27  1  0  0  0  0
  9 10  1  0  0  0  0
  9 11  1  0  0  0  0
  9 28  1  0  0  0  0
 10 29  1  0  0  0  0
 11 12  1  0  0  0  0
 11 30  1  0  0  0  0
 11 31  1  0  0  0  0
 12 16  1  0  0  0  0
 12 13  1  0  0  0  0
 13 14  2  0  0  0  0
 13 32  1  0  0  0  0
 14 15  1  0  0  0  0
 14 33  1  0  0  0  0
 15 16  2  0  0  0  0
 15 34  1  0  0  0  0
 17 18  1  0  0  0  0
 18 19  2  0  0  0  0
 18 35  1  0  0  0  0
 19 20  1  0  0  0  0
 20 36  1  0  0  0  0
 20 37  1  0  0  0  0
 20 38  1  0  0  0  0
M  END
> <s_m_source_file>
AV-unprocessed.smi

> <i_m_source_file_index>
2997

> <i_lp_mmshare_version>
43012

> <i_f3d_flags>
0

> <s_epik_input>
W0NIM11jKFtjSF0xKWMoW0NIM10pW2NIXWMoYzEyKW4oW2NIXW4yKVtDSDJdW0NASF0oW09IXSlbQ0gyXW4zW2NIXVtjSF1bY0hdbjM=

> <s_epik_cmdline>
J2VwaWtfcHl0aG9uJywgJy1waCcsICc3LjAnLCAnLXRuJywgJzgnLCAnLW1hJywgJzIwMCcsICctbWV0YWxfYmluZGluZycsICctaW1hZScsICc8aW5maWxlLm1hZT4nLCAnLW9tYWUnLCAnPG91dGZpbGUubWFlPic=

> <r_lp_tautomer_probability>
1

> <r_epik_Ionization_Penalty>
0.102113

> <r_epik_Ionization_Penalty_Charging>
0

> <r_epik_Ionization_Penalty_Neutral>
0.102113

> <r_epik_State_Penalty>
0.0920694

> <r_epik_Charging_Adjusted_Penalty>
0.0920694

> <i_epik_Tot_Q>
0

> <i_epik_Tot_abs_Q>
0

> <r_epik_Metal_State_Penalty>
0.0784306

> <b_epik_Metal_Only>
0

> <s_lp_Force_Field>
OPLS_2005

> <r_lp_Energy>
7.68531

> <b_lp_Chiralities_Consistent>
1

> <s_lp_Variant>
AV-unprocessed.smi:2997-2

> <Gold.Version>
5.8.1

> <Gold.Id.Protein>
6NUR|6NUR_protein|mol2

> <Gold.PLP.Fitness>
49.3801

> <Gold.PLP.PLP>
-45.4723

> <Gold.PLP.part.hbond>
-2.0000

> <Gold.PLP.part.metal>
0.0000

> <Gold.PLP.part.buried>
-6.2996

> <Gold.PLP.part.nonpolar>
-37.6081

> <Gold.PLP.part.repulsive>
0.1308

> <Gold.PLP.ligand.clash>
0.0000

> <Gold.PLP.ligand.torsion>
1.0677

> <Gold.PLP.Chemscore.Hbond>
2.0000

> <Gold.PLP.Chemscore.CHOScore>
0.0000

> <Gold.PLP.Chemscore.Metal>
0.0000

> <Gold.Chemscore.Hbonds>
donor molecule, donor type, donor heavy atom, donor atom, acceptor molecule, acceptor atom, score
      L1  H    10    29       P1  8028  1.00
      P1  H  7997  8010       L1     5  1.00

> <Gold.PLP.Chemscore.Internal.Correction>
0.0432

> <Gold.Rescore>
     Score         DG    S(hbond)    S(metal)    S(lipo)     H(rot)  DE(clash)    DE(int)     intcor
     14.87     -17.95       1.49        0.00     111.17       2.15       0.43       2.65       ----

> <Gold.Chemscore.Fitness>
14.8651

> <Gold.Chemscore.DG>
-17.9498

> <Gold.Chemscore.ZeroCoef>
-5.4800

> <Gold.Chemscore.Hbond>
1.4897

> <Gold.Chemscore.Metal>
0.0000

> <Gold.Chemscore.Lipo>
111.1691

> <Gold.Chemscore.Internal_Hbond>
0.0000

> <Gold.Chemscore.DEClash>
0.4333

> <Gold.Chemscore.DEInternal>
2.6513

> <Gold.Chemscore.Rot>
2.1534

> <Gold.Chemscore.Internal.Correction>
   9.000000E+99

> <Gold.Chemscore.Hbonds>
donor molecule, donor type, donor heavy atom, donor atom, acceptor molecule, acceptor atom, score
      L1  H    10    29       P1  8028  0.60
      P1  H  7997  8010       L1     5  0.47

> <Gold.Chemscore.Hbond.Weighted>
-4.9757

> <Gold.Chemscore.Metal.Weighted>
-0.0000

> <Gold.Chemscore.Lipo.Weighted>
-13.0068

> <Gold.Chemscore.Internal_Hbond.Weighted>
0.0000

> <Gold.Chemscore.DEClash.Weighted>
0.4333

> <Gold.Chemscore.DEInternal.Weighted>
2.6513

> <Gold.Chemscore.Rot.Weighted>
5.5127

> <Gold.Chemscore.Internal.Correction.Weighted>
   9.000000E+99

> <Gold.Protein.RotatedTorsions>
[ 6907 6896 6895 6894 ] final  -92.60 input  -60.11 | X-H torsion
[ 7974 7965 7964 7962 ] final    1.48 input  175.53 | X-H torsion
[ 8008 7997 7996 7995 ] final   64.06 input   59.86 | X-H torsion
[ 10167 10162 10161 10158 ] final -156.96 input  -65.29 | X-H torsion
[ 10718 10713 10712 10709 ] final  -43.07 input   66.30 | X-H torsion
[ 10763 10752 10751 10750 ] final   13.54 input  -60.55 | X-H torsion
[ 11005 11000 10999 10996 ] final   93.79 input  -57.11 | X-H torsion

> <Gold.Protein.ActiveResidues>
 VAL166  LYS551  ARG553  GLY616  TRP617  ASP618  TYR619  PRO620  LYS621  CYS622 
 ASP623  PHE694  ASN695  SER759  ASP760  ASP761  ALA762  ILE779  LEU786  VAL792 
 PHE793  MET794  SER795  GLU796  ALA797  LYS798  CYS799  TRP800  GLU811  SER814 

> <Gold.Protein.RotatedAtoms>
  150.6909  134.2097  159.4354 H   0  0  0  0  0  0  0  0  0  0  0  0  # atno 6907 bound_to 6896
  152.0059  134.9900  160.0576 H   0  0  0  0  0  0  0  0  0  0  0  0  # atno 6908 bound_to 6896
  152.1534  133.4501  159.4862 H   0  0  0  0  0  0  0  0  0  0  0  0  # atno 6909 bound_to 6896
  146.2440  140.0980  142.8349 H   0  0  0  0  0  0  0  0  0  0  0  0  # atno 7974 bound_to 7965
  155.6401  140.3497  155.4712 H   0  0  0  0  0  0  0  0  0  0  0  0  # atno 8008 bound_to 7997
  155.9933  140.1198  157.0641 H   0  0  0  0  0  0  0  0  0  0  0  0  # atno 8009 bound_to 7997
  154.4225  140.1115  156.5581 H   0  0  0  0  0  0  0  0  0  0  0  0  # atno 8010 bound_to 7997
  139.6809  143.9583  152.2336 H   0  0  0  0  0  0  0  0  0  0  0  0  # atno 10167 bound_to 10162
  156.2529  130.4189  149.8629 H   0  0  0  0  0  0  0  0  0  0  0  0  # atno 10718 bound_to 10713
  153.1711  135.6812  153.8607 H   0  0  0  0  0  0  0  0  0  0  0  0  # atno 10763 bound_to 10752
  153.7970  135.3161  155.3386 H   0  0  0  0  0  0  0  0  0  0  0  0  # atno 10764 bound_to 10752
  154.7998  135.4784  154.0341 H   0  0  0  0  0  0  0  0  0  0  0  0  # atno 10765 bound_to 10752
  139.8806  134.8810  156.3770 H   0  0  0  0  0  0  0  0  0  0  0  0  # atno 11005 bound_to 11000
  145.0593  140.9076  143.4948 LP  0  0  0  0  0  0  0  0  0  0  0  0  # atno 17320 bound_to 7965
  145.1092  139.2768  143.5646 LP  0  0  0  0  0  0  0  0  0  0  0  0  # atno 17321 bound_to 7965
  139.9373  144.6704  150.8302 LP  0  0  0  0  0  0  0  0  0  0  0  0  # atno 17342 bound_to 10162
  140.7651  143.3268  151.2498 LP  0  0  0  0  0  0  0  0  0  0  0  0  # atno 17343 bound_to 10162
  156.6172  130.8611  151.3467 LP  0  0  0  0  0  0  0  0  0  0  0  0  # atno 17370 bound_to 10713
  157.7221  130.9573  150.1482 LP  0  0  0  0  0  0  0  0  0  0  0  0  # atno 17371 bound_to 10713
  140.9425  133.7505  156.0165 LP  0  0  0  0  0  0  0  0  0  0  0  0  # atno 17394 bound_to 11000
  140.8202  134.3298  157.5384 LP  0  0  0  0  0  0  0  0  0  0  0  0  # atno 17395 bound_to 11000

$$$$
