#       Name:                AV-unprocessed.smi:1047
#       Creating user name   scv26
#       Creation time:       Fri Mar 27 03:02:40 2020


#       File generated by GOLD software.
#

@<TRIPOS>MOLECULE
AV-unprocessed.smi:1047
    62    64     1
SMALL
NO_CHARGES


@<TRIPOS>ATOM
      1 ****        -4.6330   4.4887   0.6822 C.3            1 S1                 0.0000
      2 ****        -4.8533   3.8296  -0.6871 C.3            1 S1                 0.0000
      3 ****        -3.6303   3.5131  -1.4232 N.3            1 S1                 0.0000
      4 ****        -3.9348   3.0985  -2.7882 C.3            1 S1                 0.0000
      5 ****        -2.6624   2.7574  -3.5816 C.3            1 S1                 0.0000
      6 ****        -1.9293   1.7504  -2.8916 O.3            1 S1                 0.0000
      7 ****        -1.5599   2.1378  -1.5702 C.3            1 S1                 0.0000
      8 ****        -0.7710   0.9855  -0.9341 C.3            1 S1                 0.0000
      9 ****         0.5202   0.7846  -1.6202 N.4            1 S1                 1.0000
     10 ****         1.3432  -0.2989  -1.0482 C.3            1 S1                 0.0000
     11 ****         2.6656  -0.4645  -1.8199 C.3            1 S1                 0.0000
     12 ****         3.4682   0.6788  -1.5955 O.3            1 S1                 0.0000
     13 ****         3.4601  -1.7280  -1.4229 C.3            1 S1                 0.0000
     14 ****         3.7856  -1.7892  -0.0068 N.pl3          1 S1                 0.0000
     15 ****         4.8620  -1.2533   0.6010 C.2            1 S1                 0.0000
     16 ****         4.9632  -1.4162   1.9164 N.2            1 S1                 0.0000
     17 ****         3.8271  -2.1562   2.1944 C.ar           1 S1                 0.0000
     18 ****         3.3390  -2.6606   3.4195 C.ar           1 S1                 0.0000
     19 ****         2.1370  -3.4015   3.4709 C.ar           1 S1                 0.0000
     20 ****         1.6486  -3.9238   4.8107 C.3            1 S1                 0.0000
     21 ****         1.4039  -3.6496   2.2827 C.ar           1 S1                 0.0000
     22 ****         0.1126  -4.4482   2.3137 C.3            1 S1                 0.0000
     23 ****         1.8765  -3.1521   1.0503 C.ar           1 S1                 0.0000
     24 ****         3.0721  -2.4124   1.0124 C.ar           1 S1                 0.0000
     25 ****        -2.8395   2.4692  -0.7759 C.3            1 S1                 0.0000
     26 ****        -5.5846   4.7941   1.1173 H              1 S1                 0.0000
     27 ****        -4.0096   5.3789   0.5944 H              1 S1                 0.0000
     28 ****        -4.1581   3.8105   1.3906 H              1 S1                 0.0000
     29 ****        -5.4578   2.9295  -0.5652 H              1 S1                 0.0000
     30 ****        -5.4551   4.5151  -1.2853 H              1 S1                 0.0000
     31 ****        -4.5929   2.2281  -2.7726 H              1 S1                 0.0000
     32 ****        -4.4785   3.8908  -3.3041 H              1 S1                 0.0000
     33 ****        -2.9212   2.3927  -4.5757 H              1 S1                 0.0000
     34 ****        -2.0406   3.6440  -3.7165 H              1 S1                 0.0000
     35 ****        -0.9258   3.0254  -1.6174 H              1 S1                 0.0000
     36 ****        -0.5764   1.2080   0.1160 H              1 S1                 0.0000
     37 ****        -1.3537   0.0636  -0.9658 H              1 S1                 0.0000
     38 ****         0.3370   0.5727  -2.5908 H              1 S1                 0.0000
     39 ****         1.5305  -0.0959   0.0074 H              1 S1                 0.0000
     40 ****         0.7705  -1.2258  -1.1003 H              1 S1                 0.0000
     41 ****         2.4529  -0.5184  -2.8885 H              1 S1                 0.0000
     42 ****         3.7101   0.7037  -0.6819 H              1 S1                 0.0000
     43 ****         2.8904  -2.6211  -1.6822 H              1 S1                 0.0000
     44 ****         4.3886  -1.7842  -1.9929 H              1 S1                 0.0000
     45 ****         5.6094  -0.7042   0.0467 H              1 S1                 0.0000
     46 ****         3.8988  -2.4734   4.3242 H              1 S1                 0.0000
     47 ****         1.5542  -5.0096   4.7874 H              1 S1                 0.0000
     48 ****         0.6757  -3.4962   5.0548 H              1 S1                 0.0000
     49 ****         2.3383  -3.6653   5.6147 H              1 S1                 0.0000
     50 ****        -0.3439  -4.5066   1.3251 H              1 S1                 0.0000
     51 ****        -0.6088  -3.9856   2.9876 H              1 S1                 0.0000
     52 ****         0.3030  -5.4656   2.6555 H              1 S1                 0.0000
     53 ****         1.3270  -3.3368   0.1392 H              1 S1                 0.0000
     54 ****        -2.5550   2.7821   0.2283 H              1 S1                 0.0000
     55 ****        -3.4428   1.5670  -0.6627 H              1 S1                 0.0000
     56 ****         1.0495   1.6438  -1.5736 H              1 S1                 0.0000
     57 ****        -3.0889   4.3537  -1.4348 LP             1 S1                 0.0000
     58 ****        -1.0976   1.5504  -3.4095 LP             1 S1                 0.0000
     59 ****        -2.4937   0.9267  -2.8363 LP             1 S1                 0.0000
     60 ****         2.9530   1.5032  -1.8301 LP             1 S1                 0.0000
     61 ****         4.2916   0.6283  -2.1607 LP             1 S1                 0.0000
     62 ****         5.6731  -1.0900   2.5406 LP             1 S1                 0.0000
@<TRIPOS>BOND
    1    1    2 1     
    2    1   26 1     
    3    1   27 1     
    4    1   28 1     
    5    2    3 1     
    6    2   29 1     
    7    2   30 1     
    8    3   25 1     
    9    3    4 1     
   10    4    5 1     
   11    4   31 1     
   12    4   32 1     
   13    5    6 1     
   14    5   33 1     
   15    5   34 1     
   16    6    7 1     
   17    7    8 1     
   18    7   25 1     
   19    7   35 1     
   20    8    9 1     
   21    8   36 1     
   22    8   37 1     
   23    9   10 1     
   24    9   38 1     
   25    9   56 1     
   26   10   11 1     
   27   10   39 1     
   28   10   40 1     
   29   11   12 1     
   30   11   13 1     
   31   11   41 1     
   32   12   42 1     
   33   13   14 1     
   34   13   43 1     
   35   13   44 1     
   36   14   24 1     
   37   14   15 1     
   38   15   16 2     
   39   15   45 1     
   40   16   17 1     
   41   17   24 ar    
   42   17   18 ar    
   43   18   19 ar    
   44   18   46 1     
   45   19   20 1     
   46   19   21 ar    
   47   20   47 1     
   48   20   48 1     
   49   20   49 1     
   50   21   22 1     
   51   21   23 ar    
   52   22   50 1     
   53   22   51 1     
   54   22   52 1     
   55   23   24 ar    
   56   23   53 1     
   57   25   54 1     
   58   25   55 1     
   59    3   57 1     
   60    6   58 1     
   61    6   59 1     
   62   12   60 1     
   63   12   61 1     
   64   16   62 1     
@<TRIPOS>SUBSTRUCTURE
      1 S1             1
@<TRIPOS>SET
LONE_PAIRS      STATIC     ATOMS    <user>   **** ""
6 57 58 59 60 61 62
DONOR_HYDROGENS      STATIC     ATOMS    <user>   **** ""
3 38 56 42
ATOM$BLUE        STATIC     ATOMS    COLORGROUP SYSTEM
6 57 58 59 60 61 62
ATOM$RED        STATIC     ATOMS    COLORGROUP SYSTEM
3 38 56 42
