AV-unprocessed.smi:2837|AV-procd|sdf|10926|dock5
  -GOLD-   2272015373D 1   1.00000     0.00000
 Structure written by MMmdl.
 33 35  0  0  0  0  0  0  0  0  2 V2000
  146.4952  138.3963  152.2062 F   0  0  0  0  0  0  0  0  0  0  0  0
  146.8573  139.0694  153.3257 C   0  0  0  0  0  0  0  0  0  0  0  0
  146.3474  138.4006  154.3876 F   0  0  0  0  0  0  0  0  0  0  0  0
  148.2119  139.1274  153.4276 O   0  0  0  0  0  0  0  0  0  0  0  0
  148.7863  140.0673  154.2527 C   0  0  0  0  0  0  0  0  0  0  0  0
  149.9272  139.6984  154.9952 C   0  0  0  0  0  0  0  0  0  0  0  0
  150.5498  140.6386  155.8416 C   0  0  0  0  0  0  0  0  0  0  0  0
  150.0258  141.9502  155.9282 C   0  0  0  0  0  0  0  0  0  0  0  0
  150.5572  142.9676  156.7326 N   0  0  0  0  0  0  0  0  0  0  0  0
  151.7305  142.7380  157.5677 C   0  0  2  0  0  0  0  0  0  0  0  0
  151.3959  142.0550  158.8962 C   0  0  0  0  0  0  0  0  0  0  0  0
  152.0430  143.0064  159.9124 C   0  0  2  0  0  0  0  0  0  0  0  0
  151.2233  144.2919  160.0812 C   0  0  0  0  0  0  0  0  0  0  0  0
  151.5062  145.0147  158.7658 C   0  0  0  0  0  0  0  0  0  0  0  0
  152.4373  144.0214  158.0492 C   0  0  1  0  0  0  0  0  0  0  0  0
  153.1415  143.4980  159.1622 O   0  0  0  0  0  0  0  0  0  0  0  0
  148.9375  142.2677  155.1929 N   0  3  0  0  0  0  0  0  0  0  0  0
  148.3116  141.3956  154.3726 C   0  0  0  0  0  0  0  0  0  0  0  0
  146.4114  140.0643  153.3132 H   0  0  0  0  0  0  0  0  0  0  0  0
  150.3220  138.6958  154.9187 H   0  0  0  0  0  0  0  0  0  0  0  0
  151.4174  140.3371  156.4091 H   0  0  0  0  0  0  0  0  0  0  0  0
  150.2446  143.9187  156.6002 H   0  0  0  0  0  0  0  0  0  0  0  0
  152.4395  142.1073  157.0302 H   0  0  0  0  0  0  0  0  0  0  0  0
  150.3261  141.9352  159.0746 H   0  0  0  0  0  0  0  0  0  0  0  0
  151.8571  141.0676  158.9393 H   0  0  0  0  0  0  0  0  0  0  0  0
  152.3166  142.5298  160.8540 H   0  0  0  0  0  0  0  0  0  0  0  0
  150.1626  144.0924  160.2369 H   0  0  0  0  0  0  0  0  0  0  0  0
  151.5888  144.8779  160.9253 H   0  0  0  0  0  0  0  0  0  0  0  0
  150.6020  145.2410  158.2005 H   0  0  0  0  0  0  0  0  0  0  0  0
  152.0253  145.9545  158.9568 H   0  0  0  0  0  0  0  0  0  0  0  0
  153.0790  144.4846  157.2998 H   0  0  0  0  0  0  0  0  0  0  0  0
  147.4600  141.7939  153.8402 H   0  0  0  0  0  0  0  0  0  0  0  0
  148.5686  143.2170  155.2564 H   0  0  0  0  0  0  0  0  0  0  0  0
  1  2  1  0  0  0  0
  2  3  1  0  0  0  0
  2  4  1  0  0  0  0
  2 19  1  0  0  0  0
  4  5  1  0  0  0  0
  5 18  1  0  0  0  0
  5  6  2  0  0  0  0
  6  7  1  0  0  0  0
  6 20  1  0  0  0  0
  7  8  2  0  0  0  0
  7 21  1  0  0  0  0
  8  9  1  0  0  0  0
  8 17  1  0  0  0  0
  9 10  1  0  0  0  0
  9 22  1  0  0  0  0
 10 15  1  0  0  0  0
 10 11  1  0  0  0  0
 10 23  1  0  0  0  0
 11 12  1  0  0  0  0
 11 24  1  0  0  0  0
 11 25  1  0  0  0  0
 12 16  1  0  0  0  0
 12 13  1  0  0  0  0
 12 26  1  0  0  0  0
 13 14  1  0  0  0  0
 13 27  1  0  0  0  0
 13 28  1  0  0  0  0
 14 15  1  0  0  0  0
 14 29  1  0  0  0  0
 14 30  1  0  0  0  0
 15 16  1  0  0  0  0
 15 31  1  0  0  0  0
 17 18  2  0  0  0  0
 17 33  1  0  0  0  0
 18 32  1  0  0  0  0
M  CHG  1  17   1
M  END
> <s_m_source_file>
AV-unprocessed.smi

> <i_m_source_file_index>
2837

> <i_lp_mmshare_version>
43012

> <i_f3d_flags>
0

> <s_epik_input>
RltDSF0oRilPYzFbY0hdW2NIXWMobltjSF0xKVtOSF1bQ0BIXShbQ0gyXVtDQEBIXTIzKVtDQEBIXShPMylbQ0gyXVtDSDJdMg==

> <s_epik_cmdline>
J2VwaWtfcHl0aG9uJywgJy1waCcsICc3LjAnLCAnLXRuJywgJzgnLCAnLW1hJywgJzIwMCcsICctbWV0YWxfYmluZGluZycsICctaW1hZScsICc8aW5maWxlLm1hZT4nLCAnLW9tYWUnLCAnPG91dGZpbGUubWFlPic=

> <r_lp_tautomer_probability>
0.999429

> <r_epik_Ionization_Penalty>
2.29716

> <r_epik_Ionization_Penalty_Charging>
2.29716

> <r_epik_Ionization_Penalty_Neutral>
1.42285e-06

> <r_epik_State_Penalty>
2.44762

> <r_epik_Charging_Adjusted_Penalty>
4.74478

> <i_epik_Tot_Q>
1

> <i_epik_Tot_abs_Q>
1

> <r_epik_Metal_State_Penalty>
6.53078

> <b_epik_Metal_Only>
0

> <s_lp_Force_Field>
OPLS_2005

> <r_lp_Energy>
46.8355

> <b_lp_Chiralities_Consistent>
1

> <s_lp_Variant>
AV-unprocessed.smi:2837-7

> <Gold.Version>
5.8.1

> <Gold.Id.Protein>
6NUR|6NUR_protein|mol2

> <Gold.PLP.Fitness>
45.8871

> <Gold.PLP.PLP>
-37.3812

> <Gold.PLP.part.hbond>
-1.7790

> <Gold.PLP.part.metal>
0.0000

> <Gold.PLP.part.buried>
-5.6745

> <Gold.PLP.part.nonpolar>
-33.0857

> <Gold.PLP.part.repulsive>
2.7887

> <Gold.PLP.ligand.clash>
0.0000

> <Gold.PLP.ligand.torsion>
0.7450

> <Gold.PLP.Chemscore.Hbond>
3.3280

> <Gold.PLP.Chemscore.CHOScore>
0.0000

> <Gold.PLP.Chemscore.Metal>
0.0000

> <Gold.Chemscore.Hbonds>
donor molecule, donor type, donor heavy atom, donor atom, acceptor molecule, acceptor atom, score
      L1  H     9    22       P1  8028  1.44
      L1  H    17    33       P1  8028  1.89

> <Gold.PLP.Chemscore.Internal.Correction>
0.0118

> <Gold.Rescore>
     Score         DG    S(hbond)    S(metal)    S(lipo)     H(rot)  DE(clash)    DE(int)     intcor
     18.29     -18.72       1.69        0.00      94.22       1.34       0.05       0.37       ----

> <Gold.Chemscore.Fitness>
18.2943

> <Gold.Chemscore.DG>
-18.7202

> <Gold.Chemscore.ZeroCoef>
-5.4800

> <Gold.Chemscore.Hbond>
1.6883

> <Gold.Chemscore.Metal>
0.0000

> <Gold.Chemscore.Lipo>
94.2175

> <Gold.Chemscore.Internal_Hbond>
0.0000

> <Gold.Chemscore.DEClash>
0.0509

> <Gold.Chemscore.DEInternal>
0.3749

> <Gold.Chemscore.Rot>
1.3368

> <Gold.Chemscore.Internal.Correction>
   9.000000E+99

> <Gold.Chemscore.Hbonds>
donor molecule, donor type, donor heavy atom, donor atom, acceptor molecule, acceptor atom, score
      L1  H     9    22       P1  8028  0.72
      L1  H    17    33       P1  8028  0.88

> <Gold.Chemscore.Hbond.Weighted>
-5.6390

> <Gold.Chemscore.Metal.Weighted>
-0.0000

> <Gold.Chemscore.Lipo.Weighted>
-11.0235

> <Gold.Chemscore.Internal_Hbond.Weighted>
0.0000

> <Gold.Chemscore.DEClash.Weighted>
0.0509

> <Gold.Chemscore.DEInternal.Weighted>
0.3749

> <Gold.Chemscore.Rot.Weighted>
3.4223

> <Gold.Chemscore.Internal.Correction.Weighted>
   9.000000E+99

> <Gold.Protein.RotatedTorsions>
[ 6907 6896 6895 6894 ] final   20.84 input  -60.11 | X-H torsion
[ 7974 7965 7964 7962 ] final   64.81 input  175.53 | X-H torsion
[ 8008 7997 7996 7995 ] final    2.41 input   59.86 | X-H torsion
[ 10167 10162 10161 10158 ] final   94.36 input  -65.29 | X-H torsion
[ 10718 10713 10712 10709 ] final  167.73 input   66.30 | X-H torsion
[ 10763 10752 10751 10750 ] final -119.74 input  -60.55 | X-H torsion
[ 11005 11000 10999 10996 ] final  -87.28 input  -57.11 | X-H torsion

> <Gold.Protein.ActiveResidues>
 VAL166  LYS551  ARG553  GLY616  TRP617  ASP618  TYR619  PRO620  LYS621  CYS622 
 ASP623  PHE694  ASN695  SER759  ASP760  ASP761  ALA762  ILE779  LEU786  VAL792 
 PHE793  MET794  SER795  GLU796  ALA797  LYS798  CYS799  TRP800  GLU811  SER814 

> <Gold.Protein.RotatedAtoms>
  151.9025  135.0372  160.0507 H   0  0  0  0  0  0  0  0  0  0  0  0  # atno 6907 bound_to 6896
  152.2346  133.5081  159.5243 H   0  0  0  0  0  0  0  0  0  0  0  0  # atno 6908 bound_to 6896
  150.7035  134.1087  159.4035 H   0  0  0  0  0  0  0  0  0  0  0  0  # atno 6909 bound_to 6896
  145.8458  139.3223  143.0904 H   0  0  0  0  0  0  0  0  0  0  0  0  # atno 7974 bound_to 7965
  154.6913  140.2653  155.6810 H   0  0  0  0  0  0  0  0  0  0  0  0  # atno 8008 bound_to 7997
  156.2733  140.2790  156.1415 H   0  0  0  0  0  0  0  0  0  0  0  0  # atno 8009 bound_to 7997
  155.0893  140.0373  157.2654 H   0  0  0  0  0  0  0  0  0  0  0  0  # atno 8010 bound_to 7997
  139.8091  144.6781  150.9664 H   0  0  0  0  0  0  0  0  0  0  0  0  # atno 10167 bound_to 10162
  157.0473  131.0303  151.2693 H   0  0  0  0  0  0  0  0  0  0  0  0  # atno 10718 bound_to 10713
  154.8625  135.4227  154.2348 H   0  0  0  0  0  0  0  0  0  0  0  0  # atno 10763 bound_to 10752
  153.3325  135.6989  153.6941 H   0  0  0  0  0  0  0  0  0  0  0  0  # atno 10764 bound_to 10752
  153.5952  135.3547  155.2898 H   0  0  0  0  0  0  0  0  0  0  0  0  # atno 10765 bound_to 10752
  141.1619  133.7502  156.9283 H   0  0  0  0  0  0  0  0  0  0  0  0  # atno 11005 bound_to 11000
  145.9414  140.8977  143.0306 LP  0  0  0  0  0  0  0  0  0  0  0  0  # atno 17320 bound_to 7965
  144.6731  140.1553  143.7427 LP  0  0  0  0  0  0  0  0  0  0  0  0  # atno 17321 bound_to 7965
  140.7818  143.4204  151.0851 LP  0  0  0  0  0  0  0  0  0  0  0  0  # atno 17342 bound_to 10162
  139.7871  143.8271  152.3146 LP  0  0  0  0  0  0  0  0  0  0  0  0  # atno 17343 bound_to 10162
  157.5058  130.7908  149.7652 LP  0  0  0  0  0  0  0  0  0  0  0  0  # atno 17370 bound_to 10713
  156.0019  130.3876  150.2575 LP  0  0  0  0  0  0  0  0  0  0  0  0  # atno 17371 bound_to 10713
  140.1404  134.9297  157.2458 LP  0  0  0  0  0  0  0  0  0  0  0  0  # atno 17394 bound_to 11000
  140.2844  134.3313  155.7333 LP  0  0  0  0  0  0  0  0  0  0  0  0  # atno 17395 bound_to 11000

$$$$
