#       Name:                AV-unprocessed.smi:1645
#       Creating user name   scv26
#       Creation time:       Fri Mar 27 07:31:46 2020


#       File generated by GOLD software.
#

@<TRIPOS>MOLECULE
AV-unprocessed.smi:1645
    59    62     1
SMALL
NO_CHARGES


@<TRIPOS>ATOM
      1 ****        -0.7911   1.6051  -0.5789 O.2            1 S1                 0.0000
      2 ****        -1.2883   0.4939  -0.7961 C.2            1 S1                 0.0000
      3 ****        -0.5014  -0.5894  -0.9183 N.am           1 S1                 0.0000
      4 ****         0.9156  -0.6648  -0.8736 C.ar           1 S1                 0.0000
      5 ****         1.5008  -1.8676  -0.4254 C.ar           1 S1                 0.0000
      6 ****         2.9048  -1.9865  -0.3825 C.ar           1 S1                 0.0000
      7 ****         3.7047  -0.8991  -0.8029 C.ar           1 S1                 0.0000
      8 ****         5.1052  -0.9242  -0.7938 N.3            1 S1                 0.0000
      9 ****         5.6580  -1.8334  -1.7945 C.3            1 S1                 0.0000
     10 ****         7.1884  -1.6958  -1.8748 C.3            1 S1                 0.0000
     11 ****         7.8305  -1.8830  -0.4906 C.3            1 S1                 0.0000
     12 ****         7.1948  -0.9181   0.5230 C.3            1 S1                 0.0000
     13 ****         5.6651  -1.0796   0.5467 C.3            1 S1                 0.0000
     14 ****         3.1070   0.2277  -1.2470 N.pl3          1 S1                 1.0000
     15 ****         1.7663   0.3829  -1.3012 C.ar           1 S1                 0.0000
     16 ****        -2.6080   0.1848  -0.9103 N.pl3          1 S1                -1.0000
     17 ****        -3.7012   1.1550  -0.8098 C.3            1 S1                 0.0000
     18 ****        -5.0320   0.5927  -1.3261 C.3            1 S1                 0.0000
     19 ****        -6.1082   1.3610  -0.5375 C.3            1 S1                 0.0000
     20 ****        -5.3806   2.1636   0.4727 N.4            1 S1                 1.0000
     21 ****        -6.1154   2.4950   1.7205 C.3            1 S1                 0.0000
     22 ****        -6.1329   1.3317   2.7247 C.3            1 S1                 0.0000
     23 ****        -4.7102   0.8341   2.9976 C.3            1 S1                 0.0000
     24 ****        -4.0589   0.4028   1.6791 C.3            1 S1                 0.0000
     25 ****        -4.0360   1.5649   0.6399 C.3            1 S1                 0.0000
     26 ****        -0.9860  -1.4723  -0.9870 H              1 S1                 0.0000
     27 ****         0.8796  -2.6925  -0.1077 H              1 S1                 0.0000
     28 ****         3.3564  -2.9033  -0.0328 H              1 S1                 0.0000
     29 ****         5.3919  -2.8603  -1.5406 H              1 S1                 0.0000
     30 ****         5.2162  -1.6203  -2.7689 H              1 S1                 0.0000
     31 ****         7.5930  -2.4245  -2.5779 H              1 S1                 0.0000
     32 ****         7.4462  -0.7108  -2.2662 H              1 S1                 0.0000
     33 ****         7.6897  -2.9116  -0.1562 H              1 S1                 0.0000
     34 ****         8.9067  -1.7173  -0.5471 H              1 S1                 0.0000
     35 ****         7.6051  -1.0940   1.5177 H              1 S1                 0.0000
     36 ****         7.4500   0.1093   0.2593 H              1 S1                 0.0000
     37 ****         5.2247  -0.3398   1.2166 H              1 S1                 0.0000
     38 ****         5.4060  -2.0632   0.9409 H              1 S1                 0.0000
     39 ****         1.4298   1.3314  -1.6930 H              1 S1                 0.0000
     40 ****        -3.4870   2.0636  -1.3760 H              1 S1                 0.0000
     41 ****        -5.1369   0.7210  -2.4038 H              1 S1                 0.0000
     42 ****        -5.1164  -0.4744  -1.1132 H              1 S1                 0.0000
     43 ****        -6.6921   2.0215  -1.1798 H              1 S1                 0.0000
     44 ****        -6.7996   0.6618  -0.0651 H              1 S1                 0.0000
     45 ****        -5.6225   3.3537   2.1778 H              1 S1                 0.0000
     46 ****        -7.1298   2.8133   1.4784 H              1 S1                 0.0000
     47 ****        -6.5998   1.6538   3.6559 H              1 S1                 0.0000
     48 ****        -6.7434   0.5135   2.3413 H              1 S1                 0.0000
     49 ****        -4.1191   1.6214   3.4671 H              1 S1                 0.0000
     50 ****        -4.7325  -0.0025   3.6967 H              1 S1                 0.0000
     51 ****        -3.0442   0.0565   1.8827 H              1 S1                 0.0000
     52 ****        -4.6050  -0.4652   1.3031 H              1 S1                 0.0000
     53 ****        -3.3453   2.3350   0.9863 H              1 S1                 0.0000
     54 ****        -5.2087   3.0447   0.0101 H              1 S1                 0.0000
     55 ****         3.6960   1.0004  -1.5583 H              1 S1                 0.0000
     56 ****         0.2006   1.7010  -0.4934 LP             1 S1                 0.0000
     57 ****        -1.3807   2.4077  -0.4888 LP             1 S1                 0.0000
     58 ****         5.4093  -0.0164  -1.0824 LP             1 S1                 0.0000
     59 ****        -2.8489  -0.7718  -1.0744 LP             1 S1                 0.0000
@<TRIPOS>BOND
    1    1    2 2     
    2    2    3 am    
    3    2   16 1     
    4    3    4 1     
    5    3   26 1     
    6    4   15 ar    
    7    4    5 ar    
    8    5    6 ar    
    9    5   27 1     
   10    6    7 ar    
   11    6   28 1     
   12    7    8 1     
   13    7   14 ar    
   14    8   13 1     
   15    8    9 1     
   16    9   10 1     
   17    9   29 1     
   18    9   30 1     
   19   10   11 1     
   20   10   31 1     
   21   10   32 1     
   22   11   12 1     
   23   11   33 1     
   24   11   34 1     
   25   12   13 1     
   26   12   35 1     
   27   12   36 1     
   28   13   37 1     
   29   13   38 1     
   30   14   15 ar    
   31   14   55 1     
   32   15   39 1     
   33   16   17 1     
   34   17   25 1     
   35   17   18 1     
   36   17   40 1     
   37   18   19 1     
   38   18   41 1     
   39   18   42 1     
   40   19   20 1     
   41   19   43 1     
   42   19   44 1     
   43   20   25 1     
   44   20   21 1     
   45   20   54 1     
   46   21   22 1     
   47   21   45 1     
   48   21   46 1     
   49   22   23 1     
   50   22   47 1     
   51   22   48 1     
   52   23   24 1     
   53   23   49 1     
   54   23   50 1     
   55   24   25 1     
   56   24   51 1     
   57   24   52 1     
   58   25   53 1     
   59    1   56 1     
   60    1   57 1     
   61    8   58 1     
   62   16   59 1     
@<TRIPOS>SUBSTRUCTURE
      1 S1             1
@<TRIPOS>SET
LONE_PAIRS      STATIC     ATOMS    <user>   **** ""
4 56 57 58 59
DONOR_HYDROGENS      STATIC     ATOMS    <user>   **** ""
3 26 55 54
ATOM$BLUE        STATIC     ATOMS    COLORGROUP SYSTEM
4 56 57 58 59
ATOM$RED        STATIC     ATOMS    COLORGROUP SYSTEM
3 26 55 54
