#       Name:                AV-unprocessed.smi:836
#       Creating user name   scv26
#       Creation time:       Fri Mar 27 01:34:53 2020


#       File generated by GOLD software.
#

@<TRIPOS>MOLECULE
AV-unprocessed.smi:836
    41    42     1
SMALL
NO_CHARGES


@<TRIPOS>ATOM
      1 ****        -1.1126  -3.8701  -0.9523 C.3            1 S1                 0.0000
      2 ****        -1.7999  -2.5000  -0.8664 C.3            1 S1                 0.0000
      3 ****        -1.4683  -1.6255  -2.0907 C.3            1 S1                 0.0000
      4 ****        -2.1535  -0.2497  -2.0083 C.3            1 S1                 0.0000
      5 ****        -1.8145   0.4933  -0.6996 C.3            1 S1                 0.0000
      6 ****        -0.4171   0.9177  -0.6798 N.am           1 S1                 0.0000
      7 ****         0.0699   2.0495  -1.2126 C.2            1 S1                 0.0000
      8 ****        -0.6232   2.8711  -1.8120 O.2            1 S1                 0.0000
      9 ****         1.5737   2.2881  -1.0542 C.3            1 S1                 0.0000
     10 ****         1.9772   2.2480   0.3415 N.pl3          1 S1                 0.0000
     11 ****         1.8423   3.2279   1.3013 C.2            1 S1                 0.0000
     12 ****         2.3493   2.7271   2.4658 C.2            1 S1                 0.0000
     13 ****         2.7793   1.4128   2.1206 C.2            1 S1                 0.0000
     14 ****         3.4216   0.3763   3.0046 C.3            1 S1                 0.0000
     15 ****         3.5254   0.8326   4.2527 F              1 S1                 0.0000
     16 ****         2.6838  -0.7339   3.0136 F              1 S1                 0.0000
     17 ****         4.6406   0.0851   2.5510 F              1 S1                 0.0000
     18 ****         2.5551   1.1351   0.8433 N.2            1 S1                 0.0000
     19 ****        -2.1157  -0.3896   0.5264 C.3            1 S1                 0.0000
     20 ****        -1.4306  -1.7652   0.4365 C.3            1 S1                 0.0000
     21 ****        -0.0269  -3.7691  -0.9623 H              1 S1                 0.0000
     22 ****        -1.4066  -4.4010  -1.8581 H              1 S1                 0.0000
     23 ****        -1.3810  -4.4979  -0.1020 H              1 S1                 0.0000
     24 ****        -2.8770  -2.6735  -0.8599 H              1 S1                 0.0000
     25 ****        -0.3881  -1.4933  -2.1695 H              1 S1                 0.0000
     26 ****        -1.7810  -2.1314  -3.0047 H              1 S1                 0.0000
     27 ****        -1.8797   0.3565  -2.8726 H              1 S1                 0.0000
     28 ****        -3.2338  -0.3882  -2.0683 H              1 S1                 0.0000
     29 ****        -2.4434   1.3828  -0.6312 H              1 S1                 0.0000
     30 ****         0.2345   0.3042  -0.2114 H              1 S1                 0.0000
     31 ****         2.1255   1.5344  -1.6181 H              1 S1                 0.0000
     32 ****         1.8442   3.2610  -1.4666 H              1 S1                 0.0000
     33 ****         1.3974   4.1867   1.0785 H              1 S1                 0.0000
     34 ****         2.4028   3.2242   3.4230 H              1 S1                 0.0000
     35 ****        -1.8116   0.1196   1.4418 H              1 S1                 0.0000
     36 ****        -3.1939  -0.5343   0.6055 H              1 S1                 0.0000
     37 ****        -1.7162  -2.3696   1.2981 H              1 S1                 0.0000
     38 ****        -0.3485  -1.6409   0.4967 H              1 S1                 0.0000
     39 ****        -1.6042   2.7119  -1.9225 LP             1 S1                 0.0000
     40 ****        -0.2053   3.6979  -2.1886 LP             1 S1                 0.0000
     41 ****         2.7675   0.2870   0.3578 LP             1 S1                 0.0000
@<TRIPOS>BOND
    1    1    2 1     
    2    1   21 1     
    3    1   22 1     
    4    1   23 1     
    5    2   20 1     
    6    2    3 1     
    7    2   24 1     
    8    3    4 1     
    9    3   25 1     
   10    3   26 1     
   11    4    5 1     
   12    4   27 1     
   13    4   28 1     
   14    5    6 1     
   15    5   19 1     
   16    5   29 1     
   17    6    7 am    
   18    6   30 1     
   19    7    8 2     
   20    7    9 1     
   21    9   10 1     
   22    9   31 1     
   23    9   32 1     
   24   10   18 1     
   25   10   11 1     
   26   11   12 2     
   27   11   33 1     
   28   12   13 1     
   29   12   34 1     
   30   13   14 1     
   31   13   18 2     
   32   14   15 1     
   33   14   16 1     
   34   14   17 1     
   35   19   20 1     
   36   19   35 1     
   37   19   36 1     
   38   20   37 1     
   39   20   38 1     
   40    8   39 1     
   41    8   40 1     
   42   18   41 1     
@<TRIPOS>SUBSTRUCTURE
      1 S1             1
@<TRIPOS>SET
LONE_PAIRS      STATIC     ATOMS    <user>   **** ""
3 39 40 41
DONOR_HYDROGENS      STATIC     ATOMS    <user>   **** ""
1 30
ATOM$BLUE        STATIC     ATOMS    COLORGROUP SYSTEM
3 39 40 41
ATOM$RED        STATIC     ATOMS    COLORGROUP SYSTEM
1 30
