AV-unprocessed.smi:118|AV-procd|sdf|1131|dock4
  -GOLD-   2262018263D 1   1.00000     0.00000
 Structure written by MMmdl.
 41 44  0  0  0  0  0  0  0  0  1 V2000
  150.6229  136.7666  159.7547 O   0  0  0  0  0  0  0  0  0  0  0  0
  149.7669  137.4008  159.1366 C   0  0  0  0  0  0  0  0  0  0  0  0
  150.1727  138.4011  158.0422 C   0  0  0  0  0  0  0  0  0  0  0  0
  151.0086  139.5171  158.5376 N   0  0  0  0  0  0  0  0  0  0  0  0
  152.3133  139.2310  159.0109 C   0  0  0  0  0  0  0  0  0  0  0  0
  152.7462  138.0780  159.0345 O   0  0  0  0  0  0  0  0  0  0  0  0
  153.0919  140.3847  159.4461 C   0  0  0  0  0  0  0  0  0  0  0  0
  154.3464  140.2106  159.8954 F   0  0  0  0  0  0  0  0  0  0  0  0
  152.5739  141.6292  159.4000 C   0  0  0  0  0  0  0  0  0  0  0  0
  151.2927  141.8929  158.9572 N   0  0  0  0  0  0  0  0  0  0  0  0
  150.8149  143.3251  158.8905 C   0  0  2  0  0  0  0  0  0  0  0  0
  151.6731  144.2210  157.9772 C   0  0  0  0  0  0  0  0  0  0  0  0
  152.1418  145.3177  158.9195 C   0  0  0  0  0  0  0  0  0  0  0  0
  151.1192  145.2551  160.0487 C   0  0  0  0  0  0  0  0  0  0  0  0
  150.8546  143.8668  160.1747 O   0  0  0  0  0  0  0  0  0  0  0  0
  150.4869  140.8321  158.4822 C   0  0  0  0  0  0  0  0  0  0  0  0
  149.3631  141.0442  158.0238 O   0  0  0  0  0  0  0  0  0  0  0  0
  148.4442  137.3110  159.3625 N   0  0  0  0  0  0  0  0  0  0  0  0
  147.7591  136.4853  160.2964 C   0  0  0  0  0  0  0  0  0  0  0  0
  148.2399  135.2189  160.7182 C   0  0  0  0  0  0  0  0  0  0  0  0
  147.5050  134.4339  161.6346 C   0  0  0  0  0  0  0  0  0  0  0  0
  146.2709  134.8875  162.1428 C   0  0  0  0  0  0  0  0  0  0  0  0
  145.7813  136.1343  161.7142 C   0  0  0  0  0  0  0  0  0  0  0  0
  146.5132  136.9236  160.7968 C   0  0  0  0  0  0  0  0  0  0  0  0
  145.8842  138.1258  160.4766 N   0  0  0  0  0  0  0  0  0  0  0  0
  144.6197  138.0115  161.3281 S   0  0  0  0  0  0  0  0  0  0  0  0
  144.5804  136.7057  162.1219 N   0  0  0  0  0  0  0  0  0  0  0  0
  150.6860  137.8576  157.2474 H   0  0  0  0  0  0  0  0  0  0  0  0
  149.2656  138.7724  157.5626 H   0  0  0  0  0  0  0  0  0  0  0  0
  153.1953  142.4498  159.7279 H   0  0  0  0  0  0  0  0  0  0  0  0
  149.7788  143.2816  158.5520 H   0  0  0  0  0  0  0  0  0  0  0  0
  152.4961  143.6790  157.5104 H   0  0  0  0  0  0  0  0  0  0  0  0
  151.0359  144.6254  157.1903 H   0  0  0  0  0  0  0  0  0  0  0  0
  153.1348  145.0841  159.3042 H   0  0  0  0  0  0  0  0  0  0  0  0
  152.1876  146.2971  158.4429 H   0  0  0  0  0  0  0  0  0  0  0  0
  151.4929  145.6797  160.9806 H   0  0  0  0  0  0  0  0  0  0  0  0
  150.2020  145.7782  159.7733 H   0  0  0  0  0  0  0  0  0  0  0  0
  147.8639  137.9633  158.8553 H   0  0  0  0  0  0  0  0  0  0  0  0
  149.1684  134.8204  160.3393 H   0  0  0  0  0  0  0  0  0  0  0  0
  147.8909  133.4741  161.9448 H   0  0  0  0  0  0  0  0  0  0  0  0
  145.7104  134.2852  162.8426 H   0  0  0  0  0  0  0  0  0  0  0  0
  1  2  2  0  0  0  0
  2  3  1  0  0  0  0
  2 18  1  0  0  0  0
  3  4  1  0  0  0  0
  3 28  1  0  0  0  0
  3 29  1  0  0  0  0
  4 16  1  0  0  0  0
  4  5  1  0  0  0  0
  5  6  2  0  0  0  0
  5  7  1  0  0  0  0
  7  8  1  0  0  0  0
  7  9  2  0  0  0  0
  9 10  1  0  0  0  0
  9 30  1  0  0  0  0
 10 11  1  0  0  0  0
 10 16  1  0  0  0  0
 11 15  1  0  0  0  0
 11 12  1  0  0  0  0
 11 31  1  0  0  0  0
 12 13  1  0  0  0  0
 12 32  1  0  0  0  0
 12 33  1  0  0  0  0
 13 14  1  0  0  0  0
 13 34  1  0  0  0  0
 13 35  1  0  0  0  0
 14 15  1  0  0  0  0
 14 36  1  0  0  0  0
 14 37  1  0  0  0  0
 16 17  2  0  0  0  0
 18 19  1  0  0  0  0
 18 38  1  0  0  0  0
 19 24  1  0  0  0  0
 19 20  2  0  0  0  0
 20 21  1  0  0  0  0
 20 39  1  0  0  0  0
 21 22  2  0  0  0  0
 21 40  1  0  0  0  0
 22 23  1  0  0  0  0
 22 41  1  0  0  0  0
 23 27  1  0  0  0  0
 23 24  2  0  0  0  0
 24 25  1  0  0  0  0
 25 26  2  0  0  0  0
 26 27  2  0  0  0  0
M  END
> <s_m_source_file>
AV-unprocessed.smi

> <i_m_source_file_index>
118

> <i_lp_mmshare_version>
43012

> <i_f3d_flags>
0

> <s_epik_input>
TjE9Uz1OYyhjMTIpYyhbY0hdW2NIXVtjSF0yKVtOSF1DKD1PKVtDSDJdbjNjKD1PKWMoRilbY0hdbihjMz1PKVtDQEBIXTRbQ0gyXVtDSDJdW0NIMl1PNA==

> <s_epik_cmdline>
J2VwaWtfcHl0aG9uJywgJy1waCcsICc3LjAnLCAnLXRuJywgJzgnLCAnLW1hJywgJzIwMCcsICctbWV0YWxfYmluZGluZycsICctaW1hZScsICc8aW5maWxlLm1hZT4nLCAnLW9tYWUnLCAnPG91dGZpbGUubWFlPic=

> <r_lp_tautomer_probability>
1

> <r_epik_Ionization_Penalty>
1.81156e-06

> <r_epik_Ionization_Penalty_Charging>
3.88729e-08

> <r_epik_Ionization_Penalty_Neutral>
1.77269e-06

> <r_epik_State_Penalty>
-0

> <r_epik_Charging_Adjusted_Penalty>
3.88729e-08

> <i_epik_Tot_Q>
0

> <i_epik_Tot_abs_Q>
0

> <r_epik_Metal_State_Penalty>
-0

> <b_epik_Metal_Only>
0

> <s_epik_Chemistry_Notes>
This compound contains an acetal/aminal-like group ( X-CH(R)-Y where X, Y are N, S, or O) that may be acid/base labile, releasing an aldehyde.

> <s_lp_Force_Field>
OPLS_2005

> <r_lp_Energy>
47.7675

> <b_lp_Chiralities_Consistent>
1

> <s_lp_Variant>
AV-unprocessed.smi:118-1

> <Gold.Version>
5.8.1

> <Gold.Id.Protein>
6NUR|6NUR_protein|mol2

> <Gold.PLP.Fitness>
50.9775

> <Gold.PLP.PLP>
-45.4550

> <Gold.PLP.part.hbond>
-1.9710

> <Gold.PLP.part.metal>
0.0000

> <Gold.PLP.part.buried>
-7.1045

> <Gold.PLP.part.nonpolar>
-36.2795

> <Gold.PLP.part.repulsive>
0.3383

> <Gold.PLP.ligand.clash>
0.0000

> <Gold.PLP.ligand.torsion>
0.2280

> <Gold.PLP.Chemscore.Hbond>
1.9833

> <Gold.PLP.Chemscore.CHOScore>
0.0000

> <Gold.PLP.Chemscore.Metal>
0.0000

> <Gold.Chemscore.Hbonds>
donor molecule, donor type, donor heavy atom, donor atom, acceptor molecule, acceptor atom, score
      P1  H  6896  6907       L1     1  1.00
      P1  H  6934  6947       L1    25  0.68

> <Gold.PLP.Chemscore.Internal.Correction>
0.0286

> <Gold.Rescore>
     Score         DG    S(hbond)    S(metal)    S(lipo)     H(rot)  DE(clash)    DE(int)     intcor
     13.72     -17.48       1.56        0.00      97.39       1.80       0.20       3.56       ----

> <Gold.Chemscore.Fitness>
13.7236

> <Gold.Chemscore.DG>
-17.4840

> <Gold.Chemscore.ZeroCoef>
-5.4800

> <Gold.Chemscore.Hbond>
1.5603

> <Gold.Chemscore.Metal>
0.0000

> <Gold.Chemscore.Lipo>
97.3925

> <Gold.Chemscore.Internal_Hbond>
0.0000

> <Gold.Chemscore.DEClash>
0.1994

> <Gold.Chemscore.DEInternal>
3.5610

> <Gold.Chemscore.Rot>
1.7977

> <Gold.Chemscore.Internal.Correction>
   9.000000E+99

> <Gold.Chemscore.Hbonds>
donor molecule, donor type, donor heavy atom, donor atom, acceptor molecule, acceptor atom, score
      P1  H  6896  6907       L1     1  0.96
      P1  H  6934  6947       L1    25  0.08

> <Gold.Chemscore.Hbond.Weighted>
-5.2113

> <Gold.Chemscore.Metal.Weighted>
-0.0000

> <Gold.Chemscore.Lipo.Weighted>
-11.3949

> <Gold.Chemscore.Internal_Hbond.Weighted>
0.0000

> <Gold.Chemscore.DEClash.Weighted>
0.1994

> <Gold.Chemscore.DEInternal.Weighted>
3.5610

> <Gold.Chemscore.Rot.Weighted>
4.6022

> <Gold.Chemscore.Internal.Correction.Weighted>
   9.000000E+99

> <Gold.Protein.RotatedTorsions>
[ 6907 6896 6895 6894 ] final  -42.29 input  -60.11 | X-H torsion
[ 7974 7965 7964 7962 ] final  151.72 input  175.53 | X-H torsion
[ 8008 7997 7996 7995 ] final  -62.24 input   59.86 | X-H torsion
[ 10167 10162 10161 10158 ] final  -42.55 input  -65.29 | X-H torsion
[ 10718 10713 10712 10709 ] final -152.81 input   66.30 | X-H torsion
[ 10763 10752 10751 10750 ] final   63.97 input  -60.55 | X-H torsion
[ 11005 11000 10999 10996 ] final -111.84 input  -57.11 | X-H torsion

> <Gold.Protein.ActiveResidues>
 VAL166  LYS551  ARG553  GLY616  TRP617  ASP618  TYR619  PRO620  LYS621  CYS622 
 ASP623  PHE694  ASN695  SER759  ASP760  ASP761  ALA762  ILE779  LEU786  VAL792 
 PHE793  MET794  SER795  GLU796  ALA797  LYS798  CYS799  TRP800  GLU811  SER814 

> <Gold.Protein.RotatedAtoms>
  150.9569  134.8962  159.7706 H   0  0  0  0  0  0  0  0  0  0  0  0  # atno 6907 bound_to 6896
  152.5141  134.3727  159.9333 H   0  0  0  0  0  0  0  0  0  0  0  0  # atno 6908 bound_to 6896
  151.3741  133.3804  159.2737 H   0  0  0  0  0  0  0  0  0  0  0  0  # atno 6909 bound_to 6896
  144.8272  139.6574  143.6074 H   0  0  0  0  0  0  0  0  0  0  0  0  # atno 7974 bound_to 7965
  154.4489  140.1000  156.6556 H   0  0  0  0  0  0  0  0  0  0  0  0  # atno 8008 bound_to 7997
  155.5350  140.3482  155.4416 H   0  0  0  0  0  0  0  0  0  0  0  0  # atno 8009 bound_to 7997
  156.0637  140.1332  156.9899 H   0  0  0  0  0  0  0  0  0  0  0  0  # atno 8010 bound_to 7997
  140.6965  143.3031  151.3225 H   0  0  0  0  0  0  0  0  0  0  0  0  # atno 10167 bound_to 10162
  156.4774  130.8287  151.2515 H   0  0  0  0  0  0  0  0  0  0  0  0  # atno 10718 bound_to 10713
  153.0037  135.5410  154.6435 H   0  0  0  0  0  0  0  0  0  0  0  0  # atno 10763 bound_to 10752
  154.5685  135.2839  155.0853 H   0  0  0  0  0  0  0  0  0  0  0  0  # atno 10764 bound_to 10752
  154.2028  135.6481  153.5144 H   0  0  0  0  0  0  0  0  0  0  0  0  # atno 10765 bound_to 10752
  141.0710  133.9379  157.2484 H   0  0  0  0  0  0  0  0  0  0  0  0  # atno 11005 bound_to 11000
  146.2577  139.6340  142.9383 LP  0  0  0  0  0  0  0  0  0  0  0  0  # atno 17320 bound_to 7965
  145.4973  141.0438  143.2560 LP  0  0  0  0  0  0  0  0  0  0  0  0  # atno 17321 bound_to 7965
  139.6427  144.0509  152.2567 LP  0  0  0  0  0  0  0  0  0  0  0  0  # atno 17342 bound_to 10162
  140.0019  144.6287  150.7722 LP  0  0  0  0  0  0  0  0  0  0  0  0  # atno 17343 bound_to 10162
  157.7486  131.0056  150.3120 LP  0  0  0  0  0  0  0  0  0  0  0  0  # atno 17370 bound_to 10713
  156.3556  130.3838  149.7293 LP  0  0  0  0  0  0  0  0  0  0  0  0  # atno 17371 bound_to 10713
  139.9524  135.0173  156.9031 LP  0  0  0  0  0  0  0  0  0  0  0  0  # atno 17394 bound_to 11000
  140.5673  134.0477  155.7418 LP  0  0  0  0  0  0  0  0  0  0  0  0  # atno 17395 bound_to 11000

$$$$
