AV-unprocessed.smi:2095|AV-procd|sdf|8561|dock3
  -GOLD-   2272011283D 1   1.00000     0.00000
 Structure written by MMmdl.
 42 43  0  0  0  0  0  0  0  0  2 V2000
  146.0141  131.9395  149.8853 C   0  0  0  0  0  0  0  0  0  0  0  0
  146.2423  133.2772  150.6028 C   0  0  1  0  0  0  0  0  0  0  0  0
  145.0113  134.1938  150.4916 C   0  0  0  0  0  0  0  0  0  0  0  0
  145.2565  135.5112  151.2394 C   0  0  0  0  0  0  0  0  0  0  0  0
  145.6516  135.2460  152.7002 C   0  0  0  0  0  0  0  0  0  0  0  0
  146.8514  134.3681  152.7675 N   0  3  1  0  0  0  0  0  0  0  0  0
  147.4661  134.2267  154.1196 C   0  0  1  0  0  0  0  0  0  0  0  0
  148.9314  133.7655  154.0035 C   0  0  0  0  0  0  0  0  0  0  0  0
  147.3080  135.4938  154.9983 C   0  0  0  0  0  0  0  0  0  0  0  0
  148.0640  136.6266  154.4761 N   0  0  0  0  0  0  0  0  0  0  0  0
  148.6193  137.5910  155.2270 C   0  0  0  0  0  0  0  0  0  0  0  0
  148.5465  137.6165  156.4552 O   0  0  0  0  0  0  0  0  0  0  0  0
  149.3840  138.6869  154.4832 C   0  0  0  0  0  0  0  0  0  0  0  0
  150.8031  138.6346  154.7813 N   0  0  0  0  0  0  0  0  0  0  0  0
  151.7098  137.6784  154.5693 C   0  0  0  0  0  0  0  0  0  0  0  0
  152.9067  138.0344  155.0104 N   0  0  0  0  0  0  0  0  0  0  0  0
  152.6896  139.3026  155.5230 N   0  0  0  0  0  0  0  0  0  0  0  0
  151.4433  139.6644  155.3896 N   0  0  0  0  0  0  0  0  0  0  0  0
  146.6221  133.0675  152.0827 C   0  0  0  0  0  0  0  0  0  0  0  0
  145.1894  131.3841  150.3333 H   0  0  0  0  0  0  0  0  0  0  0  0
  146.9040  131.3111  149.9335 H   0  0  0  0  0  0  0  0  0  0  0  0
  145.7779  132.0944  148.8321 H   0  0  0  0  0  0  0  0  0  0  0  0
  147.0781  133.7748  150.1085 H   0  0  0  0  0  0  0  0  0  0  0  0
  144.7849  134.3990  149.4447 H   0  0  0  0  0  0  0  0  0  0  0  0
  144.1354  133.6937  150.9077 H   0  0  0  0  0  0  0  0  0  0  0  0
  146.0464  136.0756  150.7420 H   0  0  0  0  0  0  0  0  0  0  0  0
  144.3609  136.1322  151.2020 H   0  0  0  0  0  0  0  0  0  0  0  0
  145.8461  136.1975  153.1939 H   0  0  0  0  0  0  0  0  0  0  0  0
  144.8155  134.7799  153.2228 H   0  0  0  0  0  0  0  0  0  0  0  0
  146.9408  133.4083  154.6142 H   0  0  0  0  0  0  0  0  0  0  0  0
  149.3373  133.4874  154.9764 H   0  0  0  0  0  0  0  0  0  0  0  0
  149.5741  134.5448  153.5947 H   0  0  0  0  0  0  0  0  0  0  0  0
  149.0169  132.8899  153.3593 H   0  0  0  0  0  0  0  0  0  0  0  0
  146.2631  135.8016  155.0411 H   0  0  0  0  0  0  0  0  0  0  0  0
  147.6142  135.3003  156.0271 H   0  0  0  0  0  0  0  0  0  0  0  0
  148.1692  136.6851  153.4730 H   0  0  0  0  0  0  0  0  0  0  0  0
  149.2488  138.5736  153.4067 H   0  0  0  0  0  0  0  0  0  0  0  0
  148.9904  139.6671  154.7565 H   0  0  0  0  0  0  0  0  0  0  0  0
  151.4944  136.7295  154.1005 H   0  0  0  0  0  0  0  0  0  0  0  0
  145.8383  132.5104  152.5976 H   0  0  0  0  0  0  0  0  0  0  0  0
  147.5272  132.4607  152.1351 H   0  0  0  0  0  0  0  0  0  0  0  0
  147.5572  134.8301  152.2122 H   0  0  0  0  0  0  0  0  0  0  0  0
  1  2  1  0  0  0  0
  1 20  1  0  0  0  0
  1 21  1  0  0  0  0
  1 22  1  0  0  0  0
  2 19  1  0  0  0  0
  2  3  1  0  0  0  0
  2 23  1  0  0  0  0
  3  4  1  0  0  0  0
  3 24  1  0  0  0  0
  3 25  1  0  0  0  0
  4  5  1  0  0  0  0
  4 26  1  0  0  0  0
  4 27  1  0  0  0  0
  5  6  1  0  0  0  0
  5 28  1  0  0  0  0
  5 29  1  0  0  0  0
  6  7  1  0  0  0  0
  6 19  1  0  0  0  0
  6 42  1  0  0  0  0
  7  8  1  0  0  0  0
  7  9  1  0  0  0  0
  7 30  1  0  0  0  0
  8 31  1  0  0  0  0
  8 32  1  0  0  0  0
  8 33  1  0  0  0  0
  9 10  1  0  0  0  0
  9 34  1  0  0  0  0
  9 35  1  0  0  0  0
 10 11  1  0  0  0  0
 10 36  1  0  0  0  0
 11 12  2  0  0  0  0
 11 13  1  0  0  0  0
 13 14  1  0  0  0  0
 13 37  1  0  0  0  0
 13 38  1  0  0  0  0
 14 18  1  0  0  0  0
 14 15  1  0  0  0  0
 15 16  2  0  0  0  0
 15 39  1  0  0  0  0
 16 17  1  0  0  0  0
 17 18  2  0  0  0  0
 19 40  1  0  0  0  0
 19 41  1  0  0  0  0
M  CHG  1   6   1
M  END
> <s_m_source_file>
AV-unprocessed.smi

> <i_m_source_file_index>
2095

> <i_lp_mmshare_version>
43012

> <i_f3d_flags>
0

> <s_epik_input>
W0NIM11bQ0BASF0xW0NIMl1bQ0gyXVtDSDJdTihbQ0gyXTEpW0NASF0oW0NIM10pW0NIMl1bTkhdQyg9TylbQ0gyXW4yW2NIXW5ubjI=

> <s_epik_cmdline>
J2VwaWtfcHl0aG9uJywgJy1waCcsICc3LjAnLCAnLXRuJywgJzgnLCAnLW1hJywgJzIwMCcsICctbWV0YWxfYmluZGluZycsICctaW1hZScsICc8aW5maWxlLm1hZT4nLCAnLW9tYWUnLCAnPG91dGZpbGUubWFlPic=

> <r_lp_tautomer_probability>
1

> <r_epik_Ionization_Penalty>
0.00268321

> <r_epik_Ionization_Penalty_Charging>
0.00267875

> <r_epik_Ionization_Penalty_Neutral>
4.46125e-06

> <r_epik_State_Penalty>
0.00186642

> <r_epik_Charging_Adjusted_Penalty>
0.00454517

> <i_epik_Tot_Q>
1

> <i_epik_Tot_abs_Q>
1

> <r_epik_Metal_State_Penalty>
-0

> <b_epik_Metal_Only>
0

> <s_lp_Force_Field>
OPLS_2005

> <r_lp_Energy>
22.3019

> <b_lp_Chiralities_Consistent>
1

> <s_lp_Variant>
AV-unprocessed.smi:2095-8

> <Gold.Version>
5.8.1

> <Gold.Id.Protein>
6NUR|6NUR_protein|mol2

> <Gold.PLP.Fitness>
50.8490

> <Gold.PLP.PLP>
-33.9858

> <Gold.PLP.part.hbond>
-5.6310

> <Gold.PLP.part.metal>
0.0000

> <Gold.PLP.part.buried>
-2.8524

> <Gold.PLP.part.nonpolar>
-25.2462

> <Gold.PLP.part.repulsive>
0.1106

> <Gold.PLP.ligand.clash>
0.0000

> <Gold.PLP.ligand.torsion>
0.6207

> <Gold.PLP.Chemscore.Hbond>
5.0000

> <Gold.PLP.Chemscore.CHOScore>
1.0000

> <Gold.PLP.Chemscore.Metal>
0.0000

> <Gold.Chemscore.Hbonds>
donor molecule, donor type, donor heavy atom, donor atom, acceptor molecule, acceptor atom, score
      L1  H     6    42       P1  7948  2.00
      L1  H    10    36       P1  7948  1.00
      P1  H  7989  7998       L1    18  0.29
      P1  H  7997  8009       L1    17  1.00
      L1  C    15    39       P1  7949  0.50

> <Gold.PLP.Chemscore.Internal.Correction>
0.1046

> <Gold.Rescore>
     Score         DG    S(hbond)    S(metal)    S(lipo)     H(rot)  DE(clash)    DE(int)     intcor
     14.37     -14.91       2.93        0.00      54.73       2.64       0.02       0.52       ----

> <Gold.Chemscore.Fitness>
14.3743

> <Gold.Chemscore.DG>
-14.9149

> <Gold.Chemscore.ZeroCoef>
-5.4800

> <Gold.Chemscore.Hbond>
2.9342

> <Gold.Chemscore.Metal>
0.0000

> <Gold.Chemscore.Lipo>
54.7285

> <Gold.Chemscore.Internal_Hbond>
0.0000

> <Gold.Chemscore.DEClash>
0.0166

> <Gold.Chemscore.DEInternal>
0.5240

> <Gold.Chemscore.Rot>
2.6439

> <Gold.Chemscore.Internal.Correction>
   9.000000E+99

> <Gold.Chemscore.Hbonds>
donor molecule, donor type, donor heavy atom, donor atom, acceptor molecule, acceptor atom, score
      L1  H     6    42       P1  7948  0.85
      L1  H    10    36       P1  7948  0.97
      P1  H  7989  7998       L1    18  0.01
      P1  H  7997  8009       L1    17  0.81

> <Gold.Chemscore.Hbond.Weighted>
-9.8001

> <Gold.Chemscore.Metal.Weighted>
-0.0000

> <Gold.Chemscore.Lipo.Weighted>
-6.4032

> <Gold.Chemscore.Internal_Hbond.Weighted>
0.0000

> <Gold.Chemscore.DEClash.Weighted>
0.0166

> <Gold.Chemscore.DEInternal.Weighted>
0.5240

> <Gold.Chemscore.Rot.Weighted>
6.7685

> <Gold.Chemscore.Internal.Correction.Weighted>
   9.000000E+99

> <Gold.Protein.RotatedTorsions>
[ 6907 6896 6895 6894 ] final   73.41 input  -60.11 | X-H torsion
[ 7974 7965 7964 7962 ] final   87.80 input  175.53 | X-H torsion
[ 8008 7997 7996 7995 ] final -148.27 input   59.86 | X-H torsion
[ 10167 10162 10161 10158 ] final   67.89 input  -65.29 | X-H torsion
[ 10718 10713 10712 10709 ] final  160.10 input   66.30 | X-H torsion
[ 10763 10752 10751 10750 ] final -166.45 input  -60.55 | X-H torsion
[ 11005 11000 10999 10996 ] final   71.31 input  -57.11 | X-H torsion

> <Gold.Protein.ActiveResidues>
 VAL166  LYS551  ARG553  GLY616  TRP617  ASP618  TYR619  PRO620  LYS621  CYS622 
 ASP623  PHE694  ASN695  SER759  ASP760  ASP761  ALA762  ILE779  LEU786  VAL792 
 PHE793  MET794  SER795  GLU796  ALA797  LYS798  CYS799  TRP800  GLU811  SER814 

> <Gold.Protein.RotatedAtoms>
  152.4921  134.4426  159.9548 H   0  0  0  0  0  0  0  0  0  0  0  0  # atno 6907 bound_to 6896
  151.4411  133.3637  159.2790 H   0  0  0  0  0  0  0  0  0  0  0  0  # atno 6908 bound_to 6896
  150.9087  134.8526  159.7470 H   0  0  0  0  0  0  0  0  0  0  0  0  # atno 6909 bound_to 6896
  145.5541  139.2298  143.2496 H   0  0  0  0  0  0  0  0  0  0  0  0  # atno 7974 bound_to 7965
  155.5889  140.0650  157.2764 H   0  0  0  0  0  0  0  0  0  0  0  0  # atno 8008 bound_to 7997
  154.4311  140.1839  156.1101 H   0  0  0  0  0  0  0  0  0  0  0  0  # atno 8009 bound_to 7997
  156.0248  140.3313  155.7080 H   0  0  0  0  0  0  0  0  0  0  0  0  # atno 8010 bound_to 7997
  140.0847  144.5041  150.7139 H   0  0  0  0  0  0  0  0  0  0  0  0  # atno 10167 bound_to 10162
  157.1550  131.0573  151.2261 H   0  0  0  0  0  0  0  0  0  0  0  0  # atno 10718 bound_to 10713
  154.6831  135.2958  154.9585 H   0  0  0  0  0  0  0  0  0  0  0  0  # atno 10763 bound_to 10752
  154.0573  135.6636  153.4811 H   0  0  0  0  0  0  0  0  0  0  0  0  # atno 10764 bound_to 10752
  153.0561  135.5144  154.7885 H   0  0  0  0  0  0  0  0  0  0  0  0  # atno 10765 bound_to 10752
  139.9550  134.7159  156.0773 H   0  0  0  0  0  0  0  0  0  0  0  0  # atno 11005 bound_to 11000
  146.1896  140.6365  142.9151 LP  0  0  0  0  0  0  0  0  0  0  0  0  # atno 17320 bound_to 7965
  144.7515  140.5202  143.6799 LP  0  0  0  0  0  0  0  0  0  0  0  0  # atno 17321 bound_to 7965
  140.7060  143.2468  151.4725 LP  0  0  0  0  0  0  0  0  0  0  0  0  # atno 17342 bound_to 10162
  139.5759  144.1820  152.1903 LP  0  0  0  0  0  0  0  0  0  0  0  0  # atno 17343 bound_to 10162
  157.4185  130.7424  149.6894 LP  0  0  0  0  0  0  0  0  0  0  0  0  # atno 17370 bound_to 10713
  155.9763  130.4077  150.3785 LP  0  0  0  0  0  0  0  0  0  0  0  0  # atno 17371 bound_to 10713
  141.1220  133.6610  156.3240 LP  0  0  0  0  0  0  0  0  0  0  0  0  # atno 17394 bound_to 11000
  140.5629  134.5916  157.5438 LP  0  0  0  0  0  0  0  0  0  0  0  0  # atno 17395 bound_to 11000

$$$$
