#       Name:                AV-unprocessed.smi:3214
#       Creating user name   scv26
#       Creation time:       Fri Mar 27 18:12:20 2020


#       File generated by GOLD software.
#

@<TRIPOS>MOLECULE
AV-unprocessed.smi:3214
    40    40     1
SMALL
NO_CHARGES


@<TRIPOS>ATOM
      1 ****        -4.6332   2.6076  -2.7485 C.3            1 S1                 0.0000
      2 ****        -4.1196   1.8940  -1.4940 C.3            1 S1                 0.0000
      3 ****        -2.6760   1.7135  -1.5612 N.am           1 S1                 0.0000
      4 ****        -1.9467   1.0911  -0.6241 C.2            1 S1                 0.0000
      5 ****        -2.4342   0.6093   0.3986 O.2            1 S1                 0.0000
      6 ****        -0.4386   1.0075  -0.8797 C.3            1 S1                 0.0000
      7 ****         0.1844  -0.2937  -0.3470 C.3            1 S1                 0.0000
      8 ****         1.6381  -0.3315  -0.6137 N.4            1 S1                 1.0000
      9 ****         2.3410  -1.5515  -0.1519 C.3            1 S1                 0.0000
     10 ****         3.4463  -1.9030  -1.1570 C.3            1 S1                 0.0000
     11 ****         2.9403  -1.3665   1.2614 C.3            1 S1                 0.0000
     12 ****         1.9413  -1.2505   2.3084 N.pl3          1 S1                 0.0000
     13 ****         1.6982  -0.1834   3.1481 C.2            1 S1                 0.0000
     14 ****         0.6691  -0.5408   3.9713 C.2            1 S1                 0.0000
     15 ****         0.3534  -1.8668   3.5628 C.2            1 S1                 0.0000
     16 ****         1.1201  -2.2903   2.5708 N.2            1 S1                 0.0000
     17 ****        -5.7134   2.7458  -2.6998 H              1 S1                 0.0000
     18 ****        -4.4130   2.0324  -3.6485 H              1 S1                 0.0000
     19 ****        -4.1773   3.5920  -2.8581 H              1 S1                 0.0000
     20 ****        -4.3735   2.4748  -0.6059 H              1 S1                 0.0000
     21 ****        -4.6058   0.9223  -1.3949 H              1 S1                 0.0000
     22 ****        -2.2037   2.0868  -2.3719 H              1 S1                 0.0000
     23 ****        -0.2471   1.0952  -1.9505 H              1 S1                 0.0000
     24 ****         0.0337   1.8681  -0.4040 H              1 S1                 0.0000
     25 ****         0.0049  -0.3792   0.7235 H              1 S1                 0.0000
     26 ****        -0.2876  -1.1555  -0.8218 H              1 S1                 0.0000
     27 ****         1.7523  -0.2789  -1.6158 H              1 S1                 0.0000
     28 ****         1.6399  -2.3877  -0.1474 H              1 S1                 0.0000
     29 ****         3.9585  -2.8223  -0.8711 H              1 S1                 0.0000
     30 ****         4.1946  -1.1121  -1.2205 H              1 S1                 0.0000
     31 ****         3.0367  -2.0555  -2.1562 H              1 S1                 0.0000
     32 ****         3.5754  -2.2178   1.5108 H              1 S1                 0.0000
     33 ****         3.5831  -0.4854   1.2907 H              1 S1                 0.0000
     34 ****         2.2674   0.7327   3.0892 H              1 S1                 0.0000
     35 ****         0.2137   0.0523   4.7505 H              1 S1                 0.0000
     36 ****        -0.4032  -2.5299   3.9556 H              1 S1                 0.0000
     37 ****         2.0799   0.4770  -0.2000 H              1 S1                 0.0000
     38 ****        -3.4189   0.6725   0.5609 LP             1 S1                 0.0000
     39 ****        -1.8454   0.1548   1.0671 LP             1 S1                 0.0000
     40 ****         1.0967  -3.1811   2.1170 LP             1 S1                 0.0000
@<TRIPOS>BOND
    1    1    2 1     
    2    1   17 1     
    3    1   18 1     
    4    1   19 1     
    5    2    3 1     
    6    2   20 1     
    7    2   21 1     
    8    3    4 am    
    9    3   22 1     
   10    4    5 2     
   11    4    6 1     
   12    6    7 1     
   13    6   23 1     
   14    6   24 1     
   15    7    8 1     
   16    7   25 1     
   17    7   26 1     
   18    8    9 1     
   19    8   27 1     
   20    8   37 1     
   21    9   10 1     
   22    9   11 1     
   23    9   28 1     
   24   10   29 1     
   25   10   30 1     
   26   10   31 1     
   27   11   12 1     
   28   11   32 1     
   29   11   33 1     
   30   12   16 1     
   31   12   13 1     
   32   13   14 2     
   33   13   34 1     
   34   14   15 1     
   35   14   35 1     
   36   15   16 2     
   37   15   36 1     
   38    5   38 1     
   39    5   39 1     
   40   16   40 1     
@<TRIPOS>SUBSTRUCTURE
      1 S1             1
@<TRIPOS>SET
LONE_PAIRS      STATIC     ATOMS    <user>   **** ""
3 38 39 40
DONOR_HYDROGENS      STATIC     ATOMS    <user>   **** ""
3 22 27 37
ATOM$BLUE        STATIC     ATOMS    COLORGROUP SYSTEM
3 38 39 40
ATOM$RED        STATIC     ATOMS    COLORGROUP SYSTEM
3 22 27 37
