#       Name:                AV-unprocessed.smi:1185
#       Creating user name   scv26
#       Creation time:       Fri Mar 27 03:56:53 2020


#       File generated by GOLD software.
#

@<TRIPOS>MOLECULE
AV-unprocessed.smi:1185
    43    45     1
SMALL
NO_CHARGES


@<TRIPOS>ATOM
      1 ****        -0.3968  -2.4884  -0.5141 O.2            1 S1                 0.0000
      2 ****        -1.0861  -1.4721  -0.6093 C.2            1 S1                 0.0000
      3 ****        -2.5568  -1.4860  -0.6153 C.2            1 S1                 0.0000
      4 ****        -3.2601  -2.8369  -0.5126 C.3            1 S1                 0.0000
      5 ****        -4.5873  -2.7055  -0.5354 F              1 S1                 0.0000
      6 ****        -2.9108  -3.6256  -1.5295 F              1 S1                 0.0000
      7 ****        -2.9306  -3.4513   0.6241 F              1 S1                 0.0000
      8 ****        -3.2465  -0.3232  -0.7113 C.2            1 S1                 0.0000
      9 ****        -2.5421   0.9396  -0.8059 C.2            1 S1                 0.0000
     10 ****        -3.2443   2.2642  -0.8955 C.3            1 S1                 0.0000
     11 ****        -3.1839   3.2724   0.2284 C.3            1 S1                 0.0000
     12 ****        -4.4845   2.5709  -0.0871 C.3            1 S1                 0.0000
     13 ****        -1.2517   0.9484  -0.8116 N.2            1 S1                 0.0000
     14 ****        -0.5341  -0.2270  -0.7139 N.am           1 S1                 0.0000
     15 ****         0.9217  -0.0348  -0.7126 C.3            1 S1                 0.0000
     16 ****         1.5173  -0.0933   0.7111 C.3            1 S1                 0.0000
     17 ****         1.2200   1.1206   1.3756 O.3            1 S1                 0.0000
     18 ****         3.0179  -0.3533   0.6620 C.ar           1 S1                 0.0000
     19 ****         3.9170   0.6960   0.3646 C.ar           1 S1                 0.0000
     20 ****         5.3032   0.4532   0.3108 C.ar           1 S1                 0.0000
     21 ****         5.8012  -0.8415   0.5494 C.ar           1 S1                 0.0000
     22 ****         4.9114  -1.8934   0.8378 C.ar           1 S1                 0.0000
     23 ****         3.5245  -1.6530   0.8922 C.ar           1 S1                 0.0000
     24 ****         2.6840  -2.6802   1.1637 F              1 S1                 0.0000
     25 ****        -4.3261  -0.3130  -0.7194 H              1 S1                 0.0000
     26 ****        -3.2096   2.6514  -1.9120 H              1 S1                 0.0000
     27 ****        -2.6689   2.9855   1.1436 H              1 S1                 0.0000
     28 ****        -3.0999   4.3225  -0.0438 H              1 S1                 0.0000
     29 ****        -5.2662   3.1544  -0.5693 H              1 S1                 0.0000
     30 ****        -4.8327   1.8274   0.6277 H              1 S1                 0.0000
     31 ****         1.3698  -0.8180  -1.3273 H              1 S1                 0.0000
     32 ****         1.1988   0.8993  -1.2057 H              1 S1                 0.0000
     33 ****         1.0456  -0.8921   1.2836 H              1 S1                 0.0000
     34 ****         1.4989   1.0446   2.2753 H              1 S1                 0.0000
     35 ****         3.5467   1.6925   0.1733 H              1 S1                 0.0000
     36 ****         5.9840   1.2607   0.0845 H              1 S1                 0.0000
     37 ****         6.8641  -1.0286   0.5083 H              1 S1                 0.0000
     38 ****         5.2930  -2.8880   1.0161 H              1 S1                 0.0000
     39 ****         0.6007  -2.4176  -0.5117 LP             1 S1                 0.0000
     40 ****        -0.8347  -3.3843  -0.4392 LP             1 S1                 0.0000
     41 ****        -0.7648   1.8186  -0.8878 LP             1 S1                 0.0000
     42 ****         0.2355   1.2924   1.3406 LP             1 S1                 0.0000
     43 ****         1.7058   1.8750   0.9341 LP             1 S1                 0.0000
@<TRIPOS>BOND
    1    1    2 2     
    2    2   14 am    
    3    2    3 1     
    4    3    4 1     
    5    3    8 2     
    6    4    5 1     
    7    4    6 1     
    8    4    7 1     
    9    8    9 1     
   10    8   25 1     
   11    9   10 1     
   12    9   13 2     
   13   10   12 1     
   14   10   11 1     
   15   10   26 1     
   16   11   12 1     
   17   11   27 1     
   18   11   28 1     
   19   12   29 1     
   20   12   30 1     
   21   13   14 1     
   22   14   15 1     
   23   15   16 1     
   24   15   31 1     
   25   15   32 1     
   26   16   17 1     
   27   16   18 1     
   28   16   33 1     
   29   17   34 1     
   30   18   23 ar    
   31   18   19 ar    
   32   19   20 ar    
   33   19   35 1     
   34   20   21 ar    
   35   20   36 1     
   36   21   22 ar    
   37   21   37 1     
   38   22   23 ar    
   39   22   38 1     
   40   23   24 1     
   41    1   39 1     
   42    1   40 1     
   43   13   41 1     
   44   17   42 1     
   45   17   43 1     
@<TRIPOS>SUBSTRUCTURE
      1 S1             1
@<TRIPOS>SET
LONE_PAIRS      STATIC     ATOMS    <user>   **** ""
5 39 40 41 42 43
DONOR_HYDROGENS      STATIC     ATOMS    <user>   **** ""
1 34
ATOM$BLUE        STATIC     ATOMS    COLORGROUP SYSTEM
5 39 40 41 42 43
ATOM$RED        STATIC     ATOMS    COLORGROUP SYSTEM
1 34
