AV-unprocessed.smi:999|AV-procd|sdf|4352|dock3
  -GOLD-   22720 2253D 1   1.00000     0.00000
 Structure written by MMmdl.
 37 38  0  0  0  0  0  0  0  0  2 V2000
  144.9594  135.6135  151.9887 C   0  0  0  0  0  0  0  0  0  0  0  0
  146.0563  134.5698  151.6928 C   0  0  1  0  0  0  0  0  0  0  0  0
  146.6064  133.9064  152.9656 C   0  0  0  0  0  0  0  0  0  0  0  0
  145.8741  133.2329  153.6916 O   0  0  0  0  0  0  0  0  0  0  0  0
  147.9099  134.1051  153.2191 N   0  0  0  0  0  0  0  0  0  0  0  0
  148.6483  133.5478  154.3477 C   0  0  2  0  0  0  0  0  0  0  0  0
  149.6349  134.5996  154.8851 C   0  0  0  0  0  0  0  0  0  0  0  0
  150.4797  134.0417  156.0412 C   0  0  0  0  0  0  0  0  0  0  0  0
  151.2344  132.7568  155.6248 C   0  0  1  0  0  0  0  0  0  0  0  0
  152.0743  132.1723  156.7794 C   0  0  0  0  0  0  0  0  0  0  0  0
  151.4634  131.8521  157.8233 O   0  0  0  0  0  0  0  0  0  0  0  0
  153.3051  132.0274  156.6059 O   0  5  0  0  0  0  0  0  0  0  0  0
  150.2470  131.7029  155.0731 C   0  0  0  0  0  0  0  0  0  0  0  0
  149.3969  132.2687  153.9240 C   0  0  0  0  0  0  0  0  0  0  0  0
  145.6130  133.5525  150.7458 N   0  0  0  0  0  0  0  0  0  0  0  0
  144.3514  133.3847  150.2110 C   0  0  0  0  0  0  0  0  0  0  0  0
  144.4102  132.3363  149.3383 C   0  0  0  0  0  0  0  0  0  0  0  0
  145.7711  131.9264  149.3947 C   0  0  0  0  0  0  0  0  0  0  0  0
  146.4894  132.6594  150.2290 N   0  0  0  0  0  0  0  0  0  0  0  0
  145.3310  136.3957  152.6513 H   0  0  0  0  0  0  0  0  0  0  0  0
  144.0844  135.1677  152.4633 H   0  0  0  0  0  0  0  0  0  0  0  0
  144.6256  136.0964  151.0700 H   0  0  0  0  0  0  0  0  0  0  0  0
  146.8850  135.1031  151.2235 H   0  0  0  0  0  0  0  0  0  0  0  0
  148.4360  134.6725  152.5707 H   0  0  0  0  0  0  0  0  0  0  0  0
  147.9470  133.3003  155.1470 H   0  0  0  0  0  0  0  0  0  0  0  0
  150.2968  134.9313  154.0836 H   0  0  0  0  0  0  0  0  0  0  0  0
  149.0920  135.4832  155.2230 H   0  0  0  0  0  0  0  0  0  0  0  0
  151.1841  134.8081  156.3674 H   0  0  0  0  0  0  0  0  0  0  0  0
  149.8292  133.8337  156.8925 H   0  0  0  0  0  0  0  0  0  0  0  0
  151.9365  133.0169  154.8315 H   0  0  0  0  0  0  0  0  0  0  0  0
  150.7827  130.8232  154.7142 H   0  0  0  0  0  0  0  0  0  0  0  0
  149.5884  131.3584  155.8721 H   0  0  0  0  0  0  0  0  0  0  0  0
  148.6878  131.5104  153.5901 H   0  0  0  0  0  0  0  0  0  0  0  0
  150.0419  132.4838  153.0708 H   0  0  0  0  0  0  0  0  0  0  0  0
  143.5243  134.0200  150.4925 H   0  0  0  0  0  0  0  0  0  0  0  0
  143.6051  131.9281  148.7454 H   0  0  0  0  0  0  0  0  0  0  0  0
  146.2563  131.1269  148.8544 H   0  0  0  0  0  0  0  0  0  0  0  0
  1  2  1  0  0  0  0
  1 20  1  0  0  0  0
  1 21  1  0  0  0  0
  1 22  1  0  0  0  0
  2  3  1  0  0  0  0
  2 15  1  0  0  0  0
  2 23  1  0  0  0  0
  3  4  2  0  0  0  0
  3  5  1  0  0  0  0
  5  6  1  0  0  0  0
  5 24  1  0  0  0  0
  6 14  1  0  0  0  0
  6  7  1  0  0  0  0
  6 25  1  0  0  0  0
  7  8  1  0  0  0  0
  7 26  1  0  0  0  0
  7 27  1  0  0  0  0
  8  9  1  0  0  0  0
  8 28  1  0  0  0  0
  8 29  1  0  0  0  0
  9 10  1  0  0  0  0
  9 13  1  0  0  0  0
  9 30  1  0  0  0  0
 10 11  2  0  0  0  0
 10 12  1  0  0  0  0
 13 14  1  0  0  0  0
 13 31  1  0  0  0  0
 13 32  1  0  0  0  0
 14 33  1  0  0  0  0
 14 34  1  0  0  0  0
 15 19  1  0  0  0  0
 15 16  1  0  0  0  0
 16 17  2  0  0  0  0
 16 35  1  0  0  0  0
 17 18  1  0  0  0  0
 17 36  1  0  0  0  0
 18 19  2  0  0  0  0
 18 37  1  0  0  0  0
M  CHG  1  12  -1
M  END
> <s_m_source_file>
AV-unprocessed.smi

> <i_m_source_file_index>
999

> <i_lp_mmshare_version>
43012

> <i_f3d_flags>
0

> <s_epik_input>
bjFbY0hdW2NIXVtjSF1uMVtDQEhdKFtDSDNdKUMoPU8pW05IXVtDQEBIXTJbQ0gyXVtDSDJdW0NAQEhdKEMoPU8pW09IXSlbQ0gyXVtDSDJdMg==

> <s_epik_cmdline>
J2VwaWtfcHl0aG9uJywgJy1waCcsICc3LjAnLCAnLXRuJywgJzgnLCAnLW1hJywgJzIwMCcsICctbWV0YWxfYmluZGluZycsICctaW1hZScsICc8aW5maWxlLm1hZT4nLCAnLW9tYWUnLCAnPG91dGZpbGUubWFlPic=

> <r_lp_tautomer_probability>
1

> <r_epik_Ionization_Penalty>
0.00221712

> <r_epik_Ionization_Penalty_Charging>
0.00217268

> <r_epik_Ionization_Penalty_Neutral>
4.44343e-05

> <r_epik_State_Penalty>
0.0014925

> <r_epik_Charging_Adjusted_Penalty>
0.00366518

> <i_epik_Tot_Q>
-1

> <i_epik_Tot_abs_Q>
1

> <r_epik_Metal_State_Penalty>
-0

> <b_epik_Metal_Only>
0

> <s_lp_Force_Field>
OPLS_2005

> <r_lp_Energy>
14.7159

> <b_lp_Chiralities_Consistent>
1

> <s_lp_Variant>
AV-unprocessed.smi:999-2

> <Gold.Version>
5.8.1

> <Gold.Id.Protein>
6NUR|6NUR_protein|mol2

> <Gold.PLP.Fitness>
44.8944

> <Gold.PLP.PLP>
-33.6047

> <Gold.PLP.part.hbond>
-2.0000

> <Gold.PLP.part.metal>
0.0000

> <Gold.PLP.part.buried>
-5.4495

> <Gold.PLP.part.nonpolar>
-28.1487

> <Gold.PLP.part.repulsive>
0.3090

> <Gold.PLP.ligand.clash>
0.0000

> <Gold.PLP.ligand.torsion>
0.4248

> <Gold.PLP.Chemscore.Hbond>
3.0000

> <Gold.PLP.Chemscore.CHOScore>
1.0000

> <Gold.PLP.Chemscore.Metal>
0.0000

> <Gold.Chemscore.Hbonds>
donor molecule, donor type, donor heavy atom, donor atom, acceptor molecule, acceptor atom, score
      L1  H     5    24       P1  7948  0.90
      P1  H  6896  6908       L1    11  1.98
      L1  C    16    35       P1 10186  0.54

> <Gold.PLP.Chemscore.Internal.Correction>
0.1394

> <Gold.Rescore>
     Score         DG    S(hbond)    S(metal)    S(lipo)     H(rot)  DE(clash)    DE(int)     intcor
     13.58     -14.19       1.46        0.00      76.16       1.98       0.05       0.56       ----

> <Gold.Chemscore.Fitness>
13.5772

> <Gold.Chemscore.DG>
-14.1886

> <Gold.Chemscore.ZeroCoef>
-5.4800

> <Gold.Chemscore.Hbond>
1.4551

> <Gold.Chemscore.Metal>
0.0000

> <Gold.Chemscore.Lipo>
76.1581

> <Gold.Chemscore.Internal_Hbond>
0.0000

> <Gold.Chemscore.DEClash>
0.0465

> <Gold.Chemscore.DEInternal>
0.5649

> <Gold.Chemscore.Rot>
1.9774

> <Gold.Chemscore.Internal.Correction>
   9.000000E+99

> <Gold.Chemscore.Hbonds>
donor molecule, donor type, donor heavy atom, donor atom, acceptor molecule, acceptor atom, score
      L1  H     5    24       P1  7948  0.18
      P1  H  6896  6908       L1    11  0.76

> <Gold.Chemscore.Hbond.Weighted>
-4.8602

> <Gold.Chemscore.Metal.Weighted>
-0.0000

> <Gold.Chemscore.Lipo.Weighted>
-8.9105

> <Gold.Chemscore.Internal_Hbond.Weighted>
0.0000

> <Gold.Chemscore.DEClash.Weighted>
0.0465

> <Gold.Chemscore.DEInternal.Weighted>
0.5649

> <Gold.Chemscore.Rot.Weighted>
5.0620

> <Gold.Chemscore.Internal.Correction.Weighted>
   9.000000E+99

> <Gold.Protein.RotatedTorsions>
[ 6907 6896 6895 6894 ] final   62.92 input  -60.11 | X-H torsion
[ 7974 7965 7964 7962 ] final  142.02 input  175.53 | X-H torsion
[ 8008 7997 7996 7995 ] final  118.22 input   59.86 | X-H torsion
[ 10167 10162 10161 10158 ] final  -15.78 input  -65.29 | X-H torsion
[ 10718 10713 10712 10709 ] final   88.90 input   66.30 | X-H torsion
[ 10763 10752 10751 10750 ] final   54.99 input  -60.55 | X-H torsion
[ 11005 11000 10999 10996 ] final -123.51 input  -57.11 | X-H torsion

> <Gold.Protein.ActiveResidues>
 VAL166  LYS551  ARG553  GLY616  TRP617  ASP618  TYR619  PRO620  LYS621  CYS622 
 ASP623  PHE694  ASN695  SER759  ASP760  ASP761  ALA762  ILE779  LEU786  VAL792 
 PHE793  MET794  SER795  GLU796  ALA797  LYS798  CYS799  TRP800  GLU811  SER814 

> <Gold.Protein.RotatedAtoms>
  152.4211  134.5953  159.9984 H   0  0  0  0  0  0  0  0  0  0  0  0  # atno 6907 bound_to 6896
  151.6102  133.3342  159.3074 H   0  0  0  0  0  0  0  0  0  0  0  0  # atno 6908 bound_to 6896
  150.8100  134.7286  159.6744 H   0  0  0  0  0  0  0  0  0  0  0  0  # atno 6909 bound_to 6896
  144.9045  139.5377  143.5738 H   0  0  0  0  0  0  0  0  0  0  0  0  # atno 7974 bound_to 7965
  156.2535  140.2879  156.0801 H   0  0  0  0  0  0  0  0  0  0  0  0  # atno 8008 bound_to 7997
  155.1576  140.0399  157.2852 H   0  0  0  0  0  0  0  0  0  0  0  0  # atno 8009 bound_to 7997
  154.6416  140.2523  155.7322 H   0  0  0  0  0  0  0  0  0  0  0  0  # atno 8010 bound_to 7997
  140.7224  143.5183  150.9665 H   0  0  0  0  0  0  0  0  0  0  0  0  # atno 10167 bound_to 10162
  157.6952  131.0312  150.3344 H   0  0  0  0  0  0  0  0  0  0  0  0  # atno 10718 bound_to 10713
  152.9811  135.5726  154.4993 H   0  0  0  0  0  0  0  0  0  0  0  0  # atno 10763 bound_to 10752
  154.4515  135.2778  155.1779 H   0  0  0  0  0  0  0  0  0  0  0  0  # atno 10764 bound_to 10752
  154.3405  135.6230  153.5647 H   0  0  0  0  0  0  0  0  0  0  0  0  # atno 10765 bound_to 10752
  140.9913  134.0534  157.3650 H   0  0  0  0  0  0  0  0  0  0  0  0  # atno 11005 bound_to 11000
  146.3126  139.7802  142.9008 LP  0  0  0  0  0  0  0  0  0  0  0  0  # atno 17320 bound_to 7965
  145.3560  141.0316  143.3312 LP  0  0  0  0  0  0  0  0  0  0  0  0  # atno 17321 bound_to 7965
  139.8899  143.6966  152.3146 LP  0  0  0  0  0  0  0  0  0  0  0  0  # atno 17342 bound_to 10162
  139.7278  144.7589  151.0850 LP  0  0  0  0  0  0  0  0  0  0  0  0  # atno 17343 bound_to 10162
  156.3813  130.3881  149.7099 LP  0  0  0  0  0  0  0  0  0  0  0  0  # atno 17370 bound_to 10713
  156.4481  130.7893  151.2914 LP  0  0  0  0  0  0  0  0  0  0  0  0  # atno 17371 bound_to 10713
  139.8994  135.0158  156.7193 LP  0  0  0  0  0  0  0  0  0  0  0  0  # atno 17394 bound_to 11000
  140.7035  133.9286  155.8039 LP  0  0  0  0  0  0  0  0  0  0  0  0  # atno 17395 bound_to 11000

$$$$
