AV-unprocessed.smi:1005|AV-procd|sdf|4368|dock3
  -GOLD-   22720 2273D 1   1.00000     0.00000
 Structure written by MMmdl.
 57 59  0  0  0  0  0  0  0  0  3 V2000
  153.2391  142.6199  161.9454 C   0  0  0  0  0  0  0  0  0  0  0  0
  152.6719  142.2727  160.5802 C   0  0  0  0  0  0  0  0  0  0  0  0
  153.0633  141.0646  159.9605 C   0  0  0  0  0  0  0  0  0  0  0  0
  152.5595  140.7055  158.6912 C   0  0  0  0  0  0  0  0  0  0  0  0
  152.8046  139.5897  157.9091 N   0  0  0  0  0  0  0  0  0  0  0  0
  152.0442  139.8343  156.8465 C   0  0  0  0  0  0  0  0  0  0  0  0
  151.3368  140.9803  156.8448 N   0  0  0  0  0  0  0  0  0  0  0  0
  150.4486  141.4568  155.7994 C   0  0  0  0  0  0  0  0  0  0  0  0
  150.3721  140.4870  154.6045 C   0  0  2  0  0  0  0  0  0  0  0  0
  149.6157  141.0801  153.5666 O   0  0  0  0  0  0  0  0  0  0  0  0
  149.7049  139.1538  154.9957 C   0  0  0  0  0  0  0  0  0  0  0  0
  148.2667  139.3184  155.3407 N   0  3  2  0  0  0  0  0  0  0  0  0
  147.8866  138.6919  156.6298 C   0  0  0  0  0  0  0  0  0  0  0  0
  147.7142  137.1712  156.4781 C   0  0  0  0  0  0  0  0  0  0  0  0
  146.7429  136.9072  155.4727 O   0  0  0  0  0  0  0  0  0  0  0  0
  147.1346  137.3897  154.1913 C   0  0  1  0  0  0  0  0  0  0  0  0
  146.0364  137.0018  153.1826 C   0  0  0  0  0  0  0  0  0  0  0  0
  146.4829  137.1097  151.7696 N   0  3  0  0  0  0  0  0  0  0  0  0
  146.5869  138.5070  151.2879 C   0  0  0  0  0  0  0  0  0  0  0  0
  145.6544  136.2855  150.8614 C   0  0  0  0  0  0  0  0  0  0  0  0
  147.3162  138.9237  154.2686 C   0  0  0  0  0  0  0  0  0  0  0  0
  151.6454  141.5946  158.0541 C   0  0  0  0  0  0  0  0  0  0  0  0
  151.2487  142.7997  158.6602 C   0  0  0  0  0  0  0  0  0  0  0  0
  151.7617  143.1434  159.9285 C   0  0  0  0  0  0  0  0  0  0  0  0
  151.3274  144.4470  160.5748 C   0  0  0  0  0  0  0  0  0  0  0  0
  153.9189  141.8459  162.3031 H   0  0  0  0  0  0  0  0  0  0  0  0
  152.4375  142.7245  162.6768 H   0  0  0  0  0  0  0  0  0  0  0  0
  153.7935  143.5574  161.9019 H   0  0  0  0  0  0  0  0  0  0  0  0
  153.7566  140.4013  160.4567 H   0  0  0  0  0  0  0  0  0  0  0  0
  152.0008  139.1414  156.0188 H   0  0  0  0  0  0  0  0  0  0  0  0
  149.4580  141.5975  156.2339 H   0  0  0  0  0  0  0  0  0  0  0  0
  150.7874  142.4416  155.4744 H   0  0  0  0  0  0  0  0  0  0  0  0
  151.3820  140.3149  154.2334 H   0  0  0  0  0  0  0  0  0  0  0  0
  149.4223  140.4187  152.9186 H   0  0  0  0  0  0  0  0  0  0  0  0
  149.8167  138.4239  154.1942 H   0  0  0  0  0  0  0  0  0  0  0  0
  150.2432  138.7419  155.8509 H   0  0  0  0  0  0  0  0  0  0  0  0
  148.6169  138.9264  157.4053 H   0  0  0  0  0  0  0  0  0  0  0  0
  146.9429  139.1292  156.9587 H   0  0  0  0  0  0  0  0  0  0  0  0
  148.6598  136.6864  156.2308 H   0  0  0  0  0  0  0  0  0  0  0  0
  147.3727  136.7384  157.4185 H   0  0  0  0  0  0  0  0  0  0  0  0
  148.0779  136.9277  153.9020 H   0  0  0  0  0  0  0  0  0  0  0  0
  145.7330  135.9741  153.3884 H   0  0  0  0  0  0  0  0  0  0  0  0
  145.1473  137.6176  153.3272 H   0  0  0  0  0  0  0  0  0  0  0  0
  145.6186  139.0076  151.3280 H   0  0  0  0  0  0  0  0  0  0  0  0
  146.9362  138.5306  150.2551 H   0  0  0  0  0  0  0  0  0  0  0  0
  147.2957  139.0858  151.8787 H   0  0  0  0  0  0  0  0  0  0  0  0
  144.6189  136.6291  150.8562 H   0  0  0  0  0  0  0  0  0  0  0  0
  145.6665  135.2385  151.1666 H   0  0  0  0  0  0  0  0  0  0  0  0
  146.0351  136.3331  149.8405 H   0  0  0  0  0  0  0  0  0  0  0  0
  146.3551  139.3902  154.4899 H   0  0  0  0  0  0  0  0  0  0  0  0
  147.6296  139.3222  153.3043 H   0  0  0  0  0  0  0  0  0  0  0  0
  150.5563  143.4551  158.1528 H   0  0  0  0  0  0  0  0  0  0  0  0
  150.6224  144.9886  159.9433 H   0  0  0  0  0  0  0  0  0  0  0  0
  152.1884  145.0934  160.7457 H   0  0  0  0  0  0  0  0  0  0  0  0
  150.8409  144.2563  161.5315 H   0  0  0  0  0  0  0  0  0  0  0  0
  147.4120  136.7142  151.7300 H   0  0  0  0  0  0  0  0  0  0  0  0
  148.1528  140.3134  155.4782 H   0  0  0  0  0  0  0  0  0  0  0  0
  1  2  1  0  0  0  0
  1 26  1  0  0  0  0
  1 27  1  0  0  0  0
  1 28  1  0  0  0  0
  2 24  1  0  0  0  0
  2  3  2  0  0  0  0
  3  4  1  0  0  0  0
  3 29  1  0  0  0  0
  4 22  2  0  0  0  0
  4  5  1  0  0  0  0
  5  6  2  0  0  0  0
  6  7  1  0  0  0  0
  6 30  1  0  0  0  0
  7  8  1  0  0  0  0
  7 22  1  0  0  0  0
  8  9  1  0  0  0  0
  8 31  1  0  0  0  0
  8 32  1  0  0  0  0
  9 10  1  0  0  0  0
  9 11  1  0  0  0  0
  9 33  1  0  0  0  0
 10 34  1  0  0  0  0
 11 12  1  0  0  0  0
 11 35  1  0  0  0  0
 11 36  1  0  0  0  0
 12 21  1  0  0  0  0
 12 13  1  0  0  0  0
 12 57  1  0  0  0  0
 13 14  1  0  0  0  0
 13 37  1  0  0  0  0
 13 38  1  0  0  0  0
 14 15  1  0  0  0  0
 14 39  1  0  0  0  0
 14 40  1  0  0  0  0
 15 16  1  0  0  0  0
 16 17  1  0  0  0  0
 16 21  1  0  0  0  0
 16 41  1  0  0  0  0
 17 18  1  0  0  0  0
 17 42  1  0  0  0  0
 17 43  1  0  0  0  0
 18 19  1  0  0  0  0
 18 20  1  0  0  0  0
 18 56  1  0  0  0  0
 19 44  1  0  0  0  0
 19 45  1  0  0  0  0
 19 46  1  0  0  0  0
 20 47  1  0  0  0  0
 20 48  1  0  0  0  0
 20 49  1  0  0  0  0
 21 50  1  0  0  0  0
 21 51  1  0  0  0  0
 22 23  1  0  0  0  0
 23 24  2  0  0  0  0
 23 52  1  0  0  0  0
 24 25  1  0  0  0  0
 25 53  1  0  0  0  0
 25 54  1  0  0  0  0
 25 55  1  0  0  0  0
M  CHG  1  12   1
M  CHG  1  18   1
M  END
> <s_m_source_file>
AV-unprocessed.smi

> <i_m_source_file_index>
1005

> <i_lp_mmshare_version>
43012

> <i_f3d_flags>
0

> <s_epik_input>
W0NIM11jKFtjSF0xKWMoW0NIM10pW2NIXWMoYzEyKW4oW2NIXW4yKVtDSDJdW0NASF0oW09IXSlbQ0gyXU4zW0NIMl1bQ0gyXU9bQ0BIXShbQ0gyXTMpW0NIMl1OKFtDSDNdKVtDSDNd

> <s_epik_cmdline>
J2VwaWtfcHl0aG9uJywgJy1waCcsICc3LjAnLCAnLXRuJywgJzgnLCAnLW1hJywgJzIwMCcsICctbWV0YWxfYmluZGluZycsICctaW1hZScsICc8aW5maWxlLm1hZT4nLCAnLW9tYWUnLCAnPG91dGZpbGUubWFlPic=

> <r_epik_Ionization_Penalty>
1.0968

> <r_epik_Ionization_Penalty_Charging>
1.0096

> <r_epik_Ionization_Penalty_Neutral>
0.0871956

> <r_epik_State_Penalty>
1.31185

> <r_epik_Charging_Adjusted_Penalty>
2.32145

> <i_epik_Tot_Q>
2

> <i_epik_Tot_abs_Q>
2

> <r_epik_Metal_State_Penalty>
1.22442

> <b_epik_Metal_Only>
0

> <s_lp_Force_Field>
OPLS_2005

> <r_lp_Energy>
35.7023

> <b_lp_Chiralities_Consistent>
1

> <s_lp_Variant>
AV-unprocessed.smi:1005-7

> <Gold.Version>
5.8.1

> <Gold.Id.Protein>
6NUR|6NUR_protein|mol2

> <Gold.PLP.Fitness>
55.8843

> <Gold.PLP.PLP>
-43.5335

> <Gold.PLP.part.hbond>
-5.0000

> <Gold.PLP.part.metal>
0.0000

> <Gold.PLP.part.buried>
-0.7790

> <Gold.PLP.part.nonpolar>
-38.5731

> <Gold.PLP.part.repulsive>
0.0930

> <Gold.PLP.ligand.clash>
0.0000

> <Gold.PLP.ligand.torsion>
0.9629

> <Gold.PLP.Chemscore.Hbond>
4.6720

> <Gold.PLP.Chemscore.CHOScore>
0.0000

> <Gold.PLP.Chemscore.Metal>
0.0000

> <Gold.Chemscore.Hbonds>
donor molecule, donor type, donor heavy atom, donor atom, acceptor molecule, acceptor atom, score
      L1  H    10    34       P1  7957  0.83
      L1  H    18    56       P1  7948  2.00
      P1  H  7997  8010       L1     5  0.80
      P1  H  8011  8017       L1    10  0.70

> <Gold.PLP.Chemscore.Internal.Correction>
0.2606

> <Gold.Rescore>
     Score         DG    S(hbond)    S(metal)    S(lipo)     H(rot)  DE(clash)    DE(int)     intcor
     19.29     -21.63       2.67        0.00     116.22       2.48       1.25       1.08       ----

> <Gold.Chemscore.Fitness>
19.2909

> <Gold.Chemscore.DG>
-21.6287

> <Gold.Chemscore.ZeroCoef>
-5.4800

> <Gold.Chemscore.Hbond>
2.6656

> <Gold.Chemscore.Metal>
0.0000

> <Gold.Chemscore.Lipo>
116.2213

> <Gold.Chemscore.Internal_Hbond>
0.0000

> <Gold.Chemscore.DEClash>
1.2541

> <Gold.Chemscore.DEInternal>
1.0836

> <Gold.Chemscore.Rot>
2.4814

> <Gold.Chemscore.Internal.Correction>
   9.000000E+99

> <Gold.Chemscore.Hbonds>
donor molecule, donor type, donor heavy atom, donor atom, acceptor molecule, acceptor atom, score
      L1  H    10    34       P1  7957  0.83
      L1  H    18    56       P1  7948  0.98
      P1  H  7997  8010       L1     5  0.05
      P1  H  8011  8017       L1    10  0.07

> <Gold.Chemscore.Hbond.Weighted>
-8.9032

> <Gold.Chemscore.Metal.Weighted>
-0.0000

> <Gold.Chemscore.Lipo.Weighted>
-13.5979

> <Gold.Chemscore.Internal_Hbond.Weighted>
0.0000

> <Gold.Chemscore.DEClash.Weighted>
1.2541

> <Gold.Chemscore.DEInternal.Weighted>
1.0836

> <Gold.Chemscore.Rot.Weighted>
6.3524

> <Gold.Chemscore.Internal.Correction.Weighted>
   9.000000E+99

> <Gold.Protein.RotatedTorsions>
[ 6907 6896 6895 6894 ] final   -5.11 input  -60.11 | X-H torsion
[ 7974 7965 7964 7962 ] final   39.03 input  175.53 | X-H torsion
[ 8008 7997 7996 7995 ] final   31.96 input   59.86 | X-H torsion
[ 10167 10162 10161 10158 ] final  -22.93 input  -65.29 | X-H torsion
[ 10718 10713 10712 10709 ] final  -79.76 input   66.30 | X-H torsion
[ 10763 10752 10751 10750 ] final  173.32 input  -60.55 | X-H torsion
[ 11005 11000 10999 10996 ] final  -58.32 input  -57.11 | X-H torsion

> <Gold.Protein.ActiveResidues>
 VAL166  LYS551  ARG553  GLY616  TRP617  ASP618  TYR619  PRO620  LYS621  CYS622 
 ASP623  PHE694  ASN695  SER759  ASP760  ASP761  ALA762  ILE779  LEU786  VAL792 
 PHE793  MET794  SER795  GLU796  ALA797  LYS798  CYS799  TRP800  GLU811  SER814 

> <Gold.Protein.RotatedAtoms>
  151.4869  135.1055  159.9792 H   0  0  0  0  0  0  0  0  0  0  0  0  # atno 6907 bound_to 6896
  152.4756  133.8128  159.7023 H   0  0  0  0  0  0  0  0  0  0  0  0  # atno 6908 bound_to 6896
  150.8793  133.7333  159.2963 H   0  0  0  0  0  0  0  0  0  0  0  0  # atno 6909 bound_to 6896
  146.1016  139.5701  142.9410 H   0  0  0  0  0  0  0  0  0  0  0  0  # atno 7974 bound_to 7965
  155.1147  140.3242  155.4512 H   0  0  0  0  0  0  0  0  0  0  0  0  # atno 8008 bound_to 7997
  156.2680  140.2038  156.6219 H   0  0  0  0  0  0  0  0  0  0  0  0  # atno 8009 bound_to 7997
  154.6729  140.0534  157.0171 H   0  0  0  0  0  0  0  0  0  0  0  0  # atno 8010 bound_to 7997
  140.7287  143.4489  151.0545 H   0  0  0  0  0  0  0  0  0  0  0  0  # atno 10167 bound_to 10162
  156.0085  130.4555  150.3697 H   0  0  0  0  0  0  0  0  0  0  0  0  # atno 10718 bound_to 10713
  154.4384  135.2761  155.1864 H   0  0  0  0  0  0  0  0  0  0  0  0  # atno 10763 bound_to 10752
  154.3741  135.6102  153.5759 H   0  0  0  0  0  0  0  0  0  0  0  0  # atno 10764 bound_to 10752
  152.9839  135.5864  154.4708 H   0  0  0  0  0  0  0  0  0  0  0  0  # atno 10765 bound_to 10752
  141.1202  133.6612  156.4902 H   0  0  0  0  0  0  0  0  0  0  0  0  # atno 11005 bound_to 11000
  145.5843  141.0378  143.2105 LP  0  0  0  0  0  0  0  0  0  0  0  0  # atno 17320 bound_to 7965
  144.7437  139.7378  143.7300 LP  0  0  0  0  0  0  0  0  0  0  0  0  # atno 17321 bound_to 7965
  139.8164  143.7880  152.3174 LP  0  0  0  0  0  0  0  0  0  0  0  0  # atno 17342 bound_to 10162
  139.7948  144.7397  150.9906 LP  0  0  0  0  0  0  0  0  0  0  0  0  # atno 17343 bound_to 10162
  157.1782  131.0385  151.2761 LP  0  0  0  0  0  0  0  0  0  0  0  0  # atno 17370 bound_to 10713
  157.4169  130.7416  149.6882 LP  0  0  0  0  0  0  0  0  0  0  0  0  # atno 17371 bound_to 10713
  140.4529  134.6912  157.5048 LP  0  0  0  0  0  0  0  0  0  0  0  0  # atno 17394 bound_to 11000
  140.0154  134.6628  155.9318 LP  0  0  0  0  0  0  0  0  0  0  0  0  # atno 17395 bound_to 11000

$$$$
