AV-unprocessed.smi:107|AV-procd|sdf|1015|dock3
  -GOLD-   2262018 13D 1   1.00000     0.00000
 Structure written by MMmdl.
 31 32  0  0  0  0  0  0  0  0  1 V2000
  150.3419  144.8689  159.3985 C   0  0  0  0  0  0  0  0  0  0  0  0
  150.8214  143.5012  158.9412 C   0  0  0  0  0  0  0  0  0  0  0  0
  150.0837  142.7070  158.1239 C   0  0  0  0  0  0  0  0  0  0  0  0
  150.4965  141.4566  157.6850 N   0  0  0  0  0  0  0  0  0  0  0  0
  149.6291  140.6249  156.7677 C   0  0  2  0  0  0  0  0  0  0  0  0
  150.2443  140.5396  155.3697 C   0  0  0  0  0  0  0  0  0  0  0  0
  149.0134  140.6159  154.4909 C   0  0  2  0  0  0  0  0  0  0  0  0
  149.3434  141.1219  153.2137 O   0  0  0  0  0  0  0  0  0  0  0  0
  148.1143  141.5673  155.2868 C   0  0  1  0  0  0  0  0  0  0  0  0
  146.6109  141.4179  155.0069 C   0  0  0  0  0  0  0  0  0  0  0  0
  146.3463  141.5607  153.6276 O   0  0  0  0  0  0  0  0  0  0  0  0
  148.3766  141.2348  156.6489 O   0  0  0  0  0  0  0  0  0  0  0  0
  151.7606  140.9695  158.0776 C   0  0  0  0  0  0  0  0  0  0  0  0
  152.2090  139.8862  157.7050 O   0  0  0  0  0  0  0  0  0  0  0  0
  152.5166  141.7819  158.9208 N   0  0  0  0  0  0  0  0  0  0  0  0
  152.1341  143.0377  159.3989 C   0  0  0  0  0  0  0  0  0  0  0  0
  152.8896  143.6598  160.1435 O   0  0  0  0  0  0  0  0  0  0  0  0
  153.4209  141.4356  159.2069 H   0  0  0  0  0  0  0  0  0  0  0  0
  149.3496  145.1002  159.0105 H   0  0  0  0  0  0  0  0  0  0  0  0
  151.0252  145.6460  159.0541 H   0  0  0  0  0  0  0  0  0  0  0  0
  150.2935  144.9127  160.4871 H   0  0  0  0  0  0  0  0  0  0  0  0
  149.1249  143.0758  157.7928 H   0  0  0  0  0  0  0  0  0  0  0  0
  149.4754  139.6507  157.2343 H   0  0  0  0  0  0  0  0  0  0  0  0
  150.8957  141.3992  155.2011 H   0  0  0  0  0  0  0  0  0  0  0  0
  150.8230  139.6239  155.2455 H   0  0  0  0  0  0  0  0  0  0  0  0
  148.5541  139.6305  154.4020 H   0  0  0  0  0  0  0  0  0  0  0  0
  149.5338  140.3923  152.6433 H   0  0  0  0  0  0  0  0  0  0  0  0
  148.4285  142.6011  155.1328 H   0  0  0  0  0  0  0  0  0  0  0  0
  146.2408  140.4528  155.3541 H   0  0  0  0  0  0  0  0  0  0  0  0
  146.0534  142.1875  155.5411 H   0  0  0  0  0  0  0  0  0  0  0  0
  145.4928  141.1976  153.4464 H   0  0  0  0  0  0  0  0  0  0  0  0
  1  2  1  0  0  0  0
  1 19  1  0  0  0  0
  1 20  1  0  0  0  0
  1 21  1  0  0  0  0
  2 16  1  0  0  0  0
  2  3  2  0  0  0  0
  3  4  1  0  0  0  0
  3 22  1  0  0  0  0
  4  5  1  0  0  0  0
  4 13  1  0  0  0  0
  5 12  1  0  0  0  0
  5  6  1  0  0  0  0
  5 23  1  0  0  0  0
  6  7  1  0  0  0  0
  6 24  1  0  0  0  0
  6 25  1  0  0  0  0
  7  8  1  0  0  0  0
  7  9  1  0  0  0  0
  7 26  1  0  0  0  0
  8 27  1  0  0  0  0
  9 10  1  0  0  0  0
  9 12  1  0  0  0  0
  9 28  1  0  0  0  0
 10 11  1  0  0  0  0
 10 29  1  0  0  0  0
 10 30  1  0  0  0  0
 11 31  1  0  0  0  0
 13 14  2  0  0  0  0
 13 15  1  0  0  0  0
 15 18  1  0  0  0  0
 15 16  1  0  0  0  0
 16 17  2  0  0  0  0
M  END
> <s_m_source_file>
AV-unprocessed.smi

> <i_m_source_file_index>
107

> <i_lp_mmshare_version>
43012

> <i_f3d_flags>
0

> <s_epik_input>
Tz1jMVtuSF1jKD1PKW4oW2NIXWMxW0NIM10pW0NAQEhdMltDSDJdW0NAQEhdKFtPSF0pW0NASF0oTzIpW0NIMl1bT0hd

> <s_epik_cmdline>
J2VwaWtfcHl0aG9uJywgJy1waCcsICc3LjAnLCAnLXRuJywgJzgnLCAnLW1hJywgJzIwMCcsICctbWV0YWxfYmluZGluZycsICctaW1hZScsICc8aW5maWxlLm1hZT4nLCAnLW9tYWUnLCAnPG91dGZpbGUubWFlPic=

> <r_lp_tautomer_probability>
0.999537

> <r_epik_Ionization_Penalty>
0.00121888

> <r_epik_Ionization_Penalty_Charging>
0.00121876

> <r_epik_Ionization_Penalty_Neutral>
1.19946e-07

> <r_epik_State_Penalty>
0.000805124

> <r_epik_Charging_Adjusted_Penalty>
0.00202389

> <i_epik_Tot_Q>
0

> <i_epik_Tot_abs_Q>
0

> <r_epik_Metal_State_Penalty>
0.662472

> <b_epik_Metal_Only>
0

> <s_epik_Chemistry_Notes>
This compound contains an acetal/aminal-like group ( X-CH(R)-Y where X, Y are N, S, or O) that may be acid/base labile, releasing an aldehyde.

> <s_lp_Force_Field>
OPLS_2005

> <r_lp_Energy>
24.0727

> <b_lp_Chiralities_Consistent>
1

> <s_lp_Variant>
AV-unprocessed.smi:107-3

> <Gold.Version>
5.8.1

> <Gold.Id.Protein>
6NUR|6NUR_protein|mol2

> <Gold.PLP.Fitness>
38.9881

> <Gold.PLP.PLP>
-27.9934

> <Gold.PLP.part.hbond>
-3.9105

> <Gold.PLP.part.metal>
0.0000

> <Gold.PLP.part.buried>
-2.4433

> <Gold.PLP.part.nonpolar>
-21.1938

> <Gold.PLP.part.repulsive>
0.1651

> <Gold.PLP.ligand.clash>
0.0000

> <Gold.PLP.ligand.torsion>
0.1552

> <Gold.PLP.Chemscore.Hbond>
3.1681

> <Gold.PLP.Chemscore.CHOScore>
0.5977

> <Gold.PLP.Chemscore.Metal>
0.0000

> <Gold.Chemscore.Hbonds>
donor molecule, donor type, donor heavy atom, donor atom, acceptor molecule, acceptor atom, score
      L1  H     8    27       P1  7957  0.78
      L1  H    11    31       P1 10175  0.67
      P1  H  7997  8008       L1    14  0.05
      P1  H  8011  8017       L1     8  1.00
      L1  C     3    22       P1  8028  0.51

> <Gold.PLP.Chemscore.Internal.Correction>
0.0077

> <Gold.Rescore>
     Score         DG    S(hbond)    S(metal)    S(lipo)     H(rot)  DE(clash)    DE(int)     intcor
     13.25     -13.47       2.82        0.00      47.51       2.73       0.09       0.13       ----

> <Gold.Chemscore.Fitness>
13.2538

> <Gold.Chemscore.DG>
-13.4693

> <Gold.Chemscore.ZeroCoef>
-5.4800

> <Gold.Chemscore.Hbond>
2.8166

> <Gold.Chemscore.Metal>
0.0000

> <Gold.Chemscore.Lipo>
47.5096

> <Gold.Chemscore.Internal_Hbond>
0.0000

> <Gold.Chemscore.DEClash>
0.0895

> <Gold.Chemscore.DEInternal>
0.1260

> <Gold.Chemscore.Rot>
2.7253

> <Gold.Chemscore.Internal.Correction>
   9.000000E+99

> <Gold.Chemscore.Hbonds>
donor molecule, donor type, donor heavy atom, donor atom, acceptor molecule, acceptor atom, score
      L1  H     8    27       P1  7957  0.73
      L1  H    11    31       P1 10175  0.26
      P1  H  7997  8008       L1    14  0.08
      P1  H  8011  8017       L1     8  0.39

> <Gold.Chemscore.Hbond.Weighted>
-9.4075

> <Gold.Chemscore.Metal.Weighted>
-0.0000

> <Gold.Chemscore.Lipo.Weighted>
-5.5586

> <Gold.Chemscore.Internal_Hbond.Weighted>
0.0000

> <Gold.Chemscore.DEClash.Weighted>
0.0895

> <Gold.Chemscore.DEInternal.Weighted>
0.1260

> <Gold.Chemscore.Rot.Weighted>
6.9769

> <Gold.Chemscore.Internal.Correction.Weighted>
   9.000000E+99

> <Gold.Protein.RotatedTorsions>
[ 6907 6896 6895 6894 ] final  -46.57 input  -60.11 | X-H torsion
[ 7974 7965 7964 7962 ] final  -45.49 input  175.53 | X-H torsion
[ 8008 7997 7996 7995 ] final  -65.24 input   59.86 | X-H torsion
[ 10167 10162 10161 10158 ] final   62.47 input  -65.29 | X-H torsion
[ 10718 10713 10712 10709 ] final   89.29 input   66.30 | X-H torsion
[ 10763 10752 10751 10750 ] final  -26.14 input  -60.55 | X-H torsion
[ 11005 11000 10999 10996 ] final   74.38 input  -57.11 | X-H torsion

> <Gold.Protein.ActiveResidues>
 VAL166  LYS551  ARG553  GLY616  TRP617  ASP618  TYR619  PRO620  LYS621  CYS622 
 ASP623  PHE694  ASN695  SER759  ASP760  ASP761  ALA762  ILE779  LEU786  VAL792 
 PHE793  MET794  SER795  GLU796  ALA797  LYS798  CYS799  TRP800  GLU811  SER814 

> <Gold.Protein.RotatedAtoms>
  150.9098  134.8515  159.7417 H   0  0  0  0  0  0  0  0  0  0  0  0  # atno 6907 bound_to 6896
  152.4938  134.4376  159.9542 H   0  0  0  0  0  0  0  0  0  0  0  0  # atno 6908 bound_to 6896
  151.4419  133.3601  159.2818 H   0  0  0  0  0  0  0  0  0  0  0  0  # atno 6909 bound_to 6896
  145.9815  140.7279  142.9361 H   0  0  0  0  0  0  0  0  0  0  0  0  # atno 7974 bound_to 7965
  154.4659  140.0937  156.7020 H   0  0  0  0  0  0  0  0  0  0  0  0  # atno 8008 bound_to 7997
  155.4859  140.3469  155.4328 H   0  0  0  0  0  0  0  0  0  0  0  0  # atno 8009 bound_to 7997
  156.0956  140.1408  156.9524 H   0  0  0  0  0  0  0  0  0  0  0  0  # atno 8010 bound_to 7997
  140.1435  144.4530  150.6798 H   0  0  0  0  0  0  0  0  0  0  0  0  # atno 10167 bound_to 10162
  157.6954  131.0327  150.3403 H   0  0  0  0  0  0  0  0  0  0  0  0  # atno 10718 bound_to 10713
  153.7112  135.6950  153.5037 H   0  0  0  0  0  0  0  0  0  0  0  0  # atno 10763 bound_to 10752
  153.2271  135.4350  155.0553 H   0  0  0  0  0  0  0  0  0  0  0  0  # atno 10764 bound_to 10752
  154.8314  135.3475  154.6649 H   0  0  0  0  0  0  0  0  0  0  0  0  # atno 10765 bound_to 10752
  139.9394  134.7427  156.1140 H   0  0  0  0  0  0  0  0  0  0  0  0  # atno 11005 bound_to 11000
  144.6863  140.2916  143.7277 LP  0  0  0  0  0  0  0  0  0  0  0  0  # atno 17320 bound_to 7965
  145.7763  139.1875  143.2183 LP  0  0  0  0  0  0  0  0  0  0  0  0  # atno 17321 bound_to 7965
  140.6746  143.2299  151.5540 LP  0  0  0  0  0  0  0  0  0  0  0  0  # atno 17342 bound_to 10162
  139.5460  144.2520  152.1443 LP  0  0  0  0  0  0  0  0  0  0  0  0  # atno 17343 bound_to 10162
  156.3865  130.3890  149.7062 LP  0  0  0  0  0  0  0  0  0  0  0  0  # atno 17370 bound_to 10713
  156.4427  130.7868  151.2890 LP  0  0  0  0  0  0  0  0  0  0  0  0  # atno 17371 bound_to 10713
  141.1022  133.6673  156.2780 LP  0  0  0  0  0  0  0  0  0  0  0  0  # atno 17394 bound_to 11000
  140.5991  134.5573  157.5514 LP  0  0  0  0  0  0  0  0  0  0  0  0  # atno 17395 bound_to 11000

$$$$
