AV-unprocessed.smi:2888|AV-procd|sdf|11102|dock3
  -GOLD-   2272015573D 1   1.00000     0.00000
 Structure written by MMmdl.
 33 35  0  0  0  0  0  0  0  0  1 V2000
  153.6459  140.8826  159.9308 C   0  0  0  0  0  0  0  0  0  0  0  0
  152.7851  141.9950  159.3713 C   0  0  0  0  0  0  0  0  0  0  0  0
  152.8368  143.3041  159.8938 C   0  0  0  0  0  0  0  0  0  0  0  0
  151.9845  144.2486  159.2844 C   0  0  0  0  0  0  0  0  0  0  0  0
  151.9388  145.6889  159.7483 C   0  0  0  0  0  0  0  0  0  0  0  0
  151.1656  143.9146  158.2621 N   0  0  0  0  0  0  0  0  0  0  0  0
  151.1959  142.6448  157.8499 C   0  0  0  0  0  0  0  0  0  0  0  0
  150.3378  142.3378  156.8100 N   0  0  0  0  0  0  0  0  0  0  0  0
  149.8368  140.9972  156.5290 C   0  0  2  0  0  0  0  0  0  0  0  0
  150.2971  140.4504  155.1759 C   0  0  0  0  0  0  0  0  0  0  0  0
  148.9631  140.0504  154.5291 C   0  0  2  0  0  0  0  0  0  0  0  0
  148.1814  141.2788  154.0467 C   0  0  0  0  0  0  0  0  0  0  0  0
  147.7108  141.8849  155.3673 C   0  0  0  0  0  0  0  0  0  0  0  0
  148.3038  140.9066  156.3963 C   0  0  1  0  0  0  0  0  0  0  0  0
  148.2017  139.6928  155.6708 O   0  0  0  0  0  0  0  0  0  0  0  0
  151.9634  141.6688  158.3498 N   0  0  0  0  0  0  0  0  0  0  0  0
  154.3455  141.2623  160.6757 H   0  0  0  0  0  0  0  0  0  0  0  0
  154.2211  140.4091  159.1347 H   0  0  0  0  0  0  0  0  0  0  0  0
  153.0220  140.1237  160.4033 H   0  0  0  0  0  0  0  0  0  0  0  0
  153.4903  143.5678  160.7125 H   0  0  0  0  0  0  0  0  0  0  0  0
  152.7258  145.8933  160.4749 H   0  0  0  0  0  0  0  0  0  0  0  0
  150.9776  145.9049  160.2153 H   0  0  0  0  0  0  0  0  0  0  0  0
  152.0715  146.3661  158.9042 H   0  0  0  0  0  0  0  0  0  0  0  0
  149.8868  143.1146  156.3496 H   0  0  0  0  0  0  0  0  0  0  0  0
  150.1741  140.3184  157.3138 H   0  0  0  0  0  0  0  0  0  0  0  0
  150.8419  141.1755  154.5697 H   0  0  0  0  0  0  0  0  0  0  0  0
  150.9384  139.5800  155.3185 H   0  0  0  0  0  0  0  0  0  0  0  0
  149.0517  139.2616  153.7817 H   0  0  0  0  0  0  0  0  0  0  0  0
  148.7983  141.9619  153.4617 H   0  0  0  0  0  0  0  0  0  0  0  0
  147.3273  140.9816  153.4372 H   0  0  0  0  0  0  0  0  0  0  0  0
  148.0485  142.9119  155.5084 H   0  0  0  0  0  0  0  0  0  0  0  0
  146.6216  141.8807  155.4190 H   0  0  0  0  0  0  0  0  0  0  0  0
  147.7769  140.8993  157.3508 H   0  0  0  0  0  0  0  0  0  0  0  0
  1  2  1  0  0  0  0
  1 17  1  0  0  0  0
  1 18  1  0  0  0  0
  1 19  1  0  0  0  0
  2 16  1  0  0  0  0
  2  3  2  0  0  0  0
  3  4  1  0  0  0  0
  3 20  1  0  0  0  0
  4  5  1  0  0  0  0
  4  6  2  0  0  0  0
  5 21  1  0  0  0  0
  5 22  1  0  0  0  0
  5 23  1  0  0  0  0
  6  7  1  0  0  0  0
  7  8  1  0  0  0  0
  7 16  2  0  0  0  0
  8  9  1  0  0  0  0
  8 24  1  0  0  0  0
  9 14  1  0  0  0  0
  9 10  1  0  0  0  0
  9 25  1  0  0  0  0
 10 11  1  0  0  0  0
 10 26  1  0  0  0  0
 10 27  1  0  0  0  0
 11 15  1  0  0  0  0
 11 12  1  0  0  0  0
 11 28  1  0  0  0  0
 12 13  1  0  0  0  0
 12 29  1  0  0  0  0
 12 30  1  0  0  0  0
 13 14  1  0  0  0  0
 13 31  1  0  0  0  0
 13 32  1  0  0  0  0
 14 15  1  0  0  0  0
 14 33  1  0  0  0  0
M  END
> <s_m_source_file>
AV-unprocessed.smi

> <i_m_source_file_index>
2888

> <i_lp_mmshare_version>
43012

> <i_f3d_flags>
0

> <s_epik_input>
W0NIM11jMVtjSF1jKFtDSDNdKW5jKG4xKVtOSF1bQ0BIXShbQ0gyXVtDQEBIXTIzKVtDQEBIXShPMylbQ0gyXVtDSDJdMg==

> <s_epik_cmdline>
J2VwaWtfcHl0aG9uJywgJy1waCcsICc3LjAnLCAnLXRuJywgJzgnLCAnLW1hJywgJzIwMCcsICctbWV0YWxfYmluZGluZycsICctaW1hZScsICc8aW5maWxlLm1hZT4nLCAnLW9tYWUnLCAnPG91dGZpbGUubWFlPic=

> <r_lp_tautomer_probability>
1

> <r_epik_Ionization_Penalty>
0.00890508

> <r_epik_Ionization_Penalty_Charging>
0

> <r_epik_Ionization_Penalty_Neutral>
0.00890508

> <r_epik_State_Penalty>
0.0067342

> <r_epik_Charging_Adjusted_Penalty>
0.0067342

> <i_epik_Tot_Q>
0

> <i_epik_Tot_abs_Q>
0

> <r_epik_Metal_State_Penalty>
0.00663442

> <b_epik_Metal_Only>
0

> <s_lp_Force_Field>
OPLS_2005

> <r_lp_Energy>
31.8735

> <b_lp_Chiralities_Consistent>
1

> <s_lp_Variant>
AV-unprocessed.smi:2888-3

> <Gold.Version>
5.8.1

> <Gold.Id.Protein>
6NUR|6NUR_protein|mol2

> <Gold.PLP.Fitness>
36.8952

> <Gold.PLP.PLP>
-34.2006

> <Gold.PLP.part.hbond>
-1.0000

> <Gold.PLP.part.metal>
0.0000

> <Gold.PLP.part.buried>
-0.5848

> <Gold.PLP.part.nonpolar>
-32.6847

> <Gold.PLP.part.repulsive>
0.1980

> <Gold.PLP.ligand.clash>
0.0000

> <Gold.PLP.ligand.torsion>
0.1572

> <Gold.PLP.Chemscore.Hbond>
1.0000

> <Gold.PLP.Chemscore.CHOScore>
0.0000

> <Gold.PLP.Chemscore.Metal>
0.0000

> <Gold.Chemscore.Hbonds>
donor molecule, donor type, donor heavy atom, donor atom, acceptor molecule, acceptor atom, score
      L1  H     8    24       P1  8028  1.00

> <Gold.PLP.Chemscore.Internal.Correction>
0.0089

> <Gold.Rescore>
     Score         DG    S(hbond)    S(metal)    S(lipo)     H(rot)  DE(clash)    DE(int)     intcor
     16.66     -17.11       1.00        0.00      92.84       1.00       0.33       0.12       ----

> <Gold.Chemscore.Fitness>
16.6623

> <Gold.Chemscore.DG>
-17.1067

> <Gold.Chemscore.ZeroCoef>
-5.4800

> <Gold.Chemscore.Hbond>
0.9953

> <Gold.Chemscore.Metal>
0.0000

> <Gold.Chemscore.Lipo>
92.8399

> <Gold.Chemscore.Internal_Hbond>
0.0000

> <Gold.Chemscore.DEClash>
0.3265

> <Gold.Chemscore.DEInternal>
0.1179

> <Gold.Chemscore.Rot>
1.0000

> <Gold.Chemscore.Internal.Correction>
   9.000000E+99

> <Gold.Chemscore.Hbonds>
donor molecule, donor type, donor heavy atom, donor atom, acceptor molecule, acceptor atom, score
      L1  H     8    24       P1  8028  0.95

> <Gold.Chemscore.Hbond.Weighted>
-3.3244

> <Gold.Chemscore.Metal.Weighted>
-0.0000

> <Gold.Chemscore.Lipo.Weighted>
-10.8623

> <Gold.Chemscore.Internal_Hbond.Weighted>
0.0000

> <Gold.Chemscore.DEClash.Weighted>
0.3265

> <Gold.Chemscore.DEInternal.Weighted>
0.1179

> <Gold.Chemscore.Rot.Weighted>
2.5600

> <Gold.Chemscore.Internal.Correction.Weighted>
   9.000000E+99

> <Gold.Protein.RotatedTorsions>
[ 6907 6896 6895 6894 ] final  -95.74 input  -60.11 | X-H torsion
[ 7974 7965 7964 7962 ] final  122.58 input  175.53 | X-H torsion
[ 8008 7997 7996 7995 ] final   99.31 input   59.86 | X-H torsion
[ 10167 10162 10161 10158 ] final   -9.76 input  -65.29 | X-H torsion
[ 10718 10713 10712 10709 ] final  -23.97 input   66.30 | X-H torsion
[ 10763 10752 10751 10750 ] final  166.89 input  -60.55 | X-H torsion
[ 11005 11000 10999 10996 ] final   -0.46 input  -57.11 | X-H torsion

> <Gold.Protein.ActiveResidues>
 VAL166  LYS551  ARG553  GLY616  TRP617  ASP618  TYR619  PRO620  LYS621  CYS622 
 ASP623  PHE694  ASN695  SER759  ASP760  ASP761  ALA762  ILE779  LEU786  VAL792 
 PHE793  MET794  SER795  GLU796  ALA797  LYS798  CYS799  TRP800  GLU811  SER814 

> <Gold.Protein.RotatedAtoms>
  150.6971  134.1610  159.4176 H   0  0  0  0  0  0  0  0  0  0  0  0  # atno 6907 bound_to 6896
  151.9591  135.0130  160.0556 H   0  0  0  0  0  0  0  0  0  0  0  0  # atno 6908 bound_to 6896
  152.1943  133.4760  159.5061 H   0  0  0  0  0  0  0  0  0  0  0  0  # atno 6909 bound_to 6896
  145.1059  139.3486  143.4788 H   0  0  0  0  0  0  0  0  0  0  0  0  # atno 7974 bound_to 7965
  156.1092  140.3230  155.8048 H   0  0  0  0  0  0  0  0  0  0  0  0  # atno 8008 bound_to 7997
  155.4703  140.0546  157.2997 H   0  0  0  0  0  0  0  0  0  0  0  0  # atno 8009 bound_to 7997
  154.4748  140.2027  155.9919 H   0  0  0  0  0  0  0  0  0  0  0  0  # atno 8010 bound_to 7997
  140.7096  143.5823  150.8979 H   0  0  0  0  0  0  0  0  0  0  0  0  # atno 10167 bound_to 10162
  156.4839  130.4551  149.6795 H   0  0  0  0  0  0  0  0  0  0  0  0  # atno 10718 bound_to 10713
  154.3457  135.2753  155.2399 H   0  0  0  0  0  0  0  0  0  0  0  0  # atno 10763 bound_to 10752
  154.4650  135.5897  153.6285 H   0  0  0  0  0  0  0  0  0  0  0  0  # atno 10764 bound_to 10752
  152.9854  135.6074  154.3662 H   0  0  0  0  0  0  0  0  0  0  0  0  # atno 10765 bound_to 10752
  140.6365  133.9528  155.8303 H   0  0  0  0  0  0  0  0  0  0  0  0  # atno 11005 bound_to 11000
  146.3528  140.0956  142.8610 LP  0  0  0  0  0  0  0  0  0  0  0  0  # atno 17320 bound_to 7965
  145.0902  140.9279  143.4773 LP  0  0  0  0  0  0  0  0  0  0  0  0  # atno 17321 bound_to 7965
  139.9549  143.6230  152.3019 LP  0  0  0  0  0  0  0  0  0  0  0  0  # atno 17342 bound_to 10162
  139.6762  144.7658  151.1692 LP  0  0  0  0  0  0  0  0  0  0  0  0  # atno 17343 bound_to 10162
  156.3494  130.7424  151.2381 LP  0  0  0  0  0  0  0  0  0  0  0  0  # atno 17370 bound_to 10713
  157.7480  131.0381  150.4489 LP  0  0  0  0  0  0  0  0  0  0  0  0  # atno 17371 bound_to 10713
  141.0637  134.0308  157.3623 LP  0  0  0  0  0  0  0  0  0  0  0  0  # atno 17394 bound_to 11000
  139.9096  135.0187  156.7635 LP  0  0  0  0  0  0  0  0  0  0  0  0  # atno 17395 bound_to 11000

$$$$
