AV-unprocessed.smi:3165|AV-procd|sdf|12091|dock6
  -GOLD-   2272017523D 1   1.00000     0.00000
 Structure written by MMmdl.
 37 38  0  0  0  0  0  0  0  0  1 V2000
  154.1016  140.8798  160.2682 C   0  0  0  0  0  0  0  0  0  0  0  0
  153.4096  142.1626  159.7759 C   0  0  2  0  0  0  0  0  0  0  0  0
  152.5151  142.8172  160.8571 C   0  0  0  0  0  0  0  0  0  0  0  0
  151.7282  143.9275  160.3495 N   0  0  0  0  0  0  0  0  0  0  0  0
  151.8125  145.2613  160.6899 C   0  0  0  0  0  0  0  0  0  0  0  0
  150.8793  145.9297  159.9502 C   0  0  0  0  0  0  0  0  0  0  0  0
  150.2684  144.9062  159.1730 C   0  0  0  0  0  0  0  0  0  0  0  0
  150.7796  143.7096  159.4126 N   0  0  0  0  0  0  0  0  0  0  0  0
  152.6548  141.8589  158.5564 N   0  0  0  0  0  0  0  0  0  0  0  0
  151.6672  140.7873  158.6755 C   0  0  0  0  0  0  0  0  0  0  0  0
  151.5413  140.0099  157.3577 C   0  0  1  0  0  0  0  0  0  0  0  0
  151.0665  140.9178  156.2065 C   0  0  0  0  0  0  0  0  0  0  0  0
  151.0347  140.1418  154.8849 C   0  0  0  0  0  0  0  0  0  0  0  0
  152.3961  139.4827  154.6403 C   0  0  0  0  0  0  0  0  0  0  0  0
  152.8179  138.6582  155.8667 C   0  0  0  0  0  0  0  0  0  0  0  0
  152.8259  139.4849  157.0266 O   0  0  0  0  0  0  0  0  0  0  0  0
  154.7760  141.0785  161.1012 H   0  0  0  0  0  0  0  0  0  0  0  0
  154.6991  140.4283  159.4755 H   0  0  0  0  0  0  0  0  0  0  0  0
  153.3727  140.1388  160.5985 H   0  0  0  0  0  0  0  0  0  0  0  0
  154.2006  142.8703  159.5245 H   0  0  0  0  0  0  0  0  0  0  0  0
  151.8164  142.0918  161.2740 H   0  0  0  0  0  0  0  0  0  0  0  0
  153.1283  143.1713  161.6877 H   0  0  0  0  0  0  0  0  0  0  0  0
  152.5209  145.6181  161.4232 H   0  0  0  0  0  0  0  0  0  0  0  0
  150.6665  146.9882  159.9606 H   0  0  0  0  0  0  0  0  0  0  0  0
  149.4755  144.9966  158.4451 H   0  0  0  0  0  0  0  0  0  0  0  0
  152.1963  142.7010  158.2228 H   0  0  0  0  0  0  0  0  0  0  0  0
  151.9667  140.0955  159.4624 H   0  0  0  0  0  0  0  0  0  0  0  0
  150.6952  141.1905  158.9622 H   0  0  0  0  0  0  0  0  0  0  0  0
  150.8300  139.1915  157.4872 H   0  0  0  0  0  0  0  0  0  0  0  0
  150.0767  141.3202  156.4246 H   0  0  0  0  0  0  0  0  0  0  0  0
  151.7374  141.7728  156.1117 H   0  0  0  0  0  0  0  0  0  0  0  0
  150.2578  139.3771  154.9267 H   0  0  0  0  0  0  0  0  0  0  0  0
  150.7782  140.8056  154.0590 H   0  0  0  0  0  0  0  0  0  0  0  0
  152.3556  138.8494  153.7537 H   0  0  0  0  0  0  0  0  0  0  0  0
  153.1452  140.2509  154.4438 H   0  0  0  0  0  0  0  0  0  0  0  0
  152.1479  137.8099  156.0155 H   0  0  0  0  0  0  0  0  0  0  0  0
  153.8178  138.2508  155.7180 H   0  0  0  0  0  0  0  0  0  0  0  0
  1  2  1  0  0  0  0
  1 17  1  0  0  0  0
  1 18  1  0  0  0  0
  1 19  1  0  0  0  0
  2  3  1  0  0  0  0
  2  9  1  0  0  0  0
  2 20  1  0  0  0  0
  3  4  1  0  0  0  0
  3 21  1  0  0  0  0
  3 22  1  0  0  0  0
  4  8  1  0  0  0  0
  4  5  1  0  0  0  0
  5  6  2  0  0  0  0
  5 23  1  0  0  0  0
  6  7  1  0  0  0  0
  6 24  1  0  0  0  0
  7  8  2  0  0  0  0
  7 25  1  0  0  0  0
  9 10  1  0  0  0  0
  9 26  1  0  0  0  0
 10 11  1  0  0  0  0
 10 27  1  0  0  0  0
 10 28  1  0  0  0  0
 11 16  1  0  0  0  0
 11 12  1  0  0  0  0
 11 29  1  0  0  0  0
 12 13  1  0  0  0  0
 12 30  1  0  0  0  0
 12 31  1  0  0  0  0
 13 14  1  0  0  0  0
 13 32  1  0  0  0  0
 13 33  1  0  0  0  0
 14 15  1  0  0  0  0
 14 34  1  0  0  0  0
 14 35  1  0  0  0  0
 15 16  1  0  0  0  0
 15 36  1  0  0  0  0
 15 37  1  0  0  0  0
M  END
> <s_m_source_file>
AV-unprocessed.smi

> <i_m_source_file_index>
3165

> <i_lp_mmshare_version>
43012

> <i_f3d_flags>
0

> <s_epik_input>
bjFbY0hdW2NIXVtjSF1uMVtDSDJdW0NAQEhdKFtDSDNdKVtOSF1bQ0gyXVtDQEBIXTJbQ0gyXVtDSDJdW0NIMl1bQ0gyXU8y

> <s_epik_cmdline>
J2VwaWtfcHl0aG9uJywgJy1waCcsICc3LjAnLCAnLXRuJywgJzgnLCAnLW1hJywgJzIwMCcsICctbWV0YWxfYmluZGluZycsICctaW1hZScsICc8aW5maWxlLm1hZT4nLCAnLW9tYWUnLCAnPG91dGZpbGUubWFlPic=

> <r_lp_tautomer_probability>
1

> <r_epik_Ionization_Penalty>
2.51982

> <r_epik_Ionization_Penalty_Charging>
0

> <r_epik_Ionization_Penalty_Neutral>
2.51982

> <r_epik_State_Penalty>
2.68614

> <r_epik_Charging_Adjusted_Penalty>
2.68614

> <i_epik_Tot_Q>
0

> <i_epik_Tot_abs_Q>
0

> <r_epik_Metal_State_Penalty>
2.6861

> <b_epik_Metal_Only>
0

> <s_lp_Force_Field>
OPLS_2005

> <r_lp_Energy>
13.227

> <b_lp_Chiralities_Consistent>
1

> <s_lp_Variant>
AV-unprocessed.smi:3165-7

> <Gold.Version>
5.8.1

> <Gold.Id.Protein>
6NUR|6NUR_protein|mol2

> <Gold.PLP.Fitness>
43.6240

> <Gold.PLP.PLP>
-37.9099

> <Gold.PLP.part.hbond>
-1.0000

> <Gold.PLP.part.metal>
0.0000

> <Gold.PLP.part.buried>
-0.7099

> <Gold.PLP.part.nonpolar>
-34.2541

> <Gold.PLP.part.repulsive>
0.0462

> <Gold.PLP.ligand.clash>
0.0000

> <Gold.PLP.ligand.torsion>
0.3078

> <Gold.PLP.Chemscore.Hbond>
1.0000

> <Gold.PLP.Chemscore.CHOScore>
1.0979

> <Gold.PLP.Chemscore.Metal>
0.0000

> <Gold.Chemscore.Hbonds>
donor molecule, donor type, donor heavy atom, donor atom, acceptor molecule, acceptor atom, score
      P1  H  7997  8009       L1    16  0.50
      L1  C     7    25       P1  8029  1.00

> <Gold.PLP.Chemscore.Internal.Correction>
0.0360

> <Gold.Rescore>
     Score         DG    S(hbond)    S(metal)    S(lipo)     H(rot)  DE(clash)    DE(int)     intcor
     14.00     -14.52       0.34        0.00     102.03       1.57       0.22       0.30       ----

> <Gold.Chemscore.Fitness>
13.9989

> <Gold.Chemscore.DG>
-14.5174

> <Gold.Chemscore.ZeroCoef>
-5.4800

> <Gold.Chemscore.Hbond>
0.3375

> <Gold.Chemscore.Metal>
0.0000

> <Gold.Chemscore.Lipo>
102.0283

> <Gold.Chemscore.Internal_Hbond>
0.0000

> <Gold.Chemscore.DEClash>
0.2231

> <Gold.Chemscore.DEInternal>
0.2955

> <Gold.Chemscore.Rot>
1.5731

> <Gold.Chemscore.Internal.Correction>
   9.000000E+99

> <Gold.Chemscore.Hbonds>
donor molecule, donor type, donor heavy atom, donor atom, acceptor molecule, acceptor atom, score
      P1  H  7997  8009       L1    16  0.02

> <Gold.Chemscore.Hbond.Weighted>
-1.1274

> <Gold.Chemscore.Metal.Weighted>
-0.0000

> <Gold.Chemscore.Lipo.Weighted>
-11.9373

> <Gold.Chemscore.Internal_Hbond.Weighted>
0.0000

> <Gold.Chemscore.DEClash.Weighted>
0.2231

> <Gold.Chemscore.DEInternal.Weighted>
0.2955

> <Gold.Chemscore.Rot.Weighted>
4.0273

> <Gold.Chemscore.Internal.Correction.Weighted>
   9.000000E+99

> <Gold.Protein.RotatedTorsions>
[ 6907 6896 6895 6894 ] final -100.88 input  -60.11 | X-H torsion
[ 7974 7965 7964 7962 ] final   -0.33 input  175.53 | X-H torsion
[ 8008 7997 7996 7995 ] final -177.64 input   59.86 | X-H torsion
[ 10167 10162 10161 10158 ] final  -43.17 input  -65.29 | X-H torsion
[ 10718 10713 10712 10709 ] final   -8.76 input   66.30 | X-H torsion
[ 10763 10752 10751 10750 ] final   10.63 input  -60.55 | X-H torsion
[ 11005 11000 10999 10996 ] final  -85.23 input  -57.11 | X-H torsion

> <Gold.Protein.ActiveResidues>
 VAL166  LYS551  ARG553  GLY616  TRP617  ASP618  TYR619  PRO620  LYS621  CYS622 
 ASP623  PHE694  ASN695  SER759  ASP760  ASP761  ALA762  ILE779  LEU786  VAL792 
 PHE793  MET794  SER795  GLU796  ALA797  LYS798  CYS799  TRP800  GLU811  SER814 

> <Gold.Protein.RotatedAtoms>
  150.7133  134.0819  159.3900 H   0  0  0  0  0  0  0  0  0  0  0  0  # atno 6907 bound_to 6896
  151.8804  135.0453  160.0497 H   0  0  0  0  0  0  0  0  0  0  0  0  # atno 6908 bound_to 6896
  152.2572  133.5230  159.5397 H   0  0  0  0  0  0  0  0  0  0  0  0  # atno 6909 bound_to 6896
  146.2428  140.1253  142.8339 H   0  0  0  0  0  0  0  0  0  0  0  0  # atno 7974 bound_to 7965
  156.0094  140.1237  157.0469 H   0  0  0  0  0  0  0  0  0  0  0  0  # atno 8008 bound_to 7997
  154.4270  140.1091  156.5877 H   0  0  0  0  0  0  0  0  0  0  0  0  # atno 8009 bound_to 7997
  155.6101  140.3471  155.4622 H   0  0  0  0  0  0  0  0  0  0  0  0  # atno 8010 bound_to 7997
  140.6943  143.2997  151.3314 H   0  0  0  0  0  0  0  0  0  0  0  0  # atno 10167 bound_to 10162
  156.6979  130.5084  149.5925 H   0  0  0  0  0  0  0  0  0  0  0  0  # atno 10718 bound_to 10713
  153.2011  135.6856  153.8230 H   0  0  0  0  0  0  0  0  0  0  0  0  # atno 10763 bound_to 10752
  153.7495  135.3226  155.3319 H   0  0  0  0  0  0  0  0  0  0  0  0  # atno 10764 bound_to 10752
  154.8172  135.4677  154.0778 H   0  0  0  0  0  0  0  0  0  0  0  0  # atno 10765 bound_to 10752
  141.1643  133.7388  156.8985 H   0  0  0  0  0  0  0  0  0  0  0  0  # atno 11005 bound_to 11000
  145.0371  140.8917  143.5074 LP  0  0  0  0  0  0  0  0  0  0  0  0  # atno 17320 bound_to 7965
  145.1328  139.2621  143.5531 LP  0  0  0  0  0  0  0  0  0  0  0  0  # atno 17321 bound_to 7965
  139.6380  144.0593  152.2532 LP  0  0  0  0  0  0  0  0  0  0  0  0  # atno 17342 bound_to 10162
  140.0089  144.6238  150.7664 LP  0  0  0  0  0  0  0  0  0  0  0  0  # atno 17343 bound_to 10162
  156.1750  130.6462  151.0883 LP  0  0  0  0  0  0  0  0  0  0  0  0  # atno 17370 bound_to 10713
  157.6984  131.0785  150.6897 LP  0  0  0  0  0  0  0  0  0  0  0  0  # atno 17371 bound_to 10713
  140.1599  134.9172  157.2701 LP  0  0  0  0  0  0  0  0  0  0  0  0  # atno 17394 bound_to 11000
  140.2623  134.3556  155.7402 LP  0  0  0  0  0  0  0  0  0  0  0  0  # atno 17395 bound_to 11000

$$$$
