#       Name:                AV-unprocessed.smi:484
#       Creating user name   scv26
#       Creation time:       Thu Mar 26 23:11:59 2020


#       File generated by GOLD software.
#

@<TRIPOS>MOLECULE
AV-unprocessed.smi:484
    53    55     1
SMALL
NO_CHARGES


@<TRIPOS>ATOM
      1 ****        -7.2952   1.2111   1.7619 C.3            1 S1                 0.0000
      2 ****        -6.7482   0.9407   0.3560 C.3            1 S1                 0.0000
      3 ****        -5.2548   0.6748   0.3617 C.ar           1 S1                 0.0000
      4 ****        -4.3435   1.7408   0.2247 C.ar           1 S1                 0.0000
      5 ****        -2.9578   1.4914   0.2318 C.ar           1 S1                 0.0000
      6 ****        -2.4604   0.1799   0.3740 C.ar           1 S1                 0.0000
      7 ****        -1.0907   0.0275   0.3671 O.3            1 S1                 0.0000
      8 ****        -0.5563  -1.2840   0.4982 C.3            1 S1                 0.0000
      9 ****         0.9778  -1.2294   0.4201 C.3            1 S1                 0.0000
     10 ****         1.4876  -0.7476   1.6471 O.3            1 S1                 0.0000
     11 ****         1.5052  -0.4179  -0.7811 C.3            1 S1                 0.0000
     12 ****         2.9721  -0.4517  -0.8907 N.pl3          1 S1                 0.0000
     13 ****         3.7831  -1.3710  -1.4883 C.2            1 S1                 0.0000
     14 ****         3.3445  -2.6093  -2.2037 C.3            1 S1                 0.0000
     15 ****         4.4187  -3.4389  -2.5948 O.3            1 S1                 0.0000
     16 ****         5.0676  -0.9463  -1.3154 N.pl3          1 S1                 1.0000
     17 ****         5.0789   0.2511  -0.5998 C.ar           1 S1                 0.0000
     18 ****         6.1371   1.0535  -0.1841 C.ar           1 S1                 0.0000
     19 ****         5.8024   2.2201   0.5341 C.ar           1 S1                 0.0000
     20 ****         4.4604   2.5497   0.8142 C.ar           1 S1                 0.0000
     21 ****         3.3964   1.7279   0.3879 C.ar           1 S1                 0.0000
     22 ****         3.7351   0.5766  -0.3233 C.ar           1 S1                 0.0000
     23 ****        -3.3819  -0.8885   0.5136 C.ar           1 S1                 0.0000
     24 ****        -4.7682  -0.6397   0.5078 C.ar           1 S1                 0.0000
     25 ****        -8.3687   1.3977   1.7314 H              1 S1                 0.0000
     26 ****        -6.8181   2.0838   2.2088 H              1 S1                 0.0000
     27 ****        -7.1238   0.3599   2.4216 H              1 S1                 0.0000
     28 ****        -7.2634   0.0852  -0.0828 H              1 S1                 0.0000
     29 ****        -6.9597   1.7915  -0.2931 H              1 S1                 0.0000
     30 ****        -4.7041   2.7531   0.1147 H              1 S1                 0.0000
     31 ****        -2.2687   2.3163   0.1259 H              1 S1                 0.0000
     32 ****        -0.8740  -1.7465   1.4344 H              1 S1                 0.0000
     33 ****        -0.9258  -1.9028  -0.3211 H              1 S1                 0.0000
     34 ****         1.3398  -2.2539   0.3289 H              1 S1                 0.0000
     35 ****         1.1226   0.1096   1.8055 H              1 S1                 0.0000
     36 ****         1.1025  -0.8273  -1.7082 H              1 S1                 0.0000
     37 ****         1.1736   0.6197  -0.7425 H              1 S1                 0.0000
     38 ****         2.6772  -3.1803  -1.5580 H              1 S1                 0.0000
     39 ****         2.7753  -2.3262  -3.0895 H              1 S1                 0.0000
     40 ****         4.0674  -4.1957  -3.0392 H              1 S1                 0.0000
     41 ****         7.1658   0.8014  -0.3964 H              1 S1                 0.0000
     42 ****         6.5904   2.8743   0.8781 H              1 S1                 0.0000
     43 ****         4.2417   3.4509   1.3686 H              1 S1                 0.0000
     44 ****         2.3733   1.9894   0.6133 H              1 S1                 0.0000
     45 ****        -3.0513  -1.9096   0.6268 H              1 S1                 0.0000
     46 ****        -5.4581  -1.4637   0.6170 H              1 S1                 0.0000
     47 ****         5.8748  -1.4471  -1.6644 H              1 S1                 0.0000
     48 ****        -0.7287   0.5715   1.1241 LP             1 S1                 0.0000
     49 ****        -0.7562   0.3980  -0.4994 LP             1 S1                 0.0000
     50 ****         2.4845  -0.6864   1.5980 LP             1 S1                 0.0000
     51 ****         1.2278  -1.3675   2.3876 LP             1 S1                 0.0000
     52 ****         4.9314  -3.7300  -1.7870 LP             1 S1                 0.0000
     53 ****         5.0252  -2.9371  -3.2115 LP             1 S1                 0.0000
@<TRIPOS>BOND
    1    1    2 1     
    2    1   25 1     
    3    1   26 1     
    4    1   27 1     
    5    2    3 1     
    6    2   28 1     
    7    2   29 1     
    8    3   24 ar    
    9    3    4 ar    
   10    4    5 ar    
   11    4   30 1     
   12    5    6 ar    
   13    5   31 1     
   14    6    7 1     
   15    6   23 ar    
   16    7    8 1     
   17    8    9 1     
   18    8   32 1     
   19    8   33 1     
   20    9   10 1     
   21    9   11 1     
   22    9   34 1     
   23   10   35 1     
   24   11   12 1     
   25   11   36 1     
   26   11   37 1     
   27   12   22 1     
   28   12   13 1     
   29   13   14 1     
   30   13   16 2     
   31   14   15 1     
   32   14   38 1     
   33   14   39 1     
   34   15   40 1     
   35   16   17 1     
   36   16   47 1     
   37   17   22 ar    
   38   17   18 ar    
   39   18   19 ar    
   40   18   41 1     
   41   19   20 ar    
   42   19   42 1     
   43   20   21 ar    
   44   20   43 1     
   45   21   22 ar    
   46   21   44 1     
   47   23   24 ar    
   48   23   45 1     
   49   24   46 1     
   50    7   48 1     
   51    7   49 1     
   52   10   50 1     
   53   10   51 1     
   54   15   52 1     
   55   15   53 1     
@<TRIPOS>SUBSTRUCTURE
      1 S1             1
@<TRIPOS>SET
LONE_PAIRS      STATIC     ATOMS    <user>   **** ""
6 48 49 50 51 52 53
DONOR_HYDROGENS      STATIC     ATOMS    <user>   **** ""
3 35 40 47
ATOM$BLUE        STATIC     ATOMS    COLORGROUP SYSTEM
6 48 49 50 51 52 53
ATOM$RED        STATIC     ATOMS    COLORGROUP SYSTEM
3 35 40 47
