AV-unprocessed.smi:458|AV-procd|sdf|2621|dock5
  -GOLD-   2262023 23D 1   1.00000     0.00000
 Structure written by MMmdl.
 36 38  0  0  0  0  0  0  0  0  1 V2000
  152.7291  139.5524  155.6888 O   0  0  0  0  0  0  0  0  0  0  0  0
  151.9413  140.3109  156.5813 C   0  0  0  0  0  0  0  0  0  0  0  0
  150.6279  140.7221  155.9885 C   0  0  0  0  0  0  0  0  0  0  0  0
  150.2701  140.3666  154.7542 N   0  0  0  0  0  0  0  0  0  0  0  0
  149.0171  140.9335  154.6258 C   0  0  0  0  0  0  0  0  0  0  0  0
  148.1076  140.9148  153.5442 C   0  0  0  0  0  0  0  0  0  0  0  0
  146.8656  141.5754  153.6442 C   0  0  0  0  0  0  0  0  0  0  0  0
  146.5158  142.2628  154.8245 C   0  0  0  0  0  0  0  0  0  0  0  0
  147.4072  142.2934  155.9142 C   0  0  0  0  0  0  0  0  0  0  0  0
  148.6458  141.6321  155.8095 C   0  0  0  0  0  0  0  0  0  0  0  0
  149.7261  141.4709  156.6721 N   0  0  0  0  0  0  0  0  0  0  0  0
  149.8380  142.0003  158.0248 C   0  0  0  0  0  0  0  0  0  0  0  0
  150.9239  143.0868  158.1571 C   0  0  1  0  0  0  0  0  0  0  0  0
  150.3564  144.3683  157.9629 O   0  0  0  0  0  0  0  0  0  0  0  0
  151.6551  142.9695  159.4855 C   0  0  0  0  0  0  0  0  0  0  0  0
  151.5883  144.0055  160.4438 C   0  0  0  0  0  0  0  0  0  0  0  0
  152.2607  143.8776  161.6751 C   0  0  0  0  0  0  0  0  0  0  0  0
  152.9985  142.7123  161.9577 C   0  0  0  0  0  0  0  0  0  0  0  0
  153.6420  142.5887  163.1426 F   0  0  0  0  0  0  0  0  0  0  0  0
  153.0643  141.6743  161.0085 C   0  0  0  0  0  0  0  0  0  0  0  0
  152.3937  141.8023  159.7765 C   0  0  0  0  0  0  0  0  0  0  0  0
  152.9948  140.1106  154.9742 H   0  0  0  0  0  0  0  0  0  0  0  0
  151.7767  139.7387  157.4935 H   0  0  0  0  0  0  0  0  0  0  0  0
  152.5014  141.2013  156.8688 H   0  0  0  0  0  0  0  0  0  0  0  0
  148.3659  140.3906  152.6360 H   0  0  0  0  0  0  0  0  0  0  0  0
  146.1782  141.5549  152.8112 H   0  0  0  0  0  0  0  0  0  0  0  0
  145.5629  142.7669  154.8928 H   0  0  0  0  0  0  0  0  0  0  0  0
  147.1436  142.8210  156.8187 H   0  0  0  0  0  0  0  0  0  0  0  0
  148.8670  142.3981  158.3234 H   0  0  0  0  0  0  0  0  0  0  0  0
  150.0448  141.1749  158.7062 H   0  0  0  0  0  0  0  0  0  0  0  0
  151.6565  142.9571  157.3601 H   0  0  0  0  0  0  0  0  0  0  0  0
  150.1605  144.4731  157.0444 H   0  0  0  0  0  0  0  0  0  0  0  0
  151.0187  144.9006  160.2410 H   0  0  0  0  0  0  0  0  0  0  0  0
  152.2082  144.6731  162.4039 H   0  0  0  0  0  0  0  0  0  0  0  0
  153.6276  140.7787  161.2257 H   0  0  0  0  0  0  0  0  0  0  0  0
  152.4453  140.9985  159.0566 H   0  0  0  0  0  0  0  0  0  0  0  0
  1  2  1  0  0  0  0
  1 22  1  0  0  0  0
  2  3  1  0  0  0  0
  2 23  1  0  0  0  0
  2 24  1  0  0  0  0
  3 11  1  0  0  0  0
  3  4  2  0  0  0  0
  4  5  1  0  0  0  0
  5 10  2  0  0  0  0
  5  6  1  0  0  0  0
  6  7  2  0  0  0  0
  6 25  1  0  0  0  0
  7  8  1  0  0  0  0
  7 26  1  0  0  0  0
  8  9  2  0  0  0  0
  8 27  1  0  0  0  0
  9 10  1  0  0  0  0
  9 28  1  0  0  0  0
 10 11  1  0  0  0  0
 11 12  1  0  0  0  0
 12 13  1  0  0  0  0
 12 29  1  0  0  0  0
 12 30  1  0  0  0  0
 13 14  1  0  0  0  0
 13 15  1  0  0  0  0
 13 31  1  0  0  0  0
 14 32  1  0  0  0  0
 15 21  1  0  0  0  0
 15 16  2  0  0  0  0
 16 17  1  0  0  0  0
 16 33  1  0  0  0  0
 17 18  2  0  0  0  0
 17 34  1  0  0  0  0
 18 19  1  0  0  0  0
 18 20  1  0  0  0  0
 20 21  2  0  0  0  0
 20 35  1  0  0  0  0
 21 36  1  0  0  0  0
M  END
> <s_m_source_file>
AV-unprocessed.smi

> <i_m_source_file_index>
458

> <i_lp_mmshare_version>
43012

> <i_f3d_flags>
0

> <s_epik_input>
W2NIXTFbY0hdW2NIXVtjSF1jKGMxMiluKGMobjIpW0NIMl1bT0hdKVtDSDJdW0NASF0oW09IXSljM1tjSF1bY0hdYyhGKVtjSF1bY0hdMw==

> <s_epik_cmdline>
J2VwaWtfcHl0aG9uJywgJy1waCcsICc3LjAnLCAnLXRuJywgJzgnLCAnLW1hJywgJzIwMCcsICctbWV0YWxfYmluZGluZycsICctaW1hZScsICc8aW5maWxlLm1hZT4nLCAnLW9tYWUnLCAnPG91dGZpbGUubWFlPic=

> <r_epik_Ionization_Penalty>
0.0634724

> <r_epik_Ionization_Penalty_Charging>
0

> <r_epik_Ionization_Penalty_Neutral>
0.0634724

> <r_epik_State_Penalty>
0.0551572

> <r_epik_Charging_Adjusted_Penalty>
0.0551572

> <i_epik_Tot_Q>
0

> <i_epik_Tot_abs_Q>
0

> <r_epik_Metal_State_Penalty>
5.78034e-05

> <b_epik_Metal_Only>
0

> <s_lp_Force_Field>
OPLS_2005

> <r_lp_Energy>
11.6134

> <b_lp_Chiralities_Consistent>
1

> <s_lp_Variant>
AV-unprocessed.smi:458-2

> <Gold.Version>
5.8.1

> <Gold.Id.Protein>
6NUR|6NUR_protein|mol2

> <Gold.PLP.Fitness>
54.0678

> <Gold.PLP.PLP>
-49.1987

> <Gold.PLP.part.hbond>
-4.0000

> <Gold.PLP.part.metal>
0.0000

> <Gold.PLP.part.buried>
-1.3709

> <Gold.PLP.part.nonpolar>
-43.4623

> <Gold.PLP.part.repulsive>
0.0872

> <Gold.PLP.ligand.clash>
0.0000

> <Gold.PLP.ligand.torsion>
0.5809

> <Gold.PLP.Chemscore.Hbond>
2.0000

> <Gold.PLP.Chemscore.CHOScore>
0.0000

> <Gold.PLP.Chemscore.Metal>
0.0000

> <Gold.Chemscore.Hbonds>
donor molecule, donor type, donor heavy atom, donor atom, acceptor molecule, acceptor atom, score
      L1  H    14    32       P1  8028  0.99
      P1  H  7989  7998       L1     4  1.00

> <Gold.PLP.Chemscore.Internal.Correction>
0.0309

> <Gold.Rescore>
     Score         DG    S(hbond)    S(metal)    S(lipo)     H(rot)  DE(clash)    DE(int)     intcor
     16.49     -17.49       1.48        0.00     120.61       2.75       0.48       0.52       ----

> <Gold.Chemscore.Fitness>
16.4909

> <Gold.Chemscore.DG>
-17.4884

> <Gold.Chemscore.ZeroCoef>
-5.4800

> <Gold.Chemscore.Hbond>
1.4781

> <Gold.Chemscore.Metal>
0.0000

> <Gold.Chemscore.Lipo>
120.6120

> <Gold.Chemscore.Internal_Hbond>
0.0000

> <Gold.Chemscore.DEClash>
0.4751

> <Gold.Chemscore.DEInternal>
0.5224

> <Gold.Chemscore.Rot>
2.7500

> <Gold.Chemscore.Internal.Correction>
   9.000000E+99

> <Gold.Chemscore.Hbonds>
donor molecule, donor type, donor heavy atom, donor atom, acceptor molecule, acceptor atom, score
      L1  H    14    32       P1  8028  0.65
      P1  H  7989  7998       L1     4  0.68

> <Gold.Chemscore.Hbond.Weighted>
-4.9367

> <Gold.Chemscore.Metal.Weighted>
-0.0000

> <Gold.Chemscore.Lipo.Weighted>
-14.1116

> <Gold.Chemscore.Internal_Hbond.Weighted>
0.0000

> <Gold.Chemscore.DEClash.Weighted>
0.4751

> <Gold.Chemscore.DEInternal.Weighted>
0.5224

> <Gold.Chemscore.Rot.Weighted>
7.0399

> <Gold.Chemscore.Internal.Correction.Weighted>
   9.000000E+99

> <Gold.Protein.RotatedTorsions>
[ 6907 6896 6895 6894 ] final   27.47 input  -60.11 | X-H torsion
[ 7974 7965 7964 7962 ] final  171.99 input  175.53 | X-H torsion
[ 8008 7997 7996 7995 ] final   23.67 input   59.86 | X-H torsion
[ 10167 10162 10161 10158 ] final   15.46 input  -65.29 | X-H torsion
[ 10718 10713 10712 10709 ] final  -20.23 input   66.30 | X-H torsion
[ 10763 10752 10751 10750 ] final  -48.43 input  -60.55 | X-H torsion
[ 11005 11000 10999 10996 ] final  102.73 input  -57.11 | X-H torsion

> <Gold.Protein.ActiveResidues>
 VAL166  LYS551  ARG553  GLY616  TRP617  ASP618  TYR619  PRO620  LYS621  CYS622 
 ASP623  PHE694  ASN695  SER759  ASP760  ASP761  ALA762  ILE779  LEU786  VAL792 
 PHE793  MET794  SER795  GLU796  ALA797  LYS798  CYS799  TRP800  GLU811  SER814 

> <Gold.Protein.RotatedAtoms>
  152.0027  134.9919  160.0565 H   0  0  0  0  0  0  0  0  0  0  0  0  # atno 6907 bound_to 6896
  152.1504  133.4513  159.4819 H   0  0  0  0  0  0  0  0  0  0  0  0  # atno 6908 bound_to 6896
  150.6875  134.2114  159.4404 H   0  0  0  0  0  0  0  0  0  0  0  0  # atno 6909 bound_to 6896
  144.7280  139.9432  143.6429 H   0  0  0  0  0  0  0  0  0  0  0  0  # atno 7974 bound_to 7965
  154.9845  140.3106  155.4932 H   0  0  0  0  0  0  0  0  0  0  0  0  # atno 8008 bound_to 7997
  156.2948  140.2260  156.4886 H   0  0  0  0  0  0  0  0  0  0  0  0  # atno 8009 bound_to 7997
  154.7759  140.0449  157.1077 H   0  0  0  0  0  0  0  0  0  0  0  0  # atno 8010 bound_to 7997
  140.5865  143.8879  150.6835 H   0  0  0  0  0  0  0  0  0  0  0  0  # atno 10167 bound_to 10162
  156.5347  130.4663  149.6529 H   0  0  0  0  0  0  0  0  0  0  0  0  # atno 10718 bound_to 10713
  154.0776  135.6596  153.4833 H   0  0  0  0  0  0  0  0  0  0  0  0  # atno 10763 bound_to 10752
  153.0368  135.5172  154.7506 H   0  0  0  0  0  0  0  0  0  0  0  0  # atno 10764 bound_to 10752
  154.6591  135.3012  154.9858 H   0  0  0  0  0  0  0  0  0  0  0  0  # atno 10765 bound_to 10752
  139.8779  134.9235  156.5103 H   0  0  0  0  0  0  0  0  0  0  0  0  # atno 11005 bound_to 11000
  146.0768  139.3756  143.0489 LP  0  0  0  0  0  0  0  0  0  0  0  0  # atno 17320 bound_to 7965
  145.7894  140.9821  143.1057 LP  0  0  0  0  0  0  0  0  0  0  0  0  # atno 17321 bound_to 7965
  140.2391  143.3677  152.1501 LP  0  0  0  0  0  0  0  0  0  0  0  0  # atno 17342 bound_to 10162
  139.5201  144.7028  151.5443 LP  0  0  0  0  0  0  0  0  0  0  0  0  # atno 17343 bound_to 10162
  156.3027  130.7186  151.2061 LP  0  0  0  0  0  0  0  0  0  0  0  0  # atno 17370 bound_to 10713
  157.7416  131.0502  150.5087 LP  0  0  0  0  0  0  0  0  0  0  0  0  # atno 17371 bound_to 10713
  140.8525  133.8121  155.9183 LP  0  0  0  0  0  0  0  0  0  0  0  0  # atno 17394 bound_to 11000
  140.9130  134.2237  157.4974 LP  0  0  0  0  0  0  0  0  0  0  0  0  # atno 17395 bound_to 11000

$$$$
