AV-unprocessed.smi:2413|AV-procd|sdf|9535|dock6
  -GOLD-   2272013163D 1   1.00000     0.00000
 Structure written by MMmdl.
 45 46  0  0  0  0  0  0  0  0  1 V2000
  145.3080  143.2934  160.5079 C   0  0  0  0  0  0  0  0  0  0  0  0
  145.4444  142.4155  159.2685 C   0  0  0  0  0  0  0  0  0  0  0  0
  146.0434  141.3424  159.3339 O   0  0  0  0  0  0  0  0  0  0  0  0
  144.8833  142.8846  158.1442 N   0  0  0  0  0  0  0  0  0  0  0  0
  144.9110  142.2117  156.8501 C   0  0  0  0  0  0  0  0  0  0  0  0
  146.2658  142.3921  156.1443 C   0  0  1  0  0  0  0  0  0  0  0  0
  147.4158  141.7488  156.9427 C   0  0  0  0  0  0  0  0  0  0  0  0
  148.6706  141.8243  156.1985 N   0  0  0  0  0  0  0  0  0  0  0  0
  149.8790  141.5590  156.8828 C   0  0  0  0  0  0  0  0  0  0  0  0
  150.4866  140.2789  156.9014 C   0  0  0  0  0  0  0  0  0  0  0  0
  151.6768  140.1499  157.6425 C   0  0  0  0  0  0  0  0  0  0  0  0
  152.2226  141.1916  158.3018 N   0  0  0  0  0  0  0  0  0  0  0  0
  151.6061  142.3750  158.1998 C   0  0  0  0  0  0  0  0  0  0  0  0
  152.1404  143.5264  159.0689 C   0  0  0  0  0  0  0  0  0  0  0  0
  151.0391  144.0697  160.0100 C   0  0  0  0  0  0  0  0  0  0  0  0
  152.5862  144.7230  158.1960 C   0  0  0  0  0  0  0  0  0  0  0  0
  153.3324  143.0261  159.9050 C   0  0  0  0  0  0  0  0  0  0  0  0
  150.4519  142.5861  157.5551 N   0  0  0  0  0  0  0  0  0  0  0  0
  148.5772  141.3510  154.8172 C   0  0  0  0  0  0  0  0  0  0  0  0
  147.3777  141.9942  154.1028 C   0  0  0  0  0  0  0  0  0  0  0  0
  146.1940  141.7764  154.8612 O   0  0  0  0  0  0  0  0  0  0  0  0
  145.6244  144.3144  160.2919 H   0  0  0  0  0  0  0  0  0  0  0  0
  145.9228  142.9114  161.3235 H   0  0  0  0  0  0  0  0  0  0  0  0
  144.2708  143.3162  160.8430 H   0  0  0  0  0  0  0  0  0  0  0  0
  144.4176  143.7795  158.1825 H   0  0  0  0  0  0  0  0  0  0  0  0
  144.6900  141.1512  156.9822 H   0  0  0  0  0  0  0  0  0  0  0  0
  144.1097  142.6189  156.2326 H   0  0  0  0  0  0  0  0  0  0  0  0
  146.4677  143.4584  156.0240 H   0  0  0  0  0  0  0  0  0  0  0  0
  147.5083  142.2749  157.8930 H   0  0  0  0  0  0  0  0  0  0  0  0
  147.1912  140.7040  157.1619 H   0  0  0  0  0  0  0  0  0  0  0  0
  150.0833  139.4226  156.3835 H   0  0  0  0  0  0  0  0  0  0  0  0
  152.1904  139.2024  157.7114 H   0  0  0  0  0  0  0  0  0  0  0  0
  151.3989  144.9165  160.5957 H   0  0  0  0  0  0  0  0  0  0  0  0
  150.7023  143.3159  160.7227 H   0  0  0  0  0  0  0  0  0  0  0  0
  150.1668  144.4066  159.4485 H   0  0  0  0  0  0  0  0  0  0  0  0
  151.7690  145.0848  157.5707 H   0  0  0  0  0  0  0  0  0  0  0  0
  153.4160  144.4623  157.5382 H   0  0  0  0  0  0  0  0  0  0  0  0
  152.9233  145.5589  158.8101 H   0  0  0  0  0  0  0  0  0  0  0  0
  153.7377  143.8180  160.5357 H   0  0  0  0  0  0  0  0  0  0  0  0
  154.1406  142.6677  159.2668 H   0  0  0  0  0  0  0  0  0  0  0  0
  153.0402  142.2028  160.5578 H   0  0  0  0  0  0  0  0  0  0  0  0
  149.4792  141.5797  154.2497 H   0  0  0  0  0  0  0  0  0  0  0  0
  148.4704  140.2656  154.8245 H   0  0  0  0  0  0  0  0  0  0  0  0
  147.5391  143.0634  153.9558 H   0  0  0  0  0  0  0  0  0  0  0  0
  147.2511  141.5537  153.1137 H   0  0  0  0  0  0  0  0  0  0  0  0
  1  2  1  0  0  0  0
  1 22  1  0  0  0  0
  1 23  1  0  0  0  0
  1 24  1  0  0  0  0
  2  3  2  0  0  0  0
  2  4  1  0  0  0  0
  4  5  1  0  0  0  0
  4 25  1  0  0  0  0
  5  6  1  0  0  0  0
  5 26  1  0  0  0  0
  5 27  1  0  0  0  0
  6 21  1  0  0  0  0
  6  7  1  0  0  0  0
  6 28  1  0  0  0  0
  7  8  1  0  0  0  0
  7 29  1  0  0  0  0
  7 30  1  0  0  0  0
  8  9  1  0  0  0  0
  8 19  1  0  0  0  0
  9 18  1  0  0  0  0
  9 10  2  0  0  0  0
 10 11  1  0  0  0  0
 10 31  1  0  0  0  0
 11 12  2  0  0  0  0
 11 32  1  0  0  0  0
 12 13  1  0  0  0  0
 13 14  1  0  0  0  0
 13 18  2  0  0  0  0
 14 15  1  0  0  0  0
 14 16  1  0  0  0  0
 14 17  1  0  0  0  0
 15 33  1  0  0  0  0
 15 34  1  0  0  0  0
 15 35  1  0  0  0  0
 16 36  1  0  0  0  0
 16 37  1  0  0  0  0
 16 38  1  0  0  0  0
 17 39  1  0  0  0  0
 17 40  1  0  0  0  0
 17 41  1  0  0  0  0
 19 20  1  0  0  0  0
 19 42  1  0  0  0  0
 19 43  1  0  0  0  0
 20 21  1  0  0  0  0
 20 44  1  0  0  0  0
 20 45  1  0  0  0  0
M  END
> <s_m_source_file>
AV-unprocessed.smi

> <i_m_source_file_index>
2413

> <i_lp_mmshare_version>
43012

> <i_f3d_flags>
0

> <s_epik_input>
W0NIM11DKD1PKVtOSF1bQ0gyXVtDQEBIXTFbQ0gyXU4oW0NIMl1bQ0gyXU8xKWMyW2NIXVtjSF1uYyhuMilDKFtDSDNdKShbQ0gzXSlbQ0gzXQ==

> <s_epik_cmdline>
J2VwaWtfcHl0aG9uJywgJy1waCcsICc3LjAnLCAnLXRuJywgJzgnLCAnLW1hJywgJzIwMCcsICctbWV0YWxfYmluZGluZycsICctaW1hZScsICc8aW5maWxlLm1hZT4nLCAnLW9tYWUnLCAnPG91dGZpbGUubWFlPic=

> <r_lp_tautomer_probability>
1

> <r_epik_Ionization_Penalty>
0.0132021

> <r_epik_Ionization_Penalty_Charging>
0

> <r_epik_Ionization_Penalty_Neutral>
0.0132021

> <r_epik_State_Penalty>
0.0102452

> <r_epik_Charging_Adjusted_Penalty>
0.0102452

> <i_epik_Tot_Q>
0

> <i_epik_Tot_abs_Q>
0

> <r_epik_Metal_State_Penalty>
0.0100219

> <b_epik_Metal_Only>
0

> <s_lp_Force_Field>
OPLS_2005

> <r_lp_Energy>
8.35197

> <b_lp_Chiralities_Consistent>
1

> <s_lp_Variant>
AV-unprocessed.smi:2413-2

> <Gold.Version>
5.8.1

> <Gold.Id.Protein>
6NUR|6NUR_protein|mol2

> <Gold.PLP.Fitness>
36.8706

> <Gold.PLP.PLP>
-34.7386

> <Gold.PLP.part.hbond>
-1.0000

> <Gold.PLP.part.metal>
0.0000

> <Gold.PLP.part.buried>
-7.2526

> <Gold.PLP.part.nonpolar>
-28.4665

> <Gold.PLP.part.repulsive>
1.9269

> <Gold.PLP.ligand.clash>
0.0000

> <Gold.PLP.ligand.torsion>
0.7363

> <Gold.PLP.Chemscore.Hbond>
0.9920

> <Gold.PLP.Chemscore.CHOScore>
0.0000

> <Gold.PLP.Chemscore.Metal>
0.0000

> <Gold.Chemscore.Hbonds>
donor molecule, donor type, donor heavy atom, donor atom, acceptor molecule, acceptor atom, score
      P1  H  6934  6946       L1     3  0.83

> <Gold.PLP.Chemscore.Internal.Correction>
0.6285

> <Gold.Rescore>
     Score         DG    S(hbond)    S(metal)    S(lipo)     H(rot)  DE(clash)    DE(int)     intcor
     12.34     -14.36       0.99        0.00      85.57       1.73       0.04       1.99       ----

> <Gold.Chemscore.Fitness>
12.3354

> <Gold.Chemscore.DG>
-14.3649

> <Gold.Chemscore.ZeroCoef>
-5.4800

> <Gold.Chemscore.Hbond>
0.9912

> <Gold.Chemscore.Metal>
0.0000

> <Gold.Chemscore.Lipo>
85.5670

> <Gold.Chemscore.Internal_Hbond>
0.0000

> <Gold.Chemscore.DEClash>
0.0357

> <Gold.Chemscore.DEInternal>
1.9937

> <Gold.Chemscore.Rot>
1.7332

> <Gold.Chemscore.Internal.Correction>
   9.000000E+99

> <Gold.Chemscore.Hbonds>
donor molecule, donor type, donor heavy atom, donor atom, acceptor molecule, acceptor atom, score
      P1  H  6934  6946       L1     3  0.81

> <Gold.Chemscore.Hbond.Weighted>
-3.3106

> <Gold.Chemscore.Metal.Weighted>
-0.0000

> <Gold.Chemscore.Lipo.Weighted>
-10.0113

> <Gold.Chemscore.Internal_Hbond.Weighted>
0.0000

> <Gold.Chemscore.DEClash.Weighted>
0.0357

> <Gold.Chemscore.DEInternal.Weighted>
1.9937

> <Gold.Chemscore.Rot.Weighted>
4.4370

> <Gold.Chemscore.Internal.Correction.Weighted>
   9.000000E+99

> <Gold.Protein.RotatedTorsions>
[ 6907 6896 6895 6894 ] final   64.79 input  -60.11 | X-H torsion
[ 7974 7965 7964 7962 ] final    4.56 input  175.53 | X-H torsion
[ 8008 7997 7996 7995 ] final   24.56 input   59.86 | X-H torsion
[ 10167 10162 10161 10158 ] final  -17.82 input  -65.29 | X-H torsion
[ 10718 10713 10712 10709 ] final  136.98 input   66.30 | X-H torsion
[ 10763 10752 10751 10750 ] final   23.10 input  -60.55 | X-H torsion
[ 11005 11000 10999 10996 ] final  179.05 input  -57.11 | X-H torsion

> <Gold.Protein.ActiveResidues>
 VAL166  LYS551  ARG553  GLY616  TRP617  ASP618  TYR619  PRO620  LYS621  CYS622 
 ASP623  PHE694  ASN695  SER759  ASP760  ASP761  ALA762  ILE779  LEU786  VAL792 
 PHE793  MET794  SER795  GLU796  ALA797  LYS798  CYS799  TRP800  GLU811  SER814 

> <Gold.Protein.RotatedAtoms>
  152.4358  134.5689  159.9915 H   0  0  0  0  0  0  0  0  0  0  0  0  # atno 6907 bound_to 6896
  151.5799  133.3373  159.3014 H   0  0  0  0  0  0  0  0  0  0  0  0  # atno 6908 bound_to 6896
  150.8256  134.7521  159.6874 H   0  0  0  0  0  0  0  0  0  0  0  0  # atno 6909 bound_to 6896
  146.2443  140.0516  142.8374 H   0  0  0  0  0  0  0  0  0  0  0  0  # atno 7974 bound_to 7965
  154.9982  140.3122  155.4878 H   0  0  0  0  0  0  0  0  0  0  0  0  # atno 8008 bound_to 7997
  156.2929  140.2237  156.5031 H   0  0  0  0  0  0  0  0  0  0  0  0  # atno 8009 bound_to 7997
  154.7642  140.0457  157.0987 H   0  0  0  0  0  0  0  0  0  0  0  0  # atno 8010 bound_to 7997
  140.7252  143.4977  150.9909 H   0  0  0  0  0  0  0  0  0  0  0  0  # atno 10167 bound_to 10162
  157.4410  131.1057  151.0143 H   0  0  0  0  0  0  0  0  0  0  0  0  # atno 10718 bound_to 10713
  153.0864  135.6634  153.9941 H   0  0  0  0  0  0  0  0  0  0  0  0  # atno 10763 bound_to 10752
  153.9550  135.2980  155.3438 H   0  0  0  0  0  0  0  0  0  0  0  0  # atno 10764 bound_to 10752
  154.7272  135.5139  153.8978 H   0  0  0  0  0  0  0  0  0  0  0  0  # atno 10765 bound_to 10752
  140.4019  134.6770  157.4566 H   0  0  0  0  0  0  0  0  0  0  0  0  # atno 11005 bound_to 11000
  145.0979  140.9327  143.4730 LP  0  0  0  0  0  0  0  0  0  0  0  0  # atno 17320 bound_to 7965
  145.0702  139.3037  143.5836 LP  0  0  0  0  0  0  0  0  0  0  0  0  # atno 17321 bound_to 7965
  139.8685  143.7223  152.3168 LP  0  0  0  0  0  0  0  0  0  0  0  0  # atno 17342 bound_to 10162
  139.7463  144.7546  151.0574 LP  0  0  0  0  0  0  0  0  0  0  0  0  # atno 17343 bound_to 10162
  157.1007  130.5980  149.5459 LP  0  0  0  0  0  0  0  0  0  0  0  0  # atno 17370 bound_to 10713
  155.9948  130.5014  150.7436 LP  0  0  0  0  0  0  0  0  0  0  0  0  # atno 17371 bound_to 10713
  140.0330  134.6378  155.9080 LP  0  0  0  0  0  0  0  0  0  0  0  0  # atno 17394 bound_to 11000
  141.1854  133.6555  156.5195 LP  0  0  0  0  0  0  0  0  0  0  0  0  # atno 17395 bound_to 11000

$$$$
