AV-unprocessed.smi:2691|AV-procd|sdf|10391|dock7
  -GOLD-   2272014423D 1   1.00000     0.00000
 Structure written by MMmdl.
 49 51  0  0  0  0  0  0  0  0  1 V2000
  144.5399  134.0087  151.2916 C   0  0  0  0  0  0  0  0  0  0  0  0
  145.1155  135.3178  151.8023 C   0  0  0  0  0  0  0  0  0  0  0  0
  145.5978  136.2658  150.8718 C   0  0  0  0  0  0  0  0  0  0  0  0
  146.1393  137.4957  151.3055 C   0  0  0  0  0  0  0  0  0  0  0  0
  146.6616  138.5539  150.5811 N   0  0  0  0  0  0  0  0  0  0  0  0
  146.9989  139.4006  151.5497 C   0  0  0  0  0  0  0  0  0  0  0  0
  146.7561  139.0156  152.8173 N   0  0  0  0  0  0  0  0  0  0  0  0
  147.0271  139.7632  154.0316 C   0  0  0  0  0  0  0  0  0  0  0  0
  148.5065  139.6828  154.4553 C   0  0  1  0  0  0  0  0  0  0  0  0
  149.1942  138.8690  153.5243 O   0  0  0  0  0  0  0  0  0  0  0  0
  149.1699  141.0768  154.4806 C   0  0  0  0  0  0  0  0  0  0  0  0
  149.9539  141.2942  155.7068 N   0  0  0  0  0  0  0  0  0  0  0  0
  149.3765  142.1311  156.6802 C   0  0  0  0  0  0  0  0  0  0  0  0
  149.9711  142.3818  157.8028 N   0  0  0  0  0  0  0  0  0  0  0  0
  151.2250  141.8170  158.0682 C   0  0  0  0  0  0  0  0  0  0  0  0
  151.8843  142.1474  159.4013 C   0  0  0  0  0  0  0  0  0  0  0  0
  151.9859  143.6662  159.6078 C   0  0  0  0  0  0  0  0  0  0  0  0
  153.2540  141.4648  159.5497 C   0  0  0  0  0  0  0  0  0  0  0  0
  151.8292  141.0215  157.1535 C   0  0  0  0  0  0  0  0  0  0  0  0
  151.1816  140.7220  155.8763 C   0  0  0  0  0  0  0  0  0  0  0  0
  151.7035  140.0090  155.0185 O   0  0  0  0  0  0  0  0  0  0  0  0
  146.1836  137.7536  152.7066 C   0  0  0  0  0  0  0  0  0  0  0  0
  145.7070  136.8188  153.6426 C   0  0  0  0  0  0  0  0  0  0  0  0
  145.1722  135.5937  153.1923 C   0  0  0  0  0  0  0  0  0  0  0  0
  144.6636  134.5891  154.2110 C   0  0  0  0  0  0  0  0  0  0  0  0
  144.5204  133.9810  150.2017 H   0  0  0  0  0  0  0  0  0  0  0  0
  143.5179  133.8749  151.6467 H   0  0  0  0  0  0  0  0  0  0  0  0
  145.1408  133.1674  151.6373 H   0  0  0  0  0  0  0  0  0  0  0  0
  145.5557  136.0559  149.8133 H   0  0  0  0  0  0  0  0  0  0  0  0
  147.4496  140.3563  151.3251 H   0  0  0  0  0  0  0  0  0  0  0  0
  146.7245  140.8011  153.8836 H   0  0  0  0  0  0  0  0  0  0  0  0
  146.3885  139.3610  154.8191 H   0  0  0  0  0  0  0  0  0  0  0  0
  148.5666  139.2138  155.4384 H   0  0  0  0  0  0  0  0  0  0  0  0
  149.2205  139.3179  152.6933 H   0  0  0  0  0  0  0  0  0  0  0  0
  149.7612  141.2400  153.5771 H   0  0  0  0  0  0  0  0  0  0  0  0
  148.3977  141.8470  154.4341 H   0  0  0  0  0  0  0  0  0  0  0  0
  148.4028  142.5502  156.4205 H   0  0  0  0  0  0  0  0  0  0  0  0
  151.2440  141.7547  160.1926 H   0  0  0  0  0  0  0  0  0  0  0  0
  151.0069  144.1395  159.5277 H   0  0  0  0  0  0  0  0  0  0  0  0
  152.6399  144.1270  158.8667 H   0  0  0  0  0  0  0  0  0  0  0  0
  152.3855  143.9013  160.5945 H   0  0  0  0  0  0  0  0  0  0  0  0
  153.1710  140.3861  159.4133 H   0  0  0  0  0  0  0  0  0  0  0  0
  153.6718  141.6396  160.5416 H   0  0  0  0  0  0  0  0  0  0  0  0
  153.9727  141.8394  158.8199 H   0  0  0  0  0  0  0  0  0  0  0  0
  152.7998  140.5952  157.3616 H   0  0  0  0  0  0  0  0  0  0  0  0
  145.7557  137.0431  154.6983 H   0  0  0  0  0  0  0  0  0  0  0  0
  144.8495  134.9278  155.2306 H   0  0  0  0  0  0  0  0  0  0  0  0
  145.1615  133.6275  154.0838 H   0  0  0  0  0  0  0  0  0  0  0  0
  143.5895  134.4416  154.0963 H   0  0  0  0  0  0  0  0  0  0  0  0
  1  2  1  0  0  0  0
  1 26  1  0  0  0  0
  1 27  1  0  0  0  0
  1 28  1  0  0  0  0
  2 24  1  0  0  0  0
  2  3  2  0  0  0  0
  3  4  1  0  0  0  0
  3 29  1  0  0  0  0
  4 22  2  0  0  0  0
  4  5  1  0  0  0  0
  5  6  2  0  0  0  0
  6  7  1  0  0  0  0
  6 30  1  0  0  0  0
  7  8  1  0  0  0  0
  7 22  1  0  0  0  0
  8  9  1  0  0  0  0
  8 31  1  0  0  0  0
  8 32  1  0  0  0  0
  9 10  1  0  0  0  0
  9 11  1  0  0  0  0
  9 33  1  0  0  0  0
 10 34  1  0  0  0  0
 11 12  1  0  0  0  0
 11 35  1  0  0  0  0
 11 36  1  0  0  0  0
 12 20  1  0  0  0  0
 12 13  1  0  0  0  0
 13 14  2  0  0  0  0
 13 37  1  0  0  0  0
 14 15  1  0  0  0  0
 15 16  1  0  0  0  0
 15 19  2  0  0  0  0
 16 17  1  0  0  0  0
 16 18  1  0  0  0  0
 16 38  1  0  0  0  0
 17 39  1  0  0  0  0
 17 40  1  0  0  0  0
 17 41  1  0  0  0  0
 18 42  1  0  0  0  0
 18 43  1  0  0  0  0
 18 44  1  0  0  0  0
 19 20  1  0  0  0  0
 19 45  1  0  0  0  0
 20 21  2  0  0  0  0
 22 23  1  0  0  0  0
 23 24  2  0  0  0  0
 23 46  1  0  0  0  0
 24 25  1  0  0  0  0
 25 47  1  0  0  0  0
 25 48  1  0  0  0  0
 25 49  1  0  0  0  0
M  END
> <s_m_source_file>
AV-unprocessed.smi

> <i_m_source_file_index>
2691

> <i_lp_mmshare_version>
43012

> <i_f3d_flags>
0

> <s_epik_input>
W0NIM11jKFtjSF0xKWMoW0NIM10pW2NIXWMoYzEyKW4oW2NIXW4yKVtDSDJdW0NASF0oW09IXSlbQ0gyXW4zW2NIXW5jKFtDSF0oW0NIM10pW0NIM10pW2NIXWMzPU8=

> <s_epik_cmdline>
J2VwaWtfcHl0aG9uJywgJy1waCcsICc3LjAnLCAnLXRuJywgJzgnLCAnLW1hJywgJzIwMCcsICctbWV0YWxfYmluZGluZycsICctaW1hZScsICc8aW5maWxlLm1hZT4nLCAnLW9tYWUnLCAnPG91dGZpbGUubWFlPic=

> <r_lp_tautomer_probability>
1

> <r_epik_Ionization_Penalty>
0.113357

> <r_epik_Ionization_Penalty_Charging>
3.84185e-08

> <r_epik_Ionization_Penalty_Neutral>
0.113357

> <r_epik_State_Penalty>
0.103025

> <r_epik_Charging_Adjusted_Penalty>
0.103025

> <i_epik_Tot_Q>
0

> <i_epik_Tot_abs_Q>
0

> <r_epik_Metal_State_Penalty>
0.0863451

> <b_epik_Metal_Only>
0

> <s_lp_Force_Field>
OPLS_2005

> <r_lp_Energy>
17.2292

> <b_lp_Chiralities_Consistent>
1

> <s_lp_Variant>
AV-unprocessed.smi:2691-2

> <Gold.Version>
5.8.1

> <Gold.Id.Protein>
6NUR|6NUR_protein|mol2

> <Gold.PLP.Fitness>
50.6264

> <Gold.PLP.PLP>
-41.4776

> <Gold.PLP.part.hbond>
-4.0000

> <Gold.PLP.part.metal>
0.0000

> <Gold.PLP.part.buried>
0.6082

> <Gold.PLP.part.nonpolar>
-41.2131

> <Gold.PLP.part.repulsive>
1.8784

> <Gold.PLP.ligand.clash>
0.0000

> <Gold.PLP.ligand.torsion>
1.9188

> <Gold.PLP.Chemscore.Hbond>
2.8760

> <Gold.PLP.Chemscore.CHOScore>
1.4278

> <Gold.PLP.Chemscore.Metal>
0.0000

> <Gold.Chemscore.Hbonds>
donor molecule, donor type, donor heavy atom, donor atom, acceptor molecule, acceptor atom, score
      L1  H    10    34       P1  7957  1.00
      P1  H  7954  7966       L1     5  0.83
      P1  H  7989  7998       L1    21  1.00
      L1  C     6    30       P1  7957  0.56
      L1  C    13    37       P1  8028  0.50

> <Gold.PLP.Chemscore.Internal.Correction>
0.0752

> <Gold.Rescore>
     Score         DG    S(hbond)    S(metal)    S(lipo)     H(rot)  DE(clash)    DE(int)     intcor
     11.45     -16.85       1.97        0.00      94.50       2.45       3.25       2.15       ----

> <Gold.Chemscore.Fitness>
11.4502

> <Gold.Chemscore.DG>
-16.8483

> <Gold.Chemscore.ZeroCoef>
-5.4800

> <Gold.Chemscore.Hbond>
1.9738

> <Gold.Chemscore.Metal>
0.0000

> <Gold.Chemscore.Lipo>
94.5039

> <Gold.Chemscore.Internal_Hbond>
0.0000

> <Gold.Chemscore.DEClash>
3.2460

> <Gold.Chemscore.DEInternal>
2.1521

> <Gold.Chemscore.Rot>
2.4536

> <Gold.Chemscore.Internal.Correction>
   9.000000E+99

> <Gold.Chemscore.Hbonds>
donor molecule, donor type, donor heavy atom, donor atom, acceptor molecule, acceptor atom, score
      L1  H    10    34       P1  7957  1.00
      P1  H  7954  7966       L1     5  0.24
      P1  H  7989  7998       L1    21  0.62

> <Gold.Chemscore.Hbond.Weighted>
-6.5926

> <Gold.Chemscore.Metal.Weighted>
-0.0000

> <Gold.Chemscore.Lipo.Weighted>
-11.0570

> <Gold.Chemscore.Internal_Hbond.Weighted>
0.0000

> <Gold.Chemscore.DEClash.Weighted>
3.2460

> <Gold.Chemscore.DEInternal.Weighted>
2.1521

> <Gold.Chemscore.Rot.Weighted>
6.2812

> <Gold.Chemscore.Internal.Correction.Weighted>
   9.000000E+99

> <Gold.Protein.RotatedTorsions>
[ 6907 6896 6895 6894 ] final  -33.97 input  -60.11 | X-H torsion
[ 7974 7965 7964 7962 ] final   17.64 input  175.53 | X-H torsion
[ 8008 7997 7996 7995 ] final    7.13 input   59.86 | X-H torsion
[ 10167 10162 10161 10158 ] final   59.35 input  -65.29 | X-H torsion
[ 10718 10713 10712 10709 ] final  -82.07 input   66.30 | X-H torsion
[ 10763 10752 10751 10750 ] final  152.72 input  -60.55 | X-H torsion
[ 11005 11000 10999 10996 ] final  113.90 input  -57.11 | X-H torsion

> <Gold.Protein.ActiveResidues>
 VAL166  LYS551  ARG553  GLY616  TRP617  ASP618  TYR619  PRO620  LYS621  CYS622 
 ASP623  PHE694  ASN695  SER759  ASP760  ASP761  ALA762  ILE779  LEU786  VAL792 
 PHE793  MET794  SER795  GLU796  ALA797  LYS798  CYS799  TRP800  GLU811  SER814 

> <Gold.Protein.RotatedAtoms>
  151.0587  134.9722  159.8249 H   0  0  0  0  0  0  0  0  0  0  0  0  # atno 6907 bound_to 6896
  152.5392  134.2445  159.8885 H   0  0  0  0  0  0  0  0  0  0  0  0  # atno 6908 bound_to 6896
  151.2463  133.4330  159.2643 H   0  0  0  0  0  0  0  0  0  0  0  0  # atno 6909 bound_to 6896
  146.2212  139.8573  142.8611 H   0  0  0  0  0  0  0  0  0  0  0  0  # atno 7974 bound_to 7965
  154.7499  140.2765  155.6301 H   0  0  0  0  0  0  0  0  0  0  0  0  # atno 8008 bound_to 7997
  156.2893  140.2680  156.2176 H   0  0  0  0  0  0  0  0  0  0  0  0  # atno 8009 bound_to 7997
  155.0150  140.0372  157.2404 H   0  0  0  0  0  0  0  0  0  0  0  0  # atno 8010 bound_to 7997
  140.1773  144.4217  150.6632 H   0  0  0  0  0  0  0  0  0  0  0  0  # atno 10167 bound_to 10162
  156.0039  130.4623  150.4049 H   0  0  0  0  0  0  0  0  0  0  0  0  # atno 10718 bound_to 10713
  154.1246  135.2830  155.3200 H   0  0  0  0  0  0  0  0  0  0  0  0  # atno 10763 bound_to 10752
  154.6399  135.5406  153.7780 H   0  0  0  0  0  0  0  0  0  0  0  0  # atno 10764 bound_to 10752
  153.0301  135.6483  154.1399 H   0  0  0  0  0  0  0  0  0  0  0  0  # atno 10765 bound_to 10752
  139.8965  134.9558  156.6810 H   0  0  0  0  0  0  0  0  0  0  0  0  # atno 11005 bound_to 11000
  145.2740  141.0118  143.3755 LP  0  0  0  0  0  0  0  0  0  0  0  0  # atno 17320 bound_to 7965
  144.9201  139.4422  143.6545 LP  0  0  0  0  0  0  0  0  0  0  0  0  # atno 17321 bound_to 7965
  140.6543  143.2233  151.6006 LP  0  0  0  0  0  0  0  0  0  0  0  0  # atno 17342 bound_to 10162
  139.5311  144.2913  152.1150 LP  0  0  0  0  0  0  0  0  0  0  0  0  # atno 17343 bound_to 10162
  157.2115  131.0461  151.2596 LP  0  0  0  0  0  0  0  0  0  0  0  0  # atno 17370 bound_to 10713
  157.3884  130.7269  149.6680 LP  0  0  0  0  0  0  0  0  0  0  0  0  # atno 17371 bound_to 10713
  140.7299  133.9068  155.8204 LP  0  0  0  0  0  0  0  0  0  0  0  0  # atno 17394 bound_to 11000
  141.0161  134.0953  157.4170 LP  0  0  0  0  0  0  0  0  0  0  0  0  # atno 17395 bound_to 11000

$$$$
