AV-unprocessed.smi:287|AV-procd|sdf|2201|dock9
  -GOLD-   2262022 23D 1   1.00000     0.00000
 Structure written by MMmdl.
 55 58  0  0  0  0  0  0  0  0  1 V2000
  141.7064  135.0544  162.3278 C   0  0  0  0  0  0  0  0  0  0  0  0
  143.1711  134.7878  162.2633 C   0  0  0  0  0  0  0  0  0  0  0  0
  144.2800  135.5739  162.3797 C   0  0  0  0  0  0  0  0  0  0  0  0
  145.4196  134.7305  162.2188 C   0  0  0  0  0  0  0  0  0  0  0  0
  146.8745  135.1769  162.2732 C   0  0  1  0  0  0  0  0  0  0  0  0
  146.9454  136.6963  162.4998 C   0  0  0  0  0  0  0  0  0  0  0  0
  147.5865  134.6045  163.3535 O   0  0  0  0  0  0  0  0  0  0  0  0
  147.6546  134.7945  160.9948 C   0  0  0  0  0  0  0  0  0  0  0  0
  146.8926  135.0269  159.7744 N   0  0  0  0  0  0  0  0  0  0  0  0
  147.3363  135.8792  158.8270 C   0  0  0  0  0  0  0  0  0  0  0  0
  146.4473  136.1730  157.8486 N   0  0  0  0  0  0  0  0  0  0  0  0
  146.7842  137.0101  156.8643 C   0  0  0  0  0  0  0  0  0  0  0  0
  147.9381  137.6509  156.6744 N   0  0  0  0  0  0  0  0  0  0  0  0
  148.8431  137.3595  157.6530 C   0  0  0  0  0  0  0  0  0  0  0  0
  148.6252  136.4884  158.7598 C   0  0  0  0  0  0  0  0  0  0  0  0
  149.7766  136.4439  159.5395 N   0  0  0  0  0  0  0  0  0  0  0  0
  150.6133  137.2389  158.9307 C   0  0  0  0  0  0  0  0  0  0  0  0
  150.1352  137.8287  157.7834 N   0  0  0  0  0  0  0  0  0  0  0  0
  150.8576  138.7762  156.8760 C   0  0  2  0  0  0  0  0  0  0  0  0
  149.9491  139.7296  156.4232 O   0  0  0  0  0  0  0  0  0  0  0  0
  150.2795  140.0882  155.0872 C   0  0  2  0  0  0  0  0  0  0  0  0
  149.0925  140.7728  154.3863 C   0  0  0  0  0  0  0  0  0  0  0  0
  149.4043  141.0151  153.0309 O   0  0  0  0  0  0  0  0  0  0  0  0
  150.7369  138.7571  154.4727 C   0  0  2  0  0  0  0  0  0  0  0  0
  149.6305  138.0009  154.0104 O   0  0  0  0  0  0  0  0  0  0  0  0
  151.4681  138.0875  155.6362 C   0  0  2  0  0  0  0  0  0  0  0  0
  151.3970  136.6707  155.6188 O   0  0  0  0  0  0  0  0  0  0  0  0
  144.9000  133.4730  162.0235 C   0  0  0  0  0  0  0  0  0  0  0  0
  145.5008  132.1240  161.8005 C   0  0  0  0  0  0  0  0  0  0  0  0
  143.5381  133.5000  162.0463 O   0  0  0  0  0  0  0  0  0  0  0  0
  151.6116  139.2457  157.5093 H   0  0  0  0  0  0  0  0  0  0  0  0
  151.1387  140.7617  155.1137 H   0  0  0  0  0  0  0  0  0  0  0  0
  151.4021  138.9206  153.6244 H   0  0  0  0  0  0  0  0  0  0  0  0
  152.5204  138.3725  155.6039 H   0  0  0  0  0  0  0  0  0  0  0  0
  141.5051  136.1257  162.3168 H   0  0  0  0  0  0  0  0  0  0  0  0
  141.2785  134.6389  163.2404 H   0  0  0  0  0  0  0  0  0  0  0  0
  141.1926  134.6061  161.4772 H   0  0  0  0  0  0  0  0  0  0  0  0
  144.2761  136.6394  162.5567 H   0  0  0  0  0  0  0  0  0  0  0  0
  146.4541  137.2403  161.6924 H   0  0  0  0  0  0  0  0  0  0  0  0
  147.9775  137.0460  162.5474 H   0  0  0  0  0  0  0  0  0  0  0  0
  146.4563  136.9819  163.4320 H   0  0  0  0  0  0  0  0  0  0  0  0
  147.1851  134.8874  164.1606 H   0  0  0  0  0  0  0  0  0  0  0  0
  148.5483  135.4173  160.9383 H   0  0  0  0  0  0  0  0  0  0  0  0
  147.9914  133.7579  161.0417 H   0  0  0  0  0  0  0  0  0  0  0  0
  146.0082  134.5429  159.7138 H   0  0  0  0  0  0  0  0  0  0  0  0
  146.0206  137.1923  156.1226 H   0  0  0  0  0  0  0  0  0  0  0  0
  151.6119  137.4145  159.3035 H   0  0  0  0  0  0  0  0  0  0  0  0
  148.2178  140.1223  154.4072 H   0  0  0  0  0  0  0  0  0  0  0  0
  148.8192  141.7039  154.8841 H   0  0  0  0  0  0  0  0  0  0  0  0
  149.1444  140.2610  152.5240 H   0  0  0  0  0  0  0  0  0  0  0  0
  149.8203  137.7026  153.1328 H   0  0  0  0  0  0  0  0  0  0  0  0
  150.4886  136.4147  155.6669 H   0  0  0  0  0  0  0  0  0  0  0  0
  146.1962  131.8736  162.6018 H   0  0  0  0  0  0  0  0  0  0  0  0
  146.0452  132.0951  160.8566 H   0  0  0  0  0  0  0  0  0  0  0  0
  144.7339  131.3495  161.7699 H   0  0  0  0  0  0  0  0  0  0  0  0
  1  2  1  0  0  0  0
  1 35  1  0  0  0  0
  1 36  1  0  0  0  0
  1 37  1  0  0  0  0
  2 30  1  0  0  0  0
  2  3  2  0  0  0  0
  3  4  1  0  0  0  0
  3 38  1  0  0  0  0
  4  5  1  0  0  0  0
  4 28  2  0  0  0  0
  5  6  1  0  0  0  0
  5  7  1  0  0  0  0
  5  8  1  0  0  0  0
  6 39  1  0  0  0  0
  6 40  1  0  0  0  0
  6 41  1  0  0  0  0
  7 42  1  0  0  0  0
  8  9  1  0  0  0  0
  8 43  1  0  0  0  0
  8 44  1  0  0  0  0
  9 10  1  0  0  0  0
  9 45  1  0  0  0  0
 10 15  1  0  0  0  0
 10 11  2  0  0  0  0
 11 12  1  0  0  0  0
 12 13  2  0  0  0  0
 12 46  1  0  0  0  0
 13 14  1  0  0  0  0
 14 18  1  0  0  0  0
 14 15  2  0  0  0  0
 15 16  1  0  0  0  0
 16 17  2  0  0  0  0
 17 18  1  0  0  0  0
 17 47  1  0  0  0  0
 18 19  1  0  0  0  0
 19 31  1  0  0  0  0
 19 26  1  0  0  0  0
 19 20  1  0  0  0  0
 20 21  1  0  0  0  0
 21 32  1  0  0  0  0
 21 22  1  0  0  0  0
 21 24  1  0  0  0  0
 22 23  1  0  0  0  0
 22 48  1  0  0  0  0
 22 49  1  0  0  0  0
 23 50  1  0  0  0  0
 24 33  1  0  0  0  0
 24 25  1  0  0  0  0
 24 26  1  0  0  0  0
 25 51  1  0  0  0  0
 26 34  1  0  0  0  0
 26 27  1  0  0  0  0
 27 52  1  0  0  0  0
 28 29  1  0  0  0  0
 28 30  1  0  0  0  0
 29 53  1  0  0  0  0
 29 54  1  0  0  0  0
 29 55  1  0  0  0  0
M  END
> <s_m_source_file>
AV-unprocessed.smi

> <i_m_source_file_index>
287

> <i_lp_mmshare_version>
43012

> <i_f3d_flags>
0

> <s_epik_input>
W0NIM11jMVtjSF1jKGMobzEpW0NIM10pW0NAQF0oW0NIM10pKFtPSF0pW0NIMl1bTkhdYyhuW2NIXW4yKWMoYzIzKW5bY0hdbjNbQ0BASF00T1tDQEhdKFtDSDJdW09IXSlbQ0BASF0oW09IXSlbQ0BIXTRbT0hd

> <s_epik_cmdline>
J2VwaWtfcHl0aG9uJywgJy1waCcsICc3LjAnLCAnLXRuJywgJzgnLCAnLW1hJywgJzIwMCcsICctbWV0YWxfYmluZGluZycsICctaW1hZScsICc8aW5maWxlLm1hZT4nLCAnLW9tYWUnLCAnPG91dGZpbGUubWFlPic=

> <r_lp_tautomer_probability>
1

> <r_epik_Ionization_Penalty>
0.000992612

> <r_epik_Ionization_Penalty_Charging>
0

> <r_epik_Ionization_Penalty_Neutral>
0.000992612

> <r_epik_State_Penalty>
-0

> <r_epik_Charging_Adjusted_Penalty>
0

> <i_epik_Tot_Q>
0

> <i_epik_Tot_abs_Q>
0

> <r_epik_Metal_State_Penalty>
-0

> <b_epik_Metal_Only>
0

> <s_epik_Chemistry_Notes>
This compound contains an acetal/aminal-like group ( X-CH(R)-Y where X, Y are N, S, or O) that may be acid/base labile, releasing an aldehyde.

> <s_lp_Force_Field>
OPLS_2005

> <r_lp_Energy>
50.9422

> <b_lp_Chiralities_Consistent>
1

> <s_lp_Variant>
AV-unprocessed.smi:287-25

> <Gold.Version>
5.8.1

> <Gold.Id.Protein>
6NUR|6NUR_protein|mol2

> <Gold.PLP.Fitness>
52.7563

> <Gold.PLP.PLP>
-43.4583

> <Gold.PLP.part.hbond>
-6.2797

> <Gold.PLP.part.metal>
0.0000

> <Gold.PLP.part.buried>
-3.5474

> <Gold.PLP.part.nonpolar>
-32.4393

> <Gold.PLP.part.repulsive>
0.0993

> <Gold.PLP.ligand.clash>
0.0000

> <Gold.PLP.ligand.torsion>
0.9198

> <Gold.PLP.Chemscore.Hbond>
3.6648

> <Gold.PLP.Chemscore.CHOScore>
0.0000

> <Gold.PLP.Chemscore.Metal>
0.0000

> <Gold.Chemscore.Hbonds>
donor molecule, donor type, donor heavy atom, donor atom, acceptor molecule, acceptor atom, score
      L1  H    23    50       P1  7957  0.36
      L1  H    25    51       P1  7948  0.61
      P1  H  6896  6909       L1    16  0.80
      P1  H  7989  7998       L1    23  0.03
      P1  H  8011  8017       L1    23  1.00
      P1  H 10752 10764       L1    27  0.78

> <Gold.PLP.Chemscore.Internal.Correction>
0.1432

> <Gold.Rescore>
     Score         DG    S(hbond)    S(metal)    S(lipo)     H(rot)  DE(clash)    DE(int)     intcor
      8.02     -11.31       2.54        0.00      92.49       5.27       0.30       2.98       ----

> <Gold.Chemscore.Fitness>
8.0199

> <Gold.Chemscore.DG>
-11.3072

> <Gold.Chemscore.ZeroCoef>
-5.4800

> <Gold.Chemscore.Hbond>
2.5418

> <Gold.Chemscore.Metal>
0.0000

> <Gold.Chemscore.Lipo>
92.4900

> <Gold.Chemscore.Internal_Hbond>
0.0000

> <Gold.Chemscore.DEClash>
0.3045

> <Gold.Chemscore.DEInternal>
2.9828

> <Gold.Chemscore.Rot>
5.2672

> <Gold.Chemscore.Internal.Correction>
   9.000000E+99

> <Gold.Chemscore.Hbonds>
donor molecule, donor type, donor heavy atom, donor atom, acceptor molecule, acceptor atom, score
      L1  H    23    50       P1  7957  0.35
      L1  H    25    51       P1  7948  0.32
      P1  H  6896  6909       L1    16  0.12
      P1  H  8011  8017       L1    23  0.97
      P1  H 10752 10764       L1    27  0.75

> <Gold.Chemscore.Hbond.Weighted>
-8.4898

> <Gold.Chemscore.Metal.Weighted>
-0.0000

> <Gold.Chemscore.Lipo.Weighted>
-10.8213

> <Gold.Chemscore.Internal_Hbond.Weighted>
0.0000

> <Gold.Chemscore.DEClash.Weighted>
0.3045

> <Gold.Chemscore.DEInternal.Weighted>
2.9828

> <Gold.Chemscore.Rot.Weighted>
13.4839

> <Gold.Chemscore.Internal.Correction.Weighted>
   9.000000E+99

> <Gold.Protein.RotatedTorsions>
[ 6907 6896 6895 6894 ] final   87.62 input  -60.11 | X-H torsion
[ 7974 7965 7964 7962 ] final   32.65 input  175.53 | X-H torsion
[ 8008 7997 7996 7995 ] final   28.32 input   59.86 | X-H torsion
[ 10167 10162 10161 10158 ] final -145.58 input  -65.29 | X-H torsion
[ 10718 10713 10712 10709 ] final -170.94 input   66.30 | X-H torsion
[ 10763 10752 10751 10750 ] final  -46.41 input  -60.55 | X-H torsion
[ 11005 11000 10999 10996 ] final   50.20 input  -57.11 | X-H torsion

> <Gold.Protein.ActiveResidues>
 VAL166  LYS551  ARG553  GLY616  TRP617  ASP618  TYR619  PRO620  LYS621  CYS622 
 ASP623  PHE694  ASN695  SER759  ASP760  ASP761  ALA762  ILE779  LEU786  VAL792 
 PHE793  MET794  SER795  GLU796  ALA797  LYS798  CYS799  TRP800  GLU811  SER814 

> <Gold.Protein.RotatedAtoms>
  152.5414  134.2249  159.8801 H   0  0  0  0  0  0  0  0  0  0  0  0  # atno 6907 bound_to 6896
  151.2224  133.4488  159.2608 H   0  0  0  0  0  0  0  0  0  0  0  0  # atno 6908 bound_to 6896
  151.0793  134.9861  159.8404 H   0  0  0  0  0  0  0  0  0  0  0  0  # atno 6909 bound_to 6896
  146.1473  139.6499  142.9123 H   0  0  0  0  0  0  0  0  0  0  0  0  # atno 7974 bound_to 7965
  155.0568  140.3186  155.4674 H   0  0  0  0  0  0  0  0  0  0  0  0  # atno 8008 bound_to 7997
  156.2822  140.2136  156.5638 H   0  0  0  0  0  0  0  0  0  0  0  0  # atno 8009 bound_to 7997
  154.7165  140.0493  157.0587 H   0  0  0  0  0  0  0  0  0  0  0  0  # atno 8010 bound_to 7997
  139.7792  143.8125  152.2636 H   0  0  0  0  0  0  0  0  0  0  0  0  # atno 10167 bound_to 10162
  156.7335  130.9315  151.3106 H   0  0  0  0  0  0  0  0  0  0  0  0  # atno 10718 bound_to 10713
  154.0445  135.6639  153.4793 H   0  0  0  0  0  0  0  0  0  0  0  0  # atno 10763 bound_to 10752
  153.0488  135.5097  154.7810 H   0  0  0  0  0  0  0  0  0  0  0  0  # atno 10764 bound_to 10752
  154.6797  135.3043  154.9596 H   0  0  0  0  0  0  0  0  0  0  0  0  # atno 10765 bound_to 10752
  140.1037  134.5047  155.8739 H   0  0  0  0  0  0  0  0  0  0  0  0  # atno 11005 bound_to 11000
  145.4908  141.0438  143.2594 LP  0  0  0  0  0  0  0  0  0  0  0  0  # atno 17320 bound_to 7965
  144.7861  139.6424  143.7133 LP  0  0  0  0  0  0  0  0  0  0  0  0  # atno 17321 bound_to 7965
  139.8183  144.7307  150.9606 LP  0  0  0  0  0  0  0  0  0  0  0  0  # atno 17342 bound_to 10162
  140.7817  143.4184  151.0881 LP  0  0  0  0  0  0  0  0  0  0  0  0  # atno 17343 bound_to 10162
  157.6849  130.9175  150.0360 LP  0  0  0  0  0  0  0  0  0  0  0  0  # atno 17370 bound_to 10713
  156.1513  130.3642  149.9435 LP  0  0  0  0  0  0  0  0  0  0  0  0  # atno 17371 bound_to 10713
  141.2112  133.6704  156.6569 LP  0  0  0  0  0  0  0  0  0  0  0  0  # atno 17394 bound_to 11000
  140.3185  134.8028  157.4233 LP  0  0  0  0  0  0  0  0  0  0  0  0  # atno 17395 bound_to 11000

$$$$
