AV-unprocessed.smi:496|AV-procd|sdf|2722|dock2
  -GOLD-   2262023163D 1   1.00000     0.00000
 Structure written by MMmdl.
 42 44  0  0  0  0  0  0  0  0  3 V2000
  153.8249  138.3658  158.7070 C   0  0  0  0  0  0  0  0  0  0  0  0
  153.5721  138.9728  157.4495 O   0  0  0  0  0  0  0  0  0  0  0  0
  152.1975  139.2254  157.1973 C   0  0  0  0  0  0  0  0  0  0  0  0
  151.5191  139.9218  158.3894 C   0  0  0  0  0  0  0  0  0  0  0  0
  151.0328  141.2675  158.0282 N   0  0  0  0  0  0  0  0  0  0  0  0
  150.1148  141.6850  157.0972 C   0  0  0  0  0  0  0  0  0  0  0  0
  149.3039  140.8509  156.1373 C   0  0  2  0  0  0  0  0  0  0  0  0
  149.5029  141.3492  154.6995 C   0  0  0  0  0  0  0  0  0  0  0  0
  147.8770  140.8779  156.4625 N   0  5  0  0  0  0  0  0  0  0  0  0
  147.1872  142.0120  156.7748 C   0  0  0  0  0  0  0  0  0  0  0  0
  147.0811  142.5944  157.8598 O   0  0  0  0  0  0  0  0  0  0  0  0
  146.4928  142.5910  155.6006 C   0  0  0  0  0  0  0  0  0  0  0  0
  146.7324  142.4181  154.2630 C   0  0  0  0  0  0  0  0  0  0  0  0
  145.7717  143.2030  153.5670 C   0  0  0  0  0  0  0  0  0  0  0  0
  145.0101  143.8024  154.5282 C   0  0  0  0  0  0  0  0  0  0  0  0
  145.4336  143.4417  155.7696 O   0  0  0  0  0  0  0  0  0  0  0  0
  150.0515  143.0452  157.1871 N   0  3  0  0  0  0  0  0  0  0  0  0
  150.9069  143.5021  158.1874 C   0  0  0  0  0  0  0  0  0  0  0  0
  151.1667  144.7902  158.6446 C   0  0  0  0  0  0  0  0  0  0  0  0
  152.0957  144.9118  159.6984 C   0  0  0  0  0  0  0  0  0  0  0  0
  152.7242  143.7797  160.2563 C   0  0  0  0  0  0  0  0  0  0  0  0
  152.4532  142.4793  159.7822 C   0  0  0  0  0  0  0  0  0  0  0  0
  151.5357  142.3670  158.7370 C   0  0  0  0  0  0  0  0  0  0  0  0
  154.9005  138.2579  158.8464 H   0  0  0  0  0  0  0  0  0  0  0  0
  153.3828  137.3723  158.7761 H   0  0  0  0  0  0  0  0  0  0  0  0
  153.4419  138.9768  159.5252 H   0  0  0  0  0  0  0  0  0  0  0  0
  152.0699  139.7999  156.2783 H   0  0  0  0  0  0  0  0  0  0  0  0
  151.7178  138.2614  157.0257 H   0  0  0  0  0  0  0  0  0  0  0  0
  150.6844  139.3291  158.7630 H   0  0  0  0  0  0  0  0  0  0  0  0
  152.2056  140.0252  159.2288 H   0  0  0  0  0  0  0  0  0  0  0  0
  149.6900  139.8316  156.1814 H   0  0  0  0  0  0  0  0  0  0  0  0
  150.5543  141.3033  154.4145 H   0  0  0  0  0  0  0  0  0  0  0  0
  149.1706  142.3814  154.5825 H   0  0  0  0  0  0  0  0  0  0  0  0
  148.9450  140.7372  153.9898 H   0  0  0  0  0  0  0  0  0  0  0  0
  147.5081  141.7992  153.8368 H   0  0  0  0  0  0  0  0  0  0  0  0
  145.6532  143.3141  152.4994 H   0  0  0  0  0  0  0  0  0  0  0  0
  144.1696  144.4803  154.5064 H   0  0  0  0  0  0  0  0  0  0  0  0
  150.6812  145.6571  158.2209 H   0  0  0  0  0  0  0  0  0  0  0  0
  152.3272  145.8921  160.0889 H   0  0  0  0  0  0  0  0  0  0  0  0
  153.4276  143.9108  161.0657 H   0  0  0  0  0  0  0  0  0  0  0  0
  152.9373  141.6198  160.2217 H   0  0  0  0  0  0  0  0  0  0  0  0
  149.4390  143.6070  156.6097 H   0  0  0  0  0  0  0  0  0  0  0  0
  1  2  1  0  0  0  0
  1 24  1  0  0  0  0
  1 25  1  0  0  0  0
  1 26  1  0  0  0  0
  2  3  1  0  0  0  0
  3  4  1  0  0  0  0
  3 27  1  0  0  0  0
  3 28  1  0  0  0  0
  4  5  1  0  0  0  0
  4 29  1  0  0  0  0
  4 30  1  0  0  0  0
  5 23  1  0  0  0  0
  5  6  1  0  0  0  0
  6  7  1  0  0  0  0
  6 17  2  0  0  0  0
  7  8  1  0  0  0  0
  7  9  1  0  0  0  0
  7 31  1  0  0  0  0
  8 32  1  0  0  0  0
  8 33  1  0  0  0  0
  8 34  1  0  0  0  0
  9 10  1  0  0  0  0
 10 11  2  0  0  0  0
 10 12  1  0  0  0  0
 12 16  1  0  0  0  0
 12 13  2  0  0  0  0
 13 14  1  0  0  0  0
 13 35  1  0  0  0  0
 14 15  2  0  0  0  0
 14 36  1  0  0  0  0
 15 16  1  0  0  0  0
 15 37  1  0  0  0  0
 17 18  1  0  0  0  0
 17 42  1  0  0  0  0
 18 23  2  0  0  0  0
 18 19  1  0  0  0  0
 19 20  2  0  0  0  0
 19 38  1  0  0  0  0
 20 21  1  0  0  0  0
 20 39  1  0  0  0  0
 21 22  2  0  0  0  0
 21 40  1  0  0  0  0
 22 23  1  0  0  0  0
 22 41  1  0  0  0  0
M  CHG  1   9  -1
M  CHG  1  17   1
M  END
> <s_m_source_file>
AV-unprocessed.smi

> <i_m_source_file_index>
496

> <i_lp_mmshare_version>
43012

> <i_f3d_flags>
0

> <s_epik_input>
W2NIXTFbY0hdW2NIXVtjSF1jKGMxMiluKFtDSDJdW0NIMl1PW0NIM10pYyhuMilbQ0BIXShbQ0gzXSlbTkhdQyg9TyljM1tjSF1bY0hdW2NIXW8z

> <s_epik_cmdline>
J2VwaWtfcHl0aG9uJywgJy1waCcsICc3LjAnLCAnLXRuJywgJzgnLCAnLW1hJywgJzIwMCcsICctbWV0YWxfYmluZGluZycsICctaW1hZScsICc8aW5maWxlLm1hZT4nLCAnLW9tYWUnLCAnPG91dGZpbGUubWFlPic=

> <r_epik_Ionization_Penalty>
6.2189

> <r_epik_Ionization_Penalty_Charging>
6.2189

> <r_epik_Ionization_Penalty_Neutral>
2.56052e-12

> <r_epik_State_Penalty>
7.14475

> <r_epik_Charging_Adjusted_Penalty>
13.3636

> <i_epik_Tot_Q>
0

> <i_epik_Tot_abs_Q>
2

> <r_epik_Metal_State_Penalty>
3.17915

> <b_epik_Metal_Only>
1

> <s_lp_Force_Field>
OPLS_2005

> <r_lp_Energy>
11.1611

> <b_lp_Chiralities_Consistent>
1

> <s_lp_Variant>
AV-unprocessed.smi:496-7

> <Gold.Version>
5.8.1

> <Gold.Id.Protein>
6NUR|6NUR_protein|mol2

> <Gold.PLP.Fitness>
51.1857

> <Gold.PLP.PLP>
-45.3975

> <Gold.PLP.part.hbond>
-1.8823

> <Gold.PLP.part.metal>
0.0000

> <Gold.PLP.part.buried>
-5.9051

> <Gold.PLP.part.nonpolar>
-37.8371

> <Gold.PLP.part.repulsive>
0.3776

> <Gold.PLP.ligand.clash>
0.0000

> <Gold.PLP.ligand.torsion>
1.6488

> <Gold.PLP.Chemscore.Hbond>
3.0000

> <Gold.PLP.Chemscore.CHOScore>
0.0000

> <Gold.PLP.Chemscore.Metal>
0.0000

> <Gold.Chemscore.Hbonds>
donor molecule, donor type, donor heavy atom, donor atom, acceptor molecule, acceptor atom, score
      L1  H    17    42       P1  8028  2.00
      P1  H  7997  8009       L1     2  1.00

> <Gold.PLP.Chemscore.Internal.Correction>
0.0859

> <Gold.Rescore>
     Score         DG    S(hbond)    S(metal)    S(lipo)     H(rot)  DE(clash)    DE(int)     intcor
     19.04     -20.58       1.93        0.00     114.00       1.83       0.04       1.49       ----

> <Gold.Chemscore.Fitness>
19.0446

> <Gold.Chemscore.DG>
-20.5784

> <Gold.Chemscore.ZeroCoef>
-5.4800

> <Gold.Chemscore.Hbond>
1.9331

> <Gold.Chemscore.Metal>
0.0000

> <Gold.Chemscore.Lipo>
113.9977

> <Gold.Chemscore.Internal_Hbond>
0.0000

> <Gold.Chemscore.DEClash>
0.0395

> <Gold.Chemscore.DEInternal>
1.4943

> <Gold.Chemscore.Rot>
1.8343

> <Gold.Chemscore.Internal.Correction>
   9.000000E+99

> <Gold.Chemscore.Hbonds>
donor molecule, donor type, donor heavy atom, donor atom, acceptor molecule, acceptor atom, score
      L1  H    17    42       P1  8028  0.95
      P1  H  7997  8009       L1     2  0.73

> <Gold.Chemscore.Hbond.Weighted>
-6.4565

> <Gold.Chemscore.Metal.Weighted>
-0.0000

> <Gold.Chemscore.Lipo.Weighted>
-13.3377

> <Gold.Chemscore.Internal_Hbond.Weighted>
0.0000

> <Gold.Chemscore.DEClash.Weighted>
0.0395

> <Gold.Chemscore.DEInternal.Weighted>
1.4943

> <Gold.Chemscore.Rot.Weighted>
4.6958

> <Gold.Chemscore.Internal.Correction.Weighted>
   9.000000E+99

> <Gold.Protein.RotatedTorsions>
[ 6907 6896 6895 6894 ] final -113.51 input  -60.11 | X-H torsion
[ 7974 7965 7964 7962 ] final  100.12 input  175.53 | X-H torsion
[ 8008 7997 7996 7995 ] final  171.64 input   59.86 | X-H torsion
[ 10167 10162 10161 10158 ] final  -92.93 input  -65.29 | X-H torsion
[ 10718 10713 10712 10709 ] final -164.00 input   66.30 | X-H torsion
[ 10763 10752 10751 10750 ] final -177.76 input  -60.55 | X-H torsion
[ 11005 11000 10999 10996 ] final   27.70 input  -57.11 | X-H torsion

> <Gold.Protein.ActiveResidues>
 VAL166  LYS551  ARG553  GLY616  TRP617  ASP618  TYR619  PRO620  LYS621  CYS622 
 ASP623  PHE694  ASN695  SER759  ASP760  ASP761  ALA762  ILE779  LEU786  VAL792 
 PHE793  MET794  SER795  GLU796  ALA797  LYS798  CYS799  TRP800  GLU811  SER814 

> <Gold.Protein.RotatedAtoms>
  150.7834  133.8935  159.3320 H   0  0  0  0  0  0  0  0  0  0  0  0  # atno 6907 bound_to 6896
  151.6792  135.0962  160.0222 H   0  0  0  0  0  0  0  0  0  0  0  0  # atno 6908 bound_to 6896
  152.3892  133.6615  159.6259 H   0  0  0  0  0  0  0  0  0  0  0  0  # atno 6909 bound_to 6896
  145.3898  139.2365  143.3358 H   0  0  0  0  0  0  0  0  0  0  0  0  # atno 7974 bound_to 7965
  156.1252  140.1507  156.9147 H   0  0  0  0  0  0  0  0  0  0  0  0  # atno 8008 bound_to 7997
  154.4866  140.0863  156.7541 H   0  0  0  0  0  0  0  0  0  0  0  0  # atno 8009 bound_to 7997
  155.4356  140.3429  155.4287 H   0  0  0  0  0  0  0  0  0  0  0  0  # atno 8010 bound_to 7997
  140.3298  143.3001  151.9955 H   0  0  0  0  0  0  0  0  0  0  0  0  # atno 10167 bound_to 10162
  156.6328  130.8936  151.2981 H   0  0  0  0  0  0  0  0  0  0  0  0  # atno 10718 bound_to 10713
  154.5561  135.2816  155.0963 H   0  0  0  0  0  0  0  0  0  0  0  0  # atno 10763 bound_to 10752
  154.2390  135.6360  153.5204 H   0  0  0  0  0  0  0  0  0  0  0  0  # atno 10764 bound_to 10752
  153.0016  135.5555  154.6142 H   0  0  0  0  0  0  0  0  0  0  0  0  # atno 10765 bound_to 10752
  140.3235  134.2517  155.7713 H   0  0  0  0  0  0  0  0  0  0  0  0  # atno 11005 bound_to 11000
  146.2803  140.4579  142.8779 LP  0  0  0  0  0  0  0  0  0  0  0  0  # atno 17320 bound_to 7965
  144.8448  140.6913  143.6206 LP  0  0  0  0  0  0  0  0  0  0  0  0  # atno 17321 bound_to 7965
  139.4858  144.6244  151.7193 LP  0  0  0  0  0  0  0  0  0  0  0  0  # atno 17342 bound_to 10162
  140.5408  144.0583  150.6087 LP  0  0  0  0  0  0  0  0  0  0  0  0  # atno 17343 bound_to 10162
  157.7195  130.9540  150.1382 LP  0  0  0  0  0  0  0  0  0  0  0  0  # atno 17370 bound_to 10713
  156.2221  130.3675  149.8543 LP  0  0  0  0  0  0  0  0  0  0  0  0  # atno 17371 bound_to 10713
  141.2081  133.7787  157.0080 LP  0  0  0  0  0  0  0  0  0  0  0  0  # atno 17394 bound_to 11000
  140.0922  134.9586  157.1793 LP  0  0  0  0  0  0  0  0  0  0  0  0  # atno 17395 bound_to 11000

$$$$
