AV-unprocessed.smi:2756|AV-procd|sdf|10618|dock2
  -GOLD-   2272015 63D 1   1.00000     0.00000
 Structure written by MMmdl.
 19 19  0  0  0  0  0  0  0  0  3 V2000
  149.4838  142.0267  154.7639 N   0  0  0  0  0  0  0  0  0  0  0  0
  150.2801  141.6658  155.8510 C   0  0  0  0  0  0  0  0  0  0  0  0
  150.4722  142.5943  156.8144 N   0  3  0  0  0  0  0  0  0  0  0  0
  151.2126  142.3683  157.9211 C   0  0  0  0  0  0  0  0  0  0  0  0
  151.8275  141.1152  158.1081 C   0  0  0  0  0  0  0  0  0  0  0  0
  151.6575  140.1162  157.1284 C   0  0  0  0  0  0  0  0  0  0  0  0
  150.8777  140.3867  155.9812 C   0  0  0  0  0  0  0  0  0  0  0  0
  150.6988  139.3053  154.9240 C   0  0  0  0  0  0  0  0  0  0  0  0
  152.0561  138.6415  154.6914 C   0  0  0  0  0  0  0  0  0  0  0  0
  153.0601  139.3869  154.6965 O   0  0  0  0  0  0  0  0  0  0  0  0
  152.0623  137.4061  154.4993 O   0  5  0  0  0  0  0  0  0  0  0  0
  149.3043  141.3699  154.0169 H   0  0  0  0  0  0  0  0  0  0  0  0
  148.9106  142.8575  154.7852 H   0  0  0  0  0  0  0  0  0  0  0  0
  151.2875  143.1893  158.6190 H   0  0  0  0  0  0  0  0  0  0  0  0
  152.4193  140.9210  158.9904 H   0  0  0  0  0  0  0  0  0  0  0  0
  152.1195  139.1486  157.2594 H   0  0  0  0  0  0  0  0  0  0  0  0
  149.9577  138.5702  155.2400 H   0  0  0  0  0  0  0  0  0  0  0  0
  150.3371  139.7398  153.9912 H   0  0  0  0  0  0  0  0  0  0  0  0
  150.0333  143.5084  156.7037 H   0  0  0  0  0  0  0  0  0  0  0  0
  1  2  1  0  0  0  0
  1 12  1  0  0  0  0
  1 13  1  0  0  0  0
  2  7  1  0  0  0  0
  2  3  2  0  0  0  0
  3  4  1  0  0  0  0
  3 19  1  0  0  0  0
  4  5  2  0  0  0  0
  4 14  1  0  0  0  0
  5  6  1  0  0  0  0
  5 15  1  0  0  0  0
  6  7  2  0  0  0  0
  6 16  1  0  0  0  0
  7  8  1  0  0  0  0
  8  9  1  0  0  0  0
  8 17  1  0  0  0  0
  8 18  1  0  0  0  0
  9 10  2  0  0  0  0
  9 11  1  0  0  0  0
M  CHG  1   3   1
M  CHG  1  11  -1
M  END
> <s_m_source_file>
AV-unprocessed.smi

> <i_m_source_file_index>
2756

> <i_lp_mmshare_version>
43012

> <i_f3d_flags>
0

> <s_epik_input>
W05IMl1jMW5bY0hdW2NIXVtjSF1jMVtDSDJdQyg9TylbT0hd

> <s_epik_cmdline>
J2VwaWtfcHl0aG9uJywgJy1waCcsICc3LjAnLCAnLXRuJywgJzgnLCAnLW1hJywgJzIwMCcsICctbWV0YWxfYmluZGluZycsICctaW1hZScsICc8aW5maWxlLm1hZT4nLCAnLW9tYWUnLCAnPG91dGZpbGUubWFlPic=

> <r_lp_tautomer_probability>
0.999994

> <r_epik_Ionization_Penalty>
0.0994946

> <r_epik_Ionization_Penalty_Charging>
0.0994944

> <r_epik_Ionization_Penalty_Neutral>
2.48807e-07

> <r_epik_State_Penalty>
0.0891183

> <r_epik_Charging_Adjusted_Penalty>
0.188613

> <i_epik_Tot_Q>
0

> <i_epik_Tot_abs_Q>
2

> <r_epik_Metal_State_Penalty>
3.01912

> <b_epik_Metal_Only>
0

> <s_lp_Force_Field>
OPLS_2005

> <r_lp_Energy>
1.50311

> <b_lp_Chiralities_Consistent>
1

> <s_lp_Variant>
AV-unprocessed.smi:2756-1

> <Gold.Version>
5.8.1

> <Gold.Id.Protein>
6NUR|6NUR_protein|mol2

> <Gold.PLP.Fitness>
44.9497

> <Gold.PLP.PLP>
-24.0088

> <Gold.PLP.part.hbond>
-5.0000

> <Gold.PLP.part.metal>
0.0000

> <Gold.PLP.part.buried>
-3.8005

> <Gold.PLP.part.nonpolar>
-15.9795

> <Gold.PLP.part.repulsive>
1.0594

> <Gold.PLP.ligand.clash>
0.0000

> <Gold.PLP.ligand.torsion>
0.5267

> <Gold.PLP.Chemscore.Hbond>
7.3312

> <Gold.PLP.Chemscore.CHOScore>
0.0000

> <Gold.PLP.Chemscore.Metal>
0.0000

> <Gold.Chemscore.Hbonds>
donor molecule, donor type, donor heavy atom, donor atom, acceptor molecule, acceptor atom, score
      L1  H     1    13       P1  8028  1.59
      L1  H     3    19       P1  8028  2.00
      P1  H  7989  7998       L1    10  0.02
      P1  H  7997  8010       L1    10  2.00
      P1  H 10752 10765       L1    11  1.73

> <Gold.PLP.Chemscore.Internal.Correction>
0.0007

> <Gold.Rescore>
     Score         DG    S(hbond)    S(metal)    S(lipo)     H(rot)  DE(clash)    DE(int)     intcor
     15.30     -17.14       3.56        0.00      32.68       1.58       0.00       1.84       ----

> <Gold.Chemscore.Fitness>
15.3003

> <Gold.Chemscore.DG>
-17.1396

> <Gold.Chemscore.ZeroCoef>
-5.4800

> <Gold.Chemscore.Hbond>
3.5603

> <Gold.Chemscore.Metal>
0.0000

> <Gold.Chemscore.Lipo>
32.6808

> <Gold.Chemscore.Internal_Hbond>
0.0000

> <Gold.Chemscore.DEClash>
0.0000

> <Gold.Chemscore.DEInternal>
1.8394

> <Gold.Chemscore.Rot>
1.5841

> <Gold.Chemscore.Internal.Correction>
   9.000000E+99

> <Gold.Chemscore.Hbonds>
donor molecule, donor type, donor heavy atom, donor atom, acceptor molecule, acceptor atom, score
      L1  H     1    13       P1  8028  0.74
      L1  H     3    19       P1  8028  0.93
      P1  H  7997  8010       L1    10  0.95
      P1  H 10752 10765       L1    11  0.86

> <Gold.Chemscore.Hbond.Weighted>
-11.8914

> <Gold.Chemscore.Metal.Weighted>
-0.0000

> <Gold.Chemscore.Lipo.Weighted>
-3.8236

> <Gold.Chemscore.Internal_Hbond.Weighted>
0.0000

> <Gold.Chemscore.DEClash.Weighted>
0.0000

> <Gold.Chemscore.DEInternal.Weighted>
1.8394

> <Gold.Chemscore.Rot.Weighted>
4.0554

> <Gold.Chemscore.Internal.Correction.Weighted>
   9.000000E+99

> <Gold.Protein.RotatedTorsions>
[ 6907 6896 6895 6894 ] final   21.48 input  -60.11 | X-H torsion
[ 7974 7965 7964 7962 ] final  -71.47 input  175.53 | X-H torsion
[ 8008 7997 7996 7995 ] final  101.30 input   59.86 | X-H torsion
[ 10167 10162 10161 10158 ] final  105.22 input  -65.29 | X-H torsion
[ 10718 10713 10712 10709 ] final  102.49 input   66.30 | X-H torsion
[ 10763 10752 10751 10750 ] final  163.08 input  -60.55 | X-H torsion
[ 11005 11000 10999 10996 ] final   80.22 input  -57.11 | X-H torsion

> <Gold.Protein.ActiveResidues>
 VAL166  LYS551  ARG553  GLY616  TRP617  ASP618  TYR619  PRO620  LYS621  CYS622 
 ASP623  PHE694  ASN695  SER759  ASP760  ASP761  ALA762  ILE779  LEU786  VAL792 
 PHE793  MET794  SER795  GLU796  ALA797  LYS798  CYS799  TRP800  GLU811  SER814 

> <Gold.Protein.RotatedAtoms>
  151.9124  135.0333  160.0515 H   0  0  0  0  0  0  0  0  0  0  0  0  # atno 6907 bound_to 6896
  152.2268  133.5022  159.5201 H   0  0  0  0  0  0  0  0  0  0  0  0  # atno 6908 bound_to 6896
  150.7014  134.1186  159.4069 H   0  0  0  0  0  0  0  0  0  0  0  0  # atno 6909 bound_to 6896
  145.6777  140.9199  143.0849 H   0  0  0  0  0  0  0  0  0  0  0  0  # atno 7974 bound_to 7965
  156.1286  140.3199  155.8315 H   0  0  0  0  0  0  0  0  0  0  0  0  # atno 8008 bound_to 7997
  155.4374  140.0523  157.3030 H   0  0  0  0  0  0  0  0  0  0  0  0  # atno 8009 bound_to 7997
  154.4882  140.2081  155.9621 H   0  0  0  0  0  0  0  0  0  0  0  0  # atno 8010 bound_to 7997
  139.7111  144.7077  151.1025 H   0  0  0  0  0  0  0  0  0  0  0  0  # atno 10167 bound_to 10162
  157.6800  131.0754  150.5411 H   0  0  0  0  0  0  0  0  0  0  0  0  # atno 10718 bound_to 10713
  154.2882  135.2761  155.2667 H   0  0  0  0  0  0  0  0  0  0  0  0  # atno 10763 bound_to 10752
  154.5158  135.5770  153.6644 H   0  0  0  0  0  0  0  0  0  0  0  0  # atno 10764 bound_to 10752
  152.9918  135.6192  154.3045 H   0  0  0  0  0  0  0  0  0  0  0  0  # atno 10765 bound_to 10752
  139.9142  134.7904  156.1881 H   0  0  0  0  0  0  0  0  0  0  0  0  # atno 11005 bound_to 11000
  144.7036  139.8655  143.7437 LP  0  0  0  0  0  0  0  0  0  0  0  0  # atno 17320 bound_to 7965
  146.0991  139.3986  143.0358 LP  0  0  0  0  0  0  0  0  0  0  0  0  # atno 17321 bound_to 7965
  140.7733  143.5292  150.9444 LP  0  0  0  0  0  0  0  0  0  0  0  0  # atno 17342 bound_to 10162
  139.8976  143.6875  152.3136 LP  0  0  0  0  0  0  0  0  0  0  0  0  # atno 17343 bound_to 10162
  156.5718  130.4282  149.6016 LP  0  0  0  0  0  0  0  0  0  0  0  0  # atno 17370 bound_to 10713
  156.2734  130.7030  151.1834 LP  0  0  0  0  0  0  0  0  0  0  0  0  # atno 17371 bound_to 10713
  141.0600  133.6846  156.1935 LP  0  0  0  0  0  0  0  0  0  0  0  0  # atno 17394 bound_to 11000
  140.6675  134.4902  157.5586 LP  0  0  0  0  0  0  0  0  0  0  0  0  # atno 17395 bound_to 11000

$$$$
