AV-unprocessed.smi:1190|AV-procd|sdf|4981|dock4
  -GOLD-   22720 3573D 1   1.00000     0.00000
 Structure written by MMmdl.
 43 44  0  0  0  0  0  0  0  0  1 V2000
  151.4554  141.4116  158.1527 C   0  0  0  0  0  0  0  0  0  0  0  0
  151.2158  141.4116  156.7496 O   0  0  0  0  0  0  0  0  0  0  0  0
  150.7508  140.2516  156.1647 C   0  0  0  0  0  0  0  0  0  0  0  0
  150.2258  139.2415  156.9947 C   0  0  0  0  0  0  0  0  0  0  0  0
  149.7537  138.0551  156.4030 C   0  0  0  0  0  0  0  0  0  0  0  0
  149.8269  137.9071  155.0034 C   0  0  0  0  0  0  0  0  0  0  0  0
  149.3287  136.7034  154.4353 N   0  0  0  0  0  0  0  0  0  0  0  0
  148.8200  135.6279  155.0607 C   0  0  0  0  0  0  0  0  0  0  0  0
  148.6751  135.5143  156.2774 O   0  0  0  0  0  0  0  0  0  0  0  0
  148.4706  134.6797  154.1794 N   0  0  0  0  0  0  0  0  0  0  0  0
  147.8812  133.3839  154.5101 C   0  0  0  0  0  0  0  0  0  0  0  0
  147.5848  132.5142  153.2554 C   0  0  1  0  0  0  0  0  0  0  0  0
  147.7497  131.0178  153.6249 C   0  0  0  0  0  0  0  0  0  0  0  0
  146.2693  132.8084  152.6387 N   0  0  0  0  0  0  0  0  0  0  0  0
  146.1974  134.1570  152.0637 C   0  0  0  0  0  0  0  0  0  0  0  0
  144.8424  134.4520  151.3971 C   0  0  0  0  0  0  0  0  0  0  0  0
  144.5801  133.4805  150.3943 O   0  0  0  0  0  0  0  0  0  0  0  0
  144.5598  132.1623  150.9237 C   0  0  0  0  0  0  0  0  0  0  0  0
  145.9123  131.8492  151.5865 C   0  0  0  0  0  0  0  0  0  0  0  0
  150.3588  138.9852  154.2543 C   0  0  0  0  0  0  0  0  0  0  0  0
  150.8116  140.1265  154.8159 N   0  0  0  0  0  0  0  0  0  0  0  0
  151.8081  142.3967  158.4579 H   0  0  0  0  0  0  0  0  0  0  0  0
  152.2227  140.6860  158.4264 H   0  0  0  0  0  0  0  0  0  0  0  0
  150.5442  141.1984  158.7136 H   0  0  0  0  0  0  0  0  0  0  0  0
  150.1862  139.3748  158.0657 H   0  0  0  0  0  0  0  0  0  0  0  0
  149.3451  137.2681  157.0200 H   0  0  0  0  0  0  0  0  0  0  0  0
  149.3123  136.6773  153.4263 H   0  0  0  0  0  0  0  0  0  0  0  0
  148.6254  134.8663  153.1995 H   0  0  0  0  0  0  0  0  0  0  0  0
  148.5034  132.8262  155.2123 H   0  0  0  0  0  0  0  0  0  0  0  0
  146.9655  133.6314  155.0434 H   0  0  0  0  0  0  0  0  0  0  0  0
  148.3578  132.7449  152.5206 H   0  0  0  0  0  0  0  0  0  0  0  0
  148.7076  130.8096  154.0992 H   0  0  0  0  0  0  0  0  0  0  0  0
  147.7244  130.3677  152.7519 H   0  0  0  0  0  0  0  0  0  0  0  0
  146.9669  130.6934  154.3114 H   0  0  0  0  0  0  0  0  0  0  0  0
  146.3385  134.9127  152.8337 H   0  0  0  0  0  0  0  0  0  0  0  0
  146.9970  134.2916  151.3335 H   0  0  0  0  0  0  0  0  0  0  0  0
  144.0398  134.4509  152.1362 H   0  0  0  0  0  0  0  0  0  0  0  0
  144.8537  135.4412  150.9393 H   0  0  0  0  0  0  0  0  0  0  0  0
  143.7446  132.0614  151.6418 H   0  0  0  0  0  0  0  0  0  0  0  0
  144.3631  131.4580  150.1153 H   0  0  0  0  0  0  0  0  0  0  0  0
  146.6925  131.8294  150.8240 H   0  0  0  0  0  0  0  0  0  0  0  0
  145.8398  130.8419  151.9921 H   0  0  0  0  0  0  0  0  0  0  0  0
  150.4138  138.9639  153.1774 H   0  0  0  0  0  0  0  0  0  0  0  0
  1  2  1  0  0  0  0
  1 22  1  0  0  0  0
  1 23  1  0  0  0  0
  1 24  1  0  0  0  0
  2  3  1  0  0  0  0
  3 21  1  0  0  0  0
  3  4  2  0  0  0  0
  4  5  1  0  0  0  0
  4 25  1  0  0  0  0
  5  6  2  0  0  0  0
  5 26  1  0  0  0  0
  6  7  1  0  0  0  0
  6 20  1  0  0  0  0
  7  8  1  0  0  0  0
  7 27  1  0  0  0  0
  8  9  2  0  0  0  0
  8 10  1  0  0  0  0
 10 11  1  0  0  0  0
 10 28  1  0  0  0  0
 11 12  1  0  0  0  0
 11 29  1  0  0  0  0
 11 30  1  0  0  0  0
 12 13  1  0  0  0  0
 12 14  1  0  0  0  0
 12 31  1  0  0  0  0
 13 32  1  0  0  0  0
 13 33  1  0  0  0  0
 13 34  1  0  0  0  0
 14 19  1  0  0  0  0
 14 15  1  0  0  0  0
 15 16  1  0  0  0  0
 15 35  1  0  0  0  0
 15 36  1  0  0  0  0
 16 17  1  0  0  0  0
 16 37  1  0  0  0  0
 16 38  1  0  0  0  0
 17 18  1  0  0  0  0
 18 19  1  0  0  0  0
 18 39  1  0  0  0  0
 18 40  1  0  0  0  0
 19 41  1  0  0  0  0
 19 42  1  0  0  0  0
 20 21  2  0  0  0  0
 20 43  1  0  0  0  0
M  END
> <s_m_source_file>
AV-unprocessed.smi

> <i_m_source_file_index>
1190

> <i_lp_mmshare_version>
43012

> <i_f3d_flags>
0

> <s_epik_input>
W0NIM11PYzFbY0hdW2NIXWMoW2NIXW4xKVtOSF1DKD1PKVtOSF1bQ0gyXVtDQEhdKFtDSDNdKU4yW0NIMl1bQ0gyXU9bQ0gyXVtDSDJdMg==

> <s_epik_cmdline>
J2VwaWtfcHl0aG9uJywgJy1waCcsICc3LjAnLCAnLXRuJywgJzgnLCAnLW1hJywgJzIwMCcsICctbWV0YWxfYmluZGluZycsICctaW1hZScsICc8aW5maWxlLm1hZT4nLCAnLW9tYWUnLCAnPG91dGZpbGUubWFlPic=

> <r_lp_tautomer_probability>
1

> <r_epik_Ionization_Penalty>
0.266084

> <r_epik_Ionization_Penalty_Charging>
0

> <r_epik_Ionization_Penalty_Neutral>
0.266084

> <r_epik_State_Penalty>
0.257924

> <r_epik_Charging_Adjusted_Penalty>
0.257924

> <i_epik_Tot_Q>
0

> <i_epik_Tot_abs_Q>
0

> <r_epik_Metal_State_Penalty>
0.257922

> <b_epik_Metal_Only>
0

> <s_lp_Force_Field>
OPLS_2005

> <r_lp_Energy>
31.4194

> <b_lp_Chiralities_Consistent>
1

> <s_lp_Variant>
AV-unprocessed.smi:1190-2

> <Gold.Version>
5.8.1

> <Gold.Id.Protein>
6NUR|6NUR_protein|mol2

> <Gold.PLP.Fitness>
39.0177

> <Gold.PLP.PLP>
-28.4297

> <Gold.PLP.part.hbond>
-3.0000

> <Gold.PLP.part.metal>
0.0000

> <Gold.PLP.part.buried>
-5.4936

> <Gold.PLP.part.nonpolar>
-20.9940

> <Gold.PLP.part.repulsive>
0.4476

> <Gold.PLP.ligand.clash>
0.0024

> <Gold.PLP.ligand.torsion>
0.6441

> <Gold.PLP.Chemscore.Hbond>
2.9280

> <Gold.PLP.Chemscore.CHOScore>
1.0000

> <Gold.PLP.Chemscore.Metal>
0.0000

> <Gold.Chemscore.Hbonds>
donor molecule, donor type, donor heavy atom, donor atom, acceptor molecule, acceptor atom, score
      L1  H     7    27       P1  7948  1.00
      L1  H    10    28       P1  7948  0.94
      P1  H  7989  7998       L1    21  1.00
      L1  C    20    43       P1  7957  1.00

> <Gold.PLP.Chemscore.Internal.Correction>
0.0946

> <Gold.Rescore>
     Score         DG    S(hbond)    S(metal)    S(lipo)     H(rot)  DE(clash)    DE(int)     intcor
     13.38     -15.46       2.12        0.00      62.71       1.73       0.02       2.07       ----

> <Gold.Chemscore.Fitness>
13.3782

> <Gold.Chemscore.DG>
-15.4646

> <Gold.Chemscore.ZeroCoef>
-5.4800

> <Gold.Chemscore.Hbond>
2.1179

> <Gold.Chemscore.Metal>
0.0000

> <Gold.Chemscore.Lipo>
62.7142

> <Gold.Chemscore.Internal_Hbond>
0.0000

> <Gold.Chemscore.DEClash>
0.0154

> <Gold.Chemscore.DEInternal>
2.0709

> <Gold.Chemscore.Rot>
1.7292

> <Gold.Chemscore.Internal.Correction>
   9.000000E+99

> <Gold.Chemscore.Hbonds>
donor molecule, donor type, donor heavy atom, donor atom, acceptor molecule, acceptor atom, score
      L1  H     7    27       P1  7948  0.92
      L1  H    10    28       P1  7948  0.45
      P1  H  7989  7998       L1    21  0.35

> <Gold.Chemscore.Hbond.Weighted>
-7.0739

> <Gold.Chemscore.Metal.Weighted>
-0.0000

> <Gold.Chemscore.Lipo.Weighted>
-7.3376

> <Gold.Chemscore.Internal_Hbond.Weighted>
0.0000

> <Gold.Chemscore.DEClash.Weighted>
0.0154

> <Gold.Chemscore.DEInternal.Weighted>
2.0709

> <Gold.Chemscore.Rot.Weighted>
4.4268

> <Gold.Chemscore.Internal.Correction.Weighted>
   9.000000E+99

> <Gold.Protein.RotatedTorsions>
[ 6907 6896 6895 6894 ] final   77.51 input  -60.11 | X-H torsion
[ 7974 7965 7964 7962 ] final  -14.33 input  175.53 | X-H torsion
[ 8008 7997 7996 7995 ] final  135.75 input   59.86 | X-H torsion
[ 10167 10162 10161 10158 ] final  -65.02 input  -65.29 | X-H torsion
[ 10718 10713 10712 10709 ] final -146.05 input   66.30 | X-H torsion
[ 10763 10752 10751 10750 ] final   80.29 input  -60.55 | X-H torsion
[ 11005 11000 10999 10996 ] final  104.56 input  -57.11 | X-H torsion

> <Gold.Protein.ActiveResidues>
 VAL166  LYS551  ARG553  GLY616  TRP617  ASP618  TYR619  PRO620  LYS621  CYS622 
 ASP623  PHE694  ASN695  SER759  ASP760  ASP761  ALA762  ILE779  LEU786  VAL792 
 PHE793  MET794  SER795  GLU796  ALA797  LYS798  CYS799  TRP800  GLU811  SER814 

> <Gold.Protein.RotatedAtoms>
  152.5120  134.3806  159.9349 H   0  0  0  0  0  0  0  0  0  0  0  0  # atno 6907 bound_to 6896
  151.3763  133.3831  159.2713 H   0  0  0  0  0  0  0  0  0  0  0  0  # atno 6908 bound_to 6896
  150.9539  134.8956  159.7747 H   0  0  0  0  0  0  0  0  0  0  0  0  # atno 6909 bound_to 6896
  146.2078  140.3333  142.8401 H   0  0  0  0  0  0  0  0  0  0  0  0  # atno 7974 bound_to 7965
  156.3003  140.2462  156.3633 H   0  0  0  0  0  0  0  0  0  0  0  0  # atno 8008 bound_to 7997
  154.8856  140.0411  157.1828 H   0  0  0  0  0  0  0  0  0  0  0  0  # atno 8009 bound_to 7997
  154.8650  140.2926  155.5520 H   0  0  0  0  0  0  0  0  0  0  0  0  # atno 8010 bound_to 7997
  140.5760  143.2322  151.6442 H   0  0  0  0  0  0  0  0  0  0  0  0  # atno 10167 bound_to 10162
  156.3901  130.7881  151.2082 H   0  0  0  0  0  0  0  0  0  0  0  0  # atno 10718 bound_to 10713
  153.1021  135.4808  154.8886 H   0  0  0  0  0  0  0  0  0  0  0  0  # atno 10763 bound_to 10752
  154.7390  135.3078  154.8763 H   0  0  0  0  0  0  0  0  0  0  0  0  # atno 10764 bound_to 10752
  153.9377  135.6837  153.4798 H   0  0  0  0  0  0  0  0  0  0  0  0  # atno 10765 bound_to 10752
  139.8793  134.9305  156.5380 H   0  0  0  0  0  0  0  0  0  0  0  0  # atno 11005 bound_to 11000
  144.8837  140.7434  143.5970 LP  0  0  0  0  0  0  0  0  0  0  0  0  # atno 17320 bound_to 7965
  145.3253  139.1776  143.4565 LP  0  0  0  0  0  0  0  0  0  0  0  0  # atno 17321 bound_to 7965
  139.5143  144.3416  152.0735 LP  0  0  0  0  0  0  0  0  0  0  0  0  # atno 17342 bound_to 10162
  140.2559  144.4119  150.6204 LP  0  0  0  0  0  0  0  0  0  0  0  0  # atno 17343 bound_to 10162
  157.7498  131.0318  150.4199 LP  0  0  0  0  0  0  0  0  0  0  0  0  # atno 17370 bound_to 10713
  156.4458  130.4001  149.6667 LP  0  0  0  0  0  0  0  0  0  0  0  0  # atno 17371 bound_to 10713
  140.8331  133.8263  155.9003 LP  0  0  0  0  0  0  0  0  0  0  0  0  # atno 17394 bound_to 11000
  140.9309  134.2023  157.4864 LP  0  0  0  0  0  0  0  0  0  0  0  0  # atno 17395 bound_to 11000

$$$$
