AV-unprocessed.smi:249|AV-procd|sdf|1907|dock8
  -GOLD-   2262020593D 1   1.00000     0.00000
 Structure written by MMmdl.
 64 67  0  0  0  0  0  0  0  0  2 V2000
  146.6947  129.5575  152.0487 C   0  0  0  0  0  0  0  0  0  0  0  0
  145.7324  130.7090  151.7191 C   0  0  0  0  0  0  0  0  0  0  0  0
  146.4147  131.8875  151.1078 N   0  3  1  0  0  0  0  0  0  0  0  0
  145.5547  132.6750  150.1790 C   0  0  0  0  0  0  0  0  0  0  0  0
  144.4948  133.4996  150.9348 C   0  0  0  0  0  0  0  0  0  0  0  0
  145.1592  134.4191  151.9767 C   0  0  1  0  0  0  0  0  0  0  0  0
  144.1773  135.2054  152.7275 N   0  0  0  0  0  0  0  0  0  0  0  0
  142.7421  135.0089  152.5366 C   0  0  0  0  0  0  0  0  0  0  0  0
  144.5889  136.2526  153.4896 C   0  0  0  0  0  0  0  0  0  0  0  0
  144.1407  136.3363  154.7701 N   0  0  0  0  0  0  0  0  0  0  0  0
  144.5062  137.3562  155.5516 C   0  0  0  0  0  0  0  0  0  0  0  0
  145.3070  138.3825  155.2625 N   0  0  0  0  0  0  0  0  0  0  0  0
  145.7797  138.2965  153.9868 C   0  0  0  0  0  0  0  0  0  0  0  0
  145.4743  137.2769  153.0397 C   0  0  0  0  0  0  0  0  0  0  0  0
  146.1526  137.5260  151.8508 N   0  0  0  0  0  0  0  0  0  0  0  0
  146.8049  138.6331  152.0765 C   0  0  0  0  0  0  0  0  0  0  0  0
  146.6527  139.1548  153.3407 N   0  0  0  0  0  0  0  0  0  0  0  0
  147.2530  140.3748  153.8522 C   0  0  0  0  0  0  0  0  0  0  0  0
  148.7796  140.2917  154.1340 C   0  0  2  0  0  0  0  0  0  0  0  0
  149.1620  138.8179  154.4145 C   0  0  0  0  0  0  0  0  0  0  0  0
  150.0948  138.3377  153.4681 O   0  0  0  0  0  0  0  0  0  0  0  0
  149.2429  141.2310  155.2878 C   0  0  1  0  0  0  0  0  0  0  0  0
  148.5309  141.0207  156.6164 C   0  0  0  0  0  0  0  0  0  0  0  0
  149.4725  141.6961  157.6020 C   0  0  0  0  0  0  0  0  0  0  0  0
  150.7690  141.3776  157.1237 O   0  0  0  0  0  0  0  0  0  0  0  0
  150.7067  141.0702  155.7342 C   0  0  0  0  0  0  0  0  0  0  0  0
  146.0876  133.6096  152.9025 C   0  0  0  0  0  0  0  0  0  0  0  0
  147.1042  132.7953  152.0758 C   0  0  1  0  0  0  0  0  0  0  0  0
  148.1465  132.0829  152.9560 C   0  0  0  0  0  0  0  0  0  0  0  0
  146.1836  128.7902  152.6309 H   0  0  0  0  0  0  0  0  0  0  0  0
  147.5431  129.9059  152.6383 H   0  0  0  0  0  0  0  0  0  0  0  0
  147.0779  129.0707  151.1525 H   0  0  0  0  0  0  0  0  0  0  0  0
  144.9242  130.3507  151.0819 H   0  0  0  0  0  0  0  0  0  0  0  0
  145.2696  130.9996  152.6601 H   0  0  0  0  0  0  0  0  0  0  0  0
  146.1955  133.3510  149.6112 H   0  0  0  0  0  0  0  0  0  0  0  0
  145.0823  132.0362  149.4347 H   0  0  0  0  0  0  0  0  0  0  0  0
  143.9258  134.1004  150.2243 H   0  0  0  0  0  0  0  0  0  0  0  0
  143.7763  132.8307  151.4083 H   0  0  0  0  0  0  0  0  0  0  0  0
  145.7857  135.0977  151.3994 H   0  0  0  0  0  0  0  0  0  0  0  0
  142.2080  135.1186  153.4812 H   0  0  0  0  0  0  0  0  0  0  0  0
  142.5240  134.0153  152.1464 H   0  0  0  0  0  0  0  0  0  0  0  0
  142.3480  135.7410  151.8309 H   0  0  0  0  0  0  0  0  0  0  0  0
  144.0988  137.3485  156.5518 H   0  0  0  0  0  0  0  0  0  0  0  0
  147.4290  139.0957  151.3256 H   0  0  0  0  0  0  0  0  0  0  0  0
  147.0518  141.1814  153.1459 H   0  0  0  0  0  0  0  0  0  0  0  0
  146.7099  140.6296  154.7624 H   0  0  0  0  0  0  0  0  0  0  0  0
  149.3168  140.5902  153.2329 H   0  0  0  0  0  0  0  0  0  0  0  0
  149.6314  138.7042  155.3907 H   0  0  0  0  0  0  0  0  0  0  0  0
  148.2783  138.1791  154.4067 H   0  0  0  0  0  0  0  0  0  0  0  0
  149.6782  137.6687  152.9465 H   0  0  0  0  0  0  0  0  0  0  0  0
  149.0844  142.2685  154.9880 H   0  0  0  0  0  0  0  0  0  0  0  0
  147.5313  141.4550  156.6453 H   0  0  0  0  0  0  0  0  0  0  0  0
  148.4517  139.9566  156.8454 H   0  0  0  0  0  0  0  0  0  0  0  0
  149.3409  142.7787  157.5772 H   0  0  0  0  0  0  0  0  0  0  0  0
  149.3275  141.3559  158.6274 H   0  0  0  0  0  0  0  0  0  0  0  0
  151.0501  140.0435  155.6048 H   0  0  0  0  0  0  0  0  0  0  0  0
  151.3791  141.7250  155.1816 H   0  0  0  0  0  0  0  0  0  0  0  0
  146.6186  134.2906  153.5688 H   0  0  0  0  0  0  0  0  0  0  0  0
  145.5111  132.9446  153.5455 H   0  0  0  0  0  0  0  0  0  0  0  0
  147.6695  133.5050  151.4691 H   0  0  0  0  0  0  0  0  0  0  0  0
  148.7633  132.8115  153.4831 H   0  0  0  0  0  0  0  0  0  0  0  0
  148.8145  131.4633  152.3568 H   0  0  0  0  0  0  0  0  0  0  0  0
  147.6851  131.4522  153.7158 H   0  0  0  0  0  0  0  0  0  0  0  0
  147.1499  131.4959  150.5363 H   0  0  0  0  0  0  0  0  0  0  0  0
  1  2  1  0  0  0  0
  1 30  1  0  0  0  0
  1 31  1  0  0  0  0
  1 32  1  0  0  0  0
  2  3  1  0  0  0  0
  2 33  1  0  0  0  0
  2 34  1  0  0  0  0
  3 28  1  0  0  0  0
  3  4  1  0  0  0  0
  3 64  1  0  0  0  0
  4  5  1  0  0  0  0
  4 35  1  0  0  0  0
  4 36  1  0  0  0  0
  5  6  1  0  0  0  0
  5 37  1  0  0  0  0
  5 38  1  0  0  0  0
  6  7  1  0  0  0  0
  6 27  1  0  0  0  0
  6 39  1  0  0  0  0
  7  8  1  0  0  0  0
  7  9  1  0  0  0  0
  8 40  1  0  0  0  0
  8 41  1  0  0  0  0
  8 42  1  0  0  0  0
  9 14  1  0  0  0  0
  9 10  2  0  0  0  0
 10 11  1  0  0  0  0
 11 12  2  0  0  0  0
 11 43  1  0  0  0  0
 12 13  1  0  0  0  0
 13 17  1  0  0  0  0
 13 14  2  0  0  0  0
 14 15  1  0  0  0  0
 15 16  2  0  0  0  0
 16 17  1  0  0  0  0
 16 44  1  0  0  0  0
 17 18  1  0  0  0  0
 18 19  1  0  0  0  0
 18 45  1  0  0  0  0
 18 46  1  0  0  0  0
 19 20  1  0  0  0  0
 19 22  1  0  0  0  0
 19 47  1  0  0  0  0
 20 21  1  0  0  0  0
 20 48  1  0  0  0  0
 20 49  1  0  0  0  0
 21 50  1  0  0  0  0
 22 26  1  0  0  0  0
 22 23  1  0  0  0  0
 22 51  1  0  0  0  0
 23 24  1  0  0  0  0
 23 52  1  0  0  0  0
 23 53  1  0  0  0  0
 24 25  1  0  0  0  0
 24 54  1  0  0  0  0
 24 55  1  0  0  0  0
 25 26  1  0  0  0  0
 26 56  1  0  0  0  0
 26 57  1  0  0  0  0
 27 28  1  0  0  0  0
 27 58  1  0  0  0  0
 27 59  1  0  0  0  0
 28 29  1  0  0  0  0
 28 60  1  0  0  0  0
 29 61  1  0  0  0  0
 29 62  1  0  0  0  0
 29 63  1  0  0  0  0
M  CHG  1   3   1
M  END
> <s_m_source_file>
AV-unprocessed.smi

> <i_m_source_file_index>
249

> <i_lp_mmshare_version>
43012

> <i_f3d_flags>
0

> <s_epik_input>
W0NIM11bQ0gyXU4xW0NIMl1bQ0gyXVtDQEhdKFtDSDJdW0NASF0xW0NIM10pTihbQ0gzXSljKG5bY0hdbjIpYyhjMjMpbltjSF1uM1tDSDJdW0NASF0oW0NIMl1bT0hdKVtDQEBIXTRbQ0gyXVtDSDJdT1tDSDJdNA==

> <s_epik_cmdline>
J2VwaWtfcHl0aG9uJywgJy1waCcsICc3LjAnLCAnLXRuJywgJzgnLCAnLW1hJywgJzIwMCcsICctbWV0YWxfYmluZGluZycsICctaW1hZScsICc8aW5maWxlLm1hZT4nLCAnLW9tYWUnLCAnPG91dGZpbGUubWFlPic=

> <r_lp_tautomer_probability>
1

> <r_epik_Ionization_Penalty>
0.00294688

> <r_epik_Ionization_Penalty_Charging>
0.00169971

> <r_epik_Ionization_Penalty_Neutral>
0.00124717

> <r_epik_State_Penalty>
-0

> <r_epik_Charging_Adjusted_Penalty>
0.00169971

> <i_epik_Tot_Q>
1

> <i_epik_Tot_abs_Q>
1

> <r_epik_Metal_State_Penalty>
-0

> <b_epik_Metal_Only>
0

> <s_lp_Force_Field>
OPLS_2005

> <r_lp_Energy>
54.7906

> <b_lp_Chiralities_Consistent>
1

> <s_lp_Variant>
AV-unprocessed.smi:249-10

> <Gold.Version>
5.8.1

> <Gold.Id.Protein>
6NUR|6NUR_protein|mol2

> <Gold.PLP.Fitness>
48.4201

> <Gold.PLP.PLP>
-44.5010

> <Gold.PLP.part.hbond>
-3.0000

> <Gold.PLP.part.metal>
0.0000

> <Gold.PLP.part.buried>
-5.2604

> <Gold.PLP.part.nonpolar>
-37.3489

> <Gold.PLP.part.repulsive>
0.9098

> <Gold.PLP.ligand.clash>
0.0000

> <Gold.PLP.ligand.torsion>
2.6926

> <Gold.PLP.Chemscore.Hbond>
2.0000

> <Gold.PLP.Chemscore.CHOScore>
1.0000

> <Gold.PLP.Chemscore.Metal>
0.0000

> <Gold.Chemscore.Hbonds>
donor molecule, donor type, donor heavy atom, donor atom, acceptor molecule, acceptor atom, score
      L1  H     3    64       P1 10747  1.00
      L1  H    21    50       P1  7948  1.00
      L1  C    16    44       P1  7957  1.00

> <Gold.PLP.Chemscore.Internal.Correction>
0.3044

> <Gold.Rescore>
     Score         DG    S(hbond)    S(metal)    S(lipo)     H(rot)  DE(clash)    DE(int)     intcor
     14.20     -17.22       1.95        0.00     102.75       2.65       0.15       2.86       ----

> <Gold.Chemscore.Fitness>
14.2032

> <Gold.Chemscore.DG>
-17.2221

> <Gold.Chemscore.ZeroCoef>
-5.4800

> <Gold.Chemscore.Hbond>
1.9485

> <Gold.Chemscore.Metal>
0.0000

> <Gold.Chemscore.Lipo>
102.7526

> <Gold.Chemscore.Internal_Hbond>
0.0000

> <Gold.Chemscore.DEClash>
0.1549

> <Gold.Chemscore.DEInternal>
2.8639

> <Gold.Chemscore.Rot>
2.6515

> <Gold.Chemscore.Internal.Correction>
   9.000000E+99

> <Gold.Chemscore.Hbonds>
donor molecule, donor type, donor heavy atom, donor atom, acceptor molecule, acceptor atom, score
      L1  H     3    64       P1 10747  0.96
      L1  H    21    50       P1  7948  0.60

> <Gold.Chemscore.Hbond.Weighted>
-6.5080

> <Gold.Chemscore.Metal.Weighted>
-0.0000

> <Gold.Chemscore.Lipo.Weighted>
-12.0221

> <Gold.Chemscore.Internal_Hbond.Weighted>
0.0000

> <Gold.Chemscore.DEClash.Weighted>
0.1549

> <Gold.Chemscore.DEInternal.Weighted>
2.8639

> <Gold.Chemscore.Rot.Weighted>
6.7880

> <Gold.Chemscore.Internal.Correction.Weighted>
   9.000000E+99

> <Gold.Protein.RotatedTorsions>
[ 6907 6896 6895 6894 ] final   82.67 input  -60.11 | X-H torsion
[ 7974 7965 7964 7962 ] final  -51.93 input  175.53 | X-H torsion
[ 8008 7997 7996 7995 ] final  -68.16 input   59.86 | X-H torsion
[ 10167 10162 10161 10158 ] final -161.47 input  -65.29 | X-H torsion
[ 10718 10713 10712 10709 ] final   83.98 input   66.30 | X-H torsion
[ 10763 10752 10751 10750 ] final   26.13 input  -60.55 | X-H torsion
[ 11005 11000 10999 10996 ] final    1.81 input  -57.11 | X-H torsion

> <Gold.Protein.ActiveResidues>
 VAL166  LYS551  ARG553  GLY616  TRP617  ASP618  TYR619  PRO620  LYS621  CYS622 
 ASP623  PHE694  ASN695  SER759  ASP760  ASP761  ALA762  ILE779  LEU786  VAL792 
 PHE793  MET794  SER795  GLU796  ALA797  LYS798  CYS799  TRP800  GLU811  SER814 

> <Gold.Protein.RotatedAtoms>
  152.5306  134.3014  159.9079 H   0  0  0  0  0  0  0  0  0  0  0  0  # atno 6907 bound_to 6896
  151.2964  133.4135  159.2644 H   0  0  0  0  0  0  0  0  0  0  0  0  # atno 6908 bound_to 6896
  151.0156  134.9446  159.8088 H   0  0  0  0  0  0  0  0  0  0  0  0  # atno 6909 bound_to 6896
  145.9135  140.7895  142.9683 H   0  0  0  0  0  0  0  0  0  0  0  0  # atno 7974 bound_to 7965
  154.4849  140.0878  156.7463 H   0  0  0  0  0  0  0  0  0  0  0  0  # atno 8008 bound_to 7997
  155.4376  140.3452  155.4268 H   0  0  0  0  0  0  0  0  0  0  0  0  # atno 8009 bound_to 7997
  156.1246  140.1484  156.9142 H   0  0  0  0  0  0  0  0  0  0  0  0  # atno 8010 bound_to 7997
  139.6463  144.0167  152.2129 H   0  0  0  0  0  0  0  0  0  0  0  0  # atno 10167 bound_to 10162
  157.6889  131.0114  150.2604 H   0  0  0  0  0  0  0  0  0  0  0  0  # atno 10718 bound_to 10713
  153.0643  135.6567  154.0389 H   0  0  0  0  0  0  0  0  0  0  0  0  # atno 10763 bound_to 10752
  154.0050  135.2933  155.3400 H   0  0  0  0  0  0  0  0  0  0  0  0  # atno 10764 bound_to 10752
  154.6995  135.5250  153.8575 H   0  0  0  0  0  0  0  0  0  0  0  0  # atno 10765 bound_to 10752
  140.6113  133.9745  155.8179 H   0  0  0  0  0  0  0  0  0  0  0  0  # atno 11005 bound_to 11000
  144.6745  140.1863  143.7401 LP  0  0  0  0  0  0  0  0  0  0  0  0  # atno 17320 bound_to 7965
  145.8641  139.2238  143.1699 LP  0  0  0  0  0  0  0  0  0  0  0  0  # atno 17321 bound_to 7965
  139.9869  144.6389  150.7849 LP  0  0  0  0  0  0  0  0  0  0  0  0  # atno 17342 bound_to 10162
  140.7516  143.2975  151.3166 LP  0  0  0  0  0  0  0  0  0  0  0  0  # atno 17343 bound_to 10162
  156.3184  130.3782  149.7597 LP  0  0  0  0  0  0  0  0  0  0  0  0  # atno 17370 bound_to 10713
  156.5175  130.8200  151.3191 LP  0  0  0  0  0  0  0  0  0  0  0  0  # atno 17371 bound_to 10713
  141.0806  134.0068  157.3392 LP  0  0  0  0  0  0  0  0  0  0  0  0  # atno 17394 bound_to 11000
  139.9191  135.0199  156.7995 LP  0  0  0  0  0  0  0  0  0  0  0  0  # atno 17395 bound_to 11000

$$$$
