AV-unprocessed.smi:1960|AV-procd|sdf|7916|dock2
  -GOLD-   2272010 83D 1   1.00000     0.00000
 Structure written by MMmdl.
 38 39  0  0  0  0  0  0  0  0  1 V2000
  148.8003  141.6366  156.5598 C   0  0  0  0  0  0  0  0  0  0  0  0
  148.8149  141.5099  154.7247 S   0  0  0  0  0  0  0  0  0  0  0  0
  148.8352  142.8726  154.1714 O   0  0  0  0  0  0  0  0  0  0  0  0
  149.8616  140.5508  154.3395 O   0  0  0  0  0  0  0  0  0  0  0  0
  147.2738  140.8002  154.3363 N   0  0  0  0  0  0  0  0  0  0  0  0
  146.7607  140.8628  152.9530 C   0  0  0  0  0  0  0  0  0  0  0  0
  146.9615  139.5306  152.2095 C   0  0  0  0  0  0  0  0  0  0  0  0
  146.3600  138.3526  152.9947 C   0  0  0  0  0  0  0  0  0  0  0  0
  146.6231  137.0858  152.3173 N   0  0  0  0  0  0  0  0  0  0  0  0
  145.6920  136.1804  151.9830 C   0  0  0  0  0  0  0  0  0  0  0  0
  144.4921  136.3263  152.2149 O   0  0  0  0  0  0  0  0  0  0  0  0
  146.2423  135.1272  151.3534 N   0  0  0  0  0  0  0  0  0  0  0  0
  145.6046  133.9618  150.8475 C   0  0  0  0  0  0  0  0  0  0  0  0
  146.4188  132.8583  150.5185 C   0  0  0  0  0  0  0  0  0  0  0  0
  145.8091  131.6852  150.0306 C   0  0  0  0  0  0  0  0  0  0  0  0
  144.4757  131.5548  149.8680 N   0  0  0  0  0  0  0  0  0  0  0  0
  143.6964  132.6067  150.1967 C   0  0  0  0  0  0  0  0  0  0  0  0
  144.2040  133.8246  150.6924 C   0  0  0  0  0  0  0  0  0  0  0  0
  146.9642  138.3242  154.4063 C   0  0  0  0  0  0  0  0  0  0  0  0
  146.7616  139.6662  155.1318 C   0  0  0  0  0  0  0  0  0  0  0  0
  149.7414  142.0729  156.8931 H   0  0  0  0  0  0  0  0  0  0  0  0
  148.6956  140.6462  156.9994 H   0  0  0  0  0  0  0  0  0  0  0  0
  147.9809  142.2769  156.8815 H   0  0  0  0  0  0  0  0  0  0  0  0
  145.6970  141.1000  152.9916 H   0  0  0  0  0  0  0  0  0  0  0  0
  147.2368  141.6769  152.4072 H   0  0  0  0  0  0  0  0  0  0  0  0
  146.5015  139.5979  151.2230 H   0  0  0  0  0  0  0  0  0  0  0  0
  148.0232  139.3571  152.0369 H   0  0  0  0  0  0  0  0  0  0  0  0
  145.2811  138.4944  153.0843 H   0  0  0  0  0  0  0  0  0  0  0  0
  147.5851  136.8860  152.0860 H   0  0  0  0  0  0  0  0  0  0  0  0
  147.2316  135.1926  151.1639 H   0  0  0  0  0  0  0  0  0  0  0  0
  147.4922  132.9071  150.6302 H   0  0  0  0  0  0  0  0  0  0  0  0
  146.4095  130.8274  149.7655 H   0  0  0  0  0  0  0  0  0  0  0  0
  142.6328  132.4720  150.0670 H   0  0  0  0  0  0  0  0  0  0  0  0
  143.5147  134.6132  150.9513 H   0  0  0  0  0  0  0  0  0  0  0  0
  146.5064  137.5247  154.9898 H   0  0  0  0  0  0  0  0  0  0  0  0
  148.0267  138.0893  154.3515 H   0  0  0  0  0  0  0  0  0  0  0  0
  147.2377  139.6438  156.1116 H   0  0  0  0  0  0  0  0  0  0  0  0
  145.6977  139.8256  155.3113 H   0  0  0  0  0  0  0  0  0  0  0  0
  1  2  1  0  0  0  0
  1 21  1  0  0  0  0
  1 22  1  0  0  0  0
  1 23  1  0  0  0  0
  2  3  2  0  0  0  0
  2  4  2  0  0  0  0
  2  5  1  0  0  0  0
  5 20  1  0  0  0  0
  5  6  1  0  0  0  0
  6  7  1  0  0  0  0
  6 24  1  0  0  0  0
  6 25  1  0  0  0  0
  7  8  1  0  0  0  0
  7 26  1  0  0  0  0
  7 27  1  0  0  0  0
  8  9  1  0  0  0  0
  8 19  1  0  0  0  0
  8 28  1  0  0  0  0
  9 10  1  0  0  0  0
  9 29  1  0  0  0  0
 10 11  2  0  0  0  0
 10 12  1  0  0  0  0
 12 13  1  0  0  0  0
 12 30  1  0  0  0  0
 13 18  1  0  0  0  0
 13 14  2  0  0  0  0
 14 15  1  0  0  0  0
 14 31  1  0  0  0  0
 15 16  2  0  0  0  0
 15 32  1  0  0  0  0
 16 17  1  0  0  0  0
 17 18  2  0  0  0  0
 17 33  1  0  0  0  0
 18 34  1  0  0  0  0
 19 20  1  0  0  0  0
 19 35  1  0  0  0  0
 19 36  1  0  0  0  0
 20 37  1  0  0  0  0
 20 38  1  0  0  0  0
M  END
> <s_m_source_file>
AV-unprocessed.smi

> <i_m_source_file_index>
1960

> <i_lp_mmshare_version>
43012

> <i_f3d_flags>
0

> <s_epik_input>
W0NIM11TKD1PKSg9TylOMVtDSDJdW0NIMl1bQ0hdKFtDSDJdW0NIMl0xKVtOSF1DKD1PKVtOSF1jMltjSF1bY0hdbltjSF1bY0hdMg==

> <s_epik_cmdline>
J2VwaWtfcHl0aG9uJywgJy1waCcsICc3LjAnLCAnLXRuJywgJzgnLCAnLW1hJywgJzIwMCcsICctbWV0YWxfYmluZGluZycsICctaW1hZScsICc8aW5maWxlLm1hZT4nLCAnLW9tYWUnLCAnPG91dGZpbGUubWFlPic=

> <r_epik_Ionization_Penalty>
0.116752

> <r_epik_Ionization_Penalty_Charging>
0

> <r_epik_Ionization_Penalty_Neutral>
0.116752

> <r_epik_State_Penalty>
0.106329

> <r_epik_Charging_Adjusted_Penalty>
0.106329

> <i_epik_Tot_Q>
0

> <i_epik_Tot_abs_Q>
0

> <r_epik_Metal_State_Penalty>
0.0886803

> <b_epik_Metal_Only>
0

> <s_lp_Force_Field>
OPLS_2005

> <r_lp_Energy>
6.48368

> <b_lp_Chiralities_Consistent>
1

> <s_lp_Variant>
AV-unprocessed.smi:1960-1

> <Gold.Version>
5.8.1

> <Gold.Id.Protein>
6NUR|6NUR_protein|mol2

> <Gold.PLP.Fitness>
42.4750

> <Gold.PLP.PLP>
-26.0855

> <Gold.PLP.part.hbond>
-5.7282

> <Gold.PLP.part.metal>
0.0000

> <Gold.PLP.part.buried>
0.4003

> <Gold.PLP.part.nonpolar>
-27.5059

> <Gold.PLP.part.repulsive>
5.7878

> <Gold.PLP.ligand.clash>
0.0000

> <Gold.PLP.ligand.torsion>
1.2693

> <Gold.PLP.Chemscore.Hbond>
3.8692

> <Gold.PLP.Chemscore.CHOScore>
1.7560

> <Gold.PLP.Chemscore.Metal>
0.0000

> <Gold.Chemscore.Hbonds>
donor molecule, donor type, donor heavy atom, donor atom, acceptor molecule, acceptor atom, score
      L1  H     9    29       P1  7948  0.96
      L1  H    12    30       P1  7948  0.74
      P1  H  7989  7998       L1     4  0.77
      P1  H  8022  8030       L1     3  1.00
      P1  H 10785 10796       L1    16  0.29
      L1  C    15    32       P1 10747  0.67
      L1  C    17    33       P1 10186  0.76
      L1  C    17    33       P1 10952  0.26

> <Gold.PLP.Chemscore.Internal.Correction>
2.0525

> <Gold.Rescore>
     Score         DG    S(hbond)    S(metal)    S(lipo)     H(rot)  DE(clash)    DE(int)     intcor
     17.76     -22.91       3.45        0.00      72.49       1.00       2.66       2.49       ----

> <Gold.Chemscore.Fitness>
17.7620

> <Gold.Chemscore.DG>
-22.9139

> <Gold.Chemscore.ZeroCoef>
-5.4800

> <Gold.Chemscore.Hbond>
3.4468

> <Gold.Chemscore.Metal>
0.0000

> <Gold.Chemscore.Lipo>
72.4908

> <Gold.Chemscore.Internal_Hbond>
0.0000

> <Gold.Chemscore.DEClash>
2.6642

> <Gold.Chemscore.DEInternal>
2.4876

> <Gold.Chemscore.Rot>
1.0000

> <Gold.Chemscore.Internal.Correction>
   9.000000E+99

> <Gold.Chemscore.Hbonds>
donor molecule, donor type, donor heavy atom, donor atom, acceptor molecule, acceptor atom, score
      L1  H     9    29       P1  7948  0.91
      L1  H    12    30       P1  7948  0.47
      P1  H  7989  7998       L1     4  0.76
      P1  H  8011  8017       L1     3  0.01
      P1  H  8022  8030       L1     3  0.97
      P1  H 10785 10796       L1    16  0.18

> <Gold.Chemscore.Hbond.Weighted>
-11.5125

> <Gold.Chemscore.Metal.Weighted>
-0.0000

> <Gold.Chemscore.Lipo.Weighted>
-8.4814

> <Gold.Chemscore.Internal_Hbond.Weighted>
0.0000

> <Gold.Chemscore.DEClash.Weighted>
2.6642

> <Gold.Chemscore.DEInternal.Weighted>
2.4876

> <Gold.Chemscore.Rot.Weighted>
2.5600

> <Gold.Chemscore.Internal.Correction.Weighted>
   9.000000E+99

> <Gold.Protein.RotatedTorsions>
[ 6907 6896 6895 6894 ] final   41.87 input  -60.11 | X-H torsion
[ 7974 7965 7964 7962 ] final   98.97 input  175.53 | X-H torsion
[ 8008 7997 7996 7995 ] final -167.58 input   59.86 | X-H torsion
[ 10167 10162 10161 10158 ] final  157.21 input  -65.29 | X-H torsion
[ 10718 10713 10712 10709 ] final   31.77 input   66.30 | X-H torsion
[ 10763 10752 10751 10750 ] final  -68.03 input  -60.55 | X-H torsion
[ 11005 11000 10999 10996 ] final   72.09 input  -57.11 | X-H torsion

> <Gold.Protein.ActiveResidues>
 VAL166  LYS551  ARG553  GLY616  TRP617  ASP618  TYR619  PRO620  LYS621  CYS622 
 ASP623  PHE694  ASN695  SER759  ASP760  ASP761  ALA762  ILE779  LEU786  VAL792 
 PHE793  MET794  SER795  GLU796  ALA797  LYS798  CYS799  TRP800  GLU811  SER814 

> <Gold.Protein.RotatedAtoms>
  152.2008  134.8590  160.0507 H   0  0  0  0  0  0  0  0  0  0  0  0  # atno 6907 bound_to 6896
  151.9444  133.3642  159.3985 H   0  0  0  0  0  0  0  0  0  0  0  0  # atno 6908 bound_to 6896
  150.6954  134.4330  159.5301 H   0  0  0  0  0  0  0  0  0  0  0  0  # atno 6909 bound_to 6896
  145.4051  139.2342  143.3279 H   0  0  0  0  0  0  0  0  0  0  0  0  # atno 7974 bound_to 7965
  155.8796  140.1007  157.1494 H   0  0  0  0  0  0  0  0  0  0  0  0  # atno 8008 bound_to 7997
  154.4004  140.1331  156.4243 H   0  0  0  0  0  0  0  0  0  0  0  0  # atno 8009 bound_to 7997
  155.7658  140.3462  155.5223 H   0  0  0  0  0  0  0  0  0  0  0  0  # atno 8010 bound_to 7997
  139.4822  144.4938  151.8270 H   0  0  0  0  0  0  0  0  0  0  0  0  # atno 10167 bound_to 10162
  157.2767  130.7235  149.6534 H   0  0  0  0  0  0  0  0  0  0  0  0  # atno 10718 bound_to 10713
  154.3831  135.6069  153.5802 H   0  0  0  0  0  0  0  0  0  0  0  0  # atno 10763 bound_to 10752
  152.9788  135.5865  154.4386 H   0  0  0  0  0  0  0  0  0  0  0  0  # atno 10764 bound_to 10752
  154.4158  135.2845  155.1985 H   0  0  0  0  0  0  0  0  0  0  0  0  # atno 10765 bound_to 10752
  139.9509  134.7229  156.0865 H   0  0  0  0  0  0  0  0  0  0  0  0  # atno 11005 bound_to 11000
  146.2733  140.4754  142.8806 LP  0  0  0  0  0  0  0  0  0  0  0  0  # atno 17320 bound_to 7965
  144.8347  140.6763  143.6268 LP  0  0  0  0  0  0  0  0  0  0  0  0  # atno 17321 bound_to 7965
  140.4424  144.1967  150.5892 LP  0  0  0  0  0  0  0  0  0  0  0  0  # atno 17342 bound_to 10162
  140.4669  143.2427  151.9143 LP  0  0  0  0  0  0  0  0  0  0  0  0  # atno 17343 bound_to 10162
  155.9664  130.4350  150.5075 LP  0  0  0  0  0  0  0  0  0  0  0  0  # atno 17370 bound_to 10713
  157.3011  131.0645  151.2067 LP  0  0  0  0  0  0  0  0  0  0  0  0  # atno 17371 bound_to 10713
  141.1171  133.6624  156.3122 LP  0  0  0  0  0  0  0  0  0  0  0  0  # atno 17394 bound_to 11000
  140.5722  134.5829  157.5460 LP  0  0  0  0  0  0  0  0  0  0  0  0  # atno 17395 bound_to 11000

$$$$
