AV-unprocessed.smi:1374|AV-procd|sdf|5587|dock5
  -GOLD-   22720 5183D 1   1.00000     0.00000
 Structure written by MMmdl.
 43 44  0  0  0  0  0  0  0  0  1 V2000
  145.9067  134.0830  150.7099 C   0  0  0  0  0  0  0  0  0  0  0  0
  146.2807  132.6543  151.1189 C   0  0  0  0  0  0  0  0  0  0  0  0
  146.8133  132.5738  152.5556 C   0  0  0  0  0  0  0  0  0  0  0  0
  148.2571  133.0898  152.6748 C   0  0  0  0  0  0  0  0  0  0  0  0
  148.7247  133.1157  154.0462 N   0  0  0  0  0  0  0  0  0  0  0  0
  148.9713  134.2943  154.7567 C   0  0  0  0  0  0  0  0  0  0  0  0
  148.7746  135.5008  154.1007 N   0  0  0  0  0  0  0  0  0  0  0  0
  149.4439  134.2746  156.0395 C   0  0  0  0  0  0  0  0  0  0  0  0
  149.6799  135.4655  156.7596 N   0  0  0  0  0  0  0  0  0  0  0  0
  148.8016  135.7156  157.9085 C   0  0  0  0  0  0  0  0  0  0  0  0
  150.6870  136.3488  156.4945 C   0  0  0  0  0  0  0  0  0  0  0  0
  151.3250  136.2810  155.4414 O   0  0  0  0  0  0  0  0  0  0  0  0
  150.9972  137.3419  157.5287 C   0  0  0  0  0  0  0  0  0  0  0  0
  151.2246  138.6217  157.1532 C   0  0  0  0  0  0  0  0  0  0  0  0
  151.5783  139.6232  158.0228 O   0  0  0  0  0  0  0  0  0  0  0  0
  151.9387  139.1815  159.3263 C   0  0  0  0  0  0  0  0  0  0  0  0
  151.0080  138.0505  159.7849 C   0  0  0  0  0  0  0  0  0  0  0  0
  151.0601  136.9762  158.8551 O   0  0  0  0  0  0  0  0  0  0  0  0
  149.6692  132.9957  156.7307 C   0  0  0  0  0  0  0  0  0  0  0  0
  150.0445  132.8634  157.8949 O   0  0  0  0  0  0  0  0  0  0  0  0
  149.4302  131.8620  155.9591 N   0  0  0  0  0  0  0  0  0  0  0  0
  148.9871  131.8587  154.6417 C   0  0  0  0  0  0  0  0  0  0  0  0
  148.8426  130.7848  154.0566 O   0  0  0  0  0  0  0  0  0  0  0  0
  149.5970  130.9654  156.3918 H   0  0  0  0  0  0  0  0  0  0  0  0
  145.5330  134.1088  149.6861 H   0  0  0  0  0  0  0  0  0  0  0  0
  146.7695  134.7473  150.7657 H   0  0  0  0  0  0  0  0  0  0  0  0
  145.1290  134.4875  151.3580 H   0  0  0  0  0  0  0  0  0  0  0  0
  145.4058  132.0112  151.0163 H   0  0  0  0  0  0  0  0  0  0  0  0
  147.0313  132.2676  150.4288 H   0  0  0  0  0  0  0  0  0  0  0  0
  146.1620  133.1490  153.2150 H   0  0  0  0  0  0  0  0  0  0  0  0
  146.7665  131.5403  152.9018 H   0  0  0  0  0  0  0  0  0  0  0  0
  148.9531  132.4669  152.1134 H   0  0  0  0  0  0  0  0  0  0  0  0
  148.3734  134.0906  152.2550 H   0  0  0  0  0  0  0  0  0  0  0  0
  148.4633  135.5382  153.1404 H   0  0  0  0  0  0  0  0  0  0  0  0
  148.8571  136.3863  154.5790 H   0  0  0  0  0  0  0  0  0  0  0  0
  148.2832  136.6692  157.7987 H   0  0  0  0  0  0  0  0  0  0  0  0
  149.3747  135.7406  158.8366 H   0  0  0  0  0  0  0  0  0  0  0  0
  148.0433  134.9393  158.0206 H   0  0  0  0  0  0  0  0  0  0  0  0
  151.1845  138.9787  156.1340 H   0  0  0  0  0  0  0  0  0  0  0  0
  152.9746  138.8399  159.3149 H   0  0  0  0  0  0  0  0  0  0  0  0
  151.8852  140.0237  160.0160 H   0  0  0  0  0  0  0  0  0  0  0  0
  151.3014  137.6844  160.7689 H   0  0  0  0  0  0  0  0  0  0  0  0
  149.9801  138.4066  159.8670 H   0  0  0  0  0  0  0  0  0  0  0  0
  1  2  1  0  0  0  0
  1 25  1  0  0  0  0
  1 26  1  0  0  0  0
  1 27  1  0  0  0  0
  2  3  1  0  0  0  0
  2 28  1  0  0  0  0
  2 29  1  0  0  0  0
  3  4  1  0  0  0  0
  3 30  1  0  0  0  0
  3 31  1  0  0  0  0
  4  5  1  0  0  0  0
  4 32  1  0  0  0  0
  4 33  1  0  0  0  0
  5 22  1  0  0  0  0
  5  6  1  0  0  0  0
  6  7  1  0  0  0  0
  6  8  2  0  0  0  0
  7 34  1  0  0  0  0
  7 35  1  0  0  0  0
  8  9  1  0  0  0  0
  8 19  1  0  0  0  0
  9 10  1  0  0  0  0
  9 11  1  0  0  0  0
 10 36  1  0  0  0  0
 10 37  1  0  0  0  0
 10 38  1  0  0  0  0
 11 12  2  0  0  0  0
 11 13  1  0  0  0  0
 13 18  1  0  0  0  0
 13 14  2  0  0  0  0
 14 15  1  0  0  0  0
 14 39  1  0  0  0  0
 15 16  1  0  0  0  0
 16 17  1  0  0  0  0
 16 40  1  0  0  0  0
 16 41  1  0  0  0  0
 17 18  1  0  0  0  0
 17 42  1  0  0  0  0
 17 43  1  0  0  0  0
 19 20  2  0  0  0  0
 19 21  1  0  0  0  0
 21 24  1  0  0  0  0
 21 22  1  0  0  0  0
 22 23  2  0  0  0  0
M  END
> <s_m_source_file>
AV-unprocessed.smi

> <i_m_source_file_index>
1374

> <i_lp_mmshare_version>
43012

> <i_f3d_flags>
0

> <s_epik_input>
W0NIM11bQ0gyXVtDSDJdW0NIMl1uMWMoW05IMl0pYyhjKD1PKVtuSF1jMT1PKU4oW0NIM10pQyg9TylDMj1bQ0hdT1tDSDJdW0NIMl1PMg==

> <s_epik_cmdline>
J2VwaWtfcHl0aG9uJywgJy1waCcsICc3LjAnLCAnLXRuJywgJzgnLCAnLW1hJywgJzIwMCcsICctbWV0YWxfYmluZGluZycsICctaW1hZScsICc8aW5maWxlLm1hZT4nLCAnLW9tYWUnLCAnPG91dGZpbGUubWFlPic=

> <r_lp_tautomer_probability>
1

> <r_epik_Ionization_Penalty>
3.28524e-05

> <r_epik_Ionization_Penalty_Charging>
2.39265e-05

> <r_epik_Ionization_Penalty_Neutral>
8.92594e-06

> <r_epik_State_Penalty>
-0

> <r_epik_Charging_Adjusted_Penalty>
2.39265e-05

> <i_epik_Tot_Q>
0

> <i_epik_Tot_abs_Q>
0

> <r_epik_Metal_State_Penalty>
0.0232519

> <b_epik_Metal_Only>
0

> <s_epik_Chemistry_Notes>
This compound has an imine and may undergo hydrolysis.

> <s_lp_Force_Field>
OPLS_2005

> <r_lp_Energy>
27.3757

> <b_lp_Chiralities_Consistent>
1

> <s_lp_Variant>
AV-unprocessed.smi:1374-1

> <Gold.Version>
5.8.1

> <Gold.Id.Protein>
6NUR|6NUR_protein|mol2

> <Gold.PLP.Fitness>
39.2583

> <Gold.PLP.PLP>
-29.6524

> <Gold.PLP.part.hbond>
-3.5047

> <Gold.PLP.part.metal>
0.0000

> <Gold.PLP.part.buried>
-3.1984

> <Gold.PLP.part.nonpolar>
-23.6745

> <Gold.PLP.part.repulsive>
0.1842

> <Gold.PLP.ligand.clash>
0.0000

> <Gold.PLP.ligand.torsion>
2.2469

> <Gold.PLP.Chemscore.Hbond>
3.5680

> <Gold.PLP.Chemscore.CHOScore>
0.0000

> <Gold.PLP.Chemscore.Metal>
0.0000

> <Gold.Chemscore.Hbonds>
donor molecule, donor type, donor heavy atom, donor atom, acceptor molecule, acceptor atom, score
      L1  H     7    34       P1  7948  0.67
      P1  H  6896  6907       L1    18  0.76
      P1  H  6896  6909       L1    20  1.00
      P1  H 10752 10763       L1    12  1.00

> <Gold.PLP.Chemscore.Internal.Correction>
3.3957

> <Gold.Rescore>
     Score         DG    S(hbond)    S(metal)    S(lipo)     H(rot)  DE(clash)    DE(int)     intcor
     15.41     -19.39       3.49        0.00      51.91       1.49       0.18       3.80       ----

> <Gold.Chemscore.Fitness>
15.4077

> <Gold.Chemscore.DG>
-19.3862

> <Gold.Chemscore.ZeroCoef>
-5.4800

> <Gold.Chemscore.Hbond>
3.4853

> <Gold.Chemscore.Metal>
0.0000

> <Gold.Chemscore.Lipo>
51.9099

> <Gold.Chemscore.Internal_Hbond>
0.0000

> <Gold.Chemscore.DEClash>
0.1783

> <Gold.Chemscore.DEInternal>
3.8002

> <Gold.Chemscore.Rot>
1.4875

> <Gold.Chemscore.Internal.Correction>
   9.000000E+99

> <Gold.Chemscore.Hbonds>
donor molecule, donor type, donor heavy atom, donor atom, acceptor molecule, acceptor atom, score
      L1  H     7    34       P1  7948  0.63
      P1  H  6896  6907       L1    18  0.50
      P1  H  6896  6909       L1    20  1.00
      P1  H 10752 10763       L1    12  0.99

> <Gold.Chemscore.Hbond.Weighted>
-11.6408

> <Gold.Chemscore.Metal.Weighted>
-0.0000

> <Gold.Chemscore.Lipo.Weighted>
-6.0735

> <Gold.Chemscore.Internal_Hbond.Weighted>
0.0000

> <Gold.Chemscore.DEClash.Weighted>
0.1783

> <Gold.Chemscore.DEInternal.Weighted>
3.8002

> <Gold.Chemscore.Rot.Weighted>
3.8081

> <Gold.Chemscore.Internal.Correction.Weighted>
   9.000000E+99

> <Gold.Protein.RotatedTorsions>
[ 6907 6896 6895 6894 ] final  -14.31 input  -60.11 | X-H torsion
[ 7974 7965 7964 7962 ] final   99.81 input  175.53 | X-H torsion
[ 8008 7997 7996 7995 ] final -177.89 input   59.86 | X-H torsion
[ 10167 10162 10161 10158 ] final  172.67 input  -65.29 | X-H torsion
[ 10718 10713 10712 10709 ] final -172.32 input   66.30 | X-H torsion
[ 10763 10752 10751 10750 ] final   75.72 input  -60.55 | X-H torsion
[ 11005 11000 10999 10996 ] final  113.37 input  -57.11 | X-H torsion

> <Gold.Protein.ActiveResidues>
 VAL166  LYS551  ARG553  GLY616  TRP617  ASP618  TYR619  PRO620  LYS621  CYS622 
 ASP623  PHE694  ASN695  SER759  ASP760  ASP761  ALA762  ILE779  LEU786  VAL792 
 PHE793  MET794  SER795  GLU796  ALA797  LYS798  CYS799  TRP800  GLU811  SER814 

> <Gold.Protein.RotatedAtoms>
  151.3414  135.0864  159.9372 H   0  0  0  0  0  0  0  0  0  0  0  0  # atno 6907 bound_to 6896
  152.5210  133.9443  159.7652 H   0  0  0  0  0  0  0  0  0  0  0  0  # atno 6908 bound_to 6896
  150.9801  133.6201  159.2753 H   0  0  0  0  0  0  0  0  0  0  0  0  # atno 6909 bound_to 6896
  145.3940  139.2358  143.3336 H   0  0  0  0  0  0  0  0  0  0  0  0  # atno 7974 bound_to 7965
  156.0124  140.1243  157.0441 H   0  0  0  0  0  0  0  0  0  0  0  0  # atno 8008 bound_to 7997
  154.4280  140.1085  156.5917 H   0  0  0  0  0  0  0  0  0  0  0  0  # atno 8009 bound_to 7997
  155.6061  140.3471  155.4610 H   0  0  0  0  0  0  0  0  0  0  0  0  # atno 8010 bound_to 7997
  139.5084  144.3347  152.0077 H   0  0  0  0  0  0  0  0  0  0  0  0  # atno 10167 bound_to 10162
  156.7539  130.9388  151.3115 H   0  0  0  0  0  0  0  0  0  0  0  0  # atno 10718 bound_to 10713
  153.0674  135.4978  154.8230 H   0  0  0  0  0  0  0  0  0  0  0  0  # atno 10763 bound_to 10752
  154.6974  135.2995  154.9394 H   0  0  0  0  0  0  0  0  0  0  0  0  # atno 10764 bound_to 10752
  154.0129  135.6752  153.4819 H   0  0  0  0  0  0  0  0  0  0  0  0  # atno 10765 bound_to 10752
  139.8951  134.9548  156.6729 H   0  0  0  0  0  0  0  0  0  0  0  0  # atno 11005 bound_to 11000
  146.2784  140.4627  142.8786 LP  0  0  0  0  0  0  0  0  0  0  0  0  # atno 17320 bound_to 7965
  144.8420  140.6872  143.6223 LP  0  0  0  0  0  0  0  0  0  0  0  0  # atno 17321 bound_to 7965
  140.2786  144.3885  150.6126 LP  0  0  0  0  0  0  0  0  0  0  0  0  # atno 17342 bound_to 10162
  140.6035  143.2167  151.7026 LP  0  0  0  0  0  0  0  0  0  0  0  0  # atno 17343 bound_to 10162
  157.6765  130.9099  150.0163 LP  0  0  0  0  0  0  0  0  0  0  0  0  # atno 17370 bound_to 10713
  156.1383  130.3642  149.9622 LP  0  0  0  0  0  0  0  0  0  0  0  0  # atno 17371 bound_to 10713
  140.7359  133.9019  155.8244 LP  0  0  0  0  0  0  0  0  0  0  0  0  # atno 17394 bound_to 11000
  141.0116  134.1012  157.4215 LP  0  0  0  0  0  0  0  0  0  0  0  0  # atno 17395 bound_to 11000

$$$$
