AV-unprocessed.smi:218|AV-procd|sdf|1671|dock6
  -GOLD-   2262020 83D 1   1.00000     0.00000
 Structure written by MMmdl.
 54 57  0  0  0  0  0  0  0  0  1 V2000
  142.4086  144.7987  154.8478 C   0  0  0  0  0  0  0  0  0  0  0  0
  140.9925  144.8152  154.2594 C   0  0  0  0  0  0  0  0  0  0  0  0
  140.0115  145.5489  155.1900 C   0  0  0  0  0  0  0  0  0  0  0  0
  140.5946  143.4527  154.0936 O   0  0  0  0  0  0  0  0  0  0  0  0
  140.7714  142.5475  155.1226 C   0  0  0  0  0  0  0  0  0  0  0  0
  141.4271  141.3320  154.8382 C   0  0  0  0  0  0  0  0  0  0  0  0
  141.6078  140.3968  155.8769 C   0  0  0  0  0  0  0  0  0  0  0  0
  142.3158  139.0848  155.6158 C   0  0  0  0  0  0  0  0  0  0  0  0
  142.6985  138.9240  154.2227 N   0  0  0  0  0  0  0  0  0  0  0  0
  142.7374  137.7021  153.6510 C   0  0  0  0  0  0  0  0  0  0  0  0
  141.6209  136.9511  153.8075 N   0  0  0  0  0  0  0  0  0  0  0  0
  141.5555  135.7262  153.2791 C   0  0  0  0  0  0  0  0  0  0  0  0
  142.4779  135.0744  152.5701 N   0  0  0  0  0  0  0  0  0  0  0  0
  143.6068  135.8230  152.4067 C   0  0  0  0  0  0  0  0  0  0  0  0
  143.8201  137.1379  152.9120 C   0  0  0  0  0  0  0  0  0  0  0  0
  145.0919  137.5668  152.5445 N   0  0  0  0  0  0  0  0  0  0  0  0
  145.5909  136.5679  151.8689 C   0  0  0  0  0  0  0  0  0  0  0  0
  144.7595  135.4809  151.7304 N   0  0  0  0  0  0  0  0  0  0  0  0
  145.0424  134.1970  151.0229 C   0  0  1  0  0  0  0  0  0  0  0  0
  145.0982  133.1922  151.9853 O   0  0  0  0  0  0  0  0  0  0  0  0
  144.5322  131.9981  151.4677 C   0  0  2  0  0  0  0  0  0  0  0  0
  145.6447  131.0573  150.9578 C   0  0  0  0  0  0  0  0  0  0  0  0
  146.4254  131.6298  149.9289 O   0  0  0  0  0  0  0  0  0  0  0  0
  143.4924  132.4445  150.4287 C   0  0  1  0  0  0  0  0  0  0  0  0
  142.2160  132.4735  151.0372 O   0  0  0  0  0  0  0  0  0  0  0  0
  143.9210  133.8558  150.0218 C   0  0  2  0  0  0  0  0  0  0  0  0
  144.4074  133.8398  148.6947 O   0  0  0  0  0  0  0  0  0  0  0  0
  141.1294  140.7133  157.1636 C   0  0  0  0  0  0  0  0  0  0  0  0
  140.4864  141.9519  157.3512 C   0  0  0  0  0  0  0  0  0  0  0  0
  140.3071  142.8511  156.3605 N   0  0  0  0  0  0  0  0  0  0  0  0
  146.0208  134.3318  150.5587 H   0  0  0  0  0  0  0  0  0  0  0  0
  144.0481  131.4866  152.3013 H   0  0  0  0  0  0  0  0  0  0  0  0
  143.4367  131.7550  149.5850 H   0  0  0  0  0  0  0  0  0  0  0  0
  143.1001  134.5720  150.0886 H   0  0  0  0  0  0  0  0  0  0  0  0
  142.7856  145.8115  154.9929 H   0  0  0  0  0  0  0  0  0  0  0  0
  143.1004  144.2801  154.1837 H   0  0  0  0  0  0  0  0  0  0  0  0
  142.4308  144.2920  155.8130 H   0  0  0  0  0  0  0  0  0  0  0  0
  141.0499  145.3290  153.2987 H   0  0  0  0  0  0  0  0  0  0  0  0
  140.3249  146.5806  155.3510 H   0  0  0  0  0  0  0  0  0  0  0  0
  139.9555  145.0622  156.1640 H   0  0  0  0  0  0  0  0  0  0  0  0
  139.0038  145.5760  154.7761 H   0  0  0  0  0  0  0  0  0  0  0  0
  141.7845  141.1235  153.8403 H   0  0  0  0  0  0  0  0  0  0  0  0
  143.2031  139.0252  156.2475 H   0  0  0  0  0  0  0  0  0  0  0  0
  141.6511  138.2710  155.9076 H   0  0  0  0  0  0  0  0  0  0  0  0
  142.9614  139.7705  153.7392 H   0  0  0  0  0  0  0  0  0  0  0  0
  140.6316  135.1925  153.4472 H   0  0  0  0  0  0  0  0  0  0  0  0
  146.5855  136.5989  151.4479 H   0  0  0  0  0  0  0  0  0  0  0  0
  146.2926  130.7503  151.7792 H   0  0  0  0  0  0  0  0  0  0  0  0
  145.1938  130.1495  150.5563 H   0  0  0  0  0  0  0  0  0  0  0  0
  147.3348  131.5890  150.1833 H   0  0  0  0  0  0  0  0  0  0  0  0
  141.6735  133.0852  150.5614 H   0  0  0  0  0  0  0  0  0  0  0  0
  145.2437  134.2792  148.6769 H   0  0  0  0  0  0  0  0  0  0  0  0
  141.2516  140.0274  157.9891 H   0  0  0  0  0  0  0  0  0  0  0  0
  140.1062  142.2288  158.3233 H   0  0  0  0  0  0  0  0  0  0  0  0
  1  2  1  0  0  0  0
  1 35  1  0  0  0  0
  1 36  1  0  0  0  0
  1 37  1  0  0  0  0
  2  3  1  0  0  0  0
  2  4  1  0  0  0  0
  2 38  1  0  0  0  0
  3 39  1  0  0  0  0
  3 40  1  0  0  0  0
  3 41  1  0  0  0  0
  4  5  1  0  0  0  0
  5 30  1  0  0  0  0
  5  6  2  0  0  0  0
  6  7  1  0  0  0  0
  6 42  1  0  0  0  0
  7  8  1  0  0  0  0
  7 28  2  0  0  0  0
  8  9  1  0  0  0  0
  8 43  1  0  0  0  0
  8 44  1  0  0  0  0
  9 10  1  0  0  0  0
  9 45  1  0  0  0  0
 10 15  1  0  0  0  0
 10 11  2  0  0  0  0
 11 12  1  0  0  0  0
 12 13  2  0  0  0  0
 12 46  1  0  0  0  0
 13 14  1  0  0  0  0
 14 18  1  0  0  0  0
 14 15  2  0  0  0  0
 15 16  1  0  0  0  0
 16 17  2  0  0  0  0
 17 18  1  0  0  0  0
 17 47  1  0  0  0  0
 18 19  1  0  0  0  0
 19 31  1  0  0  0  0
 19 26  1  0  0  0  0
 19 20  1  0  0  0  0
 20 21  1  0  0  0  0
 21 32  1  0  0  0  0
 21 22  1  0  0  0  0
 21 24  1  0  0  0  0
 22 23  1  0  0  0  0
 22 48  1  0  0  0  0
 22 49  1  0  0  0  0
 23 50  1  0  0  0  0
 24 33  1  0  0  0  0
 24 25  1  0  0  0  0
 24 26  1  0  0  0  0
 25 51  1  0  0  0  0
 26 34  1  0  0  0  0
 26 27  1  0  0  0  0
 27 52  1  0  0  0  0
 28 29  1  0  0  0  0
 28 53  1  0  0  0  0
 29 30  2  0  0  0  0
 29 54  1  0  0  0  0
M  END
> <s_m_source_file>
AV-unprocessed.smi

> <i_m_source_file_index>
218

> <i_lp_mmshare_version>
43012

> <i_f3d_flags>
0

> <s_epik_input>
W0NIM11bQ0hdKFtDSDNdKU9jMVtjSF1jKFtjSF1bY0hdbjEpW0NIMl1bTkhdYyhuW2NIXW4yKWMoYzIzKW5bY0hdbjNbQ0BASF00T1tDQEhdKFtDSDJdW09IXSlbQ0BASF0oW09IXSlbQ0BIXTRbT0hd

> <s_epik_cmdline>
J2VwaWtfcHl0aG9uJywgJy1waCcsICc3LjAnLCAnLXRuJywgJzgnLCAnLW1hJywgJzIwMCcsICctbWV0YWxfYmluZGluZycsICctaW1hZScsICc8aW5maWxlLm1hZT4nLCAnLW9tYWUnLCAnPG91dGZpbGUubWFlPic=

> <r_lp_tautomer_probability>
1

> <r_epik_Ionization_Penalty>
0.00457014

> <r_epik_Ionization_Penalty_Charging>
0

> <r_epik_Ionization_Penalty_Neutral>
0.00457014

> <r_epik_State_Penalty>
-0

> <r_epik_Charging_Adjusted_Penalty>
0

> <i_epik_Tot_Q>
0

> <i_epik_Tot_abs_Q>
0

> <r_epik_Metal_State_Penalty>
-0

> <b_epik_Metal_Only>
0

> <s_epik_Chemistry_Notes>
This compound contains an acetal/aminal-like group ( X-CH(R)-Y where X, Y are N, S, or O) that may be acid/base labile, releasing an aldehyde.

> <s_lp_Force_Field>
OPLS_2005

> <r_lp_Energy>
37.7133

> <b_lp_Chiralities_Consistent>
1

> <s_lp_Variant>
AV-unprocessed.smi:218-10

> <Gold.Version>
5.8.1

> <Gold.Id.Protein>
6NUR|6NUR_protein|mol2

> <Gold.PLP.Fitness>
48.7671

> <Gold.PLP.PLP>
-33.2025

> <Gold.PLP.part.hbond>
-5.1562

> <Gold.PLP.part.metal>
0.0000

> <Gold.PLP.part.buried>
-3.9578

> <Gold.PLP.part.nonpolar>
-27.4065

> <Gold.PLP.part.repulsive>
1.4753

> <Gold.PLP.ligand.clash>
0.0000

> <Gold.PLP.ligand.torsion>
0.9043

> <Gold.PLP.Chemscore.Hbond>
4.7720

> <Gold.PLP.Chemscore.CHOScore>
1.0000

> <Gold.PLP.Chemscore.Metal>
0.0000

> <Gold.Chemscore.Hbonds>
donor molecule, donor type, donor heavy atom, donor atom, acceptor molecule, acceptor atom, score
      L1  H     9    45       P1 10175  0.99
      L1  H    23    50       P1 10747  1.00
      L1  H    25    51       P1 10186  1.00
      L1  H    27    52       P1  7921  0.59
      P1  H 10162 10167       L1     4  1.00
      L1  C    17    47       P1  7948  1.00

> <Gold.PLP.Chemscore.Internal.Correction>
0.0573

> <Gold.Rescore>
     Score         DG    S(hbond)    S(metal)    S(lipo)     H(rot)  DE(clash)    DE(int)     intcor
     10.81     -14.80       4.36        0.00      62.37       4.90       2.47       1.52       ----

> <Gold.Chemscore.Fitness>
10.8058

> <Gold.Chemscore.DG>
-14.7967

> <Gold.Chemscore.ZeroCoef>
-5.4800

> <Gold.Chemscore.Hbond>
4.3626

> <Gold.Chemscore.Metal>
0.0000

> <Gold.Chemscore.Lipo>
62.3691

> <Gold.Chemscore.Internal_Hbond>
0.0000

> <Gold.Chemscore.DEClash>
2.4679

> <Gold.Chemscore.DEInternal>
1.5230

> <Gold.Chemscore.Rot>
4.9029

> <Gold.Chemscore.Internal.Correction>
   9.000000E+99

> <Gold.Chemscore.Hbonds>
donor molecule, donor type, donor heavy atom, donor atom, acceptor molecule, acceptor atom, score
      L1  H     9    45       P1 10175  0.91
      L1  H    23    50       P1 10747  0.98
      L1  H    25    51       P1 10186  0.98
      L1  H    27    52       P1  7921  0.57
      P1  H 10162 10167       L1     4  0.32

> <Gold.Chemscore.Hbond.Weighted>
-14.5711

> <Gold.Chemscore.Metal.Weighted>
-0.0000

> <Gold.Chemscore.Lipo.Weighted>
-7.2972

> <Gold.Chemscore.Internal_Hbond.Weighted>
0.0000

> <Gold.Chemscore.DEClash.Weighted>
2.4679

> <Gold.Chemscore.DEInternal.Weighted>
1.5230

> <Gold.Chemscore.Rot.Weighted>
12.5515

> <Gold.Chemscore.Internal.Correction.Weighted>
   9.000000E+99

> <Gold.Protein.RotatedTorsions>
[ 6907 6896 6895 6894 ] final  169.54 input  -60.11 | X-H torsion
[ 7974 7965 7964 7962 ] final  -74.67 input  175.53 | X-H torsion
[ 8008 7997 7996 7995 ] final    4.64 input   59.86 | X-H torsion
[ 10167 10162 10161 10158 ] final -105.45 input  -65.29 | X-H torsion
[ 10718 10713 10712 10709 ] final -166.31 input   66.30 | X-H torsion
[ 10763 10752 10751 10750 ] final  -88.00 input  -60.55 | X-H torsion
[ 11005 11000 10999 10996 ] final  -51.24 input  -57.11 | X-H torsion

> <Gold.Protein.ActiveResidues>
 VAL166  LYS551  ARG553  GLY616  TRP617  ASP618  TYR619  PRO620  LYS621  CYS622 
 ASP623  PHE694  ASN695  SER759  ASP760  ASP761  ALA762  ILE779  LEU786  VAL792 
 PHE793  MET794  SER795  GLU796  ALA797  LYS798  CYS799  TRP800  GLU811  SER814 

> <Gold.Protein.RotatedAtoms>
  151.8303  133.3407  159.3611 H   0  0  0  0  0  0  0  0  0  0  0  0  # atno 6907 bound_to 6896
  150.7266  134.5489  159.5794 H   0  0  0  0  0  0  0  0  0  0  0  0  # atno 6908 bound_to 6896
  152.2940  134.7689  160.0423 H   0  0  0  0  0  0  0  0  0  0  0  0  # atno 6909 bound_to 6896
  145.6361  140.9324  143.1061 H   0  0  0  0  0  0  0  0  0  0  0  0  # atno 7974 bound_to 7965
  154.7184  140.2707  155.6564 H   0  0  0  0  0  0  0  0  0  0  0  0  # atno 8008 bound_to 7997
  156.2816  140.2739  156.1772 H   0  0  0  0  0  0  0  0  0  0  0  0  # atno 8009 bound_to 7997
  155.0540  140.0371  157.2543 H   0  0  0  0  0  0  0  0  0  0  0  0  # atno 8010 bound_to 7997
  140.1984  143.3837  152.1149 H   0  0  0  0  0  0  0  0  0  0  0  0  # atno 10167 bound_to 10162
  156.6660  130.9065  151.3036 H   0  0  0  0  0  0  0  0  0  0  0  0  # atno 10718 bound_to 10713
  154.6398  135.5393  153.7776 H   0  0  0  0  0  0  0  0  0  0  0  0  # atno 10763 bound_to 10752
  153.0327  135.6456  154.1177 H   0  0  0  0  0  0  0  0  0  0  0  0  # atno 10764 bound_to 10752
  154.1102  135.2927  155.3212 H   0  0  0  0  0  0  0  0  0  0  0  0  # atno 10765 bound_to 10752
  141.0860  133.6642  156.3849 H   0  0  0  0  0  0  0  0  0  0  0  0  # atno 11005 bound_to 11000
  144.7175  139.8146  143.7393 LP  0  0  0  0  0  0  0  0  0  0  0  0  # atno 17320 bound_to 7965
  146.1318  139.4355  143.0164 LP  0  0  0  0  0  0  0  0  0  0  0  0  # atno 17321 bound_to 7965
  139.5227  144.7062  151.5347 LP  0  0  0  0  0  0  0  0  0  0  0  0  # atno 17342 bound_to 10162
  140.6407  143.8894  150.6689 LP  0  0  0  0  0  0  0  0  0  0  0  0  # atno 17343 bound_to 10162
  157.7093  130.9422  150.1037 LP  0  0  0  0  0  0  0  0  0  0  0  0  # atno 17370 bound_to 10713
  156.1975  130.3658  149.8830 LP  0  0  0  0  0  0  0  0  0  0  0  0  # atno 17371 bound_to 10713
  140.5361  134.6165  157.5365 LP  0  0  0  0  0  0  0  0  0  0  0  0  # atno 17394 bound_to 11000
  139.9679  134.7342  156.0101 LP  0  0  0  0  0  0  0  0  0  0  0  0  # atno 17395 bound_to 11000

$$$$
