AV-unprocessed.smi:2568|AV-procd|sdf|10091|dock9
  -GOLD-   2272014113D 1   1.00000     0.00000
 Structure written by MMmdl.
 24 25  0  0  0  0  0  0  0  0  1 V2000
  152.5094  143.0937  161.0846 C   0  0  0  0  0  0  0  0  0  0  0  0
  152.6972  142.0363  160.0501 C   0  0  0  0  0  0  0  0  0  0  0  0
  153.8224  141.3258  159.9576 N   0  0  0  0  0  0  0  0  0  0  0  0
  153.7104  140.4419  158.9436 N   0  0  0  0  0  0  0  0  0  0  0  0
  152.4917  140.7086  158.4740 C   0  0  0  0  0  0  0  0  0  0  0  0
  151.9174  139.9179  157.3391 C   0  0  1  0  0  0  0  0  0  0  0  0
  151.4882  140.8177  156.1634 C   0  0  0  0  0  0  0  0  0  0  0  0
  151.0277  140.0004  155.0416 N   0  0  0  0  0  0  0  0  0  0  0  0
  152.0427  139.0243  154.6475 C   0  0  0  0  0  0  0  0  0  0  0  0
  152.4658  138.1720  155.8580 C   0  0  0  0  0  0  0  0  0  0  0  0
  152.9348  139.0204  156.9004 O   0  0  0  0  0  0  0  0  0  0  0  0
  151.7983  141.6858  159.1373 N   0  0  0  0  0  0  0  0  0  0  0  0
  154.6462  141.3997  160.5372 H   0  0  0  0  0  0  0  0  0  0  0  0
  151.5544  143.6007  160.9430 H   0  0  0  0  0  0  0  0  0  0  0  0
  153.3088  143.8317  161.0161 H   0  0  0  0  0  0  0  0  0  0  0  0
  152.5243  142.6497  162.0801 H   0  0  0  0  0  0  0  0  0  0  0  0
  151.0639  139.3448  157.7077 H   0  0  0  0  0  0  0  0  0  0  0  0
  150.6977  141.4989  156.4794 H   0  0  0  0  0  0  0  0  0  0  0  0
  152.3289  141.4369  155.8478 H   0  0  0  0  0  0  0  0  0  0  0  0
  150.8071  140.5993  154.2523 H   0  0  0  0  0  0  0  0  0  0  0  0
  151.6575  138.3837  153.8542 H   0  0  0  0  0  0  0  0  0  0  0  0
  152.9139  139.5388  154.2400 H   0  0  0  0  0  0  0  0  0  0  0  0
  151.6359  137.5598  156.2149 H   0  0  0  0  0  0  0  0  0  0  0  0
  153.2661  137.4887  155.5737 H   0  0  0  0  0  0  0  0  0  0  0  0
  1 14  1  0  0  0  0
  1 15  1  0  0  0  0
  1 16  1  0  0  0  0
  1  2  1  0  0  0  0
  2 12  2  0  0  0  0
  2  3  1  0  0  0  0
  3  4  1  0  0  0  0
  3 13  1  0  0  0  0
  4  5  2  0  0  0  0
  5 12  1  0  0  0  0
  5  6  1  0  0  0  0
  6 11  1  0  0  0  0
  6  7  1  0  0  0  0
  6 17  1  0  0  0  0
  7  8  1  0  0  0  0
  7 18  1  0  0  0  0
  7 19  1  0  0  0  0
  8  9  1  0  0  0  0
  8 20  1  0  0  0  0
  9 10  1  0  0  0  0
  9 21  1  0  0  0  0
  9 22  1  0  0  0  0
 10 11  1  0  0  0  0
 10 23  1  0  0  0  0
 10 24  1  0  0  0  0
M  END
> <s_m_source_file>
AV-unprocessed.smi

> <i_m_source_file_index>
2568

> <i_lp_mmshare_version>
43012

> <i_f3d_flags>
0

> <s_epik_input>
W0NIM11jMW5bbkhdYyhuMSlbQ0BASF0yW0NIMl1bTkhdW0NIMl1bQ0gyXU8y

> <s_epik_cmdline>
J2VwaWtfcHl0aG9uJywgJy1waCcsICc3LjAnLCAnLXRuJywgJzgnLCAnLW1hJywgJzIwMCcsICctbWV0YWxfYmluZGluZycsICctaW1hZScsICc8aW5maWxlLm1hZT4nLCAnLW9tYWUnLCAnPG91dGZpbGUubWFlPic=

> <r_epik_Ionization_Penalty>
1.10101

> <r_epik_Ionization_Penalty_Charging>
0

> <r_epik_Ionization_Penalty_Neutral>
1.10101

> <r_epik_State_Penalty>
1.26524

> <r_epik_Charging_Adjusted_Penalty>
1.26524

> <i_epik_Tot_Q>
0

> <i_epik_Tot_abs_Q>
0

> <r_epik_Metal_State_Penalty>
1.56429

> <b_epik_Metal_Only>
0

> <s_lp_Force_Field>
OPLS_2005

> <r_lp_Energy>
12.1745

> <b_lp_Chiralities_Consistent>
1

> <s_lp_Variant>
AV-unprocessed.smi:2568-4

> <Gold.Version>
5.8.1

> <Gold.Id.Protein>
6NUR|6NUR_protein|mol2

> <Gold.PLP.Fitness>
25.9039

> <Gold.PLP.PLP>
-22.9275

> <Gold.PLP.part.hbond>
-3.0000

> <Gold.PLP.part.metal>
0.0000

> <Gold.PLP.part.buried>
-2.6214

> <Gold.PLP.part.nonpolar>
-16.2656

> <Gold.PLP.part.repulsive>
0.0564

> <Gold.PLP.ligand.clash>
0.0000

> <Gold.PLP.ligand.torsion>
0.0181

> <Gold.PLP.Chemscore.Hbond>
1.0000

> <Gold.PLP.Chemscore.CHOScore>
0.0000

> <Gold.PLP.Chemscore.Metal>
0.0000

> <Gold.Chemscore.Hbonds>
donor molecule, donor type, donor heavy atom, donor atom, acceptor molecule, acceptor atom, score
      P1  H  7997  8009       L1    11  1.00

> <Gold.PLP.Chemscore.Internal.Correction>
0.0126

> <Gold.Rescore>
     Score         DG    S(hbond)    S(metal)    S(lipo)     H(rot)  DE(clash)    DE(int)     intcor
     10.27     -10.32       0.86        0.00      38.74       1.00       0.02       0.02       ----

> <Gold.Chemscore.Fitness>
10.2692

> <Gold.Chemscore.DG>
-10.3151

> <Gold.Chemscore.ZeroCoef>
-5.4800

> <Gold.Chemscore.Hbond>
0.8571

> <Gold.Chemscore.Metal>
0.0000

> <Gold.Chemscore.Lipo>
38.7388

> <Gold.Chemscore.Internal_Hbond>
0.0000

> <Gold.Chemscore.DEClash>
0.0248

> <Gold.Chemscore.DEInternal>
0.0212

> <Gold.Chemscore.Rot>
1.0000

> <Gold.Chemscore.Internal.Correction>
   9.000000E+99

> <Gold.Chemscore.Hbonds>
donor molecule, donor type, donor heavy atom, donor atom, acceptor molecule, acceptor atom, score
      P1  H  7997  8009       L1    11  0.49

> <Gold.Chemscore.Hbond.Weighted>
-2.8626

> <Gold.Chemscore.Metal.Weighted>
-0.0000

> <Gold.Chemscore.Lipo.Weighted>
-4.5324

> <Gold.Chemscore.Internal_Hbond.Weighted>
0.0000

> <Gold.Chemscore.DEClash.Weighted>
0.0248

> <Gold.Chemscore.DEInternal.Weighted>
0.0212

> <Gold.Chemscore.Rot.Weighted>
2.5600

> <Gold.Chemscore.Internal.Correction.Weighted>
   9.000000E+99

> <Gold.Protein.RotatedTorsions>
[ 6907 6896 6895 6894 ] final  -93.58 input  -60.11 | X-H torsion
[ 7974 7965 7964 7962 ] final   62.25 input  175.53 | X-H torsion
[ 8008 7997 7996 7995 ] final  175.07 input   59.86 | X-H torsion
[ 10167 10162 10161 10158 ] final -104.78 input  -65.29 | X-H torsion
[ 10718 10713 10712 10709 ] final  146.01 input   66.30 | X-H torsion
[ 10763 10752 10751 10750 ] final  -88.96 input  -60.55 | X-H torsion
[ 11005 11000 10999 10996 ] final   39.59 input  -57.11 | X-H torsion

> <Gold.Protein.ActiveResidues>
 VAL166  LYS551  ARG553  GLY616  TRP617  ASP618  TYR619  PRO620  LYS621  CYS622 
 ASP623  PHE694  ASN695  SER759  ASP760  ASP761  ALA762  ILE779  LEU786  VAL792 
 PHE793  MET794  SER795  GLU796  ALA797  LYS798  CYS799  TRP800  GLU811  SER814 

> <Gold.Protein.RotatedAtoms>
  150.6925  134.1945  159.4297 H   0  0  0  0  0  0  0  0  0  0  0  0  # atno 6907 bound_to 6896
  151.9915  134.9974  160.0571 H   0  0  0  0  0  0  0  0  0  0  0  0  # atno 6908 bound_to 6896
  152.1663  133.4579  159.4923 H   0  0  0  0  0  0  0  0  0  0  0  0  # atno 6909 bound_to 6896
  145.8755  139.3407  143.0737 H   0  0  0  0  0  0  0  0  0  0  0  0  # atno 7974 bound_to 7965
  156.0909  140.1418  156.9594 H   0  0  0  0  0  0  0  0  0  0  0  0  # atno 8008 bound_to 7997
  154.4641  140.0932  156.7020 H   0  0  0  0  0  0  0  0  0  0  0  0  # atno 8009 bound_to 7997
  155.4922  140.3448  155.4359 H   0  0  0  0  0  0  0  0  0  0  0  0  # atno 8010 bound_to 7997
  140.2056  143.3785  152.1093 H   0  0  0  0  0  0  0  0  0  0  0  0  # atno 10167 bound_to 10162
  157.3384  131.0932  151.1103 H   0  0  0  0  0  0  0  0  0  0  0  0  # atno 10718 bound_to 10713
  154.6502  135.5358  153.7892 H   0  0  0  0  0  0  0  0  0  0  0  0  # atno 10763 bound_to 10752
  153.0382  135.6480  154.1029 H   0  0  0  0  0  0  0  0  0  0  0  0  # atno 10764 bound_to 10752
  154.0946  135.2937  155.3244 H   0  0  0  0  0  0  0  0  0  0  0  0  # atno 10765 bound_to 10752
  140.2013  134.3867  155.8095 H   0  0  0  0  0  0  0  0  0  0  0  0  # atno 11005 bound_to 11000
  145.9086  140.9195  143.0465 LP  0  0  0  0  0  0  0  0  0  0  0  0  # atno 17320 bound_to 7965
  144.6726  140.1130  143.7454 LP  0  0  0  0  0  0  0  0  0  0  0  0  # atno 17321 bound_to 7965
  139.5200  144.7027  151.5447 LP  0  0  0  0  0  0  0  0  0  0  0  0  # atno 17342 bound_to 10162
  140.6359  143.8984  150.6647 LP  0  0  0  0  0  0  0  0  0  0  0  0  # atno 17343 bound_to 10162
  157.2325  130.6532  149.5855 LP  0  0  0  0  0  0  0  0  0  0  0  0  # atno 17370 bound_to 10713
  155.9704  130.4594  150.6035 LP  0  0  0  0  0  0  0  0  0  0  0  0  # atno 17371 bound_to 10713
  141.2227  133.7095  156.8262 LP  0  0  0  0  0  0  0  0  0  0  0  0  # atno 17394 bound_to 11000
  140.2051  134.8868  157.3213 LP  0  0  0  0  0  0  0  0  0  0  0  0  # atno 17395 bound_to 11000

$$$$
