AV-unprocessed.smi:243|AV-procd|sdf|1860|dock8
  -GOLD-   2262020493D 1   1.00000     0.00000
 Structure written by MMmdl.
 58 61  0  0  0  0  0  0  0  0  2 V2000
  152.1472  144.8209  158.4711 C   0  0  0  0  0  0  0  0  0  0  0  0
  150.7252  144.3769  158.8446 C   0  0  0  0  0  0  0  0  0  0  0  0
  150.1664  143.3889  157.8871 N   0  3  2  0  0  0  0  0  0  0  0  0
  148.8776  142.8214  158.3555 C   0  0  0  0  0  0  0  0  0  0  0  0
  148.2365  141.9514  157.2661 C   0  0  0  0  0  0  0  0  0  0  0  0
  149.1924  140.8255  156.8136 C   0  0  1  0  0  0  0  0  0  0  0  0
  148.5917  139.9351  155.8084 N   0  0  0  0  0  0  0  0  0  0  0  0
  148.6528  140.3333  154.4075 C   0  0  0  0  0  0  0  0  0  0  0  0
  148.5442  138.5896  155.9808 C   0  0  0  0  0  0  0  0  0  0  0  0
  148.5300  137.7582  154.9068 N   0  0  0  0  0  0  0  0  0  0  0  0
  148.4732  136.4343  155.0797 C   0  0  0  0  0  0  0  0  0  0  0  0
  148.4245  135.7434  156.2201 N   0  0  0  0  0  0  0  0  0  0  0  0
  148.4341  136.5731  157.3025 C   0  0  0  0  0  0  0  0  0  0  0  0
  148.4928  137.9948  157.2715 C   0  0  0  0  0  0  0  0  0  0  0  0
  148.5058  138.4975  158.5665 N   0  0  0  0  0  0  0  0  0  0  0  0
  148.4563  137.4336  159.3203 C   0  0  0  0  0  0  0  0  0  0  0  0
  148.3959  136.2352  158.6445 N   0  0  0  0  0  0  0  0  0  0  0  0
  148.3344  134.9039  159.2296 C   0  0  0  0  0  0  0  0  0  0  0  0
  147.0679  134.6420  160.0847 C   0  0  2  0  0  0  0  0  0  0  0  0
  145.9448  134.5166  159.2318 O   0  0  0  0  0  0  0  0  0  0  0  0
  146.7827  135.7221  161.1309 C   0  0  0  0  0  0  0  0  0  0  0  0
  147.3504  135.1202  162.4077 C   0  0  0  0  0  0  0  0  0  0  0  0
  146.9858  133.7574  162.2852 O   0  0  0  0  0  0  0  0  0  0  0  0
  147.2159  133.3648  160.9373 C   0  0  0  0  0  0  0  0  0  0  0  0
  150.5742  141.4057  156.4064 C   0  0  2  0  0  0  0  0  0  0  0  0
  151.5957  140.3013  156.0789 C   0  0  0  0  0  0  0  0  0  0  0  0
  151.1254  142.3121  157.5266 C   0  0  0  0  0  0  0  0  0  0  0  0
  152.4849  145.6193  159.1322 H   0  0  0  0  0  0  0  0  0  0  0  0
  152.1863  145.2014  157.4500 H   0  0  0  0  0  0  0  0  0  0  0  0
  152.8679  144.0082  158.5566 H   0  0  0  0  0  0  0  0  0  0  0  0
  150.6993  143.9744  159.8582 H   0  0  0  0  0  0  0  0  0  0  0  0
  150.0942  145.2667  158.8500 H   0  0  0  0  0  0  0  0  0  0  0  0
  149.0406  142.2363  159.2621 H   0  0  0  0  0  0  0  0  0  0  0  0
  148.1889  143.6260  158.6162 H   0  0  0  0  0  0  0  0  0  0  0  0
  147.3068  141.5266  157.6462 H   0  0  0  0  0  0  0  0  0  0  0  0
  147.9600  142.5920  156.4298 H   0  0  0  0  0  0  0  0  0  0  0  0
  149.3698  140.1959  157.6868 H   0  0  0  0  0  0  0  0  0  0  0  0
  149.4782  139.8319  153.9003 H   0  0  0  0  0  0  0  0  0  0  0  0
  148.8035  141.4089  154.3129 H   0  0  0  0  0  0  0  0  0  0  0  0
  147.7280  140.0823  153.8881 H   0  0  0  0  0  0  0  0  0  0  0  0
  148.4631  135.8439  154.1754 H   0  0  0  0  0  0  0  0  0  0  0  0
  148.4596  137.4952  160.3989 H   0  0  0  0  0  0  0  0  0  0  0  0
  148.3938  134.1760  158.4192 H   0  0  0  0  0  0  0  0  0  0  0  0
  149.2313  134.7586  159.8332 H   0  0  0  0  0  0  0  0  0  0  0  0
  145.4565  135.3251  159.2582 H   0  0  0  0  0  0  0  0  0  0  0  0
  147.2077  136.6981  160.9041 H   0  0  0  0  0  0  0  0  0  0  0  0
  145.7079  135.8607  161.2607 H   0  0  0  0  0  0  0  0  0  0  0  0
  148.4371  135.2140  162.4383 H   0  0  0  0  0  0  0  0  0  0  0  0
  146.9357  135.5709  163.3094 H   0  0  0  0  0  0  0  0  0  0  0  0
  146.5239  132.5717  160.6511 H   0  0  0  0  0  0  0  0  0  0  0  0
  148.2249  132.9560  160.8663 H   0  0  0  0  0  0  0  0  0  0  0  0
  150.4612  142.0289  155.5193 H   0  0  0  0  0  0  0  0  0  0  0  0
  151.7419  139.6325  156.9278 H   0  0  0  0  0  0  0  0  0  0  0  0
  152.5656  140.7274  155.8212 H   0  0  0  0  0  0  0  0  0  0  0  0
  151.2784  139.6946  155.2311 H   0  0  0  0  0  0  0  0  0  0  0  0
  152.0659  142.7481  157.1917 H   0  0  0  0  0  0  0  0  0  0  0  0
  151.3547  141.7204  158.4145 H   0  0  0  0  0  0  0  0  0  0  0  0
  149.9599  143.8985  157.0396 H   0  0  0  0  0  0  0  0  0  0  0  0
  1  2  1  0  0  0  0
  1 28  1  0  0  0  0
  1 29  1  0  0  0  0
  1 30  1  0  0  0  0
  2  3  1  0  0  0  0
  2 31  1  0  0  0  0
  2 32  1  0  0  0  0
  3 27  1  0  0  0  0
  3  4  1  0  0  0  0
  3 58  1  0  0  0  0
  4  5  1  0  0  0  0
  4 33  1  0  0  0  0
  4 34  1  0  0  0  0
  5  6  1  0  0  0  0
  5 35  1  0  0  0  0
  5 36  1  0  0  0  0
  6  7  1  0  0  0  0
  6 25  1  0  0  0  0
  6 37  1  0  0  0  0
  7  8  1  0  0  0  0
  7  9  1  0  0  0  0
  8 38  1  0  0  0  0
  8 39  1  0  0  0  0
  8 40  1  0  0  0  0
  9 14  1  0  0  0  0
  9 10  2  0  0  0  0
 10 11  1  0  0  0  0
 11 12  2  0  0  0  0
 11 41  1  0  0  0  0
 12 13  1  0  0  0  0
 13 17  1  0  0  0  0
 13 14  2  0  0  0  0
 14 15  1  0  0  0  0
 15 16  2  0  0  0  0
 16 17  1  0  0  0  0
 16 42  1  0  0  0  0
 17 18  1  0  0  0  0
 18 19  1  0  0  0  0
 18 43  1  0  0  0  0
 18 44  1  0  0  0  0
 19 24  1  0  0  0  0
 19 20  1  0  0  0  0
 19 21  1  0  0  0  0
 20 45  1  0  0  0  0
 21 22  1  0  0  0  0
 21 46  1  0  0  0  0
 21 47  1  0  0  0  0
 22 23  1  0  0  0  0
 22 48  1  0  0  0  0
 22 49  1  0  0  0  0
 23 24  1  0  0  0  0
 24 50  1  0  0  0  0
 24 51  1  0  0  0  0
 25 26  1  0  0  0  0
 25 27  1  0  0  0  0
 25 52  1  0  0  0  0
 26 53  1  0  0  0  0
 26 54  1  0  0  0  0
 26 55  1  0  0  0  0
 27 56  1  0  0  0  0
 27 57  1  0  0  0  0
M  CHG  1   3   1
M  END
> <s_m_source_file>
AV-unprocessed.smi

> <i_m_source_file_index>
243

> <i_lp_mmshare_version>
43012

> <i_f3d_flags>
0

> <s_epik_input>
W0NIM11bQ0gyXU4xW0NIMl1bQ0gyXVtDQEhdKFtDQEBIXShbQ0gzXSlbQ0gyXTEpTihbQ0gzXSljKG5bY0hdbjIpYyhjMjMpbltjSF1uM1tDSDJdW0NAQF00KFtPSF0pW0NIMl1bQ0gyXU9bQ0gyXTQ=

> <s_epik_cmdline>
J2VwaWtfcHl0aG9uJywgJy1waCcsICc3LjAnLCAnLXRuJywgJzgnLCAnLW1hJywgJzIwMCcsICctbWV0YWxfYmluZGluZycsICctaW1hZScsICc8aW5maWxlLm1hZT4nLCAnLW9tYWUnLCAnPG91dGZpbGUubWFlPic=

> <r_lp_tautomer_probability>
1

> <r_epik_Ionization_Penalty>
0.00253099

> <r_epik_Ionization_Penalty_Charging>
0.00137877

> <r_epik_Ionization_Penalty_Neutral>
0.00115221

> <r_epik_State_Penalty>
-0

> <r_epik_Charging_Adjusted_Penalty>
0.00137877

> <i_epik_Tot_Q>
1

> <i_epik_Tot_abs_Q>
1

> <r_epik_Metal_State_Penalty>
-0

> <b_epik_Metal_Only>
0

> <s_lp_Force_Field>
OPLS_2005

> <r_lp_Energy>
45.5006

> <b_lp_Chiralities_Consistent>
1

> <s_lp_Variant>
AV-unprocessed.smi:243-13

> <Gold.Version>
5.8.1

> <Gold.Id.Protein>
6NUR|6NUR_protein|mol2

> <Gold.PLP.Fitness>
46.2569

> <Gold.PLP.PLP>
-37.7100

> <Gold.PLP.part.hbond>
-1.9947

> <Gold.PLP.part.metal>
0.0000

> <Gold.PLP.part.buried>
-4.3379

> <Gold.PLP.part.nonpolar>
-31.8436

> <Gold.PLP.part.repulsive>
0.1556

> <Gold.PLP.ligand.clash>
0.0000

> <Gold.PLP.ligand.torsion>
0.7300

> <Gold.PLP.Chemscore.Hbond>
2.0000

> <Gold.PLP.Chemscore.CHOScore>
1.0000

> <Gold.PLP.Chemscore.Metal>
0.0000

> <Gold.Chemscore.Hbonds>
donor molecule, donor type, donor heavy atom, donor atom, acceptor molecule, acceptor atom, score
      L1  H     3    58       P1  8028  2.00
      L1  C    11    41       P1  7948  1.00

> <Gold.PLP.Chemscore.Internal.Correction>
1.0069

> <Gold.Rescore>
     Score         DG    S(hbond)    S(metal)    S(lipo)     H(rot)  DE(clash)    DE(int)     intcor
     12.26     -14.16       0.99        0.00      94.98       2.24       0.04       1.86       ----

> <Gold.Chemscore.Fitness>
12.2601

> <Gold.Chemscore.DG>
-14.1633

> <Gold.Chemscore.ZeroCoef>
-5.4800

> <Gold.Chemscore.Hbond>
0.9880

> <Gold.Chemscore.Metal>
0.0000

> <Gold.Chemscore.Lipo>
94.9782

> <Gold.Chemscore.Internal_Hbond>
0.0000

> <Gold.Chemscore.DEClash>
0.0444

> <Gold.Chemscore.DEInternal>
1.8588

> <Gold.Chemscore.Rot>
2.2379

> <Gold.Chemscore.Internal.Correction>
   9.000000E+99

> <Gold.Chemscore.Hbonds>
donor molecule, donor type, donor heavy atom, donor atom, acceptor molecule, acceptor atom, score
      L1  H     3    58       P1  8028  0.93

> <Gold.Chemscore.Hbond.Weighted>
-3.3000

> <Gold.Chemscore.Metal.Weighted>
-0.0000

> <Gold.Chemscore.Lipo.Weighted>
-11.1124

> <Gold.Chemscore.Internal_Hbond.Weighted>
0.0000

> <Gold.Chemscore.DEClash.Weighted>
0.0444

> <Gold.Chemscore.DEInternal.Weighted>
1.8588

> <Gold.Chemscore.Rot.Weighted>
5.7291

> <Gold.Chemscore.Internal.Correction.Weighted>
   9.000000E+99

> <Gold.Protein.RotatedTorsions>
[ 6907 6896 6895 6894 ] final   70.63 input  -60.11 | X-H torsion
[ 7974 7965 7964 7962 ] final  125.92 input  175.53 | X-H torsion
[ 8008 7997 7996 7995 ] final   90.71 input   59.86 | X-H torsion
[ 10167 10162 10161 10158 ] final -100.71 input  -65.29 | X-H torsion
[ 10718 10713 10712 10709 ] final  123.46 input   66.30 | X-H torsion
[ 10763 10752 10751 10750 ] final  -41.46 input  -60.55 | X-H torsion
[ 11005 11000 10999 10996 ] final  -32.11 input  -57.11 | X-H torsion

> <Gold.Protein.ActiveResidues>
 VAL166  LYS551  ARG553  GLY616  TRP617  ASP618  TYR619  PRO620  LYS621  CYS622 
 ASP623  PHE694  ASN695  SER759  ASP760  ASP761  ALA762  ILE779  LEU786  VAL792 
 PHE793  MET794  SER795  GLU796  ALA797  LYS798  CYS799  TRP800  GLU811  SER814 

> <Gold.Protein.RotatedAtoms>
  152.4761  134.4840  159.9674 H   0  0  0  0  0  0  0  0  0  0  0  0  # atno 6907 bound_to 6896
  151.4856  133.3530  159.2853 H   0  0  0  0  0  0  0  0  0  0  0  0  # atno 6908 bound_to 6896
  150.8800  134.8217  159.7279 H   0  0  0  0  0  0  0  0  0  0  0  0  # atno 6909 bound_to 6896
  145.0675  139.3756  143.4974 H   0  0  0  0  0  0  0  0  0  0  0  0  # atno 7974 bound_to 7965
  156.0152  140.3346  155.6982 H   0  0  0  0  0  0  0  0  0  0  0  0  # atno 8008 bound_to 7997
  155.6100  140.0664  157.2726 H   0  0  0  0  0  0  0  0  0  0  0  0  # atno 8009 bound_to 7997
  154.4296  140.1795  156.1250 H   0  0  0  0  0  0  0  0  0  0  0  0  # atno 8010 bound_to 7997
  140.2490  143.3485  152.0732 H   0  0  0  0  0  0  0  0  0  0  0  0  # atno 10167 bound_to 10162
  157.5663  131.1086  150.8448 H   0  0  0  0  0  0  0  0  0  0  0  0  # atno 10718 bound_to 10713
  153.9629  135.6737  153.4745 H   0  0  0  0  0  0  0  0  0  0  0  0  # atno 10763 bound_to 10752
  153.0829  135.4914  154.8536 H   0  0  0  0  0  0  0  0  0  0  0  0  # atno 10764 bound_to 10752
  154.7262  135.3128  154.8927 H   0  0  0  0  0  0  0  0  0  0  0  0  # atno 10765 bound_to 10752
  140.9525  133.7212  156.1242 H   0  0  0  0  0  0  0  0  0  0  0  0  # atno 11005 bound_to 11000
  146.3527  140.0404  142.8643 LP  0  0  0  0  0  0  0  0  0  0  0  0  # atno 17320 bound_to 7965
  145.1333  140.9530  143.4531 LP  0  0  0  0  0  0  0  0  0  0  0  0  # atno 17321 bound_to 7965
  139.5052  144.6791  151.6055 LP  0  0  0  0  0  0  0  0  0  0  0  0  # atno 17342 bound_to 10162
  140.6055  143.9532  150.6416 LP  0  0  0  0  0  0  0  0  0  0  0  0  # atno 17343 bound_to 10162
  156.8932  130.5220  149.5285 LP  0  0  0  0  0  0  0  0  0  0  0  0  # atno 17370 bound_to 10713
  156.0711  130.5744  150.9385 LP  0  0  0  0  0  0  0  0  0  0  0  0  # atno 17371 bound_to 10713
  140.7582  134.3968  157.5530 LP  0  0  0  0  0  0  0  0  0  0  0  0  # atno 17394 bound_to 11000
  139.8852  134.8944  156.2658 LP  0  0  0  0  0  0  0  0  0  0  0  0  # atno 17395 bound_to 11000

$$$$
