AV-unprocessed.smi:739|AV-procd|sdf|3545|dock10
  -GOLD-   22720 0543D 1   1.00000     0.00000
 Structure written by MMmdl.
 33 35  0  0  0  0  0  0  0  0  2 V2000
  151.0483  139.3059  154.3837 O   0  0  0  0  0  0  0  0  0  0  0  0
  151.1582  138.8026  155.7014 C   0  0  1  0  0  0  0  0  0  0  0  0
  152.1098  139.6968  156.5203 C   0  0  0  0  0  0  0  0  0  0  0  0
  151.5542  141.0306  156.7830 N   0  0  0  0  0  0  0  0  0  0  0  0
  150.7036  141.7864  156.0368 C   0  0  0  0  0  0  0  0  0  0  0  0
  150.4891  142.9499  156.7121 N   0  3  0  0  0  0  0  0  0  0  0  0
  151.2137  142.9366  157.9064 C   0  0  0  0  0  0  0  0  0  0  0  0
  151.3191  143.8824  158.9213 C   0  0  0  0  0  0  0  0  0  0  0  0
  152.1507  143.5535  160.0123 C   0  0  0  0  0  0  0  0  0  0  0  0
  152.2877  144.4376  161.0286 F   0  0  0  0  0  0  0  0  0  0  0  0
  152.8408  142.3235  160.0650 C   0  0  0  0  0  0  0  0  0  0  0  0
  153.6291  142.0476  161.1310 F   0  0  0  0  0  0  0  0  0  0  0  0
  152.7267  141.3727  159.0294 C   0  0  0  0  0  0  0  0  0  0  0  0
  151.9012  141.7061  157.9570 C   0  0  0  0  0  0  0  0  0  0  0  0
  149.8057  138.6684  156.3828 C   0  0  0  0  0  0  0  0  0  0  0  0
  149.7300  138.1914  157.7091 C   0  0  0  0  0  0  0  0  0  0  0  0
  148.4819  138.0725  158.3510 C   0  0  0  0  0  0  0  0  0  0  0  0
  147.3024  138.4326  157.6715 C   0  0  0  0  0  0  0  0  0  0  0  0
  146.1031  138.3183  158.2893 F   0  0  0  0  0  0  0  0  0  0  0  0
  147.3716  138.9132  156.3497 C   0  0  0  0  0  0  0  0  0  0  0  0
  148.6194  139.0315  155.7070 C   0  0  0  0  0  0  0  0  0  0  0  0
  150.1391  139.2749  154.1268 H   0  0  0  0  0  0  0  0  0  0  0  0
  151.5951  137.8069  155.6156 H   0  0  0  0  0  0  0  0  0  0  0  0
  152.3286  139.2378  157.4856 H   0  0  0  0  0  0  0  0  0  0  0  0
  153.0673  139.8170  156.0117 H   0  0  0  0  0  0  0  0  0  0  0  0
  150.2794  141.5138  155.0809 H   0  0  0  0  0  0  0  0  0  0  0  0
  150.7930  144.8251  158.8844 H   0  0  0  0  0  0  0  0  0  0  0  0
  153.2596  140.4349  159.0789 H   0  0  0  0  0  0  0  0  0  0  0  0
  150.6290  137.9151  158.2408 H   0  0  0  0  0  0  0  0  0  0  0  0
  148.4296  137.7058  159.3656 H   0  0  0  0  0  0  0  0  0  0  0  0
  146.4676  139.1924  155.8289 H   0  0  0  0  0  0  0  0  0  0  0  0
  148.6618  139.4044  154.6941 H   0  0  0  0  0  0  0  0  0  0  0  0
  149.8918  143.6958  156.3784 H   0  0  0  0  0  0  0  0  0  0  0  0
  1  2  1  0  0  0  0
  1 22  1  0  0  0  0
  2  3  1  0  0  0  0
  2 15  1  0  0  0  0
  2 23  1  0  0  0  0
  3  4  1  0  0  0  0
  3 24  1  0  0  0  0
  3 25  1  0  0  0  0
  4 14  1  0  0  0  0
  4  5  1  0  0  0  0
  5  6  2  0  0  0  0
  5 26  1  0  0  0  0
  6  7  1  0  0  0  0
  6 33  1  0  0  0  0
  7 14  2  0  0  0  0
  7  8  1  0  0  0  0
  8  9  2  0  0  0  0
  8 27  1  0  0  0  0
  9 10  1  0  0  0  0
  9 11  1  0  0  0  0
 11 12  1  0  0  0  0
 11 13  2  0  0  0  0
 13 14  1  0  0  0  0
 13 28  1  0  0  0  0
 15 21  1  0  0  0  0
 15 16  2  0  0  0  0
 16 17  1  0  0  0  0
 16 29  1  0  0  0  0
 17 18  2  0  0  0  0
 17 30  1  0  0  0  0
 18 19  1  0  0  0  0
 18 20  1  0  0  0  0
 20 21  2  0  0  0  0
 20 31  1  0  0  0  0
 21 32  1  0  0  0  0
M  CHG  1   6   1
M  END
> <s_m_source_file>
AV-unprocessed.smi

> <i_m_source_file_index>
739

> <i_lp_mmshare_version>
43012

> <i_f3d_flags>
0

> <s_epik_input>
W2NIXTFbY0hdYyhGKVtjSF1bY0hdYzFbQ0BIXShbT0hdKVtDSDJdbihbY0hdbjIpYyhjMjMpW2NIXWMoRiljKEYpW2NIXTM=

> <s_epik_cmdline>
J2VwaWtfcHl0aG9uJywgJy1waCcsICc3LjAnLCAnLXRuJywgJzgnLCAnLW1hJywgJzIwMCcsICctbWV0YWxfYmluZGluZycsICctaW1hZScsICc8aW5maWxlLm1hZT4nLCAnLW9tYWUnLCAnPG91dGZpbGUubWFlPic=

> <r_epik_Ionization_Penalty>
2.16139

> <r_epik_Ionization_Penalty_Charging>
2.16138

> <r_epik_Ionization_Penalty_Neutral>
1.79538e-06

> <r_epik_State_Penalty>
2.30198

> <r_epik_Charging_Adjusted_Penalty>
4.46337

> <i_epik_Tot_Q>
1

> <i_epik_Tot_abs_Q>
1

> <r_epik_Metal_State_Penalty>
6.38245

> <b_epik_Metal_Only>
0

> <s_lp_Force_Field>
OPLS_2005

> <r_lp_Energy>
14.9103

> <b_lp_Chiralities_Consistent>
1

> <s_lp_Variant>
AV-unprocessed.smi:739-4

> <Gold.Version>
5.8.1

> <Gold.Id.Protein>
6NUR|6NUR_protein|mol2

> <Gold.PLP.Fitness>
46.0789

> <Gold.PLP.PLP>
-37.8760

> <Gold.PLP.part.hbond>
-2.0000

> <Gold.PLP.part.metal>
0.0000

> <Gold.PLP.part.buried>
-5.7448

> <Gold.PLP.part.nonpolar>
-29.6568

> <Gold.PLP.part.repulsive>
0.0472

> <Gold.PLP.ligand.clash>
0.0000

> <Gold.PLP.ligand.torsion>
0.4090

> <Gold.PLP.Chemscore.Hbond>
3.0000

> <Gold.PLP.Chemscore.CHOScore>
0.0000

> <Gold.PLP.Chemscore.Metal>
0.0000

> <Gold.Chemscore.Hbonds>
donor molecule, donor type, donor heavy atom, donor atom, acceptor molecule, acceptor atom, score
      L1  H     6    33       P1  8028  2.00
      P1  H  7989  7998       L1     1  1.00

> <Gold.PLP.Chemscore.Internal.Correction>
0.0210

> <Gold.Rescore>
     Score         DG    S(hbond)    S(metal)    S(lipo)     H(rot)  DE(clash)    DE(int)     intcor
     14.40     -16.18       1.97        0.00      81.63       2.12       0.02       1.76       ----

> <Gold.Chemscore.Fitness>
14.4033

> <Gold.Chemscore.DG>
-16.1837

> <Gold.Chemscore.ZeroCoef>
-5.4800

> <Gold.Chemscore.Hbond>
1.9683

> <Gold.Chemscore.Metal>
0.0000

> <Gold.Chemscore.Lipo>
81.6280

> <Gold.Chemscore.Internal_Hbond>
0.0000

> <Gold.Chemscore.DEClash>
0.0191

> <Gold.Chemscore.DEInternal>
1.7613

> <Gold.Chemscore.Rot>
2.1176

> <Gold.Chemscore.Internal.Correction>
   9.000000E+99

> <Gold.Chemscore.Hbonds>
donor molecule, donor type, donor heavy atom, donor atom, acceptor molecule, acceptor atom, score
      L1  H     6    33       P1  8028  0.99
      P1  H  7989  7998       L1     1  0.35

> <Gold.Chemscore.Hbond.Weighted>
-6.5743

> <Gold.Chemscore.Metal.Weighted>
-0.0000

> <Gold.Chemscore.Lipo.Weighted>
-9.5505

> <Gold.Chemscore.Internal_Hbond.Weighted>
0.0000

> <Gold.Chemscore.DEClash.Weighted>
0.0191

> <Gold.Chemscore.DEInternal.Weighted>
1.7613

> <Gold.Chemscore.Rot.Weighted>
5.4211

> <Gold.Chemscore.Internal.Correction.Weighted>
   9.000000E+99

> <Gold.Protein.RotatedTorsions>
[ 6907 6896 6895 6894 ] final -170.90 input  -60.11 | X-H torsion
[ 7974 7965 7964 7962 ] final    5.69 input  175.53 | X-H torsion
[ 8008 7997 7996 7995 ] final  -96.15 input   59.86 | X-H torsion
[ 10167 10162 10161 10158 ] final  -60.44 input  -65.29 | X-H torsion
[ 10718 10713 10712 10709 ] final   -8.08 input   66.30 | X-H torsion
[ 10763 10752 10751 10750 ] final -108.06 input  -60.55 | X-H torsion
[ 11005 11000 10999 10996 ] final  -40.14 input  -57.11 | X-H torsion

> <Gold.Protein.ActiveResidues>
 VAL166  LYS551  ARG553  GLY616  TRP617  ASP618  TYR619  PRO620  LYS621  CYS622 
 ASP623  PHE694  ASN695  SER759  ASP760  ASP761  ALA762  ILE779  LEU786  VAL792 
 PHE793  MET794  SER795  GLU796  ALA797  LYS798  CYS799  TRP800  GLU811  SER814 

> <Gold.Protein.RotatedAtoms>
  151.5151  133.3477  159.2891 H   0  0  0  0  0  0  0  0  0  0  0  0  # atno 6907 bound_to 6896
  150.8687  134.8059  159.7149 H   0  0  0  0  0  0  0  0  0  0  0  0  # atno 6908 bound_to 6896
  152.4683  134.5032  159.9783 H   0  0  0  0  0  0  0  0  0  0  0  0  # atno 6909 bound_to 6896
  146.2439  140.0346  142.8387 H   0  0  0  0  0  0  0  0  0  0  0  0  # atno 7974 bound_to 7965
  154.7707  140.0474  157.1049 H   0  0  0  0  0  0  0  0  0  0  0  0  # atno 8008 bound_to 7997
  154.9824  140.3103  155.4921 H   0  0  0  0  0  0  0  0  0  0  0  0  # atno 8009 bound_to 7997
  156.2920  140.2233  156.4924 H   0  0  0  0  0  0  0  0  0  0  0  0  # atno 8010 bound_to 7997
  140.6071  143.2376  151.5796 H   0  0  0  0  0  0  0  0  0  0  0  0  # atno 10167 bound_to 10162
  156.7078  130.5113  149.5900 H   0  0  0  0  0  0  0  0  0  0  0  0  # atno 10718 bound_to 10713
  154.8113  135.4652  154.0523 H   0  0  0  0  0  0  0  0  0  0  0  0  # atno 10763 bound_to 10752
  153.1952  135.6861  153.8308 H   0  0  0  0  0  0  0  0  0  0  0  0  # atno 10764 bound_to 10752
  153.7812  135.3256  155.3343 H   0  0  0  0  0  0  0  0  0  0  0  0  # atno 10765 bound_to 10752
  141.0153  133.6888  156.2281 H   0  0  0  0  0  0  0  0  0  0  0  0  # atno 11005 bound_to 11000
  145.1124  140.9413  143.4649 LP  0  0  0  0  0  0  0  0  0  0  0  0  # atno 17320 bound_to 7965
  145.0563  139.3141  143.5903 LP  0  0  0  0  0  0  0  0  0  0  0  0  # atno 17321 bound_to 7965
  139.5333  144.2853  152.1196 LP  0  0  0  0  0  0  0  0  0  0  0  0  # atno 17342 bound_to 10162
  140.2045  144.4624  150.6415 LP  0  0  0  0  0  0  0  0  0  0  0  0  # atno 17343 bound_to 10162
  156.1683  130.6420  151.0805 LP  0  0  0  0  0  0  0  0  0  0  0  0  # atno 17370 bound_to 10713
  157.6948  131.0798  150.7002 LP  0  0  0  0  0  0  0  0  0  0  0  0  # atno 17371 bound_to 10713
  140.6665  134.4913  157.5585 LP  0  0  0  0  0  0  0  0  0  0  0  0  # atno 17394 bound_to 11000
  139.9113  134.8338  156.1518 LP  0  0  0  0  0  0  0  0  0  0  0  0  # atno 17395 bound_to 11000

$$$$
