AV-unprocessed.smi:3166|AV-procd|sdf|12096|dock4
  -GOLD-   2272017533D 1   1.00000     0.00000
 Structure written by MMmdl.
 40 41  0  0  0  0  0  0  0  0  1 V2000
  152.2444  139.0976  155.2967 C   0  0  0  0  0  0  0  0  0  0  0  0
  151.0416  140.0537  155.2599 C   0  0  1  0  0  0  0  0  0  0  0  0
  149.8239  139.4448  154.5199 C   0  0  0  0  0  0  0  0  0  0  0  0
  148.7545  140.3983  154.2680 N   0  0  0  0  0  0  0  0  0  0  0  0
  148.7232  141.7467  154.5581 C   0  0  0  0  0  0  0  0  0  0  0  0
  147.5170  142.2270  154.1361 C   0  0  0  0  0  0  0  0  0  0  0  0
  146.8708  141.0829  153.5903 C   0  0  0  0  0  0  0  0  0  0  0  0
  147.6150  139.9916  153.6662 N   0  0  0  0  0  0  0  0  0  0  0  0
  150.7239  140.4852  156.6254 N   0  0  0  0  0  0  0  0  0  0  0  0
  151.8602  140.9462  157.4268 C   0  0  0  0  0  0  0  0  0  0  0  0
  151.5077  142.1746  158.2958 C   0  0  0  0  0  0  0  0  0  0  0  0
  150.3035  141.8707  158.9774 O   0  0  0  0  0  0  0  0  0  0  0  0
  152.6086  142.3812  159.3633 C   0  0  0  0  0  0  0  0  0  0  0  0
  152.3910  143.6411  160.2205 C   0  0  0  0  0  0  0  0  0  0  0  0
  152.2504  144.8929  159.3439 C   0  0  0  0  0  0  0  0  0  0  0  0
  151.1184  144.7208  158.3219 C   0  0  0  0  0  0  0  0  0  0  0  0
  151.3272  143.4653  157.4562 C   0  0  0  0  0  0  0  0  0  0  0  0
  152.5136  138.7689  154.2927 H   0  0  0  0  0  0  0  0  0  0  0  0
  152.0372  138.2088  155.8938 H   0  0  0  0  0  0  0  0  0  0  0  0
  153.1190  139.5858  155.7275 H   0  0  0  0  0  0  0  0  0  0  0  0
  151.3562  140.9301  154.6920 H   0  0  0  0  0  0  0  0  0  0  0  0
  150.1166  138.9952  153.5714 H   0  0  0  0  0  0  0  0  0  0  0  0
  149.4173  138.6243  155.1134 H   0  0  0  0  0  0  0  0  0  0  0  0
  149.5523  142.2459  155.0372 H   0  0  0  0  0  0  0  0  0  0  0  0
  147.1519  143.2408  154.2064 H   0  0  0  0  0  0  0  0  0  0  0  0
  145.8904  141.0138  153.1423 H   0  0  0  0  0  0  0  0  0  0  0  0
  150.2525  139.7332  157.1183 H   0  0  0  0  0  0  0  0  0  0  0  0
  152.2168  140.1376  158.0664 H   0  0  0  0  0  0  0  0  0  0  0  0
  152.6912  141.2103  156.7739 H   0  0  0  0  0  0  0  0  0  0  0  0
  149.6584  141.6067  158.3392 H   0  0  0  0  0  0  0  0  0  0  0  0
  152.6784  141.5052  160.0101 H   0  0  0  0  0  0  0  0  0  0  0  0
  153.5769  142.4650  158.8676 H   0  0  0  0  0  0  0  0  0  0  0  0
  151.4990  143.5219  160.8367 H   0  0  0  0  0  0  0  0  0  0  0  0
  153.2252  143.7656  160.9115 H   0  0  0  0  0  0  0  0  0  0  0  0
  152.0590  145.7658  159.9686 H   0  0  0  0  0  0  0  0  0  0  0  0
  153.1893  145.0841  158.8225 H   0  0  0  0  0  0  0  0  0  0  0  0
  150.1619  144.6559  158.8421 H   0  0  0  0  0  0  0  0  0  0  0  0
  151.0595  145.6029  157.6837 H   0  0  0  0  0  0  0  0  0  0  0  0
  152.2105  143.6124  156.8334 H   0  0  0  0  0  0  0  0  0  0  0  0
  150.4868  143.3645  156.7687 H   0  0  0  0  0  0  0  0  0  0  0  0
  1  2  1  0  0  0  0
  1 18  1  0  0  0  0
  1 19  1  0  0  0  0
  1 20  1  0  0  0  0
  2  3  1  0  0  0  0
  2  9  1  0  0  0  0
  2 21  1  0  0  0  0
  3  4  1  0  0  0  0
  3 22  1  0  0  0  0
  3 23  1  0  0  0  0
  4  8  1  0  0  0  0
  4  5  1  0  0  0  0
  5  6  2  0  0  0  0
  5 24  1  0  0  0  0
  6  7  1  0  0  0  0
  6 25  1  0  0  0  0
  7  8  2  0  0  0  0
  7 26  1  0  0  0  0
  9 10  1  0  0  0  0
  9 27  1  0  0  0  0
 10 11  1  0  0  0  0
 10 28  1  0  0  0  0
 10 29  1  0  0  0  0
 11 17  1  0  0  0  0
 11 12  1  0  0  0  0
 11 13  1  0  0  0  0
 12 30  1  0  0  0  0
 13 14  1  0  0  0  0
 13 31  1  0  0  0  0
 13 32  1  0  0  0  0
 14 15  1  0  0  0  0
 14 33  1  0  0  0  0
 14 34  1  0  0  0  0
 15 16  1  0  0  0  0
 15 35  1  0  0  0  0
 15 36  1  0  0  0  0
 16 17  1  0  0  0  0
 16 37  1  0  0  0  0
 16 38  1  0  0  0  0
 17 39  1  0  0  0  0
 17 40  1  0  0  0  0
M  END
> <s_m_source_file>
AV-unprocessed.smi

> <i_m_source_file_index>
3166

> <i_lp_mmshare_version>
43012

> <i_f3d_flags>
0

> <s_epik_input>
bjFbY0hdW2NIXVtjSF1uMVtDSDJdW0NAQEhdKFtDSDNdKVtOSF1bQ0gyXUMyKFtPSF0pW0NIMl1bQ0gyXVtDSDJdW0NIMl1bQ0gyXTI=

> <s_epik_cmdline>
J2VwaWtfcHl0aG9uJywgJy1waCcsICc3LjAnLCAnLXRuJywgJzgnLCAnLW1hJywgJzIwMCcsICctbWV0YWxfYmluZGluZycsICctaW1hZScsICc8aW5maWxlLm1hZT4nLCAnLW9tYWUnLCAnPG91dGZpbGUubWFlPic=

> <r_lp_tautomer_probability>
1

> <r_epik_Ionization_Penalty>
2.35964

> <r_epik_Ionization_Penalty_Charging>
0

> <r_epik_Ionization_Penalty_Neutral>
2.35964

> <r_epik_State_Penalty>
2.51455

> <r_epik_Charging_Adjusted_Penalty>
2.51455

> <i_epik_Tot_Q>
0

> <i_epik_Tot_abs_Q>
0

> <r_epik_Metal_State_Penalty>
2.51451

> <b_epik_Metal_Only>
0

> <s_lp_Force_Field>
OPLS_2005

> <r_lp_Energy>
22.3921

> <b_lp_Chiralities_Consistent>
1

> <s_lp_Variant>
AV-unprocessed.smi:3166-4

> <Gold.Version>
5.8.1

> <Gold.Id.Protein>
6NUR|6NUR_protein|mol2

> <Gold.PLP.Fitness>
45.0808

> <Gold.PLP.PLP>
-41.7884

> <Gold.PLP.part.hbond>
-0.9727

> <Gold.PLP.part.metal>
0.0000

> <Gold.PLP.part.buried>
-1.0729

> <Gold.PLP.part.nonpolar>
-39.9051

> <Gold.PLP.part.repulsive>
0.1775

> <Gold.PLP.ligand.clash>
0.0000

> <Gold.PLP.ligand.torsion>
0.4720

> <Gold.PLP.Chemscore.Hbond>
0.0000

> <Gold.PLP.Chemscore.CHOScore>
1.4007

> <Gold.PLP.Chemscore.Metal>
0.0000

> <Gold.Chemscore.Hbonds>
donor molecule, donor type, donor heavy atom, donor atom, acceptor molecule, acceptor atom, score
      L1  C     5    24       P1  8028  0.45
      L1  C     7    26       P1 10175  1.00

> <Gold.PLP.Chemscore.Internal.Correction>
0.0342

> <Gold.Rescore>
     Score         DG    S(hbond)    S(metal)    S(lipo)     H(rot)  DE(clash)    DE(int)     intcor
     13.82     -14.33       0.00        0.00     122.07       2.12       0.07       0.44       ----

> <Gold.Chemscore.Fitness>
13.8212

> <Gold.Chemscore.DG>
-14.3324

> <Gold.Chemscore.ZeroCoef>
-5.4800

> <Gold.Chemscore.Hbond>
0.0000

> <Gold.Chemscore.Metal>
0.0000

> <Gold.Chemscore.Lipo>
122.0688

> <Gold.Chemscore.Internal_Hbond>
0.0000

> <Gold.Chemscore.DEClash>
0.0736

> <Gold.Chemscore.DEInternal>
0.4376

> <Gold.Chemscore.Rot>
2.1209

> <Gold.Chemscore.Internal.Correction>
   9.000000E+99

> <Gold.Chemscore.Hbond.Weighted>
-0.0000

> <Gold.Chemscore.Metal.Weighted>
-0.0000

> <Gold.Chemscore.Lipo.Weighted>
-14.2820

> <Gold.Chemscore.Internal_Hbond.Weighted>
0.0000

> <Gold.Chemscore.DEClash.Weighted>
0.0736

> <Gold.Chemscore.DEInternal.Weighted>
0.4376

> <Gold.Chemscore.Rot.Weighted>
5.4296

> <Gold.Chemscore.Internal.Correction.Weighted>
   9.000000E+99

> <Gold.Protein.RotatedTorsions>
[ 6907 6896 6895 6894 ] final  -35.16 input  -60.11 | X-H torsion
[ 7974 7965 7964 7962 ] final -154.74 input  175.53 | X-H torsion
[ 8008 7997 7996 7995 ] final  139.00 input   59.86 | X-H torsion
[ 10167 10162 10161 10158 ] final   65.35 input  -65.29 | X-H torsion
[ 10718 10713 10712 10709 ] final   45.70 input   66.30 | X-H torsion
[ 10763 10752 10751 10750 ] final    5.50 input  -60.55 | X-H torsion
[ 11005 11000 10999 10996 ] final   76.08 input  -57.11 | X-H torsion

> <Gold.Protein.ActiveResidues>
 VAL166  LYS551  ARG553  GLY616  TRP617  ASP618  TYR619  PRO620  LYS621  CYS622 
 ASP623  PHE694  ASN695  SER759  ASP760  ASP761  ALA762  ILE779  LEU786  VAL792 
 PHE793  MET794  SER795  GLU796  ALA797  LYS798  CYS799  TRP800  GLU811  SER814 

> <Gold.Protein.RotatedAtoms>
  151.0433  134.9622  159.8172 H   0  0  0  0  0  0  0  0  0  0  0  0  # atno 6907 bound_to 6896
  152.5368  134.2630  159.8952 H   0  0  0  0  0  0  0  0  0  0  0  0  # atno 6908 bound_to 6896
  151.2643  133.4244  159.2651 H   0  0  0  0  0  0  0  0  0  0  0  0  # atno 6909 bound_to 6896
  144.7674  140.4346  143.5932 H   0  0  0  0  0  0  0  0  0  0  0  0  # atno 7974 bound_to 7965
  156.2993  140.2379  156.4166 H   0  0  0  0  0  0  0  0  0  0  0  0  # atno 8008 bound_to 7997
  154.8393  140.0429  157.1550 H   0  0  0  0  0  0  0  0  0  0  0  0  # atno 8009 bound_to 7997
  154.9121  140.2992  155.5264 H   0  0  0  0  0  0  0  0  0  0  0  0  # atno 8010 bound_to 7997
  140.1123  144.4807  150.6970 H   0  0  0  0  0  0  0  0  0  0  0  0  # atno 10167 bound_to 10162
  157.4403  130.8077  149.7687 H   0  0  0  0  0  0  0  0  0  0  0  0  # atno 10718 bound_to 10713
  153.2587  135.6921  153.7601 H   0  0  0  0  0  0  0  0  0  0  0  0  # atno 10763 bound_to 10752
  153.6669  135.3351  155.3143 H   0  0  0  0  0  0  0  0  0  0  0  0  # atno 10764 bound_to 10752
  154.8422  135.4490  154.1570 H   0  0  0  0  0  0  0  0  0  0  0  0  # atno 10765 bound_to 10752
  139.9314  134.7571  156.1351 H   0  0  0  0  0  0  0  0  0  0  0  0  # atno 11005 bound_to 11000
  145.6427  139.1552  143.2906 LP  0  0  0  0  0  0  0  0  0  0  0  0  # atno 17320 bound_to 7965
  146.1793  140.6522  142.9196 LP  0  0  0  0  0  0  0  0  0  0  0  0  # atno 17321 bound_to 7965
  140.6919  143.2381  151.5108 LP  0  0  0  0  0  0  0  0  0  0  0  0  # atno 17342 bound_to 10162
  139.5613  144.2150  152.1695 LP  0  0  0  0  0  0  0  0  0  0  0  0  # atno 17343 bound_to 10162
  155.9946  130.3917  150.2852 LP  0  0  0  0  0  0  0  0  0  0  0  0  # atno 17370 bound_to 10713
  157.1016  131.0197  151.3083 LP  0  0  0  0  0  0  0  0  0  0  0  0  # atno 17371 bound_to 10713
  141.0905  133.6716  156.2530 LP  0  0  0  0  0  0  0  0  0  0  0  0  # atno 17394 bound_to 11000
  140.6191  134.5380  157.5545 LP  0  0  0  0  0  0  0  0  0  0  0  0  # atno 17395 bound_to 11000

$$$$
