#       Name:                AV-unprocessed.smi:227
#       Creating user name   scv26
#       Creation time:       Thu Mar 26 20:22:48 2020


#       File generated by GOLD software.
#

@<TRIPOS>MOLECULE
AV-unprocessed.smi:227
    64    68     1
SMALL
NO_CHARGES


@<TRIPOS>ATOM
      1 ****        -2.5013  -5.6060   0.0085 O.3            1 S1                 0.0000
      2 ****        -3.0601  -4.6005  -0.8130 C.3            1 S1                 0.0000
      3 ****        -2.5583  -3.1925  -0.4165 C.3            1 S1                 0.0000
      4 ****        -1.0445  -3.0783  -0.7325 C.3            1 S1                 0.0000
      5 ****        -0.5249  -1.7227  -0.6855 N.pl3          1 S1                 0.0000
      6 ****        -0.8572  -0.6862  -1.5271 C.2            1 S1                 0.0000
      7 ****        -0.2486   0.4418  -1.2850 N.2            1 S1                 0.0000
      8 ****         0.5870   0.1597  -0.2101 C.ar           1 S1                 0.0000
      9 ****         1.5188   0.9189   0.5557 C.ar           1 S1                 0.0000
     10 ****         1.7885   2.2337   0.3286 N.3            1 S1                 0.0000
     11 ****         2.9790   2.8650   0.8841 C.3            1 S1                 0.0000
     12 ****         4.1344   2.3257   0.0145 C.3            1 S1                 0.0000
     13 ****         3.4390   2.1788  -1.3467 C.3            1 S1                 0.0000
     14 ****         2.0248   2.7111  -1.0257 C.3            1 S1                 0.0000
     15 ****         2.0227   4.2424  -0.8083 C.3            1 S1                 0.0000
     16 ****         2.6067   5.1184  -1.9324 C.3            1 S1                 0.0000
     17 ****         1.8745   4.9350  -3.1253 O.3            1 S1                 0.0000
     18 ****         2.7578   4.3487   0.5407 C.3            1 S1                 0.0000
     19 ****         2.1404   0.2838   1.5851 N.ar           1 S1                 0.0000
     20 ****         1.8968  -1.0055   1.8340 C.ar           1 S1                 0.0000
     21 ****         1.0709  -1.8358   1.1962 N.ar           1 S1                 0.0000
     22 ****         0.4257  -1.2024   0.1758 C.ar           1 S1                 0.0000
     23 ****        -2.9338  -2.8199   1.0478 C.3            1 S1                 0.0000
     24 ****        -4.3952  -3.0441   1.4049 C.3            1 S1                 0.0000
     25 ****        -4.5533  -2.1944   2.6567 C.3            1 S1                 0.0000
     26 ****        -3.7767  -1.0362   2.3942 O.3            1 S1                 0.0000
     27 ****        -2.7740  -1.3384   1.4277 C.3            1 S1                 0.0000
     28 ****        -1.5609  -5.5813  -0.0820 H              1 S1                 0.0000
     29 ****        -2.8037  -4.8177  -1.8503 H              1 S1                 0.0000
     30 ****        -4.1466  -4.6620  -0.7530 H              1 S1                 0.0000
     31 ****        -3.0827  -2.4970  -1.0731 H              1 S1                 0.0000
     32 ****        -0.4683  -3.7018  -0.0483 H              1 S1                 0.0000
     33 ****        -0.8432  -3.4606  -1.7339 H              1 S1                 0.0000
     34 ****        -1.5780  -0.7910  -2.3250 H              1 S1                 0.0000
     35 ****         3.1283   2.7036   1.9523 H              1 S1                 0.0000
     36 ****         4.9883   3.0032  -0.0172 H              1 S1                 0.0000
     37 ****         4.4865   1.3579   0.3731 H              1 S1                 0.0000
     38 ****         3.9430   2.7129  -2.1505 H              1 S1                 0.0000
     39 ****         3.3938   1.1279  -1.6355 H              1 S1                 0.0000
     40 ****         1.2822   2.4079  -1.7615 H              1 S1                 0.0000
     41 ****         0.9878   4.5525  -0.6505 H              1 S1                 0.0000
     42 ****         2.5451   6.1697  -1.6504 H              1 S1                 0.0000
     43 ****         3.6604   4.9079  -2.1117 H              1 S1                 0.0000
     44 ****         2.2357   5.5011  -3.7901 H              1 S1                 0.0000
     45 ****         2.1230   4.8330   1.2837 H              1 S1                 0.0000
     46 ****         3.6933   4.9066   0.4835 H              1 S1                 0.0000
     47 ****         2.4403  -1.4315   2.6644 H              1 S1                 0.0000
     48 ****        -2.3286  -3.4141   1.7347 H              1 S1                 0.0000
     49 ****        -5.0467  -2.6687   0.6142 H              1 S1                 0.0000
     50 ****        -4.6394  -4.0918   1.5834 H              1 S1                 0.0000
     51 ****        -5.5925  -1.9426   2.8691 H              1 S1                 0.0000
     52 ****        -4.1404  -2.7105   3.5245 H              1 S1                 0.0000
     53 ****        -1.7871  -1.1279   1.8382 H              1 S1                 0.0000
     54 ****        -2.9302  -0.6866   0.5676 H              1 S1                 0.0000
     55 ****        -2.8436  -6.5017  -0.2753 LP             1 S1                 0.0000
     56 ****        -2.7524  -5.4400   0.9621 LP             1 S1                 0.0000
     57 ****        -0.3582   1.3127  -1.7642 LP             1 S1                 0.0000
     58 ****         0.9144   2.4628   0.7568 LP             1 S1                 0.0000
     59 ****         0.9142   5.1670  -2.9704 LP             1 S1                 0.0000
     60 ****         1.9438   3.9820  -3.4202 LP             1 S1                 0.0000
     61 ****         2.7855   0.7865   2.1606 LP             1 S1                 0.0000
     62 ****         0.9416  -2.7981   1.4353 LP             1 S1                 0.0000
     63 ****        -3.3409  -0.7295   3.2403 LP             1 S1                 0.0000
     64 ****        -4.3693  -0.3114   2.0427 LP             1 S1                 0.0000
@<TRIPOS>BOND
    1    1    2 1     
    2    1   28 1     
    3    2    3 1     
    4    2   29 1     
    5    2   30 1     
    6    3    4 1     
    7    3   23 1     
    8    3   31 1     
    9    4    5 1     
   10    4   32 1     
   11    4   33 1     
   12    5   22 1     
   13    5    6 1     
   14    6    7 2     
   15    6   34 1     
   16    7    8 1     
   17    8   22 ar    
   18    8    9 ar    
   19    9   10 1     
   20    9   19 ar    
   21   10   14 1     
   22   10   11 1     
   23   11   18 1     
   24   11   12 1     
   25   11   35 1     
   26   12   13 1     
   27   12   36 1     
   28   12   37 1     
   29   13   14 1     
   30   13   38 1     
   31   13   39 1     
   32   14   15 1     
   33   14   40 1     
   34   15   16 1     
   35   15   18 1     
   36   15   41 1     
   37   16   17 1     
   38   16   42 1     
   39   16   43 1     
   40   17   44 1     
   41   18   45 1     
   42   18   46 1     
   43   19   20 ar    
   44   20   21 ar    
   45   20   47 1     
   46   21   22 ar    
   47   23   27 1     
   48   23   24 1     
   49   23   48 1     
   50   24   25 1     
   51   24   49 1     
   52   24   50 1     
   53   25   26 1     
   54   25   51 1     
   55   25   52 1     
   56   26   27 1     
   57   27   53 1     
   58   27   54 1     
   59    1   55 1     
   60    1   56 1     
   61    7   57 1     
   62   10   58 1     
   63   17   59 1     
   64   17   60 1     
   65   19   61 1     
   66   21   62 1     
   67   26   63 1     
   68   26   64 1     
@<TRIPOS>SUBSTRUCTURE
      1 S1             1
@<TRIPOS>SET
LONE_PAIRS      STATIC     ATOMS    <user>   **** ""
10 55 56 57 58 59 60 61 62 63 64
DONOR_HYDROGENS      STATIC     ATOMS    <user>   **** ""
2 28 44
ATOM$BLUE        STATIC     ATOMS    COLORGROUP SYSTEM
10 55 56 57 58 59 60 61 62 63 64
ATOM$RED        STATIC     ATOMS    COLORGROUP SYSTEM
2 28 44
