#       Name:                AV-unprocessed.smi:827
#       Creating user name   scv26
#       Creation time:       Fri Mar 27 01:30:41 2020


#       File generated by GOLD software.
#

@<TRIPOS>MOLECULE
AV-unprocessed.smi:827
    54    55     1
SMALL
NO_CHARGES


@<TRIPOS>ATOM
      1 ****        -6.7805   0.6637  -1.3541 C.3            1 S1                 0.0000
      2 ****        -5.3702   0.8333  -1.4477 O.3            1 S1                 0.0000
      3 ****        -4.8492   2.1075  -1.3255 C.ar           1 S1                 0.0000
      4 ****        -5.7067   3.1373  -1.1134 N.ar           1 S1                 0.0000
      5 ****        -5.2006   4.3823  -0.9978 C.ar           1 S1                 0.0000
      6 ****        -3.8261   4.6672  -1.0948 C.ar           1 S1                 0.0000
      7 ****        -2.9345   3.6009  -1.3142 C.ar           1 S1                 0.0000
      8 ****        -3.4491   2.2860  -1.4206 C.ar           1 S1                 0.0000
      9 ****        -2.6384   1.1422  -1.6597 N.am           1 S1                 0.0000
     10 ****        -1.3408   0.9624  -1.3607 C.2            1 S1                 0.0000
     11 ****        -0.6155   1.7911  -0.8103 O.2            1 S1                 0.0000
     12 ****        -0.9254  -0.2609  -1.7183 N.am           1 S1                 0.0000
     13 ****         0.4184  -0.7816  -1.4984 C.3            1 S1                 0.0000
     14 ****         0.6021  -1.2399  -0.0384 C.3            1 S1                 0.0000
     15 ****         1.9072  -1.8576   0.1915 N.3            1 S1                 0.0000
     16 ****         2.9754  -0.8496   0.2074 C.3            1 S1                 0.0000
     17 ****         4.3373  -1.5159   0.4846 C.3            1 S1                 0.0000
     18 ****         4.2738  -2.2090   1.7750 N.am           1 S1                 0.0000
     19 ****         4.9887  -1.8974   2.8822 C.2            1 S1                 0.0000
     20 ****         6.0046  -0.7548   2.8189 C.3            1 S1                 0.0000
     21 ****         4.8567  -2.4961   3.9497 O.2            1 S1                 0.0000
     22 ****         3.2331  -3.2398   1.7528 C.3            1 S1                 0.0000
     23 ****         1.8747  -2.5677   1.4746 C.3            1 S1                 0.0000
     24 ****        -7.0246  -0.3926  -1.4654 H              1 S1                 0.0000
     25 ****        -7.3004   1.2081  -2.1437 H              1 S1                 0.0000
     26 ****        -7.1593   0.9898  -0.3844 H              1 S1                 0.0000
     27 ****        -5.9133   5.1758  -0.8290 H              1 S1                 0.0000
     28 ****        -3.4644   5.6810  -1.0076 H              1 S1                 0.0000
     29 ****        -1.8810   3.8132  -1.4105 H              1 S1                 0.0000
     30 ****        -3.1253   0.3387  -2.0290 H              1 S1                 0.0000
     31 ****        -1.5877  -0.8795  -2.1631 H              1 S1                 0.0000
     32 ****         0.5699  -1.6237  -2.1744 H              1 S1                 0.0000
     33 ****         1.1458  -0.0201  -1.7804 H              1 S1                 0.0000
     34 ****         0.4539  -0.4098   0.6543 H              1 S1                 0.0000
     35 ****        -0.1766  -1.9717   0.1816 H              1 S1                 0.0000
     36 ****         3.0270  -0.3364  -0.7520 H              1 S1                 0.0000
     37 ****         2.7669  -0.0923   0.9651 H              1 S1                 0.0000
     38 ****         4.5691  -2.2385  -0.2995 H              1 S1                 0.0000
     39 ****         5.1236  -0.7646   0.4321 H              1 S1                 0.0000
     40 ****         5.5152   0.1837   2.5569 H              1 S1                 0.0000
     41 ****         6.7811  -0.9681   2.0841 H              1 S1                 0.0000
     42 ****         6.4899  -0.6181   3.7859 H              1 S1                 0.0000
     43 ****         3.4615  -3.9719   0.9765 H              1 S1                 0.0000
     44 ****         3.1763  -3.8008   2.6864 H              1 S1                 0.0000
     45 ****         1.6258  -1.8753   2.2810 H              1 S1                 0.0000
     46 ****         1.0934  -3.3284   1.4521 H              1 S1                 0.0000
     47 ****        -5.0897   0.4842  -2.3419 LP             1 S1                 0.0000
     48 ****        -4.9575   0.2754  -0.7277 LP             1 S1                 0.0000
     49 ****        -6.6914   2.9770  -1.0443 LP             1 S1                 0.0000
     50 ****        -0.9844   2.6829  -0.5485 LP             1 S1                 0.0000
     51 ****         0.3425   1.5723  -0.6250 LP             1 S1                 0.0000
     52 ****         2.0990  -2.4966  -0.5535 LP             1 S1                 0.0000
     53 ****         4.2000  -3.2467   4.0242 LP             1 S1                 0.0000
     54 ****         5.4060  -2.2319   4.7424 LP             1 S1                 0.0000
@<TRIPOS>BOND
    1    1    2 1     
    2    1   24 1     
    3    1   25 1     
    4    1   26 1     
    5    2    3 1     
    6    3    8 ar    
    7    3    4 ar    
    8    4    5 ar    
    9    5    6 ar    
   10    5   27 1     
   11    6    7 ar    
   12    6   28 1     
   13    7    8 ar    
   14    7   29 1     
   15    8    9 1     
   16    9   10 am    
   17    9   30 1     
   18   10   11 2     
   19   10   12 am    
   20   12   13 1     
   21   12   31 1     
   22   13   14 1     
   23   13   32 1     
   24   13   33 1     
   25   14   15 1     
   26   14   34 1     
   27   14   35 1     
   28   15   23 1     
   29   15   16 1     
   30   16   17 1     
   31   16   36 1     
   32   16   37 1     
   33   17   18 1     
   34   17   38 1     
   35   17   39 1     
   36   18   19 am    
   37   18   22 1     
   38   19   20 1     
   39   19   21 2     
   40   20   40 1     
   41   20   41 1     
   42   20   42 1     
   43   22   23 1     
   44   22   43 1     
   45   22   44 1     
   46   23   45 1     
   47   23   46 1     
   48    2   47 1     
   49    2   48 1     
   50    4   49 1     
   51   11   50 1     
   52   11   51 1     
   53   15   52 1     
   54   21   53 1     
   55   21   54 1     
@<TRIPOS>SUBSTRUCTURE
      1 S1             1
@<TRIPOS>SET
LONE_PAIRS      STATIC     ATOMS    <user>   **** ""
8 47 48 49 50 51 52 53 54
DONOR_HYDROGENS      STATIC     ATOMS    <user>   **** ""
2 30 31
ATOM$BLUE        STATIC     ATOMS    COLORGROUP SYSTEM
8 47 48 49 50 51 52 53 54
ATOM$RED        STATIC     ATOMS    COLORGROUP SYSTEM
2 30 31
