AV-unprocessed.smi:699|AV-procd|sdf|3403|dock1
  -GOLD-   22720 0383D 1   1.00000     0.00000
 Structure written by MMmdl.
 35 36  0  0  0  0  0  0  0  0  2 V2000
  150.5524  137.5853  155.4081 N   0  0  0  0  0  0  0  0  0  0  0  0
  150.6814  138.8789  155.1038 C   0  0  0  0  0  0  0  0  0  0  0  0
  151.7357  139.3476  154.6789 O   0  0  0  0  0  0  0  0  0  0  0  0
  149.4482  139.7723  155.3090 C   0  0  2  0  0  0  0  0  0  0  0  0
  148.1668  139.1530  154.7262 C   0  0  0  0  0  0  0  0  0  0  0  0
  147.2990  140.3466  154.3401 C   0  0  0  0  0  0  0  0  0  0  0  0
  148.2954  141.3783  153.8178 C   0  0  0  0  0  0  0  0  0  0  0  0
  149.5857  141.1611  154.6267 C   0  0  1  0  0  0  0  0  0  0  0  0
  149.7684  142.2337  155.6037 N   0  0  0  0  0  0  0  0  0  0  0  0
  150.5104  142.1486  156.7171 C   0  0  0  0  0  0  0  0  0  0  0  0
  151.1127  141.1303  157.0555 O   0  0  0  0  0  0  0  0  0  0  0  0
  150.4867  143.3016  157.4080 N   0  0  0  0  0  0  0  0  0  0  0  0
  151.1614  143.6229  158.6175 C   0  0  0  0  0  0  0  0  0  0  0  0
  151.7849  142.5673  159.3194 C   0  0  0  0  0  0  0  0  0  0  0  0
  152.4509  142.8357  160.5328 C   0  0  0  0  0  0  0  0  0  0  0  0
  152.4802  144.0949  161.0194 N   0  3  0  0  0  0  0  0  0  0  0  0
  151.8875  145.1334  160.3924 C   0  0  0  0  0  0  0  0  0  0  0  0
  151.2059  144.9261  159.1759 C   0  0  0  0  0  0  0  0  0  0  0  0
  151.3394  136.9636  155.2913 H   0  0  0  0  0  0  0  0  0  0  0  0
  149.6730  137.2327  155.7564 H   0  0  0  0  0  0  0  0  0  0  0  0
  149.2848  139.9128  156.3796 H   0  0  0  0  0  0  0  0  0  0  0  0
  148.3808  138.5596  153.8358 H   0  0  0  0  0  0  0  0  0  0  0  0
  147.6631  138.5011  155.4407 H   0  0  0  0  0  0  0  0  0  0  0  0
  146.5352  140.0906  153.6052 H   0  0  0  0  0  0  0  0  0  0  0  0
  146.7950  140.7366  155.2252 H   0  0  0  0  0  0  0  0  0  0  0  0
  148.4953  141.1767  152.7643 H   0  0  0  0  0  0  0  0  0  0  0  0
  147.9080  142.3961  153.8801 H   0  0  0  0  0  0  0  0  0  0  0  0
  150.4271  141.1903  153.9306 H   0  0  0  0  0  0  0  0  0  0  0  0
  149.3017  143.1069  155.4068 H   0  0  0  0  0  0  0  0  0  0  0  0
  149.8756  144.0201  157.0482 H   0  0  0  0  0  0  0  0  0  0  0  0
  151.7594  141.5590  158.9316 H   0  0  0  0  0  0  0  0  0  0  0  0
  152.9547  142.0859  161.1253 H   0  0  0  0  0  0  0  0  0  0  0  0
  151.9689  146.0928  160.8825 H   0  0  0  0  0  0  0  0  0  0  0  0
  150.7213  145.7670  158.7038 H   0  0  0  0  0  0  0  0  0  0  0  0
  152.9655  144.2682  161.9003 H   0  0  0  0  0  0  0  0  0  0  0  0
  1  2  1  0  0  0  0
  1 19  1  0  0  0  0
  1 20  1  0  0  0  0
  2  3  2  0  0  0  0
  2  4  1  0  0  0  0
  4  8  1  0  0  0  0
  4  5  1  0  0  0  0
  4 21  1  0  0  0  0
  5  6  1  0  0  0  0
  5 22  1  0  0  0  0
  5 23  1  0  0  0  0
  6  7  1  0  0  0  0
  6 24  1  0  0  0  0
  6 25  1  0  0  0  0
  7  8  1  0  0  0  0
  7 26  1  0  0  0  0
  7 27  1  0  0  0  0
  8  9  1  0  0  0  0
  8 28  1  0  0  0  0
  9 10  1  0  0  0  0
  9 29  1  0  0  0  0
 10 11  2  0  0  0  0
 10 12  1  0  0  0  0
 12 13  1  0  0  0  0
 12 30  1  0  0  0  0
 13 18  1  0  0  0  0
 13 14  2  0  0  0  0
 14 15  1  0  0  0  0
 14 31  1  0  0  0  0
 15 16  2  0  0  0  0
 15 32  1  0  0  0  0
 16 17  1  0  0  0  0
 16 35  1  0  0  0  0
 17 18  2  0  0  0  0
 17 33  1  0  0  0  0
 18 34  1  0  0  0  0
M  CHG  1  16   1
M  END
> <s_m_source_file>
AV-unprocessed.smi

> <i_m_source_file_index>
699

> <i_lp_mmshare_version>
43012

> <i_f3d_flags>
0

> <s_epik_input>
W05IMl1DKD1PKVtDQEBIXTFbQ0gyXVtDSDJdW0NIMl1bQ0BIXTFbTkhdQyg9TylbTkhdYzJbY0hdW2NIXW5bY0hdW2NIXTI=

> <s_epik_cmdline>
J2VwaWtfcHl0aG9uJywgJy1waCcsICc3LjAnLCAnLXRuJywgJzgnLCAnLW1hJywgJzIwMCcsICctbWV0YWxfYmluZGluZycsICctaW1hZScsICc8aW5maWxlLm1hZT4nLCAnLW9tYWUnLCAnPG91dGZpbGUubWFlPic=

> <r_epik_Ionization_Penalty>
1.0332

> <r_epik_Ionization_Penalty_Charging>
1.03318

> <r_epik_Ionization_Penalty_Neutral>
1.91967e-05

> <r_epik_State_Penalty>
1.08452

> <r_epik_Charging_Adjusted_Penalty>
2.11769

> <i_epik_Tot_Q>
1

> <i_epik_Tot_abs_Q>
1

> <r_epik_Metal_State_Penalty>
1.18144

> <b_epik_Metal_Only>
0

> <s_lp_Force_Field>
OPLS_2005

> <r_lp_Energy>
26.3794

> <b_lp_Chiralities_Consistent>
1

> <s_lp_Variant>
AV-unprocessed.smi:699-5

> <Gold.Version>
5.8.1

> <Gold.Id.Protein>
6NUR|6NUR_protein|mol2

> <Gold.PLP.Fitness>
42.7493

> <Gold.PLP.PLP>
-35.0174

> <Gold.PLP.part.hbond>
-3.0000

> <Gold.PLP.part.metal>
0.0000

> <Gold.PLP.part.buried>
-1.7031

> <Gold.PLP.part.nonpolar>
-28.9011

> <Gold.PLP.part.repulsive>
0.3655

> <Gold.PLP.ligand.clash>
0.0000

> <Gold.PLP.ligand.torsion>
0.6379

> <Gold.PLP.Chemscore.Hbond>
3.0000

> <Gold.PLP.Chemscore.CHOScore>
0.0000

> <Gold.PLP.Chemscore.Metal>
0.0000

> <Gold.Chemscore.Hbonds>
donor molecule, donor type, donor heavy atom, donor atom, acceptor molecule, acceptor atom, score
      L1  H     9    29       P1  8028  1.00
      L1  H    12    30       P1  8028  1.00
      P1  H  7989  7998       L1     3  1.00

> <Gold.PLP.Chemscore.Internal.Correction>
0.0077

> <Gold.Rescore>
     Score         DG    S(hbond)    S(metal)    S(lipo)     H(rot)  DE(clash)    DE(int)     intcor
     16.19     -21.11       2.83        0.00      85.67       1.50       0.59       4.33       ----

> <Gold.Chemscore.Fitness>
16.1853

> <Gold.Chemscore.DG>
-21.1105

> <Gold.Chemscore.ZeroCoef>
-5.4800

> <Gold.Chemscore.Hbond>
2.8313

> <Gold.Chemscore.Metal>
0.0000

> <Gold.Chemscore.Lipo>
85.6728

> <Gold.Chemscore.Internal_Hbond>
0.0000

> <Gold.Chemscore.DEClash>
0.5907

> <Gold.Chemscore.DEInternal>
4.3346

> <Gold.Chemscore.Rot>
1.5038

> <Gold.Chemscore.Internal.Correction>
   9.000000E+99

> <Gold.Chemscore.Hbonds>
donor molecule, donor type, donor heavy atom, donor atom, acceptor molecule, acceptor atom, score
      L1  H     9    29       P1  8028  0.99
      L1  H    12    30       P1  8028  0.81
      P1  H  7989  7998       L1     3  0.94

> <Gold.Chemscore.Hbond.Weighted>
-9.4564

> <Gold.Chemscore.Metal.Weighted>
-0.0000

> <Gold.Chemscore.Lipo.Weighted>
-10.0237

> <Gold.Chemscore.Internal_Hbond.Weighted>
0.0000

> <Gold.Chemscore.DEClash.Weighted>
0.5907

> <Gold.Chemscore.DEInternal.Weighted>
4.3346

> <Gold.Chemscore.Rot.Weighted>
3.8496

> <Gold.Chemscore.Internal.Correction.Weighted>
   9.000000E+99

> <Gold.Protein.RotatedTorsions>
[ 6907 6896 6895 6894 ] final  -53.72 input  -60.11 | X-H torsion
[ 7974 7965 7964 7962 ] final -146.95 input  175.53 | X-H torsion
[ 8008 7997 7996 7995 ] final  -93.20 input   59.86 | X-H torsion
[ 10167 10162 10161 10158 ] final -117.07 input  -65.29 | X-H torsion
[ 10718 10713 10712 10709 ] final  112.64 input   66.30 | X-H torsion
[ 10763 10752 10751 10750 ] final   59.56 input  -60.55 | X-H torsion
[ 11005 11000 10999 10996 ] final -168.13 input  -57.11 | X-H torsion

> <Gold.Protein.ActiveResidues>
 VAL166  LYS551  ARG553  GLY616  TRP617  ASP618  TYR619  PRO620  LYS621  CYS622 
 ASP623  PHE694  ASN695  SER759  ASP760  ASP761  ALA762  ILE779  LEU786  VAL792 
 PHE793  MET794  SER795  GLU796  ALA797  LYS798  CYS799  TRP800  GLU811  SER814 

> <Gold.Protein.RotatedAtoms>
  150.8401  134.7690  159.6924 H   0  0  0  0  0  0  0  0  0  0  0  0  # atno 6907 bound_to 6896
  152.4490  134.5430  159.9854 H   0  0  0  0  0  0  0  0  0  0  0  0  # atno 6908 bound_to 6896
  151.5572  133.3370  159.3000 H   0  0  0  0  0  0  0  0  0  0  0  0  # atno 6909 bound_to 6896
  144.8126  140.5390  143.5632 H   0  0  0  0  0  0  0  0  0  0  0  0  # atno 7974 bound_to 7965
  154.7327  140.0501  157.0741 H   0  0  0  0  0  0  0  0  0  0  0  0  # atno 8008 bound_to 7997
  155.0281  140.3155  155.4749 H   0  0  0  0  0  0  0  0  0  0  0  0  # atno 8009 bound_to 7997
  156.2845  140.2155  156.5401 H   0  0  0  0  0  0  0  0  0  0  0  0  # atno 8010 bound_to 7997
  140.0724  143.4865  152.1972 H   0  0  0  0  0  0  0  0  0  0  0  0  # atno 10167 bound_to 10162
  157.6382  131.0971  150.6924 H   0  0  0  0  0  0  0  0  0  0  0  0  # atno 10718 bound_to 10713
  152.9897  135.5567  154.5732 H   0  0  0  0  0  0  0  0  0  0  0  0  # atno 10763 bound_to 10752
  154.5128  135.2803  155.1330 H   0  0  0  0  0  0  0  0  0  0  0  0  # atno 10764 bound_to 10752
  154.2715  135.6362  153.5365 H   0  0  0  0  0  0  0  0  0  0  0  0  # atno 10765 bound_to 10752
  140.5454  134.5481  157.5110 H   0  0  0  0  0  0  0  0  0  0  0  0  # atno 11005 bound_to 11000
  145.5289  139.1475  143.3510 LP  0  0  0  0  0  0  0  0  0  0  0  0  # atno 17320 bound_to 7965
  146.2426  140.5430  142.8927 LP  0  0  0  0  0  0  0  0  0  0  0  0  # atno 17321 bound_to 7965
  139.5828  144.7518  151.3596 LP  0  0  0  0  0  0  0  0  0  0  0  0  # atno 17342 bound_to 10162
  140.7119  143.7368  150.7583 LP  0  0  0  0  0  0  0  0  0  0  0  0  # atno 17343 bound_to 10162
  156.7252  130.4693  149.5513 LP  0  0  0  0  0  0  0  0  0  0  0  0  # atno 17370 bound_to 10713
  156.1638  130.6392  151.0753 LP  0  0  0  0  0  0  0  0  0  0  0  0  # atno 17371 bound_to 10713
  139.9482  134.7664  156.0511 LP  0  0  0  0  0  0  0  0  0  0  0  0  # atno 17394 bound_to 11000
  141.1202  133.6615  156.3197 LP  0  0  0  0  0  0  0  0  0  0  0  0  # atno 17395 bound_to 11000

$$$$
