AV-unprocessed.smi:1011|AV-procd|sdf|4420|dock8
  -GOLD-   22720 2373D 1   1.00000     0.00000
 Structure written by MMmdl.
 43 45  0  0  0  0  0  0  0  0  1 V2000
  144.0513  145.5368  155.4963 C   0  0  0  0  0  0  0  0  0  0  0  0
  144.9831  144.4678  155.0032 C   0  0  0  0  0  0  0  0  0  0  0  0
  145.1782  144.0301  153.6623 C   0  0  0  0  0  0  0  0  0  0  0  0
  146.0779  143.0656  153.5616 N   0  0  0  0  0  0  0  0  0  0  0  0
  146.4885  142.8541  154.8298 N   0  0  0  0  0  0  0  0  0  0  0  0
  147.4952  141.8468  155.1009 C   0  0  0  0  0  0  0  0  0  0  0  0
  147.7819  140.9923  153.8589 C   0  0  0  0  0  0  0  0  0  0  0  0
  149.2113  140.9712  153.5967 N   0  0  0  0  0  0  0  0  0  0  0  0
  149.8702  140.0746  154.5354 C   0  0  0  0  0  0  0  0  0  0  0  0
  150.4632  140.7629  155.7326 C   0  0  0  0  0  0  0  0  0  0  0  0
  150.3251  142.0690  155.9760 N   0  0  0  0  0  0  0  0  0  0  0  0
  151.0177  142.2354  157.1592 C   0  0  0  0  0  0  0  0  0  0  0  0
  151.2413  143.3934  157.9376 C   0  0  0  0  0  0  0  0  0  0  0  0
  151.9935  143.3191  159.1286 C   0  0  0  0  0  0  0  0  0  0  0  0
  152.2564  144.7424  160.0676 Cl  0  0  0  0  0  0  0  0  0  0  0  0
  152.5323  142.0877  159.5557 C   0  0  0  0  0  0  0  0  0  0  0  0
  152.3216  140.9218  158.7946 C   0  0  0  0  0  0  0  0  0  0  0  0
  151.5682  141.0022  157.6082 C   0  0  0  0  0  0  0  0  0  0  0  0
  151.1812  140.0700  156.6512 N   0  0  0  0  0  0  0  0  0  0  0  0
  151.4997  138.6511  156.6551 C   0  0  0  0  0  0  0  0  0  0  0  0
  152.0885  138.2043  155.3101 C   0  0  0  0  0  0  0  0  0  0  0  0
  151.6960  136.8775  155.0364 O   0  0  0  0  0  0  0  0  0  0  0  0
  145.8443  143.6863  155.7204 C   0  0  0  0  0  0  0  0  0  0  0  0
  143.1975  145.6660  154.8308 H   0  0  0  0  0  0  0  0  0  0  0  0
  144.5517  146.5024  155.5685 H   0  0  0  0  0  0  0  0  0  0  0  0
  143.6545  145.3040  156.4847 H   0  0  0  0  0  0  0  0  0  0  0  0
  144.6948  144.3839  152.7636 H   0  0  0  0  0  0  0  0  0  0  0  0
  148.4040  142.3470  155.4389 H   0  0  0  0  0  0  0  0  0  0  0  0
  147.1490  141.2229  155.9265 H   0  0  0  0  0  0  0  0  0  0  0  0
  147.4242  139.9731  154.0125 H   0  0  0  0  0  0  0  0  0  0  0  0
  147.2533  141.3996  152.9958 H   0  0  0  0  0  0  0  0  0  0  0  0
  149.3732  140.6456  152.6545 H   0  0  0  0  0  0  0  0  0  0  0  0
  149.1506  139.3367  154.8919 H   0  0  0  0  0  0  0  0  0  0  0  0
  150.6600  139.5344  154.0123 H   0  0  0  0  0  0  0  0  0  0  0  0
  150.8324  144.3400  157.6165 H   0  0  0  0  0  0  0  0  0  0  0  0
  153.1078  142.0372  160.4683 H   0  0  0  0  0  0  0  0  0  0  0  0
  152.7332  139.9778  159.1195 H   0  0  0  0  0  0  0  0  0  0  0  0
  152.2092  138.4579  157.4606 H   0  0  0  0  0  0  0  0  0  0  0  0
  150.6024  138.0792  156.8938 H   0  0  0  0  0  0  0  0  0  0  0  0
  151.7450  138.8500  154.5015 H   0  0  0  0  0  0  0  0  0  0  0  0
  153.1778  138.2560  155.3296 H   0  0  0  0  0  0  0  0  0  0  0  0
  150.7532  136.8491  154.9773 H   0  0  0  0  0  0  0  0  0  0  0  0
  146.0511  143.6551  156.7800 H   0  0  0  0  0  0  0  0  0  0  0  0
  1  2  1  0  0  0  0
  1 24  1  0  0  0  0
  1 25  1  0  0  0  0
  1 26  1  0  0  0  0
  2 23  2  0  0  0  0
  2  3  1  0  0  0  0
  3  4  2  0  0  0  0
  3 27  1  0  0  0  0
  4  5  1  0  0  0  0
  5  6  1  0  0  0  0
  5 23  1  0  0  0  0
  6  7  1  0  0  0  0
  6 28  1  0  0  0  0
  6 29  1  0  0  0  0
  7  8  1  0  0  0  0
  7 30  1  0  0  0  0
  7 31  1  0  0  0  0
  8  9  1  0  0  0  0
  8 32  1  0  0  0  0
  9 10  1  0  0  0  0
  9 33  1  0  0  0  0
  9 34  1  0  0  0  0
 10 19  1  0  0  0  0
 10 11  2  0  0  0  0
 11 12  1  0  0  0  0
 12 18  2  0  0  0  0
 12 13  1  0  0  0  0
 13 14  2  0  0  0  0
 13 35  1  0  0  0  0
 14 15  1  0  0  0  0
 14 16  1  0  0  0  0
 16 17  2  0  0  0  0
 16 36  1  0  0  0  0
 17 18  1  0  0  0  0
 17 37  1  0  0  0  0
 18 19  1  0  0  0  0
 19 20  1  0  0  0  0
 20 21  1  0  0  0  0
 20 38  1  0  0  0  0
 20 39  1  0  0  0  0
 21 22  1  0  0  0  0
 21 40  1  0  0  0  0
 21 41  1  0  0  0  0
 22 42  1  0  0  0  0
 23 43  1  0  0  0  0
M  END
> <s_m_source_file>
AV-unprocessed.smi

> <i_m_source_file_index>
1011

> <i_lp_mmshare_version>
43012

> <i_f3d_flags>
0

> <s_epik_input>
W0NIM11jMVtjSF1ubihbY0hdMSlbQ0gyXVtDSDJdW05IXVtDSDJdYyhuMiluKFtDSDJdW0NIMl1bT0hdKWMoYzIzKVtjSF1bY0hdYyhDbClbY0hdMw==

> <s_epik_cmdline>
J2VwaWtfcHl0aG9uJywgJy1waCcsICc3LjAnLCAnLXRuJywgJzgnLCAnLW1hJywgJzIwMCcsICctbWV0YWxfYmluZGluZycsICctaW1hZScsICc8aW5maWxlLm1hZT4nLCAnLW9tYWUnLCAnPG91dGZpbGUubWFlPic=

> <r_lp_tautomer_probability>
1

> <r_epik_Ionization_Penalty>
0.714951

> <r_epik_Ionization_Penalty_Charging>
0

> <r_epik_Ionization_Penalty_Neutral>
0.714951

> <r_epik_State_Penalty>
0.695393

> <r_epik_Charging_Adjusted_Penalty>
0.695393

> <i_epik_Tot_Q>
0

> <i_epik_Tot_abs_Q>
0

> <r_epik_Metal_State_Penalty>
0.662708

> <b_epik_Metal_Only>
0

> <s_lp_Force_Field>
OPLS_2005

> <r_lp_Energy>
11.4797

> <b_lp_Chiralities_Consistent>
1

> <s_lp_Variant>
AV-unprocessed.smi:1011-2

> <Gold.Version>
5.8.1

> <Gold.Id.Protein>
6NUR|6NUR_protein|mol2

> <Gold.PLP.Fitness>
54.5367

> <Gold.PLP.PLP>
-48.5693

> <Gold.PLP.part.hbond>
-4.0000

> <Gold.PLP.part.metal>
0.0000

> <Gold.PLP.part.buried>
-5.5175

> <Gold.PLP.part.nonpolar>
-41.3285

> <Gold.PLP.part.repulsive>
1.2625

> <Gold.PLP.ligand.clash>
0.0000

> <Gold.PLP.ligand.torsion>
1.0797

> <Gold.PLP.Chemscore.Hbond>
1.9600

> <Gold.PLP.Chemscore.CHOScore>
0.7163

> <Gold.PLP.Chemscore.Metal>
0.0000

> <Gold.Chemscore.Hbonds>
donor molecule, donor type, donor heavy atom, donor atom, acceptor molecule, acceptor atom, score
      L1  H     8    32       P1  7957  1.00
      P1  H 10752 10765       L1    22  1.00
      L1  C     3    27       P1 10174  0.15

> <Gold.PLP.Chemscore.Internal.Correction>
0.0978

> <Gold.Rescore>
     Score         DG    S(hbond)    S(metal)    S(lipo)     H(rot)  DE(clash)    DE(int)     intcor
     17.10     -18.32       1.93        0.00     116.93       2.84       0.28       0.95       ----

> <Gold.Chemscore.Fitness>
17.0997

> <Gold.Chemscore.DG>
-18.3224

> <Gold.Chemscore.ZeroCoef>
-5.4800

> <Gold.Chemscore.Hbond>
1.9289

> <Gold.Chemscore.Metal>
0.0000

> <Gold.Chemscore.Lipo>
116.9315

> <Gold.Chemscore.Internal_Hbond>
0.0000

> <Gold.Chemscore.DEClash>
0.2750

> <Gold.Chemscore.DEInternal>
0.9476

> <Gold.Chemscore.Rot>
2.8442

> <Gold.Chemscore.Internal.Correction>
   9.000000E+99

> <Gold.Chemscore.Hbonds>
donor molecule, donor type, donor heavy atom, donor atom, acceptor molecule, acceptor atom, score
      L1  H     8    32       P1  7957  0.99
      P1  H 10752 10765       L1    22  0.97

> <Gold.Chemscore.Hbond.Weighted>
-6.4426

> <Gold.Chemscore.Metal.Weighted>
-0.0000

> <Gold.Chemscore.Lipo.Weighted>
-13.6810

> <Gold.Chemscore.Internal_Hbond.Weighted>
0.0000

> <Gold.Chemscore.DEClash.Weighted>
0.2750

> <Gold.Chemscore.DEInternal.Weighted>
0.9476

> <Gold.Chemscore.Rot.Weighted>
7.2812

> <Gold.Chemscore.Internal.Correction.Weighted>
   9.000000E+99

> <Gold.Protein.RotatedTorsions>
[ 6907 6896 6895 6894 ] final -155.81 input  -60.11 | X-H torsion
[ 7974 7965 7964 7962 ] final -129.43 input  175.53 | X-H torsion
[ 8008 7997 7996 7995 ] final -128.21 input   59.86 | X-H torsion
[ 10167 10162 10161 10158 ] final   37.99 input  -65.29 | X-H torsion
[ 10718 10713 10712 10709 ] final   -3.59 input   66.30 | X-H torsion
[ 10763 10752 10751 10750 ] final  171.61 input  -60.55 | X-H torsion
[ 11005 11000 10999 10996 ] final  -58.64 input  -57.11 | X-H torsion

> <Gold.Protein.ActiveResidues>
 VAL166  LYS551  ARG553  GLY616  TRP617  ASP618  TYR619  PRO620  LYS621  CYS622 
 ASP623  PHE694  ASN695  SER759  ASP760  ASP761  ALA762  ILE779  LEU786  VAL792 
 PHE793  MET794  SER795  GLU796  ALA797  LYS798  CYS799  TRP800  GLU811  SER814 

> <Gold.Protein.RotatedAtoms>
  151.2781  133.4222  159.2625 H   0  0  0  0  0  0  0  0  0  0  0  0  # atno 6907 bound_to 6896
  151.0385  134.9590  159.8159 H   0  0  0  0  0  0  0  0  0  0  0  0  # atno 6908 bound_to 6896
  152.5360  134.2740  159.9035 H   0  0  0  0  0  0  0  0  0  0  0  0  # atno 6909 bound_to 6896
  144.9572  140.7409  143.4751 H   0  0  0  0  0  0  0  0  0  0  0  0  # atno 7974 bound_to 7965
  155.2589  140.0435  157.2995 H   0  0  0  0  0  0  0  0  0  0  0  0  # atno 8008 bound_to 7997
  154.5723  140.2377  155.8143 H   0  0  0  0  0  0  0  0  0  0  0  0  # atno 8009 bound_to 7997
  156.2132  140.2992  155.9787 H   0  0  0  0  0  0  0  0  0  0  0  0  # atno 8010 bound_to 7997
  140.3979  144.1763  150.6132 H   0  0  0  0  0  0  0  0  0  0  0  0  # atno 10167 bound_to 10162
  156.7737  130.5308  149.5763 H   0  0  0  0  0  0  0  0  0  0  0  0  # atno 10718 bound_to 10713
  154.4143  135.2757  155.2017 H   0  0  0  0  0  0  0  0  0  0  0  0  # atno 10763 bound_to 10752
  154.3989  135.6049  153.5889 H   0  0  0  0  0  0  0  0  0  0  0  0  # atno 10764 bound_to 10752
  152.9832  135.5921  154.4429 H   0  0  0  0  0  0  0  0  0  0  0  0  # atno 10765 bound_to 10752
  141.1215  133.6613  156.4950 H   0  0  0  0  0  0  0  0  0  0  0  0  # atno 11005 bound_to 11000
  145.2754  139.1938  143.4819 LP  0  0  0  0  0  0  0  0  0  0  0  0  # atno 17320 bound_to 7965
  146.3341  140.2707  142.8606 LP  0  0  0  0  0  0  0  0  0  0  0  0  # atno 17321 bound_to 7965
  140.4770  143.2392  151.9008 LP  0  0  0  0  0  0  0  0  0  0  0  0  # atno 17342 bound_to 10162
  139.4786  144.5309  151.8668 LP  0  0  0  0  0  0  0  0  0  0  0  0  # atno 17343 bound_to 10162
  156.1261  130.6145  151.0266 LP  0  0  0  0  0  0  0  0  0  0  0  0  # atno 17370 bound_to 10713
  157.6679  131.0868  150.7684 LP  0  0  0  0  0  0  0  0  0  0  0  0  # atno 17371 bound_to 10713
  140.4492  134.6944  157.5031 LP  0  0  0  0  0  0  0  0  0  0  0  0  # atno 17394 bound_to 11000
  140.0177  134.6594  155.9285 LP  0  0  0  0  0  0  0  0  0  0  0  0  # atno 17395 bound_to 11000

$$$$
