#       Name:                AV-unprocessed.smi:2991
#       Creating user name   scv26
#       Creation time:       Fri Mar 27 16:32:29 2020


#       File generated by GOLD software.
#

@<TRIPOS>MOLECULE
AV-unprocessed.smi:2991
    42    43     1
SMALL
NO_CHARGES


@<TRIPOS>ATOM
      1 ****        -5.6288   3.0113  -1.2488 C.3            1 S1                 0.0000
      2 ****        -4.7629   1.7803  -1.0620 C.ar           1 S1                 0.0000
      3 ****        -5.3738   0.5751  -1.0689 N.pl3          1 S1                 1.0000
      4 ****        -4.7070  -0.5882  -0.9196 C.ar           1 S1                 0.0000
      5 ****        -3.3099  -0.5793  -0.7410 C.ar           1 S1                 0.0000
      6 ****        -2.6193   0.6589  -0.7090 C.ar           1 S1                 0.0000
      7 ****        -1.2083   0.7575  -0.5533 N.am           1 S1                 0.0000
      8 ****        -0.3662  -0.1097   0.0332 C.2            1 S1                 0.0000
      9 ****        -0.6931  -1.1731   0.5599 O.2            1 S1                 0.0000
     10 ****         0.8963   0.3391  -0.0107 N.am           1 S1                 0.0000
     11 ****         2.0652  -0.3325   0.5596 C.3            1 S1                 0.0000
     12 ****         2.6023  -1.3923  -0.4282 C.3            1 S1                 0.0000
     13 ****         3.4411  -2.4968   0.2344 C.3            1 S1                 0.0000
     14 ****         4.7350  -2.0100   0.9037 C.3            1 S1                 0.0000
     15 ****         4.4959  -1.0862   2.1102 C.3            1 S1                 0.0000
     16 ****         4.1807   0.2810   1.7155 N.am           1 S1                 0.0000
     17 ****         3.1158   0.6985   1.0141 C.2            1 S1                 0.0000
     18 ****         2.9826   1.8890   0.7308 O.2            1 S1                 0.0000
     19 ****        -3.3610   1.8534  -0.8855 C.ar           1 S1                 0.0000
     20 ****        -2.5663   3.3921  -0.8794 Cl             1 S1                 0.0000
     21 ****        -5.5570   3.6613  -0.3764 H              1 S1                 0.0000
     22 ****        -6.6768   2.7443  -1.3871 H              1 S1                 0.0000
     23 ****        -5.3054   3.5737  -2.1248 H              1 S1                 0.0000
     24 ****        -5.3062  -1.4865  -0.9537 H              1 S1                 0.0000
     25 ****        -2.7942  -1.5225  -0.6451 H              1 S1                 0.0000
     26 ****        -0.8005   1.6288  -0.8607 H              1 S1                 0.0000
     27 ****         1.0697   1.2299  -0.4539 H              1 S1                 0.0000
     28 ****         1.7277  -0.8423   1.4642 H              1 S1                 0.0000
     29 ****         1.7660  -1.8807  -0.9302 H              1 S1                 0.0000
     30 ****         3.1775  -0.9093  -1.2195 H              1 S1                 0.0000
     31 ****         2.8304  -3.0281   0.9655 H              1 S1                 0.0000
     32 ****         3.7013  -3.2343  -0.5255 H              1 S1                 0.0000
     33 ****         5.2846  -2.8865   1.2483 H              1 S1                 0.0000
     34 ****         5.3811  -1.5217   0.1729 H              1 S1                 0.0000
     35 ****         3.7181  -1.4834   2.7638 H              1 S1                 0.0000
     36 ****         5.4050  -1.0417   2.7101 H              1 S1                 0.0000
     37 ****         4.8463   0.9869   1.9958 H              1 S1                 0.0000
     38 ****        -6.3854   0.5432  -1.1983 H              1 S1                 0.0000
     39 ****        -1.6539  -1.4500   0.5730 LP             1 S1                 0.0000
     40 ****         0.0021  -1.7601   0.9746 LP             1 S1                 0.0000
     41 ****         2.1891   2.1916   0.2028 LP             1 S1                 0.0000
     42 ****         3.6679   2.5536   1.0286 LP             1 S1                 0.0000
@<TRIPOS>BOND
    1    1    2 1     
    2    1   21 1     
    3    1   22 1     
    4    1   23 1     
    5    2   19 ar    
    6    2    3 ar    
    7    3    4 ar    
    8    3   38 1     
    9    4    5 ar    
   10    4   24 1     
   11    5    6 ar    
   12    5   25 1     
   13    6    7 1     
   14    6   19 ar    
   15    7    8 am    
   16    7   26 1     
   17    8    9 2     
   18    8   10 am    
   19   10   11 1     
   20   10   27 1     
   21   11   17 1     
   22   11   12 1     
   23   11   28 1     
   24   12   13 1     
   25   12   29 1     
   26   12   30 1     
   27   13   14 1     
   28   13   31 1     
   29   13   32 1     
   30   14   15 1     
   31   14   33 1     
   32   14   34 1     
   33   15   16 1     
   34   15   35 1     
   35   15   36 1     
   36   16   17 am    
   37   16   37 1     
   38   17   18 2     
   39   19   20 1     
   40    9   39 1     
   41    9   40 1     
   42   18   41 1     
   43   18   42 1     
@<TRIPOS>SUBSTRUCTURE
      1 S1             1
@<TRIPOS>SET
LONE_PAIRS      STATIC     ATOMS    <user>   **** ""
4 39 40 41 42
DONOR_HYDROGENS      STATIC     ATOMS    <user>   **** ""
4 38 26 27 37
ATOM$BLUE        STATIC     ATOMS    COLORGROUP SYSTEM
4 39 40 41 42
ATOM$RED        STATIC     ATOMS    COLORGROUP SYSTEM
4 38 26 27 37
