AV-unprocessed.smi:1199|AV-procd|sdf|5020|dock8
  -GOLD-   22720 4 43D 1   1.00000     0.00000
 Structure written by MMmdl.
 42 43  0  0  0  0  0  0  0  0  2 V2000
  149.6477  133.3892  155.9960 C   0  0  0  0  0  0  0  0  0  0  0  0
  149.7147  134.4385  154.8782 C   0  0  2  0  0  0  0  0  0  0  0  0
  149.0742  135.7768  155.3167 C   0  0  0  0  0  0  0  0  0  0  0  0
  149.7090  136.9668  154.6920 N   0  3  0  0  0  0  0  0  0  0  0  0
  148.9367  138.2138  154.9030 C   0  0  0  0  0  0  0  0  0  0  0  0
  149.6104  139.3939  154.1792 C   0  0  0  0  0  0  0  0  0  0  0  0
  150.9584  139.5241  154.6140 O   0  0  0  0  0  0  0  0  0  0  0  0
  151.7238  138.3580  154.3348 C   0  0  0  0  0  0  0  0  0  0  0  0
  151.1231  137.1636  155.0928 C   0  0  0  0  0  0  0  0  0  0  0  0
  149.0553  133.9146  153.6820 N   0  0  0  0  0  0  0  0  0  0  0  0
  147.8993  133.2325  153.6582 C   0  0  0  0  0  0  0  0  0  0  0  0
  147.2080  133.0329  154.6571 O   0  0  0  0  0  0  0  0  0  0  0  0
  147.4683  132.6686  152.2990 C   0  0  0  0  0  0  0  0  0  0  0  0
  146.3026  133.3818  151.7576 N   0  0  0  0  0  0  0  0  0  0  0  0
  146.4957  134.7445  151.5914 N   0  0  0  0  0  0  0  0  0  0  0  0
  145.5325  135.4829  151.1537 C   0  0  0  0  0  0  0  0  0  0  0  0
  145.7657  136.8279  151.0070 O   0  0  0  0  0  0  0  0  0  0  0  0
  144.2428  134.9153  150.8265 C   0  0  0  0  0  0  0  0  0  0  0  0
  144.0663  133.5852  150.9845 C   0  0  0  0  0  0  0  0  0  0  0  0
  145.1378  132.7188  151.4778 C   0  0  0  0  0  0  0  0  0  0  0  0
  145.0041  131.5055  151.6399 O   0  0  0  0  0  0  0  0  0  0  0  0
  145.0511  137.1508  150.4799 H   0  0  0  0  0  0  0  0  0  0  0  0
  150.1558  133.7417  156.8940 H   0  0  0  0  0  0  0  0  0  0  0  0
  150.1286  132.4589  155.6913 H   0  0  0  0  0  0  0  0  0  0  0  0
  148.6169  133.1580  156.2664 H   0  0  0  0  0  0  0  0  0  0  0  0
  150.7722  134.6053  154.6685 H   0  0  0  0  0  0  0  0  0  0  0  0
  148.0209  135.7551  155.0323 H   0  0  0  0  0  0  0  0  0  0  0  0
  149.0925  135.8767  156.4029 H   0  0  0  0  0  0  0  0  0  0  0  0
  147.9198  138.0889  154.5290 H   0  0  0  0  0  0  0  0  0  0  0  0
  148.8643  138.4218  155.9718 H   0  0  0  0  0  0  0  0  0  0  0  0
  149.5815  139.2598  153.0977 H   0  0  0  0  0  0  0  0  0  0  0  0
  149.0782  140.3199  154.3967 H   0  0  0  0  0  0  0  0  0  0  0  0
  151.7473  138.1677  153.2601 H   0  0  0  0  0  0  0  0  0  0  0  0
  152.7530  138.5261  154.6521 H   0  0  0  0  0  0  0  0  0  0  0  0
  151.1798  137.3372  156.1684 H   0  0  0  0  0  0  0  0  0  0  0  0
  151.7094  136.2695  154.8851 H   0  0  0  0  0  0  0  0  0  0  0  0
  149.5431  134.0394  152.8063 H   0  0  0  0  0  0  0  0  0  0  0  0
  148.3164  132.7410  151.6157 H   0  0  0  0  0  0  0  0  0  0  0  0
  147.2441  131.6033  152.3814 H   0  0  0  0  0  0  0  0  0  0  0  0
  143.4468  135.5487  150.4629 H   0  0  0  0  0  0  0  0  0  0  0  0
  143.1088  133.1479  150.7424 H   0  0  0  0  0  0  0  0  0  0  0  0
  149.7053  136.7999  153.6954 H   0  0  0  0  0  0  0  0  0  0  0  0
  1  2  1  0  0  0  0
  1 23  1  0  0  0  0
  1 24  1  0  0  0  0
  1 25  1  0  0  0  0
  2  3  1  0  0  0  0
  2 10  1  0  0  0  0
  2 26  1  0  0  0  0
  3  4  1  0  0  0  0
  3 27  1  0  0  0  0
  3 28  1  0  0  0  0
  4  9  1  0  0  0  0
  4  5  1  0  0  0  0
  4 42  1  0  0  0  0
  5  6  1  0  0  0  0
  5 29  1  0  0  0  0
  5 30  1  0  0  0  0
  6  7  1  0  0  0  0
  6 31  1  0  0  0  0
  6 32  1  0  0  0  0
  7  8  1  0  0  0  0
  8  9  1  0  0  0  0
  8 33  1  0  0  0  0
  8 34  1  0  0  0  0
  9 35  1  0  0  0  0
  9 36  1  0  0  0  0
 10 11  1  0  0  0  0
 10 37  1  0  0  0  0
 11 12  2  0  0  0  0
 11 13  1  0  0  0  0
 13 38  1  0  0  0  0
 13 39  1  0  0  0  0
 13 14  1  0  0  0  0
 14 15  1  0  0  0  0
 14 20  1  0  0  0  0
 15 16  2  0  0  0  0
 16 17  1  0  0  0  0
 16 18  1  0  0  0  0
 17 22  1  0  0  0  0
 18 40  1  0  0  0  0
 18 19  2  0  0  0  0
 19 41  1  0  0  0  0
 19 20  1  0  0  0  0
 20 21  2  0  0  0  0
M  CHG  1   4   1
M  END
> <s_m_source_file>
AV-unprocessed.smi

> <i_m_source_file_index>
1199

> <i_lp_mmshare_version>
43012

> <i_f3d_flags>
0

> <s_epik_input>
W0NIMl0xW0NIMl1PW0NIMl1bQ0gyXU4xW0NIMl1bQ0BASF0oW0NIM10pW05IXUMoPU8pW0NIMl1uMltuSF1jKD1PKVtjSF1bY0hdYzI9Tw==

> <s_epik_cmdline>
J2VwaWtfcHl0aG9uJywgJy1waCcsICc3LjAnLCAnLXRuJywgJzgnLCAnLW1hJywgJzIwMCcsICctbWV0YWxfYmluZGluZycsICctaW1hZScsICc8aW5maWxlLm1hZT4nLCAnLW9tYWUnLCAnPG91dGZpbGUubWFlPic=

> <r_lp_tautomer_probability>
0.9996

> <r_epik_Ionization_Penalty>
2.86815

> <r_epik_Ionization_Penalty_Charging>
0.656653

> <r_epik_Ionization_Penalty_Neutral>
2.21149

> <r_epik_State_Penalty>
2.43136

> <r_epik_Charging_Adjusted_Penalty>
3.08801

> <i_epik_Tot_Q>
1

> <i_epik_Tot_abs_Q>
1

> <r_epik_Metal_State_Penalty>
2.43136

> <b_epik_Metal_Only>
0

> <s_lp_Force_Field>
OPLS_2005

> <r_lp_Energy>
31.3185

> <b_lp_Chiralities_Consistent>
1

> <s_lp_Variant>
AV-unprocessed.smi:1199-7

> <Gold.Version>
5.8.1

> <Gold.Id.Protein>
6NUR|6NUR_protein|mol2

> <Gold.PLP.Fitness>
44.1976

> <Gold.PLP.PLP>
-33.7524

> <Gold.PLP.part.hbond>
-4.0255

> <Gold.PLP.part.metal>
0.0000

> <Gold.PLP.part.buried>
-5.2033

> <Gold.PLP.part.nonpolar>
-26.8205

> <Gold.PLP.part.repulsive>
2.5030

> <Gold.PLP.ligand.clash>
0.0000

> <Gold.PLP.ligand.torsion>
0.8080

> <Gold.PLP.Chemscore.Hbond>
4.0000

> <Gold.PLP.Chemscore.CHOScore>
0.0000

> <Gold.PLP.Chemscore.Metal>
0.0000

> <Gold.Chemscore.Hbonds>
donor molecule, donor type, donor heavy atom, donor atom, acceptor molecule, acceptor atom, score
      L1  H     4    42       P1  7948  2.00
      L1  H    17    22       P1 10171  1.00
      P1  H  7989  7998       L1     7  1.00

> <Gold.PLP.Chemscore.Internal.Correction>
0.0613

> <Gold.Rescore>
     Score         DG    S(hbond)    S(metal)    S(lipo)     H(rot)  DE(clash)    DE(int)     intcor
      9.01     -12.06       2.26        0.00      58.03       3.03       1.20       1.84       ----

> <Gold.Chemscore.Fitness>
9.0147

> <Gold.Chemscore.DG>
-12.0614

> <Gold.Chemscore.ZeroCoef>
-5.4800

> <Gold.Chemscore.Hbond>
2.2628

> <Gold.Chemscore.Metal>
0.0000

> <Gold.Chemscore.Lipo>
58.0313

> <Gold.Chemscore.Internal_Hbond>
0.0000

> <Gold.Chemscore.DEClash>
1.2041

> <Gold.Chemscore.DEInternal>
1.8426

> <Gold.Chemscore.Rot>
3.0336

> <Gold.Chemscore.Internal.Correction>
   9.000000E+99

> <Gold.Chemscore.Hbonds>
donor molecule, donor type, donor heavy atom, donor atom, acceptor molecule, acceptor atom, score
      L1  H     4    42       P1  7948  0.61
      L1  H    17    22       P1 10171  0.95
      P1  H  7989  7998       L1     7  0.22

> <Gold.Chemscore.Hbond.Weighted>
-7.5578

> <Gold.Chemscore.Metal.Weighted>
-0.0000

> <Gold.Chemscore.Lipo.Weighted>
-6.7897

> <Gold.Chemscore.Internal_Hbond.Weighted>
0.0000

> <Gold.Chemscore.DEClash.Weighted>
1.2041

> <Gold.Chemscore.DEInternal.Weighted>
1.8426

> <Gold.Chemscore.Rot.Weighted>
7.7661

> <Gold.Chemscore.Internal.Correction.Weighted>
   9.000000E+99

> <Gold.Protein.RotatedTorsions>
[ 6907 6896 6895 6894 ] final  118.62 input  -60.11 | X-H torsion
[ 7974 7965 7964 7962 ] final   36.92 input  175.53 | X-H torsion
[ 8008 7997 7996 7995 ] final  164.57 input   59.86 | X-H torsion
[ 10167 10162 10161 10158 ] final -160.80 input  -65.29 | X-H torsion
[ 10718 10713 10712 10709 ] final   88.95 input   66.30 | X-H torsion
[ 10763 10752 10751 10750 ] final  -50.62 input  -60.55 | X-H torsion
[ 11005 11000 10999 10996 ] final  117.90 input  -57.11 | X-H torsion

> <Gold.Protein.ActiveResidues>
 VAL166  LYS551  ARG553  GLY616  TRP617  ASP618  TYR619  PRO620  LYS621  CYS622 
 ASP623  PHE694  ASN695  SER759  ASP760  ASP761  ALA762  ILE779  LEU786  VAL792 
 PHE793  MET794  SER795  GLU796  ALA797  LYS798  CYS799  TRP800  GLU811  SER814 

> <Gold.Protein.RotatedAtoms>
  152.4530  133.7666  159.6775 H   0  0  0  0  0  0  0  0  0  0  0  0  # atno 6907 bound_to 6896
  150.8447  133.7870  159.3053 H   0  0  0  0  0  0  0  0  0  0  0  0  # atno 6908 bound_to 6896
  151.5484  135.1070  159.9995 H   0  0  0  0  0  0  0  0  0  0  0  0  # atno 6909 bound_to 6896
  146.1176  139.5957  142.9311 H   0  0  0  0  0  0  0  0  0  0  0  0  # atno 7974 bound_to 7965
  156.1869  140.1693  156.8167 H   0  0  0  0  0  0  0  0  0  0  0  0  # atno 8008 bound_to 7997
  154.5425  140.0734  156.8566 H   0  0  0  0  0  0  0  0  0  0  0  0  # atno 8009 bound_to 7997
  155.3186  140.3372  155.4244 H   0  0  0  0  0  0  0  0  0  0  0  0  # atno 8010 bound_to 7997
  139.6513  144.0080  152.2163 H   0  0  0  0  0  0  0  0  0  0  0  0  # atno 10167 bound_to 10162
  157.6952  131.0314  150.3352 H   0  0  0  0  0  0  0  0  0  0  0  0  # atno 10718 bound_to 10713
  154.1133  135.6546  153.4889 H   0  0  0  0  0  0  0  0  0  0  0  0  # atno 10763 bound_to 10752
  153.0249  135.5252  154.7170 H   0  0  0  0  0  0  0  0  0  0  0  0  # atno 10764 bound_to 10752
  154.6357  135.2982  155.0134 H   0  0  0  0  0  0  0  0  0  0  0  0  # atno 10765 bound_to 10752
  139.9090  134.9615  156.7422 H   0  0  0  0  0  0  0  0  0  0  0  0  # atno 11005 bound_to 11000
  145.5535  141.0411  143.2265 LP  0  0  0  0  0  0  0  0  0  0  0  0  # atno 17320 bound_to 7965
  144.7567  139.7057  143.7251 LP  0  0  0  0  0  0  0  0  0  0  0  0  # atno 17321 bound_to 7965
  139.9794  144.6438  150.7914 LP  0  0  0  0  0  0  0  0  0  0  0  0  # atno 17342 bound_to 10162
  140.7539  143.3016  151.3065 LP  0  0  0  0  0  0  0  0  0  0  0  0  # atno 17343 bound_to 10162
  156.3820  130.3882  149.7094 LP  0  0  0  0  0  0  0  0  0  0  0  0  # atno 17370 bound_to 10713
  156.4473  130.7890  151.2911 LP  0  0  0  0  0  0  0  0  0  0  0  0  # atno 17371 bound_to 10713
  140.6840  133.9449  155.7927 LP  0  0  0  0  0  0  0  0  0  0  0  0  # atno 17394 bound_to 11000
  141.0489  134.0513  157.3808 LP  0  0  0  0  0  0  0  0  0  0  0  0  # atno 17395 bound_to 11000

$$$$
