AV-unprocessed.smi:736|AV-procd|sdf|3535|dock4
  -GOLD-   22720 0523D 1   1.00000     0.00000
 Structure written by MMmdl.
 46 47  0  0  0  0  0  0  0  0  1 V2000
  152.7886  140.8678  158.1479 C   0  0  0  0  0  0  0  0  0  0  0  0
  151.6432  140.9732  157.2382 N   0  0  0  0  0  0  0  0  0  0  0  0
  150.5127  141.7449  157.7585 C   0  0  0  0  0  0  0  0  0  0  0  0
  151.5585  140.3523  156.0361 C   0  0  0  0  0  0  0  0  0  0  0  0
  152.5116  139.7693  155.5162 O   0  0  0  0  0  0  0  0  0  0  0  0
  150.2443  140.3861  155.3081 C   0  0  0  0  0  0  0  0  0  0  0  0
  149.6661  139.1966  154.8081 C   0  0  0  0  0  0  0  0  0  0  0  0
  148.4424  139.2638  154.1104 C   0  0  0  0  0  0  0  0  0  0  0  0
  147.8968  138.0374  153.6371 N   0  0  0  0  0  0  0  0  0  0  0  0
  146.6196  137.6167  153.6160 C   0  0  0  0  0  0  0  0  0  0  0  0
  145.6487  138.2476  154.0321 O   0  0  0  0  0  0  0  0  0  0  0  0
  146.5259  136.3943  153.0721 N   0  0  0  0  0  0  0  0  0  0  0  0
  145.2876  135.6396  152.8855 C   0  0  0  0  0  0  0  0  0  0  0  0
  145.2353  134.8810  151.5350 C   0  0  0  0  0  0  0  0  0  0  0  0
  145.2431  135.8708  150.3489 C   0  0  0  0  0  0  0  0  0  0  0  0
  146.4426  133.9148  151.4130 C   0  0  0  0  0  0  0  0  0  0  0  0
  145.8773  132.4965  151.2909 C   0  0  0  0  0  0  0  0  0  0  0  0
  144.4651  132.6887  150.7530 C   0  0  0  0  0  0  0  0  0  0  0  0
  143.9941  133.9627  151.4495 C   0  0  0  0  0  0  0  0  0  0  0  0
  147.8441  140.5358  153.9429 C   0  0  0  0  0  0  0  0  0  0  0  0
  148.5048  141.6648  154.4647 C   0  0  0  0  0  0  0  0  0  0  0  0
  149.6780  141.6000  155.1274 N   0  0  0  0  0  0  0  0  0  0  0  0
  153.5354  141.6248  157.9077 H   0  0  0  0  0  0  0  0  0  0  0  0
  153.2632  139.8867  158.1030 H   0  0  0  0  0  0  0  0  0  0  0  0
  152.4876  141.0160  159.1857 H   0  0  0  0  0  0  0  0  0  0  0  0
  150.0338  142.3353  156.9756 H   0  0  0  0  0  0  0  0  0  0  0  0
  150.8248  142.4453  158.5342 H   0  0  0  0  0  0  0  0  0  0  0  0
  149.7650  141.0767  158.1876 H   0  0  0  0  0  0  0  0  0  0  0  0
  150.1582  138.2455  154.9538 H   0  0  0  0  0  0  0  0  0  0  0  0
  148.5700  137.4015  153.2355 H   0  0  0  0  0  0  0  0  0  0  0  0
  147.3754  135.9496  152.7569 H   0  0  0  0  0  0  0  0  0  0  0  0
  145.1274  134.9450  153.7120 H   0  0  0  0  0  0  0  0  0  0  0  0
  144.4641  136.3527  152.9383 H   0  0  0  0  0  0  0  0  0  0  0  0
  145.2585  135.3464  149.3928 H   0  0  0  0  0  0  0  0  0  0  0  0
  146.1183  136.5202  150.3826 H   0  0  0  0  0  0  0  0  0  0  0  0
  144.3600  136.5098  150.3469 H   0  0  0  0  0  0  0  0  0  0  0  0
  147.0344  134.1436  150.5255 H   0  0  0  0  0  0  0  0  0  0  0  0
  147.1258  133.9848  152.2606 H   0  0  0  0  0  0  0  0  0  0  0  0
  146.4863  131.8555  150.6529 H   0  0  0  0  0  0  0  0  0  0  0  0
  145.8316  132.0353  152.2785 H   0  0  0  0  0  0  0  0  0  0  0  0
  144.4945  132.8419  149.6734 H   0  0  0  0  0  0  0  0  0  0  0  0
  143.8182  131.8342  150.9543 H   0  0  0  0  0  0  0  0  0  0  0  0
  143.6475  133.6998  152.4500 H   0  0  0  0  0  0  0  0  0  0  0  0
  143.1520  134.4271  150.9348 H   0  0  0  0  0  0  0  0  0  0  0  0
  146.9046  140.6782  153.4339 H   0  0  0  0  0  0  0  0  0  0  0  0
  148.0762  142.6493  154.3483 H   0  0  0  0  0  0  0  0  0  0  0  0
  1  2  1  0  0  0  0
  1 23  1  0  0  0  0
  1 24  1  0  0  0  0
  1 25  1  0  0  0  0
  2  3  1  0  0  0  0
  2  4  1  0  0  0  0
  3 26  1  0  0  0  0
  3 27  1  0  0  0  0
  3 28  1  0  0  0  0
  4  5  2  0  0  0  0
  4  6  1  0  0  0  0
  6 22  1  0  0  0  0
  6  7  2  0  0  0  0
  7  8  1  0  0  0  0
  7 29  1  0  0  0  0
  8  9  1  0  0  0  0
  8 20  2  0  0  0  0
  9 10  1  0  0  0  0
  9 30  1  0  0  0  0
 10 11  2  0  0  0  0
 10 12  1  0  0  0  0
 12 13  1  0  0  0  0
 12 31  1  0  0  0  0
 13 14  1  0  0  0  0
 13 32  1  0  0  0  0
 13 33  1  0  0  0  0
 14 19  1  0  0  0  0
 14 15  1  0  0  0  0
 14 16  1  0  0  0  0
 15 34  1  0  0  0  0
 15 35  1  0  0  0  0
 15 36  1  0  0  0  0
 16 17  1  0  0  0  0
 16 37  1  0  0  0  0
 16 38  1  0  0  0  0
 17 18  1  0  0  0  0
 17 39  1  0  0  0  0
 17 40  1  0  0  0  0
 18 19  1  0  0  0  0
 18 41  1  0  0  0  0
 18 42  1  0  0  0  0
 19 43  1  0  0  0  0
 19 44  1  0  0  0  0
 20 21  1  0  0  0  0
 20 45  1  0  0  0  0
 21 22  2  0  0  0  0
 21 46  1  0  0  0  0
M  END
> <s_m_source_file>
AV-unprocessed.smi

> <i_m_source_file_index>
736

> <i_lp_mmshare_version>
43012

> <i_f3d_flags>
0

> <s_epik_input>
W0NIM11OKFtDSDNdKUMoPU8pYzFbY0hdYyhbY0hdW2NIXW4xKVtOSF1DKD1PKVtOSF1bQ0gyXUMyKFtDSDNdKVtDSDJdW0NIMl1bQ0gyXVtDSDJdMg==

> <s_epik_cmdline>
J2VwaWtfcHl0aG9uJywgJy1waCcsICc3LjAnLCAnLXRuJywgJzgnLCAnLW1hJywgJzIwMCcsICctbWV0YWxfYmluZGluZycsICctaW1hZScsICc8aW5maWxlLm1hZT4nLCAnLW9tYWUnLCAnPG91dGZpbGUubWFlPic=

> <r_lp_tautomer_probability>
1

> <r_epik_Ionization_Penalty>
0.000119665

> <r_epik_Ionization_Penalty_Charging>
0

> <r_epik_Ionization_Penalty_Neutral>
0.000119665

> <r_epik_State_Penalty>
-0

> <r_epik_Charging_Adjusted_Penalty>
0

> <i_epik_Tot_Q>
0

> <i_epik_Tot_abs_Q>
0

> <r_epik_Metal_State_Penalty>
-0

> <b_epik_Metal_Only>
0

> <s_lp_Force_Field>
OPLS_2005

> <r_lp_Energy>
46.6669

> <b_lp_Chiralities_Consistent>
1

> <s_lp_Variant>
AV-unprocessed.smi:736-1

> <Gold.Version>
5.8.1

> <Gold.Id.Protein>
6NUR|6NUR_protein|mol2

> <Gold.PLP.Fitness>
46.0614

> <Gold.PLP.PLP>
-36.7314

> <Gold.PLP.part.hbond>
-3.3562

> <Gold.PLP.part.metal>
0.0000

> <Gold.PLP.part.buried>
-0.9337

> <Gold.PLP.part.nonpolar>
-30.9948

> <Gold.PLP.part.repulsive>
0.3097

> <Gold.PLP.ligand.clash>
0.0000

> <Gold.PLP.ligand.torsion>
1.4070

> <Gold.PLP.Chemscore.Hbond>
2.7440

> <Gold.PLP.Chemscore.CHOScore>
0.8964

> <Gold.PLP.Chemscore.Metal>
0.0000

> <Gold.Chemscore.Hbonds>
donor molecule, donor type, donor heavy atom, donor atom, acceptor molecule, acceptor atom, score
      L1  H     9    30       P1  7948  0.94
      L1  H    12    31       P1  7948  0.90
      P1  H  7997  8009       L1     5  0.99
      L1  C    21    46       P1  8028  0.86

> <Gold.PLP.Chemscore.Internal.Correction>
1.2230

> <Gold.Rescore>
     Score         DG    S(hbond)    S(metal)    S(lipo)     H(rot)  DE(clash)    DE(int)     intcor
     17.84     -21.19       2.67        0.00      83.83       1.18       0.51       2.84       ----

> <Gold.Chemscore.Fitness>
17.8382

> <Gold.Chemscore.DG>
-21.1906

> <Gold.Chemscore.ZeroCoef>
-5.4800

> <Gold.Chemscore.Hbond>
2.6735

> <Gold.Chemscore.Metal>
0.0000

> <Gold.Chemscore.Lipo>
83.8296

> <Gold.Chemscore.Internal_Hbond>
0.0000

> <Gold.Chemscore.DEClash>
0.5148

> <Gold.Chemscore.DEInternal>
2.8376

> <Gold.Chemscore.Rot>
1.1824

> <Gold.Chemscore.Internal.Correction>
   9.000000E+99

> <Gold.Chemscore.Hbonds>
donor molecule, donor type, donor heavy atom, donor atom, acceptor molecule, acceptor atom, score
      L1  H     9    30       P1  7948  0.91
      L1  H    12    31       P1  7948  0.87
      P1  H  7997  8009       L1     5  0.84

> <Gold.Chemscore.Hbond.Weighted>
-8.9294

> <Gold.Chemscore.Metal.Weighted>
-0.0000

> <Gold.Chemscore.Lipo.Weighted>
-9.8081

> <Gold.Chemscore.Internal_Hbond.Weighted>
0.0000

> <Gold.Chemscore.DEClash.Weighted>
0.5148

> <Gold.Chemscore.DEInternal.Weighted>
2.8376

> <Gold.Chemscore.Rot.Weighted>
3.0268

> <Gold.Chemscore.Internal.Correction.Weighted>
   9.000000E+99

> <Gold.Protein.RotatedTorsions>
[ 6907 6896 6895 6894 ] final   20.11 input  -60.11 | X-H torsion
[ 7974 7965 7964 7962 ] final -112.79 input  175.53 | X-H torsion
[ 8008 7997 7996 7995 ] final -164.11 input   59.86 | X-H torsion
[ 10167 10162 10161 10158 ] final   58.11 input  -65.29 | X-H torsion
[ 10718 10713 10712 10709 ] final   28.56 input   66.30 | X-H torsion
[ 10763 10752 10751 10750 ] final  -53.81 input  -60.55 | X-H torsion
[ 11005 11000 10999 10996 ] final   32.90 input  -57.11 | X-H torsion

> <Gold.Protein.ActiveResidues>
 VAL166  LYS551  ARG553  GLY616  TRP617  ASP618  TYR619  PRO620  LYS621  CYS622 
 ASP623  PHE694  ASN695  SER759  ASP760  ASP761  ALA762  ILE779  LEU786  VAL792 
 PHE793  MET794  SER795  GLU796  ALA797  LYS798  CYS799  TRP800  GLU811  SER814 

> <Gold.Protein.RotatedAtoms>
  151.8913  135.0415  160.0497 H   0  0  0  0  0  0  0  0  0  0  0  0  # atno 6907 bound_to 6896
  152.2434  133.5149  159.5291 H   0  0  0  0  0  0  0  0  0  0  0  0  # atno 6908 bound_to 6896
  150.7060  134.0975  159.3996 H   0  0  0  0  0  0  0  0  0  0  0  0  # atno 6909 bound_to 6896
  145.1397  140.8771  143.3709 H   0  0  0  0  0  0  0  0  0  0  0  0  # atno 7974 bound_to 7965
  155.8309  140.0933  157.1793 H   0  0  0  0  0  0  0  0  0  0  0  0  # atno 8008 bound_to 7997
  154.3980  140.1419  156.3673 H   0  0  0  0  0  0  0  0  0  0  0  0  # atno 8009 bound_to 7997
  155.8167  140.3448  155.5492 H   0  0  0  0  0  0  0  0  0  0  0  0  # atno 8010 bound_to 7997
  140.1908  144.4087  150.6572 H   0  0  0  0  0  0  0  0  0  0  0  0  # atno 10167 bound_to 10162
  157.2350  130.7042  149.6331 H   0  0  0  0  0  0  0  0  0  0  0  0  # atno 10718 bound_to 10713
  154.1647  135.6469  153.4994 H   0  0  0  0  0  0  0  0  0  0  0  0  # atno 10763 bound_to 10752
  153.0101  135.5369  154.6674 H   0  0  0  0  0  0  0  0  0  0  0  0  # atno 10764 bound_to 10752
  154.5997  135.2942  155.0520 H   0  0  0  0  0  0  0  0  0  0  0  0  # atno 10765 bound_to 10752
  140.2686  134.3108  155.7835 H   0  0  0  0  0  0  0  0  0  0  0  0  # atno 11005 bound_to 11000
  145.0545  139.3154  143.5911 LP  0  0  0  0  0  0  0  0  0  0  0  0  # atno 17320 bound_to 7965
  146.3506  139.9965  142.8680 LP  0  0  0  0  0  0  0  0  0  0  0  0  # atno 17321 bound_to 7965
  140.6457  143.2213  151.6191 LP  0  0  0  0  0  0  0  0  0  0  0  0  # atno 17342 bound_to 10162
  139.5257  144.3068  152.1027 LP  0  0  0  0  0  0  0  0  0  0  0  0  # atno 17343 bound_to 10162
  155.9673  130.4476  150.5588 LP  0  0  0  0  0  0  0  0  0  0  0  0  # atno 17370 bound_to 10713
  157.3438  131.0721  151.1767 LP  0  0  0  0  0  0  0  0  0  0  0  0  # atno 17371 bound_to 10713
  141.2180  133.7453  156.9300 LP  0  0  0  0  0  0  0  0  0  0  0  0  # atno 17394 bound_to 11000
  140.1395  134.9303  157.2447 LP  0  0  0  0  0  0  0  0  0  0  0  0  # atno 17395 bound_to 11000

$$$$
