AV-unprocessed.smi:470|AV-procd|sdf|2656|dock9
  -GOLD-   2262023 63D 1   1.00000     0.00000
 Structure written by MMmdl.
 32 33  0  0  0  0  0  0  0  0  2 V2000
  149.5169  145.0310  159.7574 N   0  0  0  0  0  0  0  0  0  0  0  0
  150.8511  144.9542  159.7562 C   0  0  0  0  0  0  0  0  0  0  0  0
  151.5311  145.3624  158.8166 O   0  0  0  0  0  0  0  0  0  0  0  0
  151.5190  144.3179  160.9783 C   0  0  0  0  0  0  0  0  0  0  0  0
  152.1420  143.0022  160.6121 C   0  0  0  0  0  0  0  0  0  0  0  0
  153.4238  142.5934  160.8752 C   0  0  0  0  0  0  0  0  0  0  0  0
  153.7198  140.9840  160.2831 S   0  0  0  0  0  0  0  0  0  0  0  0
  152.0565  140.9030  159.6998 C   0  0  0  0  0  0  0  0  0  0  0  0
  151.5106  139.8514  159.0650 N   0  5  0  0  0  0  0  0  0  0  0  0
  152.2204  138.8313  158.5035 C   0  0  0  0  0  0  0  0  0  0  0  0
  153.4479  138.7876  158.4533 O   0  0  0  0  0  0  0  0  0  0  0  0
  151.4054  137.6500  157.8952 C   0  0  2  0  0  0  0  0  0  0  0  0
  151.7432  137.4203  156.4006 C   0  0  0  0  0  0  0  0  0  0  0  0
  150.9590  138.3168  155.4591 C   0  0  0  0  0  0  0  0  0  0  0  0
  149.8344  138.9616  155.8100 C   0  0  0  0  0  0  0  0  0  0  0  0
  149.2150  138.8804  157.1926 C   0  0  0  0  0  0  0  0  0  0  0  0
  149.8740  137.8019  158.0815 C   0  0  0  0  0  0  0  0  0  0  0  0
  151.3931  142.0428  159.9251 N   0  0  0  0  0  0  0  0  0  0  0  0
  149.0366  145.4628  158.9817 H   0  0  0  0  0  0  0  0  0  0  0  0
  148.9952  144.6755  160.5465 H   0  0  0  0  0  0  0  0  0  0  0  0
  152.2659  145.0066  161.3754 H   0  0  0  0  0  0  0  0  0  0  0  0
  150.7766  144.1820  161.7657 H   0  0  0  0  0  0  0  0  0  0  0  0
  154.2069  143.1367  161.3820 H   0  0  0  0  0  0  0  0  0  0  0  0
  151.6493  136.7332  158.4299 H   0  0  0  0  0  0  0  0  0  0  0  0
  152.8043  137.5849  156.2154 H   0  0  0  0  0  0  0  0  0  0  0  0
  151.5430  136.3842  156.1270 H   0  0  0  0  0  0  0  0  0  0  0  0
  151.3348  138.4074  154.4506 H   0  0  0  0  0  0  0  0  0  0  0  0
  149.3293  139.5868  155.0888 H   0  0  0  0  0  0  0  0  0  0  0  0
  149.2926  139.8636  157.6562 H   0  0  0  0  0  0  0  0  0  0  0  0
  148.1493  138.6734  157.0934 H   0  0  0  0  0  0  0  0  0  0  0  0
  149.4137  136.8411  157.8476 H   0  0  0  0  0  0  0  0  0  0  0  0
  149.6346  137.9916  159.1286 H   0  0  0  0  0  0  0  0  0  0  0  0
  1  2  1  0  0  0  0
  1 19  1  0  0  0  0
  1 20  1  0  0  0  0
  2  3  2  0  0  0  0
  2  4  1  0  0  0  0
  4  5  1  0  0  0  0
  4 21  1  0  0  0  0
  4 22  1  0  0  0  0
  5 18  1  0  0  0  0
  5  6  2  0  0  0  0
  6  7  1  0  0  0  0
  6 23  1  0  0  0  0
  7  8  1  0  0  0  0
  8  9  1  0  0  0  0
  8 18  2  0  0  0  0
  9 10  1  0  0  0  0
 10 11  2  0  0  0  0
 10 12  1  0  0  0  0
 12 17  1  0  0  0  0
 12 13  1  0  0  0  0
 12 24  1  0  0  0  0
 13 14  1  0  0  0  0
 13 25  1  0  0  0  0
 13 26  1  0  0  0  0
 14 15  2  0  0  0  0
 14 27  1  0  0  0  0
 15 16  1  0  0  0  0
 15 28  1  0  0  0  0
 16 17  1  0  0  0  0
 16 29  1  0  0  0  0
 16 30  1  0  0  0  0
 17 31  1  0  0  0  0
 17 32  1  0  0  0  0
M  CHG  1   9  -1
M  END
> <s_m_source_file>
AV-unprocessed.smi

> <i_m_source_file_index>
470

> <i_lp_mmshare_version>
43012

> <i_f3d_flags>
0

> <s_epik_input>
W05IMl1DKD1PKVtDSDJdYzFbY0hdc2MobjEpW05IXUMoPU8pW0NAQEhdMltDSDJdW0NIXT1bQ0hdW0NIMl1bQ0gyXTI=

> <s_epik_cmdline>
J2VwaWtfcHl0aG9uJywgJy1waCcsICc3LjAnLCAnLXRuJywgJzgnLCAnLW1hJywgJzIwMCcsICctbWV0YWxfYmluZGluZycsICctaW1hZScsICc8aW5maWxlLm1hZT4nLCAnLW9tYWUnLCAnPG91dGZpbGUubWFlPic=

> <r_lp_tautomer_probability>
1

> <r_epik_Ionization_Penalty>
4.98985

> <r_epik_Ionization_Penalty_Charging>
4.63309

> <r_epik_Ionization_Penalty_Neutral>
0.356756

> <r_epik_State_Penalty>
4.63286

> <r_epik_Charging_Adjusted_Penalty>
9.26595

> <i_epik_Tot_Q>
-1

> <i_epik_Tot_abs_Q>
1

> <r_epik_Metal_State_Penalty>
0.88943

> <b_epik_Metal_Only>
1

> <s_lp_Force_Field>
OPLS_2005

> <r_lp_Energy>
8.68427

> <b_lp_Chiralities_Consistent>
1

> <s_lp_Variant>
AV-unprocessed.smi:470-3

> <Gold.Version>
5.8.1

> <Gold.Id.Protein>
6NUR|6NUR_protein|mol2

> <Gold.PLP.Fitness>
39.3748

> <Gold.PLP.PLP>
-33.8354

> <Gold.PLP.part.hbond>
-3.2696

> <Gold.PLP.part.metal>
0.0000

> <Gold.PLP.part.buried>
-4.1415

> <Gold.PLP.part.nonpolar>
-26.0400

> <Gold.PLP.part.repulsive>
0.3614

> <Gold.PLP.ligand.clash>
0.0000

> <Gold.PLP.ligand.torsion>
0.2336

> <Gold.PLP.Chemscore.Hbond>
1.9833

> <Gold.PLP.Chemscore.CHOScore>
0.0000

> <Gold.PLP.Chemscore.Metal>
0.0000

> <Gold.Chemscore.Hbonds>
donor molecule, donor type, donor heavy atom, donor atom, acceptor molecule, acceptor atom, score
      L1  H     1    19       P1  8029  0.81
      P1  H  7997  8008       L1    11  0.49

> <Gold.PLP.Chemscore.Internal.Correction>
0.0567

> <Gold.Rescore>
     Score         DG    S(hbond)    S(metal)    S(lipo)     H(rot)  DE(clash)    DE(int)     intcor
     14.29     -16.12       1.95        0.00      76.15       1.87       0.04       1.78       ----

> <Gold.Chemscore.Fitness>
14.2915

> <Gold.Chemscore.DG>
-16.1196

> <Gold.Chemscore.ZeroCoef>
-5.4800

> <Gold.Chemscore.Hbond>
1.9504

> <Gold.Chemscore.Metal>
0.0000

> <Gold.Chemscore.Lipo>
76.1498

> <Gold.Chemscore.Internal_Hbond>
0.0000

> <Gold.Chemscore.DEClash>
0.0449

> <Gold.Chemscore.DEInternal>
1.7832

> <Gold.Chemscore.Rot>
1.8689

> <Gold.Chemscore.Internal.Correction>
   9.000000E+99

> <Gold.Chemscore.Hbonds>
donor molecule, donor type, donor heavy atom, donor atom, acceptor molecule, acceptor atom, score
      L1  H     1    19       P1  8029  0.80
      P1  H  7997  8008       L1    11  0.47

> <Gold.Chemscore.Hbond.Weighted>
-6.5145

> <Gold.Chemscore.Metal.Weighted>
-0.0000

> <Gold.Chemscore.Lipo.Weighted>
-8.9095

> <Gold.Chemscore.Internal_Hbond.Weighted>
0.0000

> <Gold.Chemscore.DEClash.Weighted>
0.0449

> <Gold.Chemscore.DEInternal.Weighted>
1.7832

> <Gold.Chemscore.Rot.Weighted>
4.7844

> <Gold.Chemscore.Internal.Correction.Weighted>
   9.000000E+99

> <Gold.Protein.RotatedTorsions>
[ 6907 6896 6895 6894 ] final  100.23 input  -60.11 | X-H torsion
[ 7974 7965 7964 7962 ] final  -76.99 input  175.53 | X-H torsion
[ 8008 7997 7996 7995 ] final  -79.21 input   59.86 | X-H torsion
[ 10167 10162 10161 10158 ] final  -30.03 input  -65.29 | X-H torsion
[ 10718 10713 10712 10709 ] final -156.16 input   66.30 | X-H torsion
[ 10763 10752 10751 10750 ] final -117.02 input  -60.55 | X-H torsion
[ 11005 11000 10999 10996 ] final   -9.27 input  -57.11 | X-H torsion

> <Gold.Protein.ActiveResidues>
 VAL166  LYS551  ARG553  GLY616  TRP617  ASP618  TYR619  PRO620  LYS621  CYS622 
 ASP623  PHE694  ASN695  SER759  ASP760  ASP761  ALA762  ILE779  LEU786  VAL792 
 PHE793  MET794  SER795  GLU796  ALA797  LYS798  CYS799  TRP800  GLU811  SER814 

> <Gold.Protein.RotatedAtoms>
  152.5376  134.0309  159.8023 H   0  0  0  0  0  0  0  0  0  0  0  0  # atno 6907 bound_to 6896
  151.0480  133.5641  159.2652 H   0  0  0  0  0  0  0  0  0  0  0  0  # atno 6908 bound_to 6896
  151.2586  135.0654  159.9143 H   0  0  0  0  0  0  0  0  0  0  0  0  # atno 6909 bound_to 6896
  145.6056  140.9399  143.1217 H   0  0  0  0  0  0  0  0  0  0  0  0  # atno 7974 bound_to 7965
  154.5763  140.0682  156.9039 H   0  0  0  0  0  0  0  0  0  0  0  0  # atno 8008 bound_to 7997
  155.2543  140.3354  155.4261 H   0  0  0  0  0  0  0  0  0  0  0  0  # atno 8009 bound_to 7997
  156.2156  140.1777  156.7581 H   0  0  0  0  0  0  0  0  0  0  0  0  # atno 8010 bound_to 7997
  140.7254  143.3881  151.1479 H   0  0  0  0  0  0  0  0  0  0  0  0  # atno 10167 bound_to 10162
  156.5227  130.8485  151.2688 H   0  0  0  0  0  0  0  0  0  0  0  0  # atno 10718 bound_to 10713
  154.8540  135.4325  154.1913 H   0  0  0  0  0  0  0  0  0  0  0  0  # atno 10763 bound_to 10752
  153.2980  135.6966  153.7235 H   0  0  0  0  0  0  0  0  0  0  0  0  # atno 10764 bound_to 10752
  153.6376  135.3473  155.3036 H   0  0  0  0  0  0  0  0  0  0  0  0  # atno 10765 bound_to 10752
  140.7323  133.8738  155.8903 H   0  0  0  0  0  0  0  0  0  0  0  0  # atno 11005 bound_to 11000
  144.7291  139.7781  143.7354 LP  0  0  0  0  0  0  0  0  0  0  0  0  # atno 17320 bound_to 7965
  146.1543  139.4636  143.0028 LP  0  0  0  0  0  0  0  0  0  0  0  0  # atno 17321 bound_to 7965
  139.7481  143.8820  152.3069 LP  0  0  0  0  0  0  0  0  0  0  0  0  # atno 17342 bound_to 10162
  139.8665  144.7090  150.9038 LP  0  0  0  0  0  0  0  0  0  0  0  0  # atno 17343 bound_to 10162
  157.7434  130.9912  150.2591 LP  0  0  0  0  0  0  0  0  0  0  0  0  # atno 17370 bound_to 10713
  156.3134  130.3775  149.7641 LP  0  0  0  0  0  0  0  0  0  0  0  0  # atno 17371 bound_to 10713
  140.9910  134.1279  157.4408 LP  0  0  0  0  0  0  0  0  0  0  0  0  # atno 17394 bound_to 11000
  139.8823  135.0040  156.6223 LP  0  0  0  0  0  0  0  0  0  0  0  0  # atno 17395 bound_to 11000

$$$$
