AV-unprocessed.smi:218|AV-procd|sdf|1663|dock5
  -GOLD-   2262020 63D 1   1.00000     0.00000
 Structure written by MMmdl.
 54 57  0  0  0  0  0  0  0  0  1 V2000
  142.6425  135.1369  153.4471 C   0  0  0  0  0  0  0  0  0  0  0  0
  143.7019  135.1919  152.3396 C   0  0  0  0  0  0  0  0  0  0  0  0
  143.6962  133.9026  151.5001 C   0  0  0  0  0  0  0  0  0  0  0  0
  144.9670  135.3621  152.9822 O   0  0  0  0  0  0  0  0  0  0  0  0
  145.2704  136.5533  153.6132 C   0  0  0  0  0  0  0  0  0  0  0  0
  146.3997  137.2740  153.1732 C   0  0  0  0  0  0  0  0  0  0  0  0
  146.7256  138.4865  153.8139 C   0  0  0  0  0  0  0  0  0  0  0  0
  147.9267  139.2936  153.3710 C   0  0  0  0  0  0  0  0  0  0  0  0
  149.1560  138.5134  153.3553 N   0  0  0  0  0  0  0  0  0  0  0  0
  150.2241  138.9254  154.0711 C   0  0  0  0  0  0  0  0  0  0  0  0
  151.4079  138.2620  154.0033 N   0  0  0  0  0  0  0  0  0  0  0  0
  152.4521  138.6858  154.7206 C   0  0  0  0  0  0  0  0  0  0  0  0
  152.5245  139.7272  155.5514 N   0  0  0  0  0  0  0  0  0  0  0  0
  151.3388  140.3984  155.6251 C   0  0  0  0  0  0  0  0  0  0  0  0
  150.1506  140.0620  154.9178 C   0  0  0  0  0  0  0  0  0  0  0  0
  149.1437  140.9647  155.2325 N   0  0  0  0  0  0  0  0  0  0  0  0
  149.7084  141.7851  156.0769 C   0  0  0  0  0  0  0  0  0  0  0  0
  151.0281  141.5207  156.3694 N   0  0  0  0  0  0  0  0  0  0  0  0
  151.9201  142.2895  157.2991 C   0  0  1  0  0  0  0  0  0  0  0  0
  151.3104  143.5028  157.6317 O   0  0  0  0  0  0  0  0  0  0  0  0
  151.1283  143.6004  159.0434 C   0  0  2  0  0  0  0  0  0  0  0  0
  151.2210  145.0758  159.4632 C   0  0  0  0  0  0  0  0  0  0  0  0
  151.1542  145.1994  160.8677 O   0  0  0  0  0  0  0  0  0  0  0  0
  152.2253  142.6926  159.6066 C   0  0  1  0  0  0  0  0  0  0  0  0
  151.9883  142.2666  160.9348 O   0  0  0  0  0  0  0  0  0  0  0  0
  152.2284  141.5408  158.6108 C   0  0  1  0  0  0  0  0  0  0  0  0
  151.2751  140.5384  158.9311 O   0  0  0  0  0  0  0  0  0  0  0  0
  145.9054  138.9371  154.8668 C   0  0  0  0  0  0  0  0  0  0  0  0
  144.7987  138.1488  155.2364 C   0  0  0  0  0  0  0  0  0  0  0  0
  144.4840  136.9842  154.6309 N   0  0  0  0  0  0  0  0  0  0  0  0
  152.8159  142.4977  156.7128 H   0  0  0  0  0  0  0  0  0  0  0  0
  150.1436  143.1979  159.2853 H   0  0  0  0  0  0  0  0  0  0  0  0
  153.1861  143.2077  159.5651 H   0  0  0  0  0  0  0  0  0  0  0  0
  153.2091  141.0692  158.5400 H   0  0  0  0  0  0  0  0  0  0  0  0
  141.6428  135.0133  153.0297 H   0  0  0  0  0  0  0  0  0  0  0  0
  142.6444  136.0558  154.0338 H   0  0  0  0  0  0  0  0  0  0  0  0
  142.8254  134.3060  154.1290 H   0  0  0  0  0  0  0  0  0  0  0  0
  143.4629  136.0492  151.7082 H   0  0  0  0  0  0  0  0  0  0  0  0
  142.7234  133.7460  151.0338 H   0  0  0  0  0  0  0  0  0  0  0  0
  143.9139  133.0305  152.1173 H   0  0  0  0  0  0  0  0  0  0  0  0
  144.4374  133.9350  150.7021 H   0  0  0  0  0  0  0  0  0  0  0  0
  147.0044  136.9005  152.3596 H   0  0  0  0  0  0  0  0  0  0  0  0
  147.7382  139.6971  152.3750 H   0  0  0  0  0  0  0  0  0  0  0  0
  148.0437  140.1438  154.0445 H   0  0  0  0  0  0  0  0  0  0  0  0
  149.1536  137.6854  152.7769 H   0  0  0  0  0  0  0  0  0  0  0  0
  153.3585  138.1084  154.6142 H   0  0  0  0  0  0  0  0  0  0  0  0
  149.1722  142.6155  156.5134 H   0  0  0  0  0  0  0  0  0  0  0  0
  152.1393  145.5334  159.0946 H   0  0  0  0  0  0  0  0  0  0  0  0
  150.3885  145.6358  159.0368 H   0  0  0  0  0  0  0  0  0  0  0  0
  150.4709  145.8156  161.0838 H   0  0  0  0  0  0  0  0  0  0  0  0
  152.7837  142.3908  161.4306 H   0  0  0  0  0  0  0  0  0  0  0  0
  151.5929  139.7092  158.6079 H   0  0  0  0  0  0  0  0  0  0  0  0
  146.1167  139.8634  155.3809 H   0  0  0  0  0  0  0  0  0  0  0  0
  144.1485  138.4615  156.0399 H   0  0  0  0  0  0  0  0  0  0  0  0
  1  2  1  0  0  0  0
  1 35  1  0  0  0  0
  1 36  1  0  0  0  0
  1 37  1  0  0  0  0
  2  3  1  0  0  0  0
  2  4  1  0  0  0  0
  2 38  1  0  0  0  0
  3 39  1  0  0  0  0
  3 40  1  0  0  0  0
  3 41  1  0  0  0  0
  4  5  1  0  0  0  0
  5 30  1  0  0  0  0
  5  6  2  0  0  0  0
  6  7  1  0  0  0  0
  6 42  1  0  0  0  0
  7  8  1  0  0  0  0
  7 28  2  0  0  0  0
  8  9  1  0  0  0  0
  8 43  1  0  0  0  0
  8 44  1  0  0  0  0
  9 10  1  0  0  0  0
  9 45  1  0  0  0  0
 10 15  1  0  0  0  0
 10 11  2  0  0  0  0
 11 12  1  0  0  0  0
 12 13  2  0  0  0  0
 12 46  1  0  0  0  0
 13 14  1  0  0  0  0
 14 18  1  0  0  0  0
 14 15  2  0  0  0  0
 15 16  1  0  0  0  0
 16 17  2  0  0  0  0
 17 18  1  0  0  0  0
 17 47  1  0  0  0  0
 18 19  1  0  0  0  0
 19 31  1  0  0  0  0
 19 26  1  0  0  0  0
 19 20  1  0  0  0  0
 20 21  1  0  0  0  0
 21 32  1  0  0  0  0
 21 22  1  0  0  0  0
 21 24  1  0  0  0  0
 22 23  1  0  0  0  0
 22 48  1  0  0  0  0
 22 49  1  0  0  0  0
 23 50  1  0  0  0  0
 24 33  1  0  0  0  0
 24 25  1  0  0  0  0
 24 26  1  0  0  0  0
 25 51  1  0  0  0  0
 26 34  1  0  0  0  0
 26 27  1  0  0  0  0
 27 52  1  0  0  0  0
 28 29  1  0  0  0  0
 28 53  1  0  0  0  0
 29 30  2  0  0  0  0
 29 54  1  0  0  0  0
M  END
> <s_m_source_file>
AV-unprocessed.smi

> <i_m_source_file_index>
218

> <i_lp_mmshare_version>
43012

> <i_f3d_flags>
0

> <s_epik_input>
W0NIM11bQ0hdKFtDSDNdKU9jMVtjSF1jKFtjSF1bY0hdbjEpW0NIMl1bTkhdYyhuW2NIXW4yKWMoYzIzKW5bY0hdbjNbQ0BASF00T1tDQEhdKFtDSDJdW09IXSlbQ0BASF0oW09IXSlbQ0BIXTRbT0hd

> <s_epik_cmdline>
J2VwaWtfcHl0aG9uJywgJy1waCcsICc3LjAnLCAnLXRuJywgJzgnLCAnLW1hJywgJzIwMCcsICctbWV0YWxfYmluZGluZycsICctaW1hZScsICc8aW5maWxlLm1hZT4nLCAnLW9tYWUnLCAnPG91dGZpbGUubWFlPic=

> <r_lp_tautomer_probability>
1

> <r_epik_Ionization_Penalty>
0.00457014

> <r_epik_Ionization_Penalty_Charging>
0

> <r_epik_Ionization_Penalty_Neutral>
0.00457014

> <r_epik_State_Penalty>
-0

> <r_epik_Charging_Adjusted_Penalty>
0

> <i_epik_Tot_Q>
0

> <i_epik_Tot_abs_Q>
0

> <r_epik_Metal_State_Penalty>
-0

> <b_epik_Metal_Only>
0

> <s_epik_Chemistry_Notes>
This compound contains an acetal/aminal-like group ( X-CH(R)-Y where X, Y are N, S, or O) that may be acid/base labile, releasing an aldehyde.

> <s_lp_Force_Field>
OPLS_2005

> <r_lp_Energy>
45.6959

> <b_lp_Chiralities_Consistent>
1

> <s_lp_Variant>
AV-unprocessed.smi:218-2

> <Gold.Version>
5.8.1

> <Gold.Id.Protein>
6NUR|6NUR_protein|mol2

> <Gold.PLP.Fitness>
53.4567

> <Gold.PLP.PLP>
-44.7065

> <Gold.PLP.part.hbond>
-4.9744

> <Gold.PLP.part.metal>
0.0000

> <Gold.PLP.part.buried>
-6.5427

> <Gold.PLP.part.nonpolar>
-33.3097

> <Gold.PLP.part.repulsive>
0.6024

> <Gold.PLP.ligand.clash>
0.0000

> <Gold.PLP.ligand.torsion>
0.3721

> <Gold.PLP.Chemscore.Hbond>
2.0823

> <Gold.PLP.Chemscore.CHOScore>
1.0000

> <Gold.PLP.Chemscore.Metal>
0.0000

> <Gold.Chemscore.Hbonds>
donor molecule, donor type, donor heavy atom, donor atom, acceptor molecule, acceptor atom, score
      L1  H     9    45       P1  7948  1.00
      P1  H  6933  6945       L1    25  0.05
      P1  H  7997  8008       L1    13  1.00
      L1  C    17    47       P1  8028  0.97

> <Gold.PLP.Chemscore.Internal.Correction>
0.2477

> <Gold.Rescore>
     Score         DG    S(hbond)    S(metal)    S(lipo)     H(rot)  DE(clash)    DE(int)     intcor
      4.71      -8.62       1.94        0.00      78.79       4.90       1.98       1.92       ----

> <Gold.Chemscore.Fitness>
4.7149

> <Gold.Chemscore.DG>
-8.6183

> <Gold.Chemscore.ZeroCoef>
-5.4800

> <Gold.Chemscore.Hbond>
1.9375

> <Gold.Chemscore.Metal>
0.0000

> <Gold.Chemscore.Lipo>
78.7914

> <Gold.Chemscore.Internal_Hbond>
0.0000

> <Gold.Chemscore.DEClash>
1.9848

> <Gold.Chemscore.DEInternal>
1.9186

> <Gold.Chemscore.Rot>
4.9029

> <Gold.Chemscore.Internal.Correction>
   9.000000E+99

> <Gold.Chemscore.Hbonds>
donor molecule, donor type, donor heavy atom, donor atom, acceptor molecule, acceptor atom, score
      L1  H     9    45       P1  7948  0.98
      P1  H  6933  6945       L1    25  0.06
      P1  H  7997  8008       L1    13  0.90

> <Gold.Chemscore.Hbond.Weighted>
-6.4713

> <Gold.Chemscore.Metal.Weighted>
-0.0000

> <Gold.Chemscore.Lipo.Weighted>
-9.2186

> <Gold.Chemscore.Internal_Hbond.Weighted>
0.0000

> <Gold.Chemscore.DEClash.Weighted>
1.9848

> <Gold.Chemscore.DEInternal.Weighted>
1.9186

> <Gold.Chemscore.Rot.Weighted>
12.5515

> <Gold.Chemscore.Internal.Correction.Weighted>
   9.000000E+99

> <Gold.Protein.RotatedTorsions>
[ 6907 6896 6895 6894 ] final   13.01 input  -60.11 | X-H torsion
[ 7974 7965 7964 7962 ] final  -78.04 input  175.53 | X-H torsion
[ 8008 7997 7996 7995 ] final  -38.56 input   59.86 | X-H torsion
[ 10167 10162 10161 10158 ] final  -90.85 input  -65.29 | X-H torsion
[ 10718 10713 10712 10709 ] final  -78.62 input   66.30 | X-H torsion
[ 10763 10752 10751 10750 ] final -107.72 input  -60.55 | X-H torsion
[ 11005 11000 10999 10996 ] final   26.14 input  -57.11 | X-H torsion

> <Gold.Protein.ActiveResidues>
 VAL166  LYS551  ARG553  GLY616  TRP617  ASP618  TYR619  PRO620  LYS621  CYS622 
 ASP623  PHE694  ASN695  SER759  ASP760  ASP761  ALA762  ILE779  LEU786  VAL792 
 PHE793  MET794  SER795  GLU796  ALA797  LYS798  CYS799  TRP800  GLU811  SER814 

> <Gold.Protein.RotatedAtoms>
  151.7795  135.0765  160.0371 H   0  0  0  0  0  0  0  0  0  0  0  0  # atno 6907 bound_to 6896
  152.3233  133.5873  159.5768 H   0  0  0  0  0  0  0  0  0  0  0  0  # atno 6908 bound_to 6896
  150.7381  133.9894  159.3644 H   0  0  0  0  0  0  0  0  0  0  0  0  # atno 6909 bound_to 6896
  145.5917  140.9428  143.1288 H   0  0  0  0  0  0  0  0  0  0  0  0  # atno 7974 bound_to 7965
  154.4035  140.1574  156.2720 H   0  0  0  0  0  0  0  0  0  0  0  0  # atno 8008 bound_to 7997
  155.8945  140.3436  155.5958 H   0  0  0  0  0  0  0  0  0  0  0  0  # atno 8009 bound_to 7997
  155.7520  140.0806  157.2187 H   0  0  0  0  0  0  0  0  0  0  0  0  # atno 8010 bound_to 7997
  140.3508  143.2892  151.9728 H   0  0  0  0  0  0  0  0  0  0  0  0  # atno 10167 bound_to 10162
  156.0113  130.4523  150.3524 H   0  0  0  0  0  0  0  0  0  0  0  0  # atno 10718 bound_to 10713
  154.8092  135.4664  154.0472 H   0  0  0  0  0  0  0  0  0  0  0  0  # atno 10763 bound_to 10752
  153.1916  135.6856  153.8351 H   0  0  0  0  0  0  0  0  0  0  0  0  # atno 10764 bound_to 10752
  153.7867  135.3249  155.3350 H   0  0  0  0  0  0  0  0  0  0  0  0  # atno 10765 bound_to 10752
  140.3402  134.2341  155.7691 H   0  0  0  0  0  0  0  0  0  0  0  0  # atno 11005 bound_to 11000
  144.7348  139.7617  143.7333 LP  0  0  0  0  0  0  0  0  0  0  0  0  # atno 17320 bound_to 7965
  146.1642  139.4767  142.9969 LP  0  0  0  0  0  0  0  0  0  0  0  0  # atno 17321 bound_to 7965
  139.4826  144.6077  151.7490 LP  0  0  0  0  0  0  0  0  0  0  0  0  # atno 17342 bound_to 10162
  140.5221  144.0863  150.6026 LP  0  0  0  0  0  0  0  0  0  0  0  0  # atno 17343 bound_to 10162
  157.1616  131.0346  151.2838 LP  0  0  0  0  0  0  0  0  0  0  0  0  # atno 17370 bound_to 10713
  157.4306  130.7488  149.6987 LP  0  0  0  0  0  0  0  0  0  0  0  0  # atno 17371 bound_to 10713
  141.2040  133.7896  157.0308 LP  0  0  0  0  0  0  0  0  0  0  0  0  # atno 17394 bound_to 11000
  140.0787  134.9660  157.1589 LP  0  0  0  0  0  0  0  0  0  0  0  0  # atno 17395 bound_to 11000

$$$$
