#       Name:                AV-unprocessed.smi:2424
#       Creating user name   scv26
#       Creation time:       Fri Mar 27 13:20:41 2020


#       File generated by GOLD software.
#

@<TRIPOS>MOLECULE
AV-unprocessed.smi:2424
    56    57     1
SMALL
NO_CHARGES


@<TRIPOS>ATOM
      1 ****        -4.3329  -1.9452  -1.7427 C.3            1 S1                 0.0000
      2 ****        -3.5644  -0.8120  -1.0405 C.3            1 S1                 0.0000
      3 ****        -2.1083  -1.1463  -0.6305 C.3            1 S1                 0.0000
      4 ****        -1.2978  -1.4564  -1.9161 C.3            1 S1                 0.0000
      5 ****        -1.1372  -0.2731  -2.8856 C.3            1 S1                 0.0000
      6 ****        -1.4896  -0.1202   0.3641 C.3            1 S1                 0.0000
      7 ****        -0.0293  -0.0360   0.2827 N.am           1 S1                 0.0000
      8 ****         0.6993   1.0636   0.5111 C.2            1 S1                 0.0000
      9 ****         0.2090   2.1449   0.8340 O.2            1 S1                 0.0000
     10 ****         2.0076   0.8084   0.3359 N.am           1 S1                 0.0000
     11 ****         3.0949   1.6843   0.4472 C.2            1 S1                 0.0000
     12 ****         4.3811   1.2240   0.2499 C.2            1 S1                 0.0000
     13 ****         5.5443   1.9078   0.3070 N.pl3          1 S1                -1.0000
     14 ****         5.4926   3.2400   0.5937 C.2            1 S1                 0.0000
     15 ****         6.5111   3.9271   0.6622 O.2            1 S1                 0.0000
     16 ****         4.1763   3.8681   0.8267 C.2            1 S1                 0.0000
     17 ****         4.1230   5.3531   1.1423 C.3            1 S1                 0.0000
     18 ****         3.0508   3.1139   0.7536 C.2            1 S1                 0.0000
     19 ****        -1.9468  -1.0066   1.5350 C.3            1 S1                 0.0000
     20 ****        -1.1294  -1.1280   2.8200 C.3            1 S1                 0.0000
     21 ****        -2.0092  -2.1736   0.5359 C.3            1 S1                 0.0000
     22 ****        -0.7967  -2.9186   0.5549 O.3            1 S1                 0.0000
     23 ****        -0.9357  -4.2172   0.0039 C.3            1 S1                 0.0000
     24 ****        -5.3816  -1.6742  -1.8642 H              1 S1                 0.0000
     25 ****        -4.3000  -2.8724  -1.1711 H              1 S1                 0.0000
     26 ****        -3.9410  -2.1481  -2.7387 H              1 S1                 0.0000
     27 ****        -3.5948   0.0804  -1.6648 H              1 S1                 0.0000
     28 ****        -4.1410  -0.5365  -0.1575 H              1 S1                 0.0000
     29 ****        -0.2947  -1.7937  -1.6557 H              1 S1                 0.0000
     30 ****        -1.7264  -2.2995  -2.4554 H              1 S1                 0.0000
     31 ****        -0.4566  -0.5339  -3.6962 H              1 S1                 0.0000
     32 ****        -0.7284   0.6043  -2.3847 H              1 S1                 0.0000
     33 ****        -2.0846   0.0105  -3.3424 H              1 S1                 0.0000
     34 ****        -1.9931   0.8480   0.3417 H              1 S1                 0.0000
     35 ****         0.4581  -0.8827   0.0289 H              1 S1                 0.0000
     36 ****         2.2511  -0.1380   0.0823 H              1 S1                 0.0000
     37 ****         4.4918   0.1448   0.0083 H              1 S1                 0.0000
     38 ****         3.0981   5.6909   1.2975 H              1 S1                 0.0000
     39 ****         4.5476   5.9321   0.3217 H              1 S1                 0.0000
     40 ****         4.6900   5.5707   2.0479 H              1 S1                 0.0000
     41 ****         2.1084   3.6071   0.9268 H              1 S1                 0.0000
     42 ****        -2.9686  -0.7224   1.7915 H              1 S1                 0.0000
     43 ****        -0.1073  -1.4550   2.6283 H              1 S1                 0.0000
     44 ****        -1.5786  -1.8494   3.5026 H              1 S1                 0.0000
     45 ****        -1.0747  -0.1718   3.3408 H              1 S1                 0.0000
     46 ****        -2.8951  -2.7914   0.6922 H              1 S1                 0.0000
     47 ****         0.0318  -4.7189   0.0026 H              1 S1                 0.0000
     48 ****        -1.2996  -4.1828  -1.0230 H              1 S1                 0.0000
     49 ****        -1.6254  -4.8202   0.5956 H              1 S1                 0.0000
     50 ****        -0.7816   2.2336   0.9379 LP             1 S1                 0.0000
     51 ****         0.8012   2.9350   0.9925 LP             1 S1                 0.0000
     52 ****         6.4185   1.4504   0.1437 LP             1 S1                 0.0000
     53 ****         7.4067   3.5106   0.5058 LP             1 S1                 0.0000
     54 ****         6.4433   4.9020   0.8743 LP             1 S1                 0.0000
     55 ****        -0.4911  -3.0058   1.5031 LP             1 S1                 0.0000
     56 ****        -0.1084  -2.4206   0.0274 LP             1 S1                 0.0000
@<TRIPOS>BOND
    1    1    2 1     
    2    1   24 1     
    3    1   25 1     
    4    1   26 1     
    5    2    3 1     
    6    2   27 1     
    7    2   28 1     
    8    3   21 1     
    9    3    4 1     
   10    3    6 1     
   11    4    5 1     
   12    4   29 1     
   13    4   30 1     
   14    5   31 1     
   15    5   32 1     
   16    5   33 1     
   17    6    7 1     
   18    6   19 1     
   19    6   34 1     
   20    7    8 am    
   21    7   35 1     
   22    8    9 2     
   23    8   10 am    
   24   10   11 1     
   25   10   36 1     
   26   11   18 1     
   27   11   12 2     
   28   12   13 1     
   29   12   37 1     
   30   13   14 1     
   31   14   15 2     
   32   14   16 1     
   33   16   17 1     
   34   16   18 2     
   35   17   38 1     
   36   17   39 1     
   37   17   40 1     
   38   18   41 1     
   39   19   20 1     
   40   19   21 1     
   41   19   42 1     
   42   20   43 1     
   43   20   44 1     
   44   20   45 1     
   45   21   22 1     
   46   21   46 1     
   47   22   23 1     
   48   23   47 1     
   49   23   48 1     
   50   23   49 1     
   51    9   50 1     
   52    9   51 1     
   53   13   52 1     
   54   15   53 1     
   55   15   54 1     
   56   22   55 1     
   57   22   56 1     
@<TRIPOS>SUBSTRUCTURE
      1 S1             1
@<TRIPOS>SET
LONE_PAIRS      STATIC     ATOMS    <user>   **** ""
7 50 51 52 53 54 55 56
DONOR_HYDROGENS      STATIC     ATOMS    <user>   **** ""
2 35 36
ATOM$BLUE        STATIC     ATOMS    COLORGROUP SYSTEM
7 50 51 52 53 54 55 56
ATOM$RED        STATIC     ATOMS    COLORGROUP SYSTEM
2 35 36
