#       Name:                AV-unprocessed.smi:325
#       Creating user name   scv26
#       Creation time:       Thu Mar 26 22:25:26 2020


#       File generated by GOLD software.
#

@<TRIPOS>MOLECULE
AV-unprocessed.smi:325
    53    54     1
SMALL
NO_CHARGES


@<TRIPOS>ATOM
      1 ****        -1.5100  -0.6591   2.0928 C.3            1 S1                 0.0000
      2 ****        -1.4190   0.1958   0.8415 C.2            1 S1                 0.0000
      3 ****        -1.8694   1.5182   0.9692 N.2            1 S1                 0.0000
      4 ****        -1.8304   2.3248  -0.0487 C.2            1 S1                 0.0000
      5 ****        -2.2835   3.6455   0.0352 N.pl3          1 S1                 0.0000
      6 ****        -3.0727   4.0931   1.1835 C.3            1 S1                 0.0000
      7 ****        -3.9435   5.3090   0.8261 C.3            1 S1                 0.0000
      8 ****        -3.1253   6.3513   0.3132 O.3            1 S1                 0.0000
      9 ****        -2.4592   5.9464  -0.8750 C.3            1 S1                 0.0000
     10 ****        -1.5398   4.7510  -0.5750 C.3            1 S1                 0.0000
     11 ****        -1.3517   1.9305  -1.2885 N.pl3          1 S1                -1.0000
     12 ****        -0.8931   0.6620  -1.4846 C.2            1 S1                 0.0000
     13 ****        -0.4517   0.2890  -2.5708 O.2            1 S1                 0.0000
     14 ****        -0.9317  -0.2684  -0.3432 C.2            1 S1                 0.0000
     15 ****        -0.4484  -1.7026  -0.5476 C.3            1 S1                 0.0000
     16 ****         1.0816  -1.8243  -0.4134 C.3            1 S1                 0.0000
     17 ****         1.5998  -3.2567  -0.5743 C.2            1 S1                 0.0000
     18 ****         0.8976  -4.1324  -1.0811 O.2            1 S1                 0.0000
     19 ****         2.8490  -3.4780  -0.1364 N.am           1 S1                 0.0000
     20 ****         3.5518  -4.7566  -0.1893 C.3            1 S1                 0.0000
     21 ****         4.5900  -4.8158   0.9388 C.3            1 S1                 0.0000
     22 ****         4.1999  -4.9555  -1.5685 C.3            1 S1                 0.0000
     23 ****        -0.5540  -1.1394   2.3022 H              1 S1                 0.0000
     24 ****        -2.2686  -1.4320   1.9688 H              1 S1                 0.0000
     25 ****        -1.7796  -0.0586   2.9626 H              1 S1                 0.0000
     26 ****        -3.7184   3.2902   1.5414 H              1 S1                 0.0000
     27 ****        -2.3950   4.3454   1.9999 H              1 S1                 0.0000
     28 ****        -4.7088   5.0376   0.0971 H              1 S1                 0.0000
     29 ****        -4.4636   5.6711   1.7129 H              1 S1                 0.0000
     30 ****        -3.1873   5.6912  -1.6467 H              1 S1                 0.0000
     31 ****        -1.8735   6.7834  -1.2550 H              1 S1                 0.0000
     32 ****        -0.7479   5.0551   0.1103 H              1 S1                 0.0000
     33 ****        -1.0499   4.4476  -1.5003 H              1 S1                 0.0000
     34 ****        -0.9342  -2.3646   0.1688 H              1 S1                 0.0000
     35 ****        -0.7751  -2.0557  -1.5271 H              1 S1                 0.0000
     36 ****         1.5728  -1.1993  -1.1601 H              1 S1                 0.0000
     37 ****         1.3914  -1.4475   0.5623 H              1 S1                 0.0000
     38 ****         3.3519  -2.6981   0.2615 H              1 S1                 0.0000
     39 ****         2.8361  -5.5637  -0.0227 H              1 S1                 0.0000
     40 ****         5.1135  -5.7723   0.9389 H              1 S1                 0.0000
     41 ****         4.1171  -4.7007   1.9148 H              1 S1                 0.0000
     42 ****         5.3369  -4.0281   0.8341 H              1 S1                 0.0000
     43 ****         4.7185  -5.9130  -1.6227 H              1 S1                 0.0000
     44 ****         4.9265  -4.1710  -1.7824 H              1 S1                 0.0000
     45 ****         3.4530  -4.9427  -2.3629 H              1 S1                 0.0000
     46 ****        -2.2220   1.8414   1.8474 LP             1 S1                 0.0000
     47 ****        -2.4431   6.5985   1.0012 LP             1 S1                 0.0000
     48 ****        -3.6981   7.1457   0.1112 LP             1 S1                 0.0000
     49 ****        -1.3428   2.5829  -2.0462 LP             1 S1                 0.0000
     50 ****        -0.4218   0.9237  -3.3430 LP             1 S1                 0.0000
     51 ****        -0.1229  -0.6489  -2.6815 LP             1 S1                 0.0000
     52 ****        -0.0263  -3.9132  -1.3950 LP             1 S1                 0.0000
     53 ****         1.2512  -5.0627  -1.1787 LP             1 S1                 0.0000
@<TRIPOS>BOND
    1    1    2 1     
    2    1   23 1     
    3    1   24 1     
    4    1   25 1     
    5    2   14 2     
    6    2    3 1     
    7    3    4 2     
    8    4    5 1     
    9    4   11 1     
   10    5   10 1     
   11    5    6 1     
   12    6    7 1     
   13    6   26 1     
   14    6   27 1     
   15    7    8 1     
   16    7   28 1     
   17    7   29 1     
   18    8    9 1     
   19    9   10 1     
   20    9   30 1     
   21    9   31 1     
   22   10   32 1     
   23   10   33 1     
   24   11   12 1     
   25   12   13 2     
   26   12   14 1     
   27   14   15 1     
   28   15   16 1     
   29   15   34 1     
   30   15   35 1     
   31   16   17 1     
   32   16   36 1     
   33   16   37 1     
   34   17   18 2     
   35   17   19 am    
   36   19   20 1     
   37   19   38 1     
   38   20   21 1     
   39   20   22 1     
   40   20   39 1     
   41   21   40 1     
   42   21   41 1     
   43   21   42 1     
   44   22   43 1     
   45   22   44 1     
   46   22   45 1     
   47    3   46 1     
   48    8   47 1     
   49    8   48 1     
   50   11   49 1     
   51   13   50 1     
   52   13   51 1     
   53   18   52 1     
   54   18   53 1     
@<TRIPOS>SUBSTRUCTURE
      1 S1             1
@<TRIPOS>SET
LONE_PAIRS      STATIC     ATOMS    <user>   **** ""
8 46 47 48 49 50 51 52 53
DONOR_HYDROGENS      STATIC     ATOMS    <user>   **** ""
1 38
ATOM$BLUE        STATIC     ATOMS    COLORGROUP SYSTEM
8 46 47 48 49 50 51 52 53
ATOM$RED        STATIC     ATOMS    COLORGROUP SYSTEM
1 38
