AV-unprocessed.smi:2253|AV-procd|sdf|9117|dock1
  -GOLD-   2272012323D 1   1.00000     0.00000
 Structure written by MMmdl.
 52 54  0  0  0  0  0  0  0  0  3 V2000
  143.8791  132.7209  149.5062 C   0  0  0  0  0  0  0  0  0  0  0  0
  145.1314  132.4021  150.2258 N   0  3  2  0  0  0  0  0  0  0  0  0
  144.9388  131.3655  151.2655 C   0  0  0  0  0  0  0  0  0  0  0  0
  146.2784  130.9655  151.9075 C   0  0  0  0  0  0  0  0  0  0  0  0
  147.0349  132.1769  152.5115 C   0  0  1  0  0  0  0  0  0  0  0  0
  148.3857  131.8102  153.0611 N   0  3  2  0  0  0  0  0  0  0  0  0
  148.4251  130.6220  153.9622 C   0  0  0  0  0  0  0  0  0  0  0  0
  147.7877  130.9225  155.3318 C   0  0  0  0  0  0  0  0  0  0  0  0
  148.5045  132.0984  156.0175 C   0  0  2  0  0  0  0  0  0  0  0  0
  147.8366  132.4269  157.2740 N   0  0  0  0  0  0  0  0  0  0  0  0
  148.2273  133.3886  158.1238 C   0  0  0  0  0  0  0  0  0  0  0  0
  149.1887  134.1252  157.9080 O   0  0  0  0  0  0  0  0  0  0  0  0
  147.4351  133.4259  159.2096 N   0  0  0  0  0  0  0  0  0  0  0  0
  147.5025  134.2630  160.3597 C   0  0  0  0  0  0  0  0  0  0  0  0
  147.9031  135.6222  160.3522 C   0  0  0  0  0  0  0  0  0  0  0  0
  147.9259  136.3268  161.5729 C   0  0  0  0  0  0  0  0  0  0  0  0
  147.5859  135.7768  162.7574 N   0  0  0  0  0  0  0  0  0  0  0  0
  147.2059  134.4820  162.7620 C   0  0  0  0  0  0  0  0  0  0  0  0
  147.1485  133.6881  161.5991 C   0  0  0  0  0  0  0  0  0  0  0  0
  146.7590  132.3923  161.6765 F   0  0  0  0  0  0  0  0  0  0  0  0
  148.5492  133.3167  155.0738 C   0  0  0  0  0  0  0  0  0  0  0  0
  149.1315  132.9354  153.6977 C   0  0  0  0  0  0  0  0  0  0  0  0
  147.1471  133.2604  151.4093 C   0  0  0  0  0  0  0  0  0  0  0  0
  145.7866  133.6080  150.7819 C   0  0  0  0  0  0  0  0  0  0  0  0
  143.1355  133.1464  150.1815 H   0  0  0  0  0  0  0  0  0  0  0  0
  143.4561  131.8238  149.0528 H   0  0  0  0  0  0  0  0  0  0  0  0
  144.0662  133.4391  148.7073 H   0  0  0  0  0  0  0  0  0  0  0  0
  144.2516  131.7351  152.0286 H   0  0  0  0  0  0  0  0  0  0  0  0
  144.4730  130.4856  150.8199 H   0  0  0  0  0  0  0  0  0  0  0  0
  146.0524  130.2264  152.6754 H   0  0  0  0  0  0  0  0  0  0  0  0
  146.9040  130.4691  151.1642 H   0  0  0  0  0  0  0  0  0  0  0  0
  146.4229  132.5726  153.3221 H   0  0  0  0  0  0  0  0  0  0  0  0
  147.9818  129.7400  153.5040 H   0  0  0  0  0  0  0  0  0  0  0  0
  149.4707  130.3499  154.1142 H   0  0  0  0  0  0  0  0  0  0  0  0
  146.7264  131.1429  155.2101 H   0  0  0  0  0  0  0  0  0  0  0  0
  147.8452  130.0359  155.9646 H   0  0  0  0  0  0  0  0  0  0  0  0
  149.5281  131.7860  156.2351 H   0  0  0  0  0  0  0  0  0  0  0  0
  147.0350  131.8673  157.5272 H   0  0  0  0  0  0  0  0  0  0  0  0
  146.6795  132.7566  159.2228 H   0  0  0  0  0  0  0  0  0  0  0  0
  148.1943  136.1420  159.4540 H   0  0  0  0  0  0  0  0  0  0  0  0
  148.2278  137.3635  161.5975 H   0  0  0  0  0  0  0  0  0  0  0  0
  146.9407  134.0655  163.7225 H   0  0  0  0  0  0  0  0  0  0  0  0
  147.5509  133.7388  154.9557 H   0  0  0  0  0  0  0  0  0  0  0  0
  149.1578  134.1066  155.5154 H   0  0  0  0  0  0  0  0  0  0  0  0
  150.1671  132.6191  153.8312 H   0  0  0  0  0  0  0  0  0  0  0  0
  149.1901  133.8094  153.0534 H   0  0  0  0  0  0  0  0  0  0  0  0
  147.5621  134.1858  151.8042 H   0  0  0  0  0  0  0  0  0  0  0  0
  147.8306  132.9229  150.6286 H   0  0  0  0  0  0  0  0  0  0  0  0
  145.9302  134.3426  149.9883 H   0  0  0  0  0  0  0  0  0  0  0  0
  145.1354  134.0693  151.5264 H   0  0  0  0  0  0  0  0  0  0  0  0
  148.9301  131.5447  152.2526 H   0  0  0  0  0  0  0  0  0  0  0  0
  145.7633  132.0153  149.5390 H   0  0  0  0  0  0  0  0  0  0  0  0
  1  2  1  0  0  0  0
  1 25  1  0  0  0  0
  1 26  1  0  0  0  0
  1 27  1  0  0  0  0
  2 24  1  0  0  0  0
  2  3  1  0  0  0  0
  2 52  1  0  0  0  0
  3  4  1  0  0  0  0
  3 28  1  0  0  0  0
  3 29  1  0  0  0  0
  4  5  1  0  0  0  0
  4 30  1  0  0  0  0
  4 31  1  0  0  0  0
  5  6  1  0  0  0  0
  5 23  1  0  0  0  0
  5 32  1  0  0  0  0
  6 22  1  0  0  0  0
  6  7  1  0  0  0  0
  6 51  1  0  0  0  0
  7  8  1  0  0  0  0
  7 33  1  0  0  0  0
  7 34  1  0  0  0  0
  8  9  1  0  0  0  0
  8 35  1  0  0  0  0
  8 36  1  0  0  0  0
  9 10  1  0  0  0  0
  9 21  1  0  0  0  0
  9 37  1  0  0  0  0
 10 11  1  0  0  0  0
 10 38  1  0  0  0  0
 11 12  2  0  0  0  0
 11 13  1  0  0  0  0
 13 14  1  0  0  0  0
 13 39  1  0  0  0  0
 14 19  1  0  0  0  0
 14 15  2  0  0  0  0
 15 16  1  0  0  0  0
 15 40  1  0  0  0  0
 16 17  2  0  0  0  0
 16 41  1  0  0  0  0
 17 18  1  0  0  0  0
 18 19  2  0  0  0  0
 18 42  1  0  0  0  0
 19 20  1  0  0  0  0
 21 22  1  0  0  0  0
 21 43  1  0  0  0  0
 21 44  1  0  0  0  0
 22 45  1  0  0  0  0
 22 46  1  0  0  0  0
 23 24  1  0  0  0  0
 23 47  1  0  0  0  0
 23 48  1  0  0  0  0
 24 49  1  0  0  0  0
 24 50  1  0  0  0  0
M  CHG  1   2   1
M  CHG  1   6   1
M  END
> <s_m_source_file>
AV-unprocessed.smi

> <i_m_source_file_index>
2253

> <i_lp_mmshare_version>
43012

> <i_f3d_flags>
0

> <s_epik_input>
W0NIM11OMVtDSDJdW0NIMl1bQ0hdKFtDSDJdW0NIMl0xKU4yW0NIMl1bQ0gyXVtDSF0oW0NIMl1bQ0gyXTIpW05IXUMoPU8pW05IXWMzW2NIXVtjSF1uW2NIXWMzRg==

> <s_epik_cmdline>
J2VwaWtfcHl0aG9uJywgJy1waCcsICc3LjAnLCAnLXRuJywgJzgnLCAnLW1hJywgJzIwMCcsICctbWV0YWxfYmluZGluZycsICctaW1hZScsICc8aW5maWxlLm1hZT4nLCAnLW9tYWUnLCAnPG91dGZpbGUubWFlPic=

> <r_epik_Ionization_Penalty>
0.183544

> <r_epik_Ionization_Penalty_Charging>
0.180787

> <r_epik_Ionization_Penalty_Neutral>
0.00275649

> <r_epik_State_Penalty>
0.153592

> <r_epik_Charging_Adjusted_Penalty>
0.334379

> <i_epik_Tot_Q>
2

> <i_epik_Tot_abs_Q>
2

> <r_epik_Metal_State_Penalty>
0.153693

> <b_epik_Metal_Only>
0

> <s_lp_Force_Field>
OPLS_2005

> <r_lp_Energy>
48.1083

> <b_lp_Chiralities_Consistent>
1

> <s_lp_Variant>
AV-unprocessed.smi:2253-3

> <Gold.Version>
5.8.1

> <Gold.Id.Protein>
6NUR|6NUR_protein|mol2

> <Gold.PLP.Fitness>
45.5697

> <Gold.PLP.PLP>
-40.3517

> <Gold.PLP.part.hbond>
-2.0000

> <Gold.PLP.part.metal>
0.0000

> <Gold.PLP.part.buried>
-4.5421

> <Gold.PLP.part.nonpolar>
-34.2343

> <Gold.PLP.part.repulsive>
0.1515

> <Gold.PLP.ligand.clash>
0.0000

> <Gold.PLP.ligand.torsion>
0.3156

> <Gold.PLP.Chemscore.Hbond>
1.9338

> <Gold.PLP.Chemscore.CHOScore>
0.0000

> <Gold.PLP.Chemscore.Metal>
0.0000

> <Gold.Chemscore.Hbonds>
donor molecule, donor type, donor heavy atom, donor atom, acceptor molecule, acceptor atom, score
      L1  H     6    51       P1 10747  0.91
      P1  H  6896  6907       L1    12  0.93

> <Gold.PLP.Chemscore.Internal.Correction>
0.0479

> <Gold.Rescore>
     Score         DG    S(hbond)    S(metal)    S(lipo)     H(rot)  DE(clash)    DE(int)     intcor
     19.79     -20.74       1.85        0.00     105.22       1.26       0.65       0.30       ----

> <Gold.Chemscore.Fitness>
19.7905

> <Gold.Chemscore.DG>
-20.7408

> <Gold.Chemscore.ZeroCoef>
-5.4800

> <Gold.Chemscore.Hbond>
1.8459

> <Gold.Chemscore.Metal>
0.0000

> <Gold.Chemscore.Lipo>
105.2178

> <Gold.Chemscore.Internal_Hbond>
0.0000

> <Gold.Chemscore.DEClash>
0.6542

> <Gold.Chemscore.DEInternal>
0.2961

> <Gold.Chemscore.Rot>
1.2559

> <Gold.Chemscore.Internal.Correction>
   9.000000E+99

> <Gold.Chemscore.Hbonds>
donor molecule, donor type, donor heavy atom, donor atom, acceptor molecule, acceptor atom, score
      L1  H     6    51       P1 10747  0.65
      P1  H  6896  6907       L1    12  0.78

> <Gold.Chemscore.Hbond.Weighted>
-6.1655

> <Gold.Chemscore.Metal.Weighted>
-0.0000

> <Gold.Chemscore.Lipo.Weighted>
-12.3105

> <Gold.Chemscore.Internal_Hbond.Weighted>
0.0000

> <Gold.Chemscore.DEClash.Weighted>
0.6542

> <Gold.Chemscore.DEInternal.Weighted>
0.2961

> <Gold.Chemscore.Rot.Weighted>
3.2151

> <Gold.Chemscore.Internal.Correction.Weighted>
   9.000000E+99

> <Gold.Protein.RotatedTorsions>
[ 6907 6896 6895 6894 ] final -107.98 input  -60.11 | X-H torsion
[ 7974 7965 7964 7962 ] final  -99.98 input  175.53 | X-H torsion
[ 8008 7997 7996 7995 ] final  150.00 input   59.86 | X-H torsion
[ 10167 10162 10161 10158 ] final  129.92 input  -65.29 | X-H torsion
[ 10718 10713 10712 10709 ] final    0.97 input   66.30 | X-H torsion
[ 10763 10752 10751 10750 ] final   21.37 input  -60.55 | X-H torsion
[ 11005 11000 10999 10996 ] final   48.25 input  -57.11 | X-H torsion

> <Gold.Protein.ActiveResidues>
 VAL166  LYS551  ARG553  GLY616  TRP617  ASP618  TYR619  PRO620  LYS621  CYS622 
 ASP623  PHE694  ASN695  SER759  ASP760  ASP761  ALA762  ILE779  LEU786  VAL792 
 PHE793  MET794  SER795  GLU796  ALA797  LYS798  CYS799  TRP800  GLU811  SER814 

> <Gold.Protein.RotatedAtoms>
  150.7475  133.9745  159.3556 H   0  0  0  0  0  0  0  0  0  0  0  0  # atno 6907 bound_to 6896
  151.7681  135.0791  160.0365 H   0  0  0  0  0  0  0  0  0  0  0  0  # atno 6908 bound_to 6896
  152.3357  133.5972  159.5877 H   0  0  0  0  0  0  0  0  0  0  0  0  # atno 6909 bound_to 6896
  145.3005  140.9376  143.2826 H   0  0  0  0  0  0  0  0  0  0  0  0  # atno 7974 bound_to 7965
  156.2733  140.2086  156.5948 H   0  0  0  0  0  0  0  0  0  0  0  0  # atno 8008 bound_to 7997
  154.6954  140.0526  157.0428 H   0  0  0  0  0  0  0  0  0  0  0  0  # atno 8009 bound_to 7997
  155.0809  140.3186  155.4605 H   0  0  0  0  0  0  0  0  0  0  0  0  # atno 8010 bound_to 7997
  139.5455  144.6769  151.4488 H   0  0  0  0  0  0  0  0  0  0  0  0  # atno 10167 bound_to 10162
  156.8413  130.5522  149.5677 H   0  0  0  0  0  0  0  0  0  0  0  0  # atno 10718 bound_to 10713
  153.1001  135.6670  153.9689 H   0  0  0  0  0  0  0  0  0  0  0  0  # atno 10763 bound_to 10752
  153.9262  135.3009  155.3448 H   0  0  0  0  0  0  0  0  0  0  0  0  # atno 10764 bound_to 10752
  154.7421  135.5074  153.9216 H   0  0  0  0  0  0  0  0  0  0  0  0  # atno 10765 bound_to 10752
  140.1207  134.4833  155.8599 H   0  0  0  0  0  0  0  0  0  0  0  0  # atno 11005 bound_to 11000
  144.9097  139.4544  143.6593 LP  0  0  0  0  0  0  0  0  0  0  0  0  # atno 17320 bound_to 7965
  146.3153  139.7898  142.8988 LP  0  0  0  0  0  0  0  0  0  0  0  0  # atno 17321 bound_to 7965
  140.6701  143.8312  150.6989 LP  0  0  0  0  0  0  0  0  0  0  0  0  # atno 17342 bound_to 10162
  140.1734  143.4175  152.1985 LP  0  0  0  0  0  0  0  0  0  0  0  0  # atno 17343 bound_to 10162
  156.0879  130.5873  150.9681 LP  0  0  0  0  0  0  0  0  0  0  0  0  # atno 17370 bound_to 10713
  157.6354  131.0916  150.8359 LP  0  0  0  0  0  0  0  0  0  0  0  0  # atno 17371 bound_to 10713
  141.2151  133.6760  156.6884 LP  0  0  0  0  0  0  0  0  0  0  0  0  # atno 17394 bound_to 11000
  140.2968  134.8196  157.4064 LP  0  0  0  0  0  0  0  0  0  0  0  0  # atno 17395 bound_to 11000

$$$$
