AV-unprocessed.smi:1381|AV-procd|sdf|5604|dock4
  -GOLD-   22720 5213D 1   1.00000     0.00000
 Structure written by MMmdl.
 42 43  0  0  0  0  0  0  0  0  1 V2000
  146.6817  130.2458  152.9152 C   0  0  0  0  0  0  0  0  0  0  0  0
  147.4578  131.3720  153.5070 C   0  0  0  0  0  0  0  0  0  0  0  0
  147.8240  132.5999  153.0319 C   0  0  0  0  0  0  0  0  0  0  0  0
  148.5539  133.1573  154.1151 C   0  0  0  0  0  0  0  0  0  0  0  0
  149.1232  134.4527  154.0185 N   0  0  0  0  0  0  0  0  0  0  0  0
  149.8836  135.0828  154.9300 C   0  0  0  0  0  0  0  0  0  0  0  0
  150.1990  134.6256  156.0291 O   0  0  0  0  0  0  0  0  0  0  0  0
  150.2637  136.2927  154.4951 N   0  0  0  0  0  0  0  0  0  0  0  0
  151.0739  137.2386  155.2557 C   0  0  0  0  0  0  0  0  0  0  0  0
  151.5415  138.4232  154.3876 C   0  0  0  0  0  0  0  0  0  0  0  0
  150.9364  139.7159  154.7114 N   0  0  0  0  0  0  0  0  0  0  0  0
  150.8462  139.9478  156.1511 C   0  0  0  0  0  0  0  0  0  0  0  0
  150.1786  141.2941  156.4971 C   0  0  1  0  0  0  0  0  0  0  0  0
  151.0843  142.5089  156.2309 C   0  0  0  0  0  0  0  0  0  0  0  0
  148.9229  141.4121  155.8265 O   0  0  0  0  0  0  0  0  0  0  0  0
  148.9637  141.1972  154.4170 C   0  0  2  0  0  0  0  0  0  0  0  0
  147.5307  141.2852  153.8813 C   0  0  0  0  0  0  0  0  0  0  0  0
  149.6059  139.8289  154.1280 C   0  0  0  0  0  0  0  0  0  0  0  0
  148.6248  132.3443  155.1584 N   0  0  0  0  0  0  0  0  0  0  0  0
  147.9225  131.1960  154.7738 O   0  0  0  0  0  0  0  0  0  0  0  0
  146.2219  130.5428  151.9725 H   0  0  0  0  0  0  0  0  0  0  0  0
  145.8893  129.9234  153.5909 H   0  0  0  0  0  0  0  0  0  0  0  0
  147.3299  129.3911  152.7204 H   0  0  0  0  0  0  0  0  0  0  0  0
  147.6054  133.0264  152.0640 H   0  0  0  0  0  0  0  0  0  0  0  0
  148.9377  134.9498  153.1601 H   0  0  0  0  0  0  0  0  0  0  0  0
  149.9561  136.5909  153.5811 H   0  0  0  0  0  0  0  0  0  0  0  0
  150.5020  137.6101  156.1074 H   0  0  0  0  0  0  0  0  0  0  0  0
  151.9240  136.7059  155.6806 H   0  0  0  0  0  0  0  0  0  0  0  0
  152.6246  138.5036  154.4907 H   0  0  0  0  0  0  0  0  0  0  0  0
  151.3641  138.1893  153.3369 H   0  0  0  0  0  0  0  0  0  0  0  0
  150.2724  139.1421  156.6117 H   0  0  0  0  0  0  0  0  0  0  0  0
  151.8358  139.9191  156.6060 H   0  0  0  0  0  0  0  0  0  0  0  0
  149.9557  141.2922  157.5644 H   0  0  0  0  0  0  0  0  0  0  0  0
  151.9847  142.4628  156.8436 H   0  0  0  0  0  0  0  0  0  0  0  0
  150.5684  143.4382  156.4722 H   0  0  0  0  0  0  0  0  0  0  0  0
  151.4023  142.5636  155.1900 H   0  0  0  0  0  0  0  0  0  0  0  0
  149.5549  141.9840  153.9471 H   0  0  0  0  0  0  0  0  0  0  0  0
  147.5055  141.1398  152.8009 H   0  0  0  0  0  0  0  0  0  0  0  0
  147.0944  142.2611  154.0953 H   0  0  0  0  0  0  0  0  0  0  0  0
  146.8921  140.5278  154.3367 H   0  0  0  0  0  0  0  0  0  0  0  0
  149.6642  139.6827  153.0487 H   0  0  0  0  0  0  0  0  0  0  0  0
  148.9651  139.0350  154.5152 H   0  0  0  0  0  0  0  0  0  0  0  0
  1  2  1  0  0  0  0
  1 21  1  0  0  0  0
  1 22  1  0  0  0  0
  1 23  1  0  0  0  0
  2 20  1  0  0  0  0
  2  3  2  0  0  0  0
  3  4  1  0  0  0  0
  3 24  1  0  0  0  0
  4  5  1  0  0  0  0
  4 19  2  0  0  0  0
  5  6  1  0  0  0  0
  5 25  1  0  0  0  0
  6  7  2  0  0  0  0
  6  8  1  0  0  0  0
  8  9  1  0  0  0  0
  8 26  1  0  0  0  0
  9 10  1  0  0  0  0
  9 27  1  0  0  0  0
  9 28  1  0  0  0  0
 10 11  1  0  0  0  0
 10 29  1  0  0  0  0
 10 30  1  0  0  0  0
 11 18  1  0  0  0  0
 11 12  1  0  0  0  0
 12 13  1  0  0  0  0
 12 31  1  0  0  0  0
 12 32  1  0  0  0  0
 13 14  1  0  0  0  0
 13 15  1  0  0  0  0
 13 33  1  0  0  0  0
 14 34  1  0  0  0  0
 14 35  1  0  0  0  0
 14 36  1  0  0  0  0
 15 16  1  0  0  0  0
 16 17  1  0  0  0  0
 16 18  1  0  0  0  0
 16 37  1  0  0  0  0
 17 38  1  0  0  0  0
 17 39  1  0  0  0  0
 17 40  1  0  0  0  0
 18 41  1  0  0  0  0
 18 42  1  0  0  0  0
 19 20  1  0  0  0  0
M  END
> <s_m_source_file>
AV-unprocessed.smi

> <i_m_source_file_index>
1381

> <i_lp_mmshare_version>
43012

> <i_f3d_flags>
0

> <s_epik_input>
W0NIM11jMVtjSF1jKG5vMSlbTkhdQyg9TylbTkhdW0NIMl1bQ0gyXU4yW0NIMl1bQ0BASF0oW0NIM10pT1tDQEBIXShbQ0gzXSlbQ0gyXTI=

> <s_epik_cmdline>
J2VwaWtfcHl0aG9uJywgJy1waCcsICc3LjAnLCAnLXRuJywgJzgnLCAnLW1hJywgJzIwMCcsICctbWV0YWxfYmluZGluZycsICctaW1hZScsICc8aW5maWxlLm1hZT4nLCAnLW9tYWUnLCAnPG91dGZpbGUubWFlPic=

> <r_epik_Ionization_Penalty>
0.214073

> <r_epik_Ionization_Penalty_Charging>
0

> <r_epik_Ionization_Penalty_Neutral>
0.214073

> <r_epik_State_Penalty>
0.204211

> <r_epik_Charging_Adjusted_Penalty>
0.204211

> <i_epik_Tot_Q>
0

> <i_epik_Tot_abs_Q>
0

> <r_epik_Metal_State_Penalty>
0.217067

> <b_epik_Metal_Only>
0

> <s_lp_Force_Field>
OPLS_2005

> <r_lp_Energy>
24.2919

> <b_lp_Chiralities_Consistent>
1

> <s_lp_Variant>
AV-unprocessed.smi:1381-3

> <Gold.Version>
5.8.1

> <Gold.Id.Protein>
6NUR|6NUR_protein|mol2

> <Gold.PLP.Fitness>
40.2710

> <Gold.PLP.PLP>
-33.0105

> <Gold.PLP.part.hbond>
-3.7304

> <Gold.PLP.part.metal>
0.0000

> <Gold.PLP.part.buried>
-4.1618

> <Gold.PLP.part.nonpolar>
-26.1429

> <Gold.PLP.part.repulsive>
0.2874

> <Gold.PLP.ligand.clash>
0.0000

> <Gold.PLP.ligand.torsion>
0.5730

> <Gold.PLP.Chemscore.Hbond>
2.7995

> <Gold.PLP.Chemscore.CHOScore>
0.0000

> <Gold.PLP.Chemscore.Metal>
0.0000

> <Gold.Chemscore.Hbonds>
donor molecule, donor type, donor heavy atom, donor atom, acceptor molecule, acceptor atom, score
      L1  H     5    25       P1  7948  0.95
      L1  H     8    26       P1  7948  0.95
      P1  H  7989  7998       L1    11  0.60

> <Gold.PLP.Chemscore.Internal.Correction>
0.0080

> <Gold.Rescore>
     Score         DG    S(hbond)    S(metal)    S(lipo)     H(rot)  DE(clash)    DE(int)     intcor
     12.64     -14.41       1.50        0.00      67.83       1.57       0.01       1.76       ----

> <Gold.Chemscore.Fitness>
12.6425

> <Gold.Chemscore.DG>
-14.4095

> <Gold.Chemscore.ZeroCoef>
-5.4800

> <Gold.Chemscore.Hbond>
1.5005

> <Gold.Chemscore.Metal>
0.0000

> <Gold.Chemscore.Lipo>
67.8313

> <Gold.Chemscore.Internal_Hbond>
0.0000

> <Gold.Chemscore.DEClash>
0.0096

> <Gold.Chemscore.DEInternal>
1.7574

> <Gold.Chemscore.Rot>
1.5697

> <Gold.Chemscore.Internal.Correction>
   9.000000E+99

> <Gold.Chemscore.Hbonds>
donor molecule, donor type, donor heavy atom, donor atom, acceptor molecule, acceptor atom, score
      L1  H     5    25       P1  7948  0.22
      L1  H     8    26       P1  7948  0.20
      P1  H  7989  7998       L1    11  0.02

> <Gold.Chemscore.Hbond.Weighted>
-5.0117

> <Gold.Chemscore.Metal.Weighted>
-0.0000

> <Gold.Chemscore.Lipo.Weighted>
-7.9363

> <Gold.Chemscore.Internal_Hbond.Weighted>
0.0000

> <Gold.Chemscore.DEClash.Weighted>
0.0096

> <Gold.Chemscore.DEInternal.Weighted>
1.7574

> <Gold.Chemscore.Rot.Weighted>
4.0185

> <Gold.Chemscore.Internal.Correction.Weighted>
   9.000000E+99

> <Gold.Protein.RotatedTorsions>
[ 6907 6896 6895 6894 ] final    7.27 input  -60.11 | X-H torsion
[ 7974 7965 7964 7962 ] final  -45.44 input  175.53 | X-H torsion
[ 8008 7997 7996 7995 ] final   61.41 input   59.86 | X-H torsion
[ 10167 10162 10161 10158 ] final   12.11 input  -65.29 | X-H torsion
[ 10718 10713 10712 10709 ] final -105.45 input   66.30 | X-H torsion
[ 10763 10752 10751 10750 ] final  173.20 input  -60.55 | X-H torsion
[ 11005 11000 10999 10996 ] final   13.29 input  -57.11 | X-H torsion

> <Gold.Protein.ActiveResidues>
 VAL166  LYS551  ARG553  GLY616  TRP617  ASP618  TYR619  PRO620  LYS621  CYS622 
 ASP623  PHE694  ASN695  SER759  ASP760  ASP761  ALA762  ILE779  LEU786  VAL792 
 PHE793  MET794  SER795  GLU796  ALA797  LYS798  CYS799  TRP800  GLU811  SER814 

> <Gold.Protein.RotatedAtoms>
  151.6872  135.0952  160.0226 H   0  0  0  0  0  0  0  0  0  0  0  0  # atno 6907 bound_to 6896
  152.3800  133.6529  159.6162 H   0  0  0  0  0  0  0  0  0  0  0  0  # atno 6908 bound_to 6896
  150.7739  133.9046  159.3392 H   0  0  0  0  0  0  0  0  0  0  0  0  # atno 6909 bound_to 6896
  145.9821  140.7273  142.9358 H   0  0  0  0  0  0  0  0  0  0  0  0  # atno 7974 bound_to 7965
  155.5979  140.3493  155.4585 H   0  0  0  0  0  0  0  0  0  0  0  0  # atno 8008 bound_to 7997
  156.0251  140.1262  157.0342 H   0  0  0  0  0  0  0  0  0  0  0  0  # atno 8009 bound_to 7997
  154.4330  140.1054  156.6005 H   0  0  0  0  0  0  0  0  0  0  0  0  # atno 8010 bound_to 7997
  140.6089  143.8450  150.7043 H   0  0  0  0  0  0  0  0  0  0  0  0  # atno 10167 bound_to 10162
  156.0346  130.5564  150.7540 H   0  0  0  0  0  0  0  0  0  0  0  0  # atno 10718 bound_to 10713
  154.4367  135.2761  155.1875 H   0  0  0  0  0  0  0  0  0  0  0  0  # atno 10763 bound_to 10752
  154.3758  135.6098  153.5768 H   0  0  0  0  0  0  0  0  0  0  0  0  # atno 10764 bound_to 10752
  152.9839  135.5868  154.4688 H   0  0  0  0  0  0  0  0  0  0  0  0  # atno 10765 bound_to 10752
  140.4824  134.0922  155.7754 H   0  0  0  0  0  0  0  0  0  0  0  0  # atno 11005 bound_to 11000
  144.6864  140.2925  143.7276 LP  0  0  0  0  0  0  0  0  0  0  0  0  # atno 17320 bound_to 7965
  145.7755  139.1872  143.2188 LP  0  0  0  0  0  0  0  0  0  0  0  0  # atno 17321 bound_to 7965
  140.2013  143.3957  152.1789 LP  0  0  0  0  0  0  0  0  0  0  0  0  # atno 17342 bound_to 10162
  139.5346  144.7196  151.4938 LP  0  0  0  0  0  0  0  0  0  0  0  0  # atno 17343 bound_to 10162
  157.5077  131.0923  151.0236 LP  0  0  0  0  0  0  0  0  0  0  0  0  # atno 17370 bound_to 10713
  157.0600  130.5821  149.5384 LP  0  0  0  0  0  0  0  0  0  0  0  0  # atno 17371 bound_to 10713
  141.1524  133.8944  157.2063 LP  0  0  0  0  0  0  0  0  0  0  0  0  # atno 17394 bound_to 11000
  139.9818  135.0095  156.9768 LP  0  0  0  0  0  0  0  0  0  0  0  0  # atno 17395 bound_to 11000

$$$$
