AV-unprocessed.smi:3028|AV-procd|sdf|11523|dock2
  -GOLD-   2272016463D 1   1.00000     0.00000
 Structure written by MMmdl.
 47 48  0  0  0  0  0  0  0  0  1 V2000
  151.1253  142.9045  157.7956 C   0  0  0  0  0  0  0  0  0  0  0  0
  150.6870  141.9139  156.7558 C   0  0  0  0  0  0  0  0  0  0  0  0
  151.3838  140.7593  156.3006 C   0  0  0  0  0  0  0  0  0  0  0  0
  150.7211  140.0943  155.3697 N   0  0  0  0  0  0  0  0  0  0  0  0
  149.5747  140.7915  155.1988 N   0  0  0  0  0  0  0  0  0  0  0  0
  148.5815  140.3644  154.2157 C   0  0  2  0  0  0  0  0  0  0  0  0
  147.1499  140.7386  154.6443 C   0  0  0  0  0  0  0  0  0  0  0  0
  148.7468  138.8808  153.7751 C   0  0  1  0  0  0  0  0  0  0  0  0
  148.2259  137.8965  154.8364 C   0  0  0  0  0  0  0  0  0  0  0  0
  148.0213  138.5890  152.5417 N   0  0  0  0  0  0  0  0  0  0  0  0
  146.5670  138.4961  152.7261 C   0  0  0  0  0  0  0  0  0  0  0  0
  146.0346  137.0671  152.5354 C   0  0  0  0  0  0  0  0  0  0  0  0
  146.1371  136.2393  153.4401 O   0  0  0  0  0  0  0  0  0  0  0  0
  145.4506  136.7359  151.3716 N   0  0  0  0  0  0  0  0  0  0  0  0
  144.8831  135.4448  150.9891 C   0  0  0  0  0  0  0  0  0  0  0  0
  143.8007  135.0393  152.0004 C   0  0  0  0  0  0  0  0  0  0  0  0
  143.2959  133.6154  151.7156 C   0  0  0  0  0  0  0  0  0  0  0  0
  144.3864  132.7003  151.7332 O   0  0  0  0  0  0  0  0  0  0  0  0
  145.3562  132.9735  150.7273 C   0  0  0  0  0  0  0  0  0  0  0  0
  145.9750  134.3624  150.9539 C   0  0  0  0  0  0  0  0  0  0  0  0
  149.5356  141.8995  156.0206 C   0  0  0  0  0  0  0  0  0  0  0  0
  152.2098  142.9222  157.9054 H   0  0  0  0  0  0  0  0  0  0  0  0
  150.7067  142.6700  158.7744 H   0  0  0  0  0  0  0  0  0  0  0  0
  150.8120  143.9182  157.5454 H   0  0  0  0  0  0  0  0  0  0  0  0
  152.3477  140.3879  156.6163 H   0  0  0  0  0  0  0  0  0  0  0  0
  148.7735  140.9623  153.3236 H   0  0  0  0  0  0  0  0  0  0  0  0
  146.4250  140.4527  153.8819 H   0  0  0  0  0  0  0  0  0  0  0  0
  147.0598  141.8147  154.7943 H   0  0  0  0  0  0  0  0  0  0  0  0
  146.8605  140.2565  155.5778 H   0  0  0  0  0  0  0  0  0  0  0  0
  149.8091  138.6686  153.6426 H   0  0  0  0  0  0  0  0  0  0  0  0
  148.7171  138.0586  155.7960 H   0  0  0  0  0  0  0  0  0  0  0  0
  148.4201  136.8644  154.5419 H   0  0  0  0  0  0  0  0  0  0  0  0
  147.1512  137.9953  154.9932 H   0  0  0  0  0  0  0  0  0  0  0  0
  148.4022  137.7499  152.1256 H   0  0  0  0  0  0  0  0  0  0  0  0
  146.3009  138.8364  153.7252 H   0  0  0  0  0  0  0  0  0  0  0  0
  146.0738  139.1567  152.0122 H   0  0  0  0  0  0  0  0  0  0  0  0
  145.3908  137.4650  150.6753 H   0  0  0  0  0  0  0  0  0  0  0  0
  144.4113  135.5070  150.0081 H   0  0  0  0  0  0  0  0  0  0  0  0
  144.2040  135.0794  153.0135 H   0  0  0  0  0  0  0  0  0  0  0  0
  142.9691  135.7441  151.9674 H   0  0  0  0  0  0  0  0  0  0  0  0
  142.5733  133.3162  152.4748 H   0  0  0  0  0  0  0  0  0  0  0  0
  142.7838  133.5691  150.7531 H   0  0  0  0  0  0  0  0  0  0  0  0
  146.1311  132.2078  150.7694 H   0  0  0  0  0  0  0  0  0  0  0  0
  144.8987  132.9086  149.7389 H   0  0  0  0  0  0  0  0  0  0  0  0
  146.7033  134.5769  150.1714 H   0  0  0  0  0  0  0  0  0  0  0  0
  146.5235  134.3587  151.8971 H   0  0  0  0  0  0  0  0  0  0  0  0
  148.6984  142.5818  156.0136 H   0  0  0  0  0  0  0  0  0  0  0  0
  1  2  1  0  0  0  0
  1 22  1  0  0  0  0
  1 23  1  0  0  0  0
  1 24  1  0  0  0  0
  2 21  2  0  0  0  0
  2  3  1  0  0  0  0
  3  4  2  0  0  0  0
  3 25  1  0  0  0  0
  4  5  1  0  0  0  0
  5  6  1  0  0  0  0
  5 21  1  0  0  0  0
  6  7  1  0  0  0  0
  6  8  1  0  0  0  0
  6 26  1  0  0  0  0
  7 27  1  0  0  0  0
  7 28  1  0  0  0  0
  7 29  1  0  0  0  0
  8  9  1  0  0  0  0
  8 10  1  0  0  0  0
  8 30  1  0  0  0  0
  9 31  1  0  0  0  0
  9 32  1  0  0  0  0
  9 33  1  0  0  0  0
 10 11  1  0  0  0  0
 10 34  1  0  0  0  0
 11 12  1  0  0  0  0
 11 35  1  0  0  0  0
 11 36  1  0  0  0  0
 12 13  2  0  0  0  0
 12 14  1  0  0  0  0
 14 15  1  0  0  0  0
 14 37  1  0  0  0  0
 15 20  1  0  0  0  0
 15 16  1  0  0  0  0
 15 38  1  0  0  0  0
 16 17  1  0  0  0  0
 16 39  1  0  0  0  0
 16 40  1  0  0  0  0
 17 18  1  0  0  0  0
 17 41  1  0  0  0  0
 17 42  1  0  0  0  0
 18 19  1  0  0  0  0
 19 20  1  0  0  0  0
 19 43  1  0  0  0  0
 19 44  1  0  0  0  0
 20 45  1  0  0  0  0
 20 46  1  0  0  0  0
 21 47  1  0  0  0  0
M  END
> <s_m_source_file>
AV-unprocessed.smi

> <i_m_source_file_index>
3028

> <i_lp_mmshare_version>
43012

> <i_f3d_flags>
0

> <s_epik_input>
W0NIM11jMVtjSF1ubihbY0hdMSlbQ0BIXShbQ0gzXSlbQ0BIXShbQ0gzXSlbTkhdW0NIMl1DKD1PKVtOSF1bQ0hdMltDSDJdW0NIMl1PW0NIMl1bQ0gyXTI=

> <s_epik_cmdline>
J2VwaWtfcHl0aG9uJywgJy1waCcsICc3LjAnLCAnLXRuJywgJzgnLCAnLW1hJywgJzIwMCcsICctbWV0YWxfYmluZGluZycsICctaW1hZScsICc8aW5maWxlLm1hZT4nLCAnLW9tYWUnLCAnPG91dGZpbGUubWFlPic=

> <r_lp_tautomer_probability>
1

> <r_epik_Ionization_Penalty>
0.88617

> <r_epik_Ionization_Penalty_Charging>
0

> <r_epik_Ionization_Penalty_Neutral>
0.88617

> <r_epik_State_Penalty>
0.921066

> <r_epik_Charging_Adjusted_Penalty>
0.921066

> <i_epik_Tot_Q>
0

> <i_epik_Tot_abs_Q>
0

> <r_epik_Metal_State_Penalty>
0.917309

> <b_epik_Metal_Only>
0

> <s_lp_Force_Field>
OPLS_2005

> <r_lp_Energy>
19.7658

> <b_lp_Chiralities_Consistent>
1

> <s_lp_Variant>
AV-unprocessed.smi:3028-7

> <Gold.Version>
5.8.1

> <Gold.Id.Protein>
6NUR|6NUR_protein|mol2

> <Gold.PLP.Fitness>
44.0606

> <Gold.PLP.PLP>
-35.4840

> <Gold.PLP.part.hbond>
-3.8723

> <Gold.PLP.part.metal>
0.0000

> <Gold.PLP.part.buried>
-0.6131

> <Gold.PLP.part.nonpolar>
-31.2208

> <Gold.PLP.part.repulsive>
0.3307

> <Gold.PLP.ligand.clash>
0.0000

> <Gold.PLP.ligand.torsion>
1.4878

> <Gold.PLP.Chemscore.Hbond>
2.8960

> <Gold.PLP.Chemscore.CHOScore>
0.8485

> <Gold.PLP.Chemscore.Metal>
0.0000

> <Gold.Chemscore.Hbonds>
donor molecule, donor type, donor heavy atom, donor atom, acceptor molecule, acceptor atom, score
      L1  H    10    34       P1  7948  1.00
      L1  H    14    37       P1 10171  0.66
      P1  H  7989  7998       L1     4  0.34
      L1  C    21    47       P1  8028  0.89

> <Gold.PLP.Chemscore.Internal.Correction>
0.3188

> <Gold.Rescore>
     Score         DG    S(hbond)    S(metal)    S(lipo)     H(rot)  DE(clash)    DE(int)     intcor
     12.23     -16.91       1.88        0.00      86.08       1.92       0.48       4.20       ----

> <Gold.Chemscore.Fitness>
12.2277

> <Gold.Chemscore.DG>
-16.9130

> <Gold.Chemscore.ZeroCoef>
-5.4800

> <Gold.Chemscore.Hbond>
1.8819

> <Gold.Chemscore.Metal>
0.0000

> <Gold.Chemscore.Lipo>
86.0781

> <Gold.Chemscore.Internal_Hbond>
0.0000

> <Gold.Chemscore.DEClash>
0.4825

> <Gold.Chemscore.DEInternal>
4.2028

> <Gold.Chemscore.Rot>
1.9233

> <Gold.Chemscore.Internal.Correction>
   9.000000E+99

> <Gold.Chemscore.Hbonds>
donor molecule, donor type, donor heavy atom, donor atom, acceptor molecule, acceptor atom, score
      L1  H    10    34       P1  7948  0.99
      L1  H    14    37       P1 10171  0.64
      P1  H  7989  7998       L1     4  0.01

> <Gold.Chemscore.Hbond.Weighted>
-6.2854

> <Gold.Chemscore.Metal.Weighted>
-0.0000

> <Gold.Chemscore.Lipo.Weighted>
-10.0711

> <Gold.Chemscore.Internal_Hbond.Weighted>
0.0000

> <Gold.Chemscore.DEClash.Weighted>
0.4825

> <Gold.Chemscore.DEInternal.Weighted>
4.2028

> <Gold.Chemscore.Rot.Weighted>
4.9235

> <Gold.Chemscore.Internal.Correction.Weighted>
   9.000000E+99

> <Gold.Protein.RotatedTorsions>
[ 6907 6896 6895 6894 ] final -140.83 input  -60.11 | X-H torsion
[ 7974 7965 7964 7962 ] final  -15.33 input  175.53 | X-H torsion
[ 8008 7997 7996 7995 ] final   45.64 input   59.86 | X-H torsion
[ 10167 10162 10161 10158 ] final  -48.67 input  -65.29 | X-H torsion
[ 10718 10713 10712 10709 ] final   10.92 input   66.30 | X-H torsion
[ 10763 10752 10751 10750 ] final  133.19 input  -60.55 | X-H torsion
[ 11005 11000 10999 10996 ] final  143.96 input  -57.11 | X-H torsion

> <Gold.Protein.ActiveResidues>
 VAL166  LYS551  ARG553  GLY616  TRP617  ASP618  TYR619  PRO620  LYS621  CYS622 
 ASP623  PHE694  ASN695  SER759  ASP760  ASP761  ALA762  ILE779  LEU786  VAL792 
 PHE793  MET794  SER795  GLU796  ALA797  LYS798  CYS799  TRP800  GLU811  SER814 

> <Gold.Protein.RotatedAtoms>
  151.0659  133.5506  159.2630 H   0  0  0  0  0  0  0  0  0  0  0  0  # atno 6907 bound_to 6896
  151.2464  135.0606  159.9055 H   0  0  0  0  0  0  0  0  0  0  0  0  # atno 6908 bound_to 6896
  152.5404  134.0426  159.8128 H   0  0  0  0  0  0  0  0  0  0  0  0  # atno 6909 bound_to 6896
  146.2037  140.3477  142.8414 H   0  0  0  0  0  0  0  0  0  0  0  0  # atno 7974 bound_to 7965
  155.3392  140.3407  155.4239 H   0  0  0  0  0  0  0  0  0  0  0  0  # atno 8008 bound_to 7997
  156.1822  140.1668  156.8289 H   0  0  0  0  0  0  0  0  0  0  0  0  # atno 8009 bound_to 7997
  154.5346  140.0738  156.8388 H   0  0  0  0  0  0  0  0  0  0  0  0  # atno 8010 bound_to 7997
  140.6720  143.2730  151.4104 H   0  0  0  0  0  0  0  0  0  0  0  0  # atno 10167 bound_to 10162
  156.9880  130.6031  149.5683 H   0  0  0  0  0  0  0  0  0  0  0  0  # atno 10718 bound_to 10713
  153.8030  135.3139  155.3392 H   0  0  0  0  0  0  0  0  0  0  0  0  # atno 10763 bound_to 10752
  154.8081  135.4684  154.0448 H   0  0  0  0  0  0  0  0  0  0  0  0  # atno 10764 bound_to 10752
  153.1802  135.6892  153.8575 H   0  0  0  0  0  0  0  0  0  0  0  0  # atno 10765 bound_to 10752
  140.0595  134.9212  157.1159 H   0  0  0  0  0  0  0  0  0  0  0  0  # atno 11005 bound_to 11000
  144.8741  140.7312  143.6028 LP  0  0  0  0  0  0  0  0  0  0  0  0  # atno 17320 bound_to 7965
  145.3396  139.1736  143.4493 LP  0  0  0  0  0  0  0  0  0  0  0  0  # atno 17321 bound_to 7965
  139.5994  144.1328  152.2180 LP  0  0  0  0  0  0  0  0  0  0  0  0  # atno 17342 bound_to 10162
  140.0708  144.5781  150.7193 LP  0  0  0  0  0  0  0  0  0  0  0  0  # atno 17343 bound_to 10162
  156.0218  130.5313  150.8297 LP  0  0  0  0  0  0  0  0  0  0  0  0  # atno 17370 bound_to 10713
  157.5479  131.0943  150.9736 LP  0  0  0  0  0  0  0  0  0  0  0  0  # atno 17371 bound_to 10713
  140.3792  134.2305  155.7172 LP  0  0  0  0  0  0  0  0  0  0  0  0  # atno 17394 bound_to 11000
  141.1967  133.8077  157.0661 LP  0  0  0  0  0  0  0  0  0  0  0  0  # atno 17395 bound_to 11000

$$$$
