#       Name:                AV-unprocessed.smi:391
#       Creating user name   scv26
#       Creation time:       Thu Mar 26 22:42:10 2020


#       File generated by GOLD software.
#

@<TRIPOS>MOLECULE
AV-unprocessed.smi:391
    43    44     1
SMALL
NO_CHARGES


@<TRIPOS>ATOM
      1 ****        -3.4448  -3.3834   2.3740 C.3            1 S1                 0.0000
      2 ****        -3.1452  -2.2090   1.4332 C.3            1 S1                 0.0000
      3 ****        -3.5944  -2.5067  -0.0062 C.3            1 S1                 0.0000
      4 ****        -1.7167  -1.9104   1.4701 N.am           1 S1                 0.0000
      5 ****        -1.1620  -0.7186   1.2014 C.2            1 S1                 0.0000
      6 ****        -1.8182   0.2792   0.8988 O.2            1 S1                 0.0000
      7 ****         0.3701  -0.6599   1.2976 C.3            1 S1                 0.0000
      8 ****         0.9554   0.5523   0.6838 N.am           1 S1                 0.0000
      9 ****         1.1951   1.6865   1.5010 C.2            1 S1                 0.0000
     10 ****         0.9410   1.6668   2.7064 O.2            1 S1                 0.0000
     11 ****         1.7398   2.8542   0.8117 C.2            1 S1                 0.0000
     12 ****         1.9687   4.0237   1.5937 C.1            1 S1                 0.0000
     13 ****         2.1679   4.9830   2.2099 N.1            1 S1                 0.0000
     14 ****         2.0074   2.8192  -0.5099 C.2            1 S1                 0.0000
     15 ****         1.8009   1.6947  -1.2787 N.am           1 S1                 0.0000
     16 ****         1.9417   1.7295  -2.7070 C.3            1 S1                 0.0000
     17 ****         2.8208   0.7183  -3.4171 C.3            1 S1                 0.0000
     18 ****         3.2655   2.1559  -3.3024 C.3            1 S1                 0.0000
     19 ****         1.2170   0.5427  -0.7079 C.2            1 S1                 0.0000
     20 ****         0.9328  -0.4391  -1.3990 O.2            1 S1                 0.0000
     21 ****        -4.5110  -3.6110   2.3890 H              1 S1                 0.0000
     22 ****        -3.1434  -3.1535   3.3965 H              1 S1                 0.0000
     23 ****        -2.9167  -4.2862   2.0650 H              1 S1                 0.0000
     24 ****        -3.6991  -1.3422   1.7982 H              1 S1                 0.0000
     25 ****        -4.6616  -2.7264  -0.0457 H              1 S1                 0.0000
     26 ****        -3.0631  -3.3654  -0.4182 H              1 S1                 0.0000
     27 ****        -3.4114  -1.6557  -0.6630 H              1 S1                 0.0000
     28 ****        -1.1003  -2.6724   1.7133 H              1 S1                 0.0000
     29 ****         0.6479  -0.7499   2.3488 H              1 S1                 0.0000
     30 ****         0.7878  -1.5569   0.8367 H              1 S1                 0.0000
     31 ****         2.4040   3.7042  -0.9867 H              1 S1                 0.0000
     32 ****         1.0546   2.0484  -3.2514 H              1 S1                 0.0000
     33 ****         3.3538  -0.0154  -2.8151 H              1 S1                 0.0000
     34 ****         2.4920   0.3684  -4.3933 H              1 S1                 0.0000
     35 ****         3.2363   2.7647  -4.2036 H              1 S1                 0.0000
     36 ****         4.0891   2.3687  -2.6233 H              1 S1                 0.0000
     37 ****        -2.8152   0.2243   0.8439 LP             1 S1                 0.0000
     38 ****        -1.3539   1.1441   0.7081 LP             1 S1                 0.0000
     39 ****         0.5594   0.8420   3.1235 LP             1 S1                 0.0000
     40 ****         1.1163   2.4757   3.2676 LP             1 S1                 0.0000
     41 ****         2.3400   5.8119   2.7423 LP             1 S1                 0.0000
     42 ****         0.5118  -1.2423  -0.9775 LP             1 S1                 0.0000
     43 ****         1.1233  -0.4316  -2.3807 LP             1 S1                 0.0000
@<TRIPOS>BOND
    1    1    2 1     
    2    1   21 1     
    3    1   22 1     
    4    1   23 1     
    5    2    3 1     
    6    2    4 1     
    7    2   24 1     
    8    3   25 1     
    9    3   26 1     
   10    3   27 1     
   11    4    5 am    
   12    4   28 1     
   13    5    6 2     
   14    5    7 1     
   15    7    8 1     
   16    7   29 1     
   17    7   30 1     
   18    8   19 am    
   19    8    9 am    
   20    9   10 2     
   21    9   11 1     
   22   11   12 1     
   23   11   14 2     
   24   12   13 3     
   25   14   15 1     
   26   14   31 1     
   27   15   16 1     
   28   15   19 am    
   29   16   18 1     
   30   16   17 1     
   31   16   32 1     
   32   17   18 1     
   33   17   33 1     
   34   17   34 1     
   35   18   35 1     
   36   18   36 1     
   37   19   20 2     
   38    6   37 1     
   39    6   38 1     
   40   10   39 1     
   41   10   40 1     
   42   13   41 1     
   43   20   42 1     
   44   20   43 1     
@<TRIPOS>SUBSTRUCTURE
      1 S1             1
@<TRIPOS>SET
LONE_PAIRS      STATIC     ATOMS    <user>   **** ""
7 37 38 39 40 41 42 43
DONOR_HYDROGENS      STATIC     ATOMS    <user>   **** ""
1 28
ATOM$BLUE        STATIC     ATOMS    COLORGROUP SYSTEM
7 37 38 39 40 41 42 43
ATOM$RED        STATIC     ATOMS    COLORGROUP SYSTEM
1 28
