AV-unprocessed.smi:564|AV-procd|sdf|2947|dock8
  -GOLD-   2262023443D 1   1.00000     0.00000
 Structure written by MMmdl.
 50 51  0  0  0  0  0  0  0  0  2 V2000
  151.6484  138.9533  154.8115 C   0  0  0  0  0  0  0  0  0  0  0  0
  151.5705  139.9650  155.9192 C   0  0  0  0  0  0  0  0  0  0  0  0
  152.3275  139.8054  156.9911 N   0  0  0  0  0  0  0  0  0  0  0  0
  152.0221  140.8471  157.7895 N   0  0  0  0  0  0  0  0  0  0  0  0
  152.6831  140.9639  159.0753 C   0  0  0  0  0  0  0  0  0  0  0  0
  151.0768  141.6755  157.2146 C   0  0  0  0  0  0  0  0  0  0  0  0
  150.5663  142.9054  157.8950 C   0  0  0  0  0  0  0  0  0  0  0  0
  150.7574  141.1342  155.9974 C   0  0  0  0  0  0  0  0  0  0  0  0
  149.7789  141.6406  154.9665 C   0  0  0  0  0  0  0  0  0  0  0  0
  148.5699  140.7078  154.9209 C   0  0  0  0  0  0  0  0  0  0  0  0
  147.7922  140.6563  155.8729 O   0  0  0  0  0  0  0  0  0  0  0  0
  148.4466  139.9443  153.8241 N   0  0  0  0  0  0  0  0  0  0  0  0
  147.4614  138.8812  153.6484 C   0  0  0  0  0  0  0  0  0  0  0  0
  147.6313  137.7397  154.6774 C   0  0  0  0  0  0  0  0  0  0  0  0
  147.4178  136.3833  154.0918 N   0  3  2  0  0  0  0  0  0  0  0  0
  146.0212  136.2278  153.5955 C   0  0  0  0  0  0  0  0  0  0  0  0
  145.8207  134.9031  152.8497 C   0  0  0  0  0  0  0  0  0  0  0  0
  146.1834  133.7228  153.7501 C   0  0  0  0  0  0  0  0  0  0  0  0
  147.6177  133.8929  154.2561 C   0  0  0  0  0  0  0  0  0  0  0  0
  147.8309  135.2444  154.9746 C   0  0  1  0  0  0  0  0  0  0  0  0
  149.3054  135.3293  155.4207 C   0  0  0  0  0  0  0  0  0  0  0  0
  151.5017  139.4203  153.8376 H   0  0  0  0  0  0  0  0  0  0  0  0
  150.8825  138.1866  154.9307 H   0  0  0  0  0  0  0  0  0  0  0  0
  152.6186  138.4550  154.7916 H   0  0  0  0  0  0  0  0  0  0  0  0
  151.9961  141.3784  159.8133 H   0  0  0  0  0  0  0  0  0  0  0  0
  153.5498  141.6183  158.9855 H   0  0  0  0  0  0  0  0  0  0  0  0
  153.0138  139.9839  159.4223 H   0  0  0  0  0  0  0  0  0  0  0  0
  150.1055  143.5887  157.1821 H   0  0  0  0  0  0  0  0  0  0  0  0
  151.3707  143.4449  158.3944 H   0  0  0  0  0  0  0  0  0  0  0  0
  149.8177  142.6467  158.6438 H   0  0  0  0  0  0  0  0  0  0  0  0
  149.4427  142.6508  155.2032 H   0  0  0  0  0  0  0  0  0  0  0  0
  150.2278  141.6970  153.9742 H   0  0  0  0  0  0  0  0  0  0  0  0
  149.1214  140.0701  153.0833 H   0  0  0  0  0  0  0  0  0  0  0  0
  146.4531  139.2945  153.7063 H   0  0  0  0  0  0  0  0  0  0  0  0
  147.5675  138.4945  152.6351 H   0  0  0  0  0  0  0  0  0  0  0  0
  148.6404  137.8369  155.0681 H   0  0  0  0  0  0  0  0  0  0  0  0
  146.9693  137.8900  155.5311 H   0  0  0  0  0  0  0  0  0  0  0  0
  145.3278  136.2906  154.4358 H   0  0  0  0  0  0  0  0  0  0  0  0
  145.7673  137.0419  152.9176 H   0  0  0  0  0  0  0  0  0  0  0  0
  144.7865  134.8141  152.5161 H   0  0  0  0  0  0  0  0  0  0  0  0
  146.4393  134.8898  151.9530 H   0  0  0  0  0  0  0  0  0  0  0  0
  145.4938  133.6698  154.5935 H   0  0  0  0  0  0  0  0  0  0  0  0
  146.0851  132.7851  153.2022 H   0  0  0  0  0  0  0  0  0  0  0  0
  147.8605  133.0689  154.9280 H   0  0  0  0  0  0  0  0  0  0  0  0
  148.3066  133.8122  153.4149 H   0  0  0  0  0  0  0  0  0  0  0  0
  147.2016  135.2624  155.8661 H   0  0  0  0  0  0  0  0  0  0  0  0
  149.6258  134.3983  155.8893 H   0  0  0  0  0  0  0  0  0  0  0  0
  149.4747  136.1095  156.1616 H   0  0  0  0  0  0  0  0  0  0  0  0
  149.9665  135.5127  154.5737 H   0  0  0  0  0  0  0  0  0  0  0  0
  148.0209  136.3325  153.2829 H   0  0  0  0  0  0  0  0  0  0  0  0
  1  2  1  0  0  0  0
  1 22  1  0  0  0  0
  1 23  1  0  0  0  0
  1 24  1  0  0  0  0
  2  8  1  0  0  0  0
  2  3  2  0  0  0  0
  3  4  1  0  0  0  0
  4  5  1  0  0  0  0
  4  6  1  0  0  0  0
  5 25  1  0  0  0  0
  5 26  1  0  0  0  0
  5 27  1  0  0  0  0
  6  7  1  0  0  0  0
  6  8  2  0  0  0  0
  7 28  1  0  0  0  0
  7 29  1  0  0  0  0
  7 30  1  0  0  0  0
  8  9  1  0  0  0  0
  9 10  1  0  0  0  0
  9 31  1  0  0  0  0
  9 32  1  0  0  0  0
 10 11  2  0  0  0  0
 10 12  1  0  0  0  0
 12 13  1  0  0  0  0
 12 33  1  0  0  0  0
 13 14  1  0  0  0  0
 13 34  1  0  0  0  0
 13 35  1  0  0  0  0
 14 15  1  0  0  0  0
 14 36  1  0  0  0  0
 14 37  1  0  0  0  0
 15 20  1  0  0  0  0
 15 16  1  0  0  0  0
 15 50  1  0  0  0  0
 16 17  1  0  0  0  0
 16 38  1  0  0  0  0
 16 39  1  0  0  0  0
 17 18  1  0  0  0  0
 17 40  1  0  0  0  0
 17 41  1  0  0  0  0
 18 19  1  0  0  0  0
 18 42  1  0  0  0  0
 18 43  1  0  0  0  0
 19 20  1  0  0  0  0
 19 44  1  0  0  0  0
 19 45  1  0  0  0  0
 20 21  1  0  0  0  0
 20 46  1  0  0  0  0
 21 47  1  0  0  0  0
 21 48  1  0  0  0  0
 21 49  1  0  0  0  0
M  CHG  1  15   1
M  END
> <s_m_source_file>
AV-unprocessed.smi

> <i_m_source_file_index>
564

> <i_lp_mmshare_version>
43012

> <i_f3d_flags>
0

> <s_epik_input>
W0NIM11jMW5uKFtDSDNdKWMoW0NIM10pYzFbQ0gyXUMoPU8pW05IXVtDSDJdW0NIMl1OMltDSDJdW0NIMl1bQ0gyXVtDSDJdW0NASF0yW0NIM10=

> <s_epik_cmdline>
J2VwaWtfcHl0aG9uJywgJy1waCcsICc3LjAnLCAnLXRuJywgJzgnLCAnLW1hJywgJzIwMCcsICctbWV0YWxfYmluZGluZycsICctaW1hZScsICc8aW5maWxlLm1hZT4nLCAnLW9tYWUnLCAnPG91dGZpbGUubWFlPic=

> <r_lp_tautomer_probability>
1

> <r_epik_Ionization_Penalty>
0.00456826

> <r_epik_Ionization_Penalty_Charging>
0.00240401

> <r_epik_Ionization_Penalty_Neutral>
0.00216425

> <r_epik_State_Penalty>
-0

> <r_epik_Charging_Adjusted_Penalty>
0.00240401

> <i_epik_Tot_Q>
1

> <i_epik_Tot_abs_Q>
1

> <r_epik_Metal_State_Penalty>
-0

> <b_epik_Metal_Only>
0

> <s_lp_Force_Field>
OPLS_2005

> <r_lp_Energy>
16.6365

> <b_lp_Chiralities_Consistent>
1

> <s_lp_Variant>
AV-unprocessed.smi:564-1

> <Gold.Version>
5.8.1

> <Gold.Id.Protein>
6NUR|6NUR_protein|mol2

> <Gold.PLP.Fitness>
42.5388

> <Gold.PLP.PLP>
-31.5171

> <Gold.PLP.part.hbond>
-3.0000

> <Gold.PLP.part.metal>
0.0000

> <Gold.PLP.part.buried>
-1.9297

> <Gold.PLP.part.nonpolar>
-26.6178

> <Gold.PLP.part.repulsive>
0.1348

> <Gold.PLP.ligand.clash>
0.0000

> <Gold.PLP.ligand.torsion>
0.5053

> <Gold.PLP.Chemscore.Hbond>
4.0000

> <Gold.PLP.Chemscore.CHOScore>
0.0000

> <Gold.PLP.Chemscore.Metal>
0.0000

> <Gold.Chemscore.Hbonds>
donor molecule, donor type, donor heavy atom, donor atom, acceptor molecule, acceptor atom, score
      L1  H    12    33       P1  7957  1.00
      L1  H    15    50       P1  7948  2.00
      P1  H  7997  8008       L1     3  0.83

> <Gold.PLP.Chemscore.Internal.Correction>
0.0323

> <Gold.Rescore>
     Score         DG    S(hbond)    S(metal)    S(lipo)     H(rot)  DE(clash)    DE(int)     intcor
     18.38     -18.88       2.42        0.00      80.76       1.61       0.00       0.49       ----

> <Gold.Chemscore.Fitness>
18.3839

> <Gold.Chemscore.DG>
-18.8821

> <Gold.Chemscore.ZeroCoef>
-5.4800

> <Gold.Chemscore.Hbond>
2.4207

> <Gold.Chemscore.Metal>
0.0000

> <Gold.Chemscore.Lipo>
80.7626

> <Gold.Chemscore.Internal_Hbond>
0.0000

> <Gold.Chemscore.DEClash>
0.0040

> <Gold.Chemscore.DEInternal>
0.4942

> <Gold.Chemscore.Rot>
1.6142

> <Gold.Chemscore.Internal.Correction>
   9.000000E+99

> <Gold.Chemscore.Hbonds>
donor molecule, donor type, donor heavy atom, donor atom, acceptor molecule, acceptor atom, score
      L1  H    12    33       P1  7957  0.93
      L1  H    15    50       P1  7948  1.00
      P1  H  7997  8008       L1     3  0.26

> <Gold.Chemscore.Hbond.Weighted>
-8.0853

> <Gold.Chemscore.Metal.Weighted>
-0.0000

> <Gold.Chemscore.Lipo.Weighted>
-9.4492

> <Gold.Chemscore.Internal_Hbond.Weighted>
0.0000

> <Gold.Chemscore.DEClash.Weighted>
0.0040

> <Gold.Chemscore.DEInternal.Weighted>
0.4942

> <Gold.Chemscore.Rot.Weighted>
4.1324

> <Gold.Chemscore.Internal.Correction.Weighted>
   9.000000E+99

> <Gold.Protein.RotatedTorsions>
[ 6907 6896 6895 6894 ] final  -50.40 input  -60.11 | X-H torsion
[ 7974 7965 7964 7962 ] final   51.25 input  175.53 | X-H torsion
[ 8008 7997 7996 7995 ] final  -62.29 input   59.86 | X-H torsion
[ 10167 10162 10161 10158 ] final   62.43 input  -65.29 | X-H torsion
[ 10718 10713 10712 10709 ] final   96.57 input   66.30 | X-H torsion
[ 10763 10752 10751 10750 ] final  106.76 input  -60.55 | X-H torsion
[ 11005 11000 10999 10996 ] final  135.68 input  -57.11 | X-H torsion

> <Gold.Protein.ActiveResidues>
 VAL166  LYS551  ARG553  GLY616  TRP617  ASP618  TYR619  PRO620  LYS621  CYS622 
 ASP623  PHE694  ASN695  SER759  ASP760  ASP761  ALA762  ILE779  LEU786  VAL792 
 PHE793  MET794  SER795  GLU796  ALA797  LYS798  CYS799  TRP800  GLU811  SER814 

> <Gold.Protein.RotatedAtoms>
  150.8711  134.8085  159.7154 H   0  0  0  0  0  0  0  0  0  0  0  0  # atno 6907 bound_to 6896
  152.4715  134.4946  159.9715 H   0  0  0  0  0  0  0  0  0  0  0  0  # atno 6908 bound_to 6896
  151.5034  133.3461  159.2908 H   0  0  0  0  0  0  0  0  0  0  0  0  # atno 6909 bound_to 6896
  145.9931  139.4360  143.0061 H   0  0  0  0  0  0  0  0  0  0  0  0  # atno 7974 bound_to 7965
  154.4492  140.0999  156.6563 H   0  0  0  0  0  0  0  0  0  0  0  0  # atno 8008 bound_to 7997
  155.5342  140.3482  155.4414 H   0  0  0  0  0  0  0  0  0  0  0  0  # atno 8009 bound_to 7997
  156.0643  140.1334  156.9893 H   0  0  0  0  0  0  0  0  0  0  0  0  # atno 8010 bound_to 7997
  140.1439  144.4527  150.6795 H   0  0  0  0  0  0  0  0  0  0  0  0  # atno 10167 bound_to 10162
  157.6925  131.0582  150.4511 H   0  0  0  0  0  0  0  0  0  0  0  0  # atno 10718 bound_to 10713
  153.3974  135.3866  155.1964 H   0  0  0  0  0  0  0  0  0  0  0  0  # atno 10763 bound_to 10752
  154.8726  135.3763  154.4662 H   0  0  0  0  0  0  0  0  0  0  0  0  # atno 10764 bound_to 10752
  153.5155  135.7087  153.5820 H   0  0  0  0  0  0  0  0  0  0  0  0  # atno 10765 bound_to 10752
  139.9995  134.9484  157.0041 H   0  0  0  0  0  0  0  0  0  0  0  0  # atno 11005 bound_to 11000
  145.7600  140.9939  143.1205 LP  0  0  0  0  0  0  0  0  0  0  0  0  # atno 17320 bound_to 7965
  144.6895  139.9318  143.7472 LP  0  0  0  0  0  0  0  0  0  0  0  0  # atno 17321 bound_to 7965
  140.6743  143.2298  151.5546 LP  0  0  0  0  0  0  0  0  0  0  0  0  # atno 17342 bound_to 10162
  139.5458  144.2525  152.1439 LP  0  0  0  0  0  0  0  0  0  0  0  0  # atno 17343 bound_to 10162
  156.4862  130.4085  149.6433 LP  0  0  0  0  0  0  0  0  0  0  0  0  # atno 17370 bound_to 10713
  156.3460  130.7407  151.2359 LP  0  0  0  0  0  0  0  0  0  0  0  0  # atno 17371 bound_to 10713
  140.4754  134.1344  155.7209 LP  0  0  0  0  0  0  0  0  0  0  0  0  # atno 17394 bound_to 11000
  141.1631  133.8755  157.1792 LP  0  0  0  0  0  0  0  0  0  0  0  0  # atno 17395 bound_to 11000

$$$$
