AV-unprocessed.smi:837|AV-procd|sdf|3904|dock2
  -GOLD-   22720 1363D 1   1.00000     0.00000
 Structure written by MMmdl.
 49 51  0  0  0  0  0  0  0  0  3 V2000
  150.6841  142.5712  157.3473 C   0  0  0  0  0  0  0  0  0  0  0  0
  151.2836  141.7319  158.4968 C   0  0  2  0  0  0  0  0  0  0  0  0
  152.5139  142.4381  159.1072 C   0  0  0  0  0  0  0  0  0  0  0  0
  153.0632  141.6790  160.3245 C   0  0  0  0  0  0  0  0  0  0  0  0
  153.4104  140.2289  159.9626 C   0  0  0  0  0  0  0  0  0  0  0  0
  152.1952  139.5026  159.3610 C   0  0  0  0  0  0  0  0  0  0  0  0
  151.6004  140.2440  158.1355 C   0  0  2  0  0  0  0  0  0  0  0  0
  152.5025  140.1443  156.9982 N   0  5  0  0  0  0  0  0  0  0  0  0
  151.8881  139.4551  156.0100 C   0  0  0  0  0  0  0  0  0  0  0  0
  152.3619  139.1702  154.9102 O   0  0  0  0  0  0  0  0  0  0  0  0
  150.6489  139.0782  156.3794 N   0  0  0  0  0  0  0  0  0  0  0  0
  149.7445  138.2619  155.5613 C   0  0  0  0  0  0  0  0  0  0  0  0
  150.2236  136.8087  155.5116 C   0  0  0  0  0  0  0  0  0  0  0  0
  151.2953  136.5257  154.9770 O   0  0  0  0  0  0  0  0  0  0  0  0
  149.4047  135.8988  156.0594 N   0  0  0  0  0  0  0  0  0  0  0  0
  149.6036  134.4533  156.0369 C   0  0  0  0  0  0  0  0  0  0  0  0
  149.7033  133.8680  154.6096 C   0  0  0  0  0  0  0  0  0  0  0  0
  149.4854  132.3638  154.5261 C   0  0  0  0  0  0  0  0  0  0  0  0
  150.2988  131.4789  155.2700 C   0  0  0  0  0  0  0  0  0  0  0  0
  150.0839  130.0890  155.1689 C   0  0  0  0  0  0  0  0  0  0  0  0
  149.0699  129.6113  154.3154 C   0  0  0  0  0  0  0  0  0  0  0  0
  148.3114  130.4857  153.6192 N   0  3  0  0  0  0  0  0  0  0  0  0
  148.4771  131.8243  153.6976 C   0  0  0  0  0  0  0  0  0  0  0  0
  150.3804  139.4920  157.6225 C   0  0  0  0  0  0  0  0  0  0  0  0
  149.3490  139.3058  158.2693 O   0  0  0  0  0  0  0  0  0  0  0  0
  151.3788  142.6639  156.5123 H   0  0  0  0  0  0  0  0  0  0  0  0
  150.4472  143.5795  157.6873 H   0  0  0  0  0  0  0  0  0  0  0  0
  149.7597  142.1381  156.9655 H   0  0  0  0  0  0  0  0  0  0  0  0
  150.5239  141.7115  159.2802 H   0  0  0  0  0  0  0  0  0  0  0  0
  153.2970  142.5378  158.3545 H   0  0  0  0  0  0  0  0  0  0  0  0
  152.2490  143.4523  159.4071 H   0  0  0  0  0  0  0  0  0  0  0  0
  153.9467  142.1870  160.7119 H   0  0  0  0  0  0  0  0  0  0  0  0
  152.3233  141.6890  161.1259 H   0  0  0  0  0  0  0  0  0  0  0  0
  154.2393  140.2158  159.2539 H   0  0  0  0  0  0  0  0  0  0  0  0
  153.7566  139.6986  160.8499 H   0  0  0  0  0  0  0  0  0  0  0  0
  152.4705  138.4801  159.0991 H   0  0  0  0  0  0  0  0  0  0  0  0
  151.4322  139.4126  160.1360 H   0  0  0  0  0  0  0  0  0  0  0  0
  148.7317  138.2863  155.9669 H   0  0  0  0  0  0  0  0  0  0  0  0
  149.6695  138.6732  154.5530 H   0  0  0  0  0  0  0  0  0  0  0  0
  148.5490  136.2335  156.4787 H   0  0  0  0  0  0  0  0  0  0  0  0
  150.4809  134.1821  156.6257 H   0  0  0  0  0  0  0  0  0  0  0  0
  148.7456  134.0126  156.5447 H   0  0  0  0  0  0  0  0  0  0  0  0
  148.9725  134.3636  153.9694 H   0  0  0  0  0  0  0  0  0  0  0  0
  150.6788  134.1041  154.1838 H   0  0  0  0  0  0  0  0  0  0  0  0
  151.0863  131.8560  155.9059 H   0  0  0  0  0  0  0  0  0  0  0  0
  150.7023  129.3972  155.7218 H   0  0  0  0  0  0  0  0  0  0  0  0
  148.8508  128.5646  154.1642 H   0  0  0  0  0  0  0  0  0  0  0  0
  147.8120  132.4176  153.0877 H   0  0  0  0  0  0  0  0  0  0  0  0
  147.5867  130.1182  153.0024 H   0  0  0  0  0  0  0  0  0  0  0  0
  1  2  1  0  0  0  0
  1 26  1  0  0  0  0
  1 27  1  0  0  0  0
  1 28  1  0  0  0  0
  2  7  1  0  0  0  0
  2  3  1  0  0  0  0
  2 29  1  0  0  0  0
  3  4  1  0  0  0  0
  3 30  1  0  0  0  0
  3 31  1  0  0  0  0
  4  5  1  0  0  0  0
  4 32  1  0  0  0  0
  4 33  1  0  0  0  0
  5  6  1  0  0  0  0
  5 34  1  0  0  0  0
  5 35  1  0  0  0  0
  6  7  1  0  0  0  0
  6 36  1  0  0  0  0
  6 37  1  0  0  0  0
  7 24  1  0  0  0  0
  7  8  1  0  0  0  0
  8  9  1  0  0  0  0
  9 10  2  0  0  0  0
  9 11  1  0  0  0  0
 11 12  1  0  0  0  0
 11 24  1  0  0  0  0
 12 13  1  0  0  0  0
 12 38  1  0  0  0  0
 12 39  1  0  0  0  0
 13 14  2  0  0  0  0
 13 15  1  0  0  0  0
 15 16  1  0  0  0  0
 15 40  1  0  0  0  0
 16 17  1  0  0  0  0
 16 41  1  0  0  0  0
 16 42  1  0  0  0  0
 17 18  1  0  0  0  0
 17 43  1  0  0  0  0
 17 44  1  0  0  0  0
 18 23  1  0  0  0  0
 18 19  2  0  0  0  0
 19 20  1  0  0  0  0
 19 45  1  0  0  0  0
 20 21  2  0  0  0  0
 20 46  1  0  0  0  0
 21 22  1  0  0  0  0
 21 47  1  0  0  0  0
 22 23  2  0  0  0  0
 22 49  1  0  0  0  0
 23 48  1  0  0  0  0
 24 25  2  0  0  0  0
M  CHG  1   8  -1
M  CHG  1  22   1
M  END
> <s_m_source_file>
AV-unprocessed.smi

> <i_m_source_file_index>
837

> <i_lp_mmshare_version>
43012

> <i_f3d_flags>
0

> <s_epik_input>
W0NIMl0xW0NIMl1bQ0gyXVtDSDJdW0NAQEhdKFtDSDNdKVtDQEBdMTJbTkhdQyg9TylOKEMyPU8pW0NIMl1DKD1PKVtOSF1bQ0gyXVtDSDJdYzNbY0hdW2NIXVtjSF1uW2NIXTM=

> <s_epik_cmdline>
J2VwaWtfcHl0aG9uJywgJy1waCcsICc3LjAnLCAnLXRuJywgJzgnLCAnLW1hJywgJzIwMCcsICctbWV0YWxfYmluZGluZycsICctaW1hZScsICc8aW5maWxlLm1hZT4nLCAnLW9tYWUnLCAnPG91dGZpbGUubWFlPic=

> <r_lp_tautomer_probability>
1

> <r_epik_Ionization_Penalty>
8.27169

> <r_epik_Ionization_Penalty_Charging>
8.27169

> <r_epik_Ionization_Penalty_Neutral>
1.56557e-07

> <r_epik_State_Penalty>
8.42098

> <r_epik_Charging_Adjusted_Penalty>
16.6927

> <i_epik_Tot_Q>
0

> <i_epik_Tot_abs_Q>
2

> <r_epik_Metal_State_Penalty>
4.38565

> <b_epik_Metal_Only>
1

> <s_lp_Force_Field>
OPLS_2005

> <r_lp_Energy>
17.0357

> <b_lp_Chiralities_Consistent>
1

> <s_lp_Variant>
AV-unprocessed.smi:837-13

> <Gold.Version>
5.8.1

> <Gold.Id.Protein>
6NUR|6NUR_protein|mol2

> <Gold.PLP.Fitness>
53.9196

> <Gold.PLP.PLP>
-43.3548

> <Gold.PLP.part.hbond>
-4.0000

> <Gold.PLP.part.metal>
0.0000

> <Gold.PLP.part.buried>
-3.8851

> <Gold.PLP.part.nonpolar>
-34.3840

> <Gold.PLP.part.repulsive>
0.2283

> <Gold.PLP.ligand.clash>
0.0000

> <Gold.PLP.ligand.torsion>
0.2745

> <Gold.PLP.Chemscore.Hbond>
3.6965

> <Gold.PLP.Chemscore.CHOScore>
0.0000

> <Gold.PLP.Chemscore.Metal>
0.0000

> <Gold.Chemscore.Hbonds>
donor molecule, donor type, donor heavy atom, donor atom, acceptor molecule, acceptor atom, score
      P1  H  7989  7998       L1    10  0.24
      P1  H  7997  8008       L1     8  2.00
      P1  H 10752 10765       L1    14  1.00

> <Gold.PLP.Chemscore.Internal.Correction>
0.0240

> <Gold.Rescore>
     Score         DG    S(hbond)    S(metal)    S(lipo)     H(rot)  DE(clash)    DE(int)     intcor
     16.54     -18.23       1.98        0.00      94.33       1.92       0.10       1.59       ----

> <Gold.Chemscore.Fitness>
16.5396

> <Gold.Chemscore.DG>
-18.2336

> <Gold.Chemscore.ZeroCoef>
-5.4800

> <Gold.Chemscore.Hbond>
1.9836

> <Gold.Chemscore.Metal>
0.0000

> <Gold.Chemscore.Lipo>
94.3342

> <Gold.Chemscore.Internal_Hbond>
0.0000

> <Gold.Chemscore.DEClash>
0.1002

> <Gold.Chemscore.DEInternal>
1.5937

> <Gold.Chemscore.Rot>
1.9175

> <Gold.Chemscore.Internal.Correction>
   9.000000E+99

> <Gold.Chemscore.Hbonds>
donor molecule, donor type, donor heavy atom, donor atom, acceptor molecule, acceptor atom, score
      P1  H  7989  7998       L1    10  0.13
      P1  H  7997  8008       L1     8  0.38
      P1  H 10752 10765       L1    14  0.92

> <Gold.Chemscore.Hbond.Weighted>
-6.6252

> <Gold.Chemscore.Metal.Weighted>
-0.0000

> <Gold.Chemscore.Lipo.Weighted>
-11.0371

> <Gold.Chemscore.Internal_Hbond.Weighted>
0.0000

> <Gold.Chemscore.DEClash.Weighted>
0.1002

> <Gold.Chemscore.DEInternal.Weighted>
1.5937

> <Gold.Chemscore.Rot.Weighted>
4.9087

> <Gold.Chemscore.Internal.Correction.Weighted>
   9.000000E+99

> <Gold.Protein.RotatedTorsions>
[ 6907 6896 6895 6894 ] final  -38.27 input  -60.11 | X-H torsion
[ 7974 7965 7964 7962 ] final -143.35 input  175.53 | X-H torsion
[ 8008 7997 7996 7995 ] final  -49.71 input   59.86 | X-H torsion
[ 10167 10162 10161 10158 ] final  107.40 input  -65.29 | X-H torsion
[ 10718 10713 10712 10709 ] final   92.97 input   66.30 | X-H torsion
[ 10763 10752 10751 10750 ] final  157.92 input  -60.55 | X-H torsion
[ 11005 11000 10999 10996 ] final   92.73 input  -57.11 | X-H torsion

> <Gold.Protein.ActiveResidues>
 VAL166  LYS551  ARG553  GLY616  TRP617  ASP618  TYR619  PRO620  LYS621  CYS622 
 ASP623  PHE694  ASN695  SER759  ASP760  ASP761  ALA762  ILE779  LEU786  VAL792 
 PHE793  MET794  SER795  GLU796  ALA797  LYS798  CYS799  TRP800  GLU811  SER814 

> <Gold.Protein.RotatedAtoms>
  151.0044  134.9348  159.7971 H   0  0  0  0  0  0  0  0  0  0  0  0  # atno 6907 bound_to 6896
  152.5286  134.3111  159.9124 H   0  0  0  0  0  0  0  0  0  0  0  0  # atno 6908 bound_to 6896
  151.3116  133.4036  159.2681 H   0  0  0  0  0  0  0  0  0  0  0  0  # atno 6909 bound_to 6896
  144.8376  140.5846  143.5474 H   0  0  0  0  0  0  0  0  0  0  0  0  # atno 7974 bound_to 7965
  154.4049  140.1290  156.4547 H   0  0  0  0  0  0  0  0  0  0  0  0  # atno 8008 bound_to 7997
  155.7332  140.3491  155.5049 H   0  0  0  0  0  0  0  0  0  0  0  0  # atno 8009 bound_to 7997
  155.9108  140.1035  157.1271 H   0  0  0  0  0  0  0  0  0  0  0  0  # atno 8010 bound_to 7997
  139.6930  144.7105  151.1316 H   0  0  0  0  0  0  0  0  0  0  0  0  # atno 10167 bound_to 10162
  157.6956  131.0462  150.3963 H   0  0  0  0  0  0  0  0  0  0  0  0  # atno 10718 bound_to 10713
  154.2079  135.2787  155.2968 H   0  0  0  0  0  0  0  0  0  0  0  0  # atno 10763 bound_to 10752
  154.5802  135.5592  153.7181 H   0  0  0  0  0  0  0  0  0  0  0  0  # atno 10764 bound_to 10752
  153.0071  135.6343  154.2218 H   0  0  0  0  0  0  0  0  0  0  0  0  # atno 10765 bound_to 10752
  139.8819  134.8750  156.3615 H   0  0  0  0  0  0  0  0  0  0  0  0  # atno 11005 bound_to 11000
  145.4762  139.1499  143.3787 LP  0  0  0  0  0  0  0  0  0  0  0  0  # atno 17320 bound_to 7965
  146.2673  140.4897  142.8829 LP  0  0  0  0  0  0  0  0  0  0  0  0  # atno 17321 bound_to 7965
  140.7688  143.5532  150.9181 LP  0  0  0  0  0  0  0  0  0  0  0  0  # atno 17342 bound_to 10162
  139.9211  143.6605  152.3096 LP  0  0  0  0  0  0  0  0  0  0  0  0  # atno 17343 bound_to 10162
  156.4361  130.3982  149.6728 LP  0  0  0  0  0  0  0  0  0  0  0  0  # atno 17370 bound_to 10713
  156.3928  130.7636  151.2638 LP  0  0  0  0  0  0  0  0  0  0  0  0  # atno 17371 bound_to 10713
  140.9526  133.7441  156.0292 LP  0  0  0  0  0  0  0  0  0  0  0  0  # atno 17394 bound_to 11000
  140.8087  134.3424  157.5418 LP  0  0  0  0  0  0  0  0  0  0  0  0  # atno 17395 bound_to 11000

$$$$
