AV-unprocessed.smi:1795|AV-procd|sdf|7247|dock6
  -GOLD-   22720 8493D 1   1.00000     0.00000
 Structure written by MMmdl.
 48 49  0  0  0  0  0  0  0  0  2 V2000
  151.6331  145.7801  160.0982 C   0  0  0  0  0  0  0  0  0  0  0  0
  152.2351  144.5619  159.3885 C   0  0  2  0  0  0  0  0  0  0  0  0
  151.2634  143.9519  158.3599 C   0  0  0  0  0  0  0  0  0  0  0  0
  151.8199  142.7158  157.7414 N   0  3  2  0  0  0  0  0  0  0  0  0
  150.9253  142.0680  156.7238 C   0  0  2  0  0  0  0  0  0  0  0  0
  150.5560  143.0624  155.5959 C   0  0  0  0  0  0  0  0  0  0  0  0
  149.6338  141.4607  157.3448 C   0  0  0  0  0  0  0  0  0  0  0  0
  148.5653  142.4394  157.5293 N   0  0  0  0  0  0  0  0  0  0  0  0
  147.3901  142.1920  158.1279 C   0  0  0  0  0  0  0  0  0  0  0  0
  147.0847  141.0867  158.5774 O   0  0  0  0  0  0  0  0  0  0  0  0
  146.4094  143.3707  158.2043 C   0  0  0  0  0  0  0  0  0  0  0  0
  145.8030  143.5344  159.5360 N   0  0  0  0  0  0  0  0  0  0  0  0
  144.4066  143.3691  159.6322 C   0  0  0  0  0  0  0  0  0  0  0  0
  143.7557  143.4936  160.7997 C   0  0  0  0  0  0  0  0  0  0  0  0
  144.5255  143.8070  161.9804 C   0  0  0  0  0  0  0  0  0  0  0  0
  145.8618  143.9645  161.9000 C   0  0  0  0  0  0  0  0  0  0  0  0
  146.5777  143.8268  160.6264 C   0  0  0  0  0  0  0  0  0  0  0  0
  147.7988  143.9647  160.5439 O   0  0  0  0  0  0  0  0  0  0  0  0
  152.2537  141.7774  158.8139 C   0  0  0  0  0  0  0  0  0  0  0  0
  153.2026  142.4598  159.8162 C   0  0  2  0  0  0  0  0  0  0  0  0
  153.5990  141.5248  160.9644 C   0  0  0  0  0  0  0  0  0  0  0  0
  152.5488  143.5897  160.3744 O   0  0  0  0  0  0  0  0  0  0  0  0
  151.3824  146.5665  159.3858 H   0  0  0  0  0  0  0  0  0  0  0  0
  152.3362  146.1979  160.8193 H   0  0  0  0  0  0  0  0  0  0  0  0
  150.7233  145.5139  160.6371 H   0  0  0  0  0  0  0  0  0  0  0  0
  153.1523  144.8750  158.8862 H   0  0  0  0  0  0  0  0  0  0  0  0
  150.3058  143.7224  158.8305 H   0  0  0  0  0  0  0  0  0  0  0  0
  151.0849  144.7150  157.6040 H   0  0  0  0  0  0  0  0  0  0  0  0
  151.4900  141.2476  156.2775 H   0  0  0  0  0  0  0  0  0  0  0  0
  149.8674  142.6255  154.8732 H   0  0  0  0  0  0  0  0  0  0  0  0
  151.4195  143.3738  155.0112 H   0  0  0  0  0  0  0  0  0  0  0  0
  150.0809  143.9571  155.9994 H   0  0  0  0  0  0  0  0  0  0  0  0
  149.2223  140.6651  156.7236 H   0  0  0  0  0  0  0  0  0  0  0  0
  149.8576  141.0171  158.3157 H   0  0  0  0  0  0  0  0  0  0  0  0
  148.7355  143.3736  157.1853 H   0  0  0  0  0  0  0  0  0  0  0  0
  146.9195  144.2907  157.9118 H   0  0  0  0  0  0  0  0  0  0  0  0
  145.6386  143.2192  157.4472 H   0  0  0  0  0  0  0  0  0  0  0  0
  143.9056  143.1293  158.7055 H   0  0  0  0  0  0  0  0  0  0  0  0
  142.6853  143.3590  160.8552 H   0  0  0  0  0  0  0  0  0  0  0  0
  144.0276  143.9141  162.9329 H   0  0  0  0  0  0  0  0  0  0  0  0
  146.4216  144.1972  162.7942 H   0  0  0  0  0  0  0  0  0  0  0  0
  151.3752  141.3911  159.3338 H   0  0  0  0  0  0  0  0  0  0  0  0
  152.7796  140.9218  158.3954 H   0  0  0  0  0  0  0  0  0  0  0  0
  154.1112  142.7818  159.3040 H   0  0  0  0  0  0  0  0  0  0  0  0
  154.1150  140.6403  160.5903 H   0  0  0  0  0  0  0  0  0  0  0  0
  152.7239  141.1908  161.5228 H   0  0  0  0  0  0  0  0  0  0  0  0
  154.2675  142.0276  161.6637 H   0  0  0  0  0  0  0  0  0  0  0  0
  152.6545  143.0014  157.2494 H   0  0  0  0  0  0  0  0  0  0  0  0
  1  2  1  0  0  0  0
  1 23  1  0  0  0  0
  1 24  1  0  0  0  0
  1 25  1  0  0  0  0
  2 22  1  0  0  0  0
  2  3  1  0  0  0  0
  2 26  1  0  0  0  0
  3  4  1  0  0  0  0
  3 27  1  0  0  0  0
  3 28  1  0  0  0  0
  4  5  1  0  0  0  0
  4 19  1  0  0  0  0
  4 48  1  0  0  0  0
  5  6  1  0  0  0  0
  5  7  1  0  0  0  0
  5 29  1  0  0  0  0
  6 30  1  0  0  0  0
  6 31  1  0  0  0  0
  6 32  1  0  0  0  0
  7  8  1  0  0  0  0
  7 33  1  0  0  0  0
  7 34  1  0  0  0  0
  8  9  1  0  0  0  0
  8 35  1  0  0  0  0
  9 10  2  0  0  0  0
  9 11  1  0  0  0  0
 11 12  1  0  0  0  0
 11 36  1  0  0  0  0
 11 37  1  0  0  0  0
 12 17  1  0  0  0  0
 12 13  1  0  0  0  0
 13 14  2  0  0  0  0
 13 38  1  0  0  0  0
 14 15  1  0  0  0  0
 14 39  1  0  0  0  0
 15 16  2  0  0  0  0
 15 40  1  0  0  0  0
 16 17  1  0  0  0  0
 16 41  1  0  0  0  0
 17 18  2  0  0  0  0
 19 20  1  0  0  0  0
 19 42  1  0  0  0  0
 19 43  1  0  0  0  0
 20 21  1  0  0  0  0
 20 22  1  0  0  0  0
 20 44  1  0  0  0  0
 21 45  1  0  0  0  0
 21 46  1  0  0  0  0
 21 47  1  0  0  0  0
M  CHG  1   4   1
M  END
> <s_m_source_file>
AV-unprocessed.smi

> <i_m_source_file_index>
1795

> <i_lp_mmshare_version>
43012

> <i_f3d_flags>
0

> <s_epik_input>
W0NIM11bQ0BASF0xW0NIMl1OKFtDSDJdW0NASF0oTzEpW0NIM10pW0NASF0oW0NIM10pW0NIMl1bTkhdQyg9TylbQ0gyXW4yW2NIXVtjSF1bY0hdW2NIXWMyPU8=

> <s_epik_cmdline>
J2VwaWtfcHl0aG9uJywgJy1waCcsICc3LjAnLCAnLXRuJywgJzgnLCAnLW1hJywgJzIwMCcsICctbWV0YWxfYmluZGluZycsICctaW1hZScsICc8aW5maWxlLm1hZT4nLCAnLW9tYWUnLCAnPG91dGZpbGUubWFlPic=

> <r_lp_tautomer_probability>
1

> <r_epik_Ionization_Penalty>
0.656654

> <r_epik_Ionization_Penalty_Charging>
0.656654

> <r_epik_Ionization_Penalty_Neutral>
8.90321e-08

> <r_epik_State_Penalty>
0.675641

> <r_epik_Charging_Adjusted_Penalty>
1.33229

> <i_epik_Tot_Q>
1

> <i_epik_Tot_abs_Q>
1

> <r_epik_Metal_State_Penalty>
0.675691

> <b_epik_Metal_Only>
0

> <s_lp_Force_Field>
OPLS_2005

> <r_lp_Energy>
28.0815

> <b_lp_Chiralities_Consistent>
1

> <s_lp_Variant>
AV-unprocessed.smi:1795-11

> <Gold.Version>
5.8.1

> <Gold.Id.Protein>
6NUR|6NUR_protein|mol2

> <Gold.PLP.Fitness>
43.8222

> <Gold.PLP.PLP>
-38.0255

> <Gold.PLP.part.hbond>
-3.0000

> <Gold.PLP.part.metal>
0.0000

> <Gold.PLP.part.buried>
0.4347

> <Gold.PLP.part.nonpolar>
-34.5784

> <Gold.PLP.part.repulsive>
0.2409

> <Gold.PLP.ligand.clash>
0.0000

> <Gold.PLP.ligand.torsion>
0.4045

> <Gold.PLP.Chemscore.Hbond>
2.1824

> <Gold.PLP.Chemscore.CHOScore>
0.0000

> <Gold.PLP.Chemscore.Metal>
0.0000

> <Gold.Chemscore.Hbonds>
donor molecule, donor type, donor heavy atom, donor atom, acceptor molecule, acceptor atom, score
      L1  H     8    35       P1  8028  1.00
      P1  H  6933  6944       L1    18  1.00
      P1  H  6934  6946       L1    10  0.19

> <Gold.PLP.Chemscore.Internal.Correction>
0.0588

> <Gold.Rescore>
     Score         DG    S(hbond)    S(metal)    S(lipo)     H(rot)  DE(clash)    DE(int)     intcor
     14.59     -17.25       1.00        0.00     113.38       1.89       2.08       0.58       ----

> <Gold.Chemscore.Fitness>
14.5894

> <Gold.Chemscore.DG>
-17.2476

> <Gold.Chemscore.ZeroCoef>
-5.4800

> <Gold.Chemscore.Hbond>
0.9979

> <Gold.Chemscore.Metal>
0.0000

> <Gold.Chemscore.Lipo>
113.3796

> <Gold.Chemscore.Internal_Hbond>
0.0000

> <Gold.Chemscore.DEClash>
2.0767

> <Gold.Chemscore.DEInternal>
0.5815

> <Gold.Chemscore.Rot>
1.8870

> <Gold.Chemscore.Internal.Correction>
   9.000000E+99

> <Gold.Chemscore.Hbonds>
donor molecule, donor type, donor heavy atom, donor atom, acceptor molecule, acceptor atom, score
      L1  H     8    35       P1  8028  0.31
      P1  H  6933  6944       L1    18  0.44
      P1  H  6934  6946       L1    10  0.18

> <Gold.Chemscore.Hbond.Weighted>
-3.3329

> <Gold.Chemscore.Metal.Weighted>
-0.0000

> <Gold.Chemscore.Lipo.Weighted>
-13.2654

> <Gold.Chemscore.Internal_Hbond.Weighted>
0.0000

> <Gold.Chemscore.DEClash.Weighted>
2.0767

> <Gold.Chemscore.DEInternal.Weighted>
0.5815

> <Gold.Chemscore.Rot.Weighted>
4.8308

> <Gold.Chemscore.Internal.Correction.Weighted>
   9.000000E+99

> <Gold.Protein.RotatedTorsions>
[ 6907 6896 6895 6894 ] final  136.55 input  -60.11 | X-H torsion
[ 7974 7965 7964 7962 ] final  -39.34 input  175.53 | X-H torsion
[ 8008 7997 7996 7995 ] final  -13.80 input   59.86 | X-H torsion
[ 10167 10162 10161 10158 ] final   11.86 input  -65.29 | X-H torsion
[ 10718 10713 10712 10709 ] final   52.91 input   66.30 | X-H torsion
[ 10763 10752 10751 10750 ] final   58.25 input  -60.55 | X-H torsion
[ 11005 11000 10999 10996 ] final -139.01 input  -57.11 | X-H torsion

> <Gold.Protein.ActiveResidues>
 VAL166  LYS551  ARG553  GLY616  TRP617  ASP618  TYR619  PRO620  LYS621  CYS622 
 ASP623  PHE694  ASN695  SER759  ASP760  ASP761  ALA762  ILE779  LEU786  VAL792 
 PHE793  MET794  SER795  GLU796  ALA797  LYS798  CYS799  TRP800  GLU811  SER814 

> <Gold.Protein.RotatedAtoms>
  152.2881  133.5534  159.5539 H   0  0  0  0  0  0  0  0  0  0  0  0  # atno 6907 bound_to 6896
  150.7223  134.0468  159.3793 H   0  0  0  0  0  0  0  0  0  0  0  0  # atno 6908 bound_to 6896
  151.8375  135.0601  160.0495 H   0  0  0  0  0  0  0  0  0  0  0  0  # atno 6909 bound_to 6896
  146.0405  140.6614  142.9089 H   0  0  0  0  0  0  0  0  0  0  0  0  # atno 7974 bound_to 7965
  154.5262  140.2240  155.8885 H   0  0  0  0  0  0  0  0  0  0  0  0  # atno 8008 bound_to 7997
  156.1716  140.3120  155.8948 H   0  0  0  0  0  0  0  0  0  0  0  0  # atno 8009 bound_to 7997
  155.3546  140.0457  157.3037 H   0  0  0  0  0  0  0  0  0  0  0  0  # atno 8010 bound_to 7997
  140.6105  143.8417  150.7060 H   0  0  0  0  0  0  0  0  0  0  0  0  # atno 10167 bound_to 10162
  157.5119  130.8506  149.8446 H   0  0  0  0  0  0  0  0  0  0  0  0  # atno 10718 bound_to 10713
  152.9867  135.5613  154.5522 H   0  0  0  0  0  0  0  0  0  0  0  0  # atno 10763 bound_to 10752
  154.4957  135.2795  155.1463 H   0  0  0  0  0  0  0  0  0  0  0  0  # atno 10764 bound_to 10752
  154.2915  135.6325  153.5440 H   0  0  0  0  0  0  0  0  0  0  0  0  # atno 10765 bound_to 10752
  140.8560  134.2227  157.4734 H   0  0  0  0  0  0  0  0  0  0  0  0  # atno 11005 bound_to 11000
  144.7072  140.3900  143.7108 LP  0  0  0  0  0  0  0  0  0  0  0  0  # atno 17320 bound_to 7965
  145.6892  139.1635  143.2656 LP  0  0  0  0  0  0  0  0  0  0  0  0  # atno 17321 bound_to 7965
  140.1985  143.3979  152.1810 LP  0  0  0  0  0  0  0  0  0  0  0  0  # atno 17342 bound_to 10162
  139.5358  144.7207  151.4900 LP  0  0  0  0  0  0  0  0  0  0  0  0  # atno 17343 bound_to 10162
  156.0294  130.3769  150.1729 LP  0  0  0  0  0  0  0  0  0  0  0  0  # atno 17370 bound_to 10713
  156.9918  130.9896  151.3413 LP  0  0  0  0  0  0  0  0  0  0  0  0  # atno 17371 bound_to 10713
  139.8705  134.9707  156.4709 LP  0  0  0  0  0  0  0  0  0  0  0  0  # atno 17394 bound_to 11000
  140.8736  133.7970  155.9391 LP  0  0  0  0  0  0  0  0  0  0  0  0  # atno 17395 bound_to 11000

$$$$
