AV-unprocessed.smi:1774|AV-procd|sdf|7170|dock3
  -GOLD-   22720 8413D 1   1.00000     0.00000
 Structure written by MMmdl.
 46 47  0  0  0  0  0  0  0  0  2 V2000
  146.0017  133.6703  150.7465 C   0  0  0  0  0  0  0  0  0  0  0  0
  146.1184  132.3433  151.4789 C   0  0  0  0  0  0  0  0  0  0  0  0
  145.3443  131.2454  151.0462 C   0  0  0  0  0  0  0  0  0  0  0  0
  145.4542  130.0191  151.7240 C   0  0  0  0  0  0  0  0  0  0  0  0
  146.3391  129.9422  152.8130 C   0  0  0  0  0  0  0  0  0  0  0  0
  147.0821  130.9863  153.2336 N   0  0  0  0  0  0  0  0  0  0  0  0
  146.9888  132.1768  152.5894 C   0  0  0  0  0  0  0  0  0  0  0  0
  147.7390  133.3216  152.9809 N   0  0  0  0  0  0  0  0  0  0  0  0
  147.8680  133.8568  154.2077 C   0  0  0  0  0  0  0  0  0  0  0  0
  147.3613  133.4130  155.2387 O   0  0  0  0  0  0  0  0  0  0  0  0
  148.6343  134.9572  154.1814 N   0  0  0  0  0  0  0  0  0  0  0  0
  148.9819  135.7556  155.3512 C   0  0  0  0  0  0  0  0  0  0  0  0
  148.5331  137.2219  155.1929 C   0  0  0  0  0  0  0  0  0  0  0  0
  149.1999  137.9003  154.0501 N   0  3  1  0  0  0  0  0  0  0  0  0
  148.6380  139.2394  153.7477 C   0  0  0  0  0  0  0  0  0  0  0  0
  149.1379  140.2978  154.7523 C   0  0  2  0  0  0  0  0  0  0  0  0
  148.6378  141.7035  154.4034 C   0  0  0  0  0  0  0  0  0  0  0  0
  150.5611  140.3175  154.7301 O   0  0  0  0  0  0  0  0  0  0  0  0
  151.1380  139.0766  155.1230 C   0  0  2  0  0  0  0  0  0  0  0  0
  152.6615  139.2422  155.1295 C   0  0  0  0  0  0  0  0  0  0  0  0
  150.6810  137.9728  154.1450 C   0  0  0  0  0  0  0  0  0  0  0  0
  145.3030  133.6038  149.9120 H   0  0  0  0  0  0  0  0  0  0  0  0
  146.9706  133.9734  150.3485 H   0  0  0  0  0  0  0  0  0  0  0  0
  145.6446  134.4483  151.4219 H   0  0  0  0  0  0  0  0  0  0  0  0
  144.6732  131.3383  150.2050 H   0  0  0  0  0  0  0  0  0  0  0  0
  144.8757  129.1602  151.4173 H   0  0  0  0  0  0  0  0  0  0  0  0
  146.4539  129.0193  153.3618 H   0  0  0  0  0  0  0  0  0  0  0  0
  148.2340  133.7870  152.2345 H   0  0  0  0  0  0  0  0  0  0  0  0
  149.0145  135.2543  153.2943 H   0  0  0  0  0  0  0  0  0  0  0  0
  148.5417  135.2930  156.2348 H   0  0  0  0  0  0  0  0  0  0  0  0
  150.0631  135.7104  155.4839 H   0  0  0  0  0  0  0  0  0  0  0  0
  147.4548  137.2244  155.0265 H   0  0  0  0  0  0  0  0  0  0  0  0
  148.6974  137.7820  156.1130 H   0  0  0  0  0  0  0  0  0  0  0  0
  148.9495  139.5194  152.7402 H   0  0  0  0  0  0  0  0  0  0  0  0
  147.5481  139.2023  153.7296 H   0  0  0  0  0  0  0  0  0  0  0  0
  148.7960  140.0522  155.7591 H   0  0  0  0  0  0  0  0  0  0  0  0
  147.5484  141.7476  154.4163 H   0  0  0  0  0  0  0  0  0  0  0  0
  148.9738  142.0078  153.4117 H   0  0  0  0  0  0  0  0  0  0  0  0
  149.0080  142.4374  155.1199 H   0  0  0  0  0  0  0  0  0  0  0  0
  150.8198  138.8390  156.1391 H   0  0  0  0  0  0  0  0  0  0  0  0
  153.1551  138.3188  155.4335 H   0  0  0  0  0  0  0  0  0  0  0  0
  152.9655  140.0252  155.8249 H   0  0  0  0  0  0  0  0  0  0  0  0
  153.0350  139.5119  154.1411 H   0  0  0  0  0  0  0  0  0  0  0  0
  151.1073  137.0107  154.4256 H   0  0  0  0  0  0  0  0  0  0  0  0
  151.0676  138.1926  153.1488 H   0  0  0  0  0  0  0  0  0  0  0  0
  148.9908  137.3261  153.2460 H   0  0  0  0  0  0  0  0  0  0  0  0
  1  2  1  0  0  0  0
  1 22  1  0  0  0  0
  1 23  1  0  0  0  0
  1 24  1  0  0  0  0
  2  7  1  0  0  0  0
  2  3  2  0  0  0  0
  3  4  1  0  0  0  0
  3 25  1  0  0  0  0
  4  5  2  0  0  0  0
  4 26  1  0  0  0  0
  5  6  1  0  0  0  0
  5 27  1  0  0  0  0
  6  7  2  0  0  0  0
  7  8  1  0  0  0  0
  8  9  1  0  0  0  0
  8 28  1  0  0  0  0
  9 10  2  0  0  0  0
  9 11  1  0  0  0  0
 11 12  1  0  0  0  0
 11 29  1  0  0  0  0
 12 13  1  0  0  0  0
 12 30  1  0  0  0  0
 12 31  1  0  0  0  0
 13 14  1  0  0  0  0
 13 32  1  0  0  0  0
 13 33  1  0  0  0  0
 14 21  1  0  0  0  0
 14 15  1  0  0  0  0
 14 46  1  0  0  0  0
 15 16  1  0  0  0  0
 15 34  1  0  0  0  0
 15 35  1  0  0  0  0
 16 17  1  0  0  0  0
 16 18  1  0  0  0  0
 16 36  1  0  0  0  0
 17 37  1  0  0  0  0
 17 38  1  0  0  0  0
 17 39  1  0  0  0  0
 18 19  1  0  0  0  0
 19 20  1  0  0  0  0
 19 21  1  0  0  0  0
 19 40  1  0  0  0  0
 20 41  1  0  0  0  0
 20 42  1  0  0  0  0
 20 43  1  0  0  0  0
 21 44  1  0  0  0  0
 21 45  1  0  0  0  0
M  CHG  1  14   1
M  END
> <s_m_source_file>
AV-unprocessed.smi

> <i_m_source_file_index>
1774

> <i_lp_mmshare_version>
43012

> <i_f3d_flags>
0

> <s_epik_input>
W0NIM11jMVtjSF1bY0hdW2NIXW5jMVtOSF1DKD1PKVtOSF1bQ0gyXVtDSDJdTjJbQ0gyXVtDQEBIXShbQ0gzXSlPW0NAQEhdKFtDSDNdKVtDSDJdMg==

> <s_epik_cmdline>
J2VwaWtfcHl0aG9uJywgJy1waCcsICc3LjAnLCAnLXRuJywgJzgnLCAnLW1hJywgJzIwMCcsICctbWV0YWxfYmluZGluZycsICctaW1hZScsICc8aW5maWxlLm1hZT4nLCAnLW9tYWUnLCAnPG91dGZpbGUubWFlPic=

> <r_epik_Ionization_Penalty>
0.602573

> <r_epik_Ionization_Penalty_Charging>
0.602531

> <r_epik_Ionization_Penalty_Neutral>
4.21996e-05

> <r_epik_State_Penalty>
0.617039

> <r_epik_Charging_Adjusted_Penalty>
1.21957

> <i_epik_Tot_Q>
1

> <i_epik_Tot_abs_Q>
1

> <r_epik_Metal_State_Penalty>
0.617042

> <b_epik_Metal_Only>
0

> <s_lp_Force_Field>
OPLS_2005

> <r_lp_Energy>
17.7689

> <b_lp_Chiralities_Consistent>
1

> <s_lp_Variant>
AV-unprocessed.smi:1774-7

> <Gold.Version>
5.8.1

> <Gold.Id.Protein>
6NUR|6NUR_protein|mol2

> <Gold.PLP.Fitness>
47.7219

> <Gold.PLP.PLP>
-36.6081

> <Gold.PLP.part.hbond>
-3.1717

> <Gold.PLP.part.metal>
0.0000

> <Gold.PLP.part.buried>
-0.7832

> <Gold.PLP.part.nonpolar>
-32.3292

> <Gold.PLP.part.repulsive>
0.2245

> <Gold.PLP.ligand.clash>
0.0000

> <Gold.PLP.ligand.torsion>
0.4625

> <Gold.PLP.Chemscore.Hbond>
4.0000

> <Gold.PLP.Chemscore.CHOScore>
0.0000

> <Gold.PLP.Chemscore.Metal>
0.0000

> <Gold.Chemscore.Hbonds>
donor molecule, donor type, donor heavy atom, donor atom, acceptor molecule, acceptor atom, score
      L1  H    11    29       P1  7948  1.00
      L1  H    14    46       P1  7948  2.00
      P1  H  7989  7998       L1    18  1.00

> <Gold.PLP.Chemscore.Internal.Correction>
0.0387

> <Gold.Rescore>
     Score         DG    S(hbond)    S(metal)    S(lipo)     H(rot)  DE(clash)    DE(int)     intcor
     19.97     -20.64       2.58        0.00      88.70       1.49       0.10       0.57       ----

> <Gold.Chemscore.Fitness>
19.9689

> <Gold.Chemscore.DG>
-20.6379

> <Gold.Chemscore.ZeroCoef>
-5.4800

> <Gold.Chemscore.Hbond>
2.5767

> <Gold.Chemscore.Metal>
0.0000

> <Gold.Chemscore.Lipo>
88.6981

> <Gold.Chemscore.Internal_Hbond>
0.0000

> <Gold.Chemscore.DEClash>
0.0993

> <Gold.Chemscore.DEInternal>
0.5697

> <Gold.Chemscore.Rot>
1.4946

> <Gold.Chemscore.Internal.Correction>
   9.000000E+99

> <Gold.Chemscore.Hbonds>
donor molecule, donor type, donor heavy atom, donor atom, acceptor molecule, acceptor atom, score
      L1  H    11    29       P1  7948  0.38
      L1  H    14    46       P1  7948  1.00
      P1  H  7989  7998       L1    18  0.44

> <Gold.Chemscore.Hbond.Weighted>
-8.6063

> <Gold.Chemscore.Metal.Weighted>
-0.0000

> <Gold.Chemscore.Lipo.Weighted>
-10.3777

> <Gold.Chemscore.Internal_Hbond.Weighted>
0.0000

> <Gold.Chemscore.DEClash.Weighted>
0.0993

> <Gold.Chemscore.DEInternal.Weighted>
0.5697

> <Gold.Chemscore.Rot.Weighted>
3.8261

> <Gold.Chemscore.Internal.Correction.Weighted>
   9.000000E+99

> <Gold.Protein.RotatedTorsions>
[ 6907 6896 6895 6894 ] final  -86.64 input  -60.11 | X-H torsion
[ 7974 7965 7964 7962 ] final   52.00 input  175.53 | X-H torsion
[ 8008 7997 7996 7995 ] final -107.48 input   59.86 | X-H torsion
[ 10167 10162 10161 10158 ] final   -7.57 input  -65.29 | X-H torsion
[ 10718 10713 10712 10709 ] final  -80.96 input   66.30 | X-H torsion
[ 10763 10752 10751 10750 ] final -112.58 input  -60.55 | X-H torsion
[ 11005 11000 10999 10996 ] final  -18.20 input  -57.11 | X-H torsion

> <Gold.Protein.ActiveResidues>
 VAL166  LYS551  ARG553  GLY616  TRP617  ASP618  TYR619  PRO620  LYS621  CYS622 
 ASP623  PHE694  ASN695  SER759  ASP760  ASP761  ALA762  ILE779  LEU786  VAL792 
 PHE793  MET794  SER795  GLU796  ALA797  LYS798  CYS799  TRP800  GLU811  SER814 

> <Gold.Protein.RotatedAtoms>
  150.6866  134.3020  159.4709 H   0  0  0  0  0  0  0  0  0  0  0  0  # atno 6907 bound_to 6896
  152.0915  134.9401  160.0581 H   0  0  0  0  0  0  0  0  0  0  0  0  # atno 6908 bound_to 6896
  152.0716  133.4074  159.4498 H   0  0  0  0  0  0  0  0  0  0  0  0  # atno 6909 bound_to 6896
  145.9858  139.4288  143.0104 H   0  0  0  0  0  0  0  0  0  0  0  0  # atno 7974 bound_to 7965
  154.9299  140.0405  157.2042 H   0  0  0  0  0  0  0  0  0  0  0  0  # atno 8008 bound_to 7997
  154.8171  140.2877  155.5791 H   0  0  0  0  0  0  0  0  0  0  0  0  # atno 8009 bound_to 7997
  156.2977  140.2526  156.3071 H   0  0  0  0  0  0  0  0  0  0  0  0  # atno 8010 bound_to 7997
  140.7033  143.6065  150.8745 H   0  0  0  0  0  0  0  0  0  0  0  0  # atno 10167 bound_to 10162
  156.0059  130.4589  150.3879 H   0  0  0  0  0  0  0  0  0  0  0  0  # atno 10718 bound_to 10713
  154.8356  135.4485  154.1215 H   0  0  0  0  0  0  0  0  0  0  0  0  # atno 10763 bound_to 10752
  153.2450  135.6920  153.7747 H   0  0  0  0  0  0  0  0  0  0  0  0  # atno 10764 bound_to 10752
  153.7081  135.3361  155.3216 H   0  0  0  0  0  0  0  0  0  0  0  0  # atno 10765 bound_to 10752
  140.8244  133.8044  155.9693 H   0  0  0  0  0  0  0  0  0  0  0  0  # atno 11005 bound_to 11000
  145.7703  140.9899  143.1153 LP  0  0  0  0  0  0  0  0  0  0  0  0  # atno 17320 bound_to 7965
  144.6874  139.9439  143.7476 LP  0  0  0  0  0  0  0  0  0  0  0  0  # atno 17321 bound_to 7965
  139.9789  143.5973  152.2949 LP  0  0  0  0  0  0  0  0  0  0  0  0  # atno 17342 bound_to 10162
  139.6587  144.7662  151.2005 LP  0  0  0  0  0  0  0  0  0  0  0  0  # atno 17343 bound_to 10162
  157.1956  131.0425  151.2677 LP  0  0  0  0  0  0  0  0  0  0  0  0  # atno 17370 bound_to 10713
  157.4022  130.7339  149.6776 LP  0  0  0  0  0  0  0  0  0  0  0  0  # atno 17371 bound_to 10713
  140.9065  134.2314  157.5011 LP  0  0  0  0  0  0  0  0  0  0  0  0  # atno 17394 bound_to 11000
  139.8707  134.9730  156.4795 LP  0  0  0  0  0  0  0  0  0  0  0  0  # atno 17395 bound_to 11000

$$$$
