AV-unprocessed.smi:479|AV-procd|sdf|2675|dock6
  -GOLD-   2262023 93D 1   1.00000     0.00000
 Structure written by MMmdl.
 46 48  0  0  0  0  0  0  0  0  2 V2000
  147.2962  136.4913  162.8058 C   0  0  0  0  0  0  0  0  0  0  0  0
  147.9626  136.9485  161.6379 O   0  0  0  0  0  0  0  0  0  0  0  0
  148.0853  136.0843  160.5686 C   0  0  0  0  0  0  0  0  0  0  0  0
  147.5773  134.7599  160.5653 C   0  0  0  0  0  0  0  0  0  0  0  0
  147.7368  133.9214  159.4376 C   0  0  0  0  0  0  0  0  0  0  0  0
  147.2093  132.5266  159.4107 C   0  0  0  0  0  0  0  0  0  0  0  0
  146.6914  131.9312  160.7191 C   0  0  0  0  0  0  0  0  0  0  0  0
  147.1687  131.8366  158.3925 O   0  0  0  0  0  0  0  0  0  0  0  0
  148.4174  134.4234  158.3084 C   0  0  0  0  0  0  0  0  0  0  0  0
  148.9228  135.7353  158.3013 C   0  0  0  0  0  0  0  0  0  0  0  0
  148.7572  136.5767  159.4279 C   0  0  0  0  0  0  0  0  0  0  0  0
  149.2198  137.8748  159.4879 O   0  0  0  0  0  0  0  0  0  0  0  0
  149.8707  138.4189  158.3477 C   0  0  0  0  0  0  0  0  0  0  0  0
  151.3090  138.7915  158.7357 C   0  0  1  0  0  0  0  0  0  0  0  0
  152.0208  137.6025  159.0162 O   0  0  0  0  0  0  0  0  0  0  0  0
  152.0235  139.5882  157.6258 C   0  0  0  0  0  0  0  0  0  0  0  0
  151.5078  140.9566  157.4815 N   0  0  0  0  0  0  0  0  0  0  0  0
  150.6356  141.4610  156.5675 C   0  0  0  0  0  0  0  0  0  0  0  0
  150.4745  142.7856  156.8392 N   0  3  0  0  0  0  0  0  0  0  0  0
  151.2542  143.1331  157.9442 C   0  0  0  0  0  0  0  0  0  0  0  0
  151.4231  144.3533  158.5919 C   0  0  0  0  0  0  0  0  0  0  0  0
  152.2964  144.3667  159.6995 C   0  0  0  0  0  0  0  0  0  0  0  0
  152.9606  143.1979  160.1252 C   0  0  0  0  0  0  0  0  0  0  0  0
  152.7824  141.9666  159.4607 C   0  0  0  0  0  0  0  0  0  0  0  0
  151.9197  141.9619  158.3646 C   0  0  0  0  0  0  0  0  0  0  0  0
  147.3003  137.2831  163.5546 H   0  0  0  0  0  0  0  0  0  0  0  0
  147.7984  135.6259  163.2403 H   0  0  0  0  0  0  0  0  0  0  0  0
  146.2553  136.2408  162.5970 H   0  0  0  0  0  0  0  0  0  0  0  0
  147.0606  134.3820  161.4330 H   0  0  0  0  0  0  0  0  0  0  0  0
  145.8708  132.5304  161.1138 H   0  0  0  0  0  0  0  0  0  0  0  0
  147.4877  131.8904  161.4625 H   0  0  0  0  0  0  0  0  0  0  0  0
  146.3248  130.9171  160.5578 H   0  0  0  0  0  0  0  0  0  0  0  0
  148.5595  133.8079  157.4318 H   0  0  0  0  0  0  0  0  0  0  0  0
  149.4366  136.0721  157.4141 H   0  0  0  0  0  0  0  0  0  0  0  0
  149.8810  137.6743  157.5499 H   0  0  0  0  0  0  0  0  0  0  0  0
  149.3453  139.3029  157.9818 H   0  0  0  0  0  0  0  0  0  0  0  0
  151.2885  139.3834  159.6517 H   0  0  0  0  0  0  0  0  0  0  0  0
  151.9218  137.0135  158.2836 H   0  0  0  0  0  0  0  0  0  0  0  0
  153.1004  139.6221  157.7913 H   0  0  0  0  0  0  0  0  0  0  0  0
  151.8809  139.0942  156.6639 H   0  0  0  0  0  0  0  0  0  0  0  0
  150.1597  140.9099  155.7691 H   0  0  0  0  0  0  0  0  0  0  0  0
  150.9140  145.2495  158.2688 H   0  0  0  0  0  0  0  0  0  0  0  0
  152.4587  145.2913  160.2344 H   0  0  0  0  0  0  0  0  0  0  0  0
  153.6200  143.2458  160.9798 H   0  0  0  0  0  0  0  0  0  0  0  0
  153.2920  141.0770  159.7993 H   0  0  0  0  0  0  0  0  0  0  0  0
  149.8765  143.4047  156.3070 H   0  0  0  0  0  0  0  0  0  0  0  0
  1  2  1  0  0  0  0
  1 26  1  0  0  0  0
  1 27  1  0  0  0  0
  1 28  1  0  0  0  0
  2  3  1  0  0  0  0
  3 11  1  0  0  0  0
  3  4  2  0  0  0  0
  4  5  1  0  0  0  0
  4 29  1  0  0  0  0
  5  6  1  0  0  0  0
  5  9  2  0  0  0  0
  6  7  1  0  0  0  0
  6  8  2  0  0  0  0
  7 30  1  0  0  0  0
  7 31  1  0  0  0  0
  7 32  1  0  0  0  0
  9 10  1  0  0  0  0
  9 33  1  0  0  0  0
 10 11  2  0  0  0  0
 10 34  1  0  0  0  0
 11 12  1  0  0  0  0
 12 13  1  0  0  0  0
 13 14  1  0  0  0  0
 13 35  1  0  0  0  0
 13 36  1  0  0  0  0
 14 15  1  0  0  0  0
 14 16  1  0  0  0  0
 14 37  1  0  0  0  0
 15 38  1  0  0  0  0
 16 17  1  0  0  0  0
 16 39  1  0  0  0  0
 16 40  1  0  0  0  0
 17 25  1  0  0  0  0
 17 18  1  0  0  0  0
 18 19  2  0  0  0  0
 18 41  1  0  0  0  0
 19 20  1  0  0  0  0
 19 46  1  0  0  0  0
 20 25  2  0  0  0  0
 20 21  1  0  0  0  0
 21 22  2  0  0  0  0
 21 42  1  0  0  0  0
 22 23  1  0  0  0  0
 22 43  1  0  0  0  0
 23 24  2  0  0  0  0
 23 44  1  0  0  0  0
 24 25  1  0  0  0  0
 24 45  1  0  0  0  0
M  CHG  1  19   1
M  END
> <s_m_source_file>
AV-unprocessed.smi

> <i_m_source_file_index>
479

> <i_lp_mmshare_version>
43012

> <i_f3d_flags>
0

> <s_epik_input>
W0NIM11PYzFbY0hdYyhDKD1PKVtDSDNdKVtjSF1bY0hdYzFPW0NIMl1bQ0BIXShbT0hdKVtDSDJdbihbY0hdbjIpYyhjMjMpW2NIXVtjSF1bY0hdW2NIXTM=

> <s_epik_cmdline>
J2VwaWtfcHl0aG9uJywgJy1waCcsICc3LjAnLCAnLXRuJywgJzgnLCAnLW1hJywgJzIwMCcsICctbWV0YWxfYmluZGluZycsICctaW1hZScsICc8aW5maWxlLm1hZT4nLCAnLW9tYWUnLCAnPG91dGZpbGUubWFlPic=

> <r_lp_tautomer_probability>
0.99995

> <r_epik_Ionization_Penalty>
1.37698

> <r_epik_Ionization_Penalty_Charging>
1.37698

> <r_epik_Ionization_Penalty_Neutral>
2.3993e-06

> <r_epik_State_Penalty>
1.45717

> <r_epik_Charging_Adjusted_Penalty>
2.83415

> <i_epik_Tot_Q>
1

> <i_epik_Tot_abs_Q>
1

> <r_epik_Metal_State_Penalty>
5.49703

> <b_epik_Metal_Only>
0

> <s_lp_Force_Field>
OPLS_2005

> <r_lp_Energy>
29.5876

> <b_lp_Chiralities_Consistent>
1

> <s_lp_Variant>
AV-unprocessed.smi:479-4

> <Gold.Version>
5.8.1

> <Gold.Id.Protein>
6NUR|6NUR_protein|mol2

> <Gold.PLP.Fitness>
57.0632

> <Gold.PLP.PLP>
-47.4809

> <Gold.PLP.part.hbond>
-4.9841

> <Gold.PLP.part.metal>
0.0000

> <Gold.PLP.part.buried>
-4.8702

> <Gold.PLP.part.nonpolar>
-38.2462

> <Gold.PLP.part.repulsive>
0.0725

> <Gold.PLP.ligand.clash>
0.0000

> <Gold.PLP.ligand.torsion>
0.7961

> <Gold.PLP.Chemscore.Hbond>
3.6708

> <Gold.PLP.Chemscore.CHOScore>
0.0000

> <Gold.PLP.Chemscore.Metal>
0.0000

> <Gold.Chemscore.Hbonds>
donor molecule, donor type, donor heavy atom, donor atom, acceptor molecule, acceptor atom, score
      L1  H    19    46       P1  8028  2.00
      P1  H  6931  6943       L1     2  1.00
      P1  H  6934  6947       L1     2  0.19

> <Gold.PLP.Chemscore.Internal.Correction>
0.1620

> <Gold.Rescore>
     Score         DG    S(hbond)    S(metal)    S(lipo)     H(rot)  DE(clash)    DE(int)     intcor
     19.28     -20.25       2.31        0.00     120.33       2.75       0.11       0.86       ----

> <Gold.Chemscore.Fitness>
19.2773

> <Gold.Chemscore.DG>
-20.2481

> <Gold.Chemscore.ZeroCoef>
-5.4800

> <Gold.Chemscore.Hbond>
2.3133

> <Gold.Chemscore.Metal>
0.0000

> <Gold.Chemscore.Lipo>
120.3297

> <Gold.Chemscore.Internal_Hbond>
0.0000

> <Gold.Chemscore.DEClash>
0.1096

> <Gold.Chemscore.DEInternal>
0.8612

> <Gold.Chemscore.Rot>
2.7487

> <Gold.Chemscore.Internal.Correction>
   9.000000E+99

> <Gold.Chemscore.Hbonds>
donor molecule, donor type, donor heavy atom, donor atom, acceptor molecule, acceptor atom, score
      L1  H    19    46       P1  8028  1.00
      P1  H  6931  6943       L1     2  0.87
      P1  H  6934  6947       L1     2  0.13

> <Gold.Chemscore.Hbond.Weighted>
-7.7263

> <Gold.Chemscore.Metal.Weighted>
-0.0000

> <Gold.Chemscore.Lipo.Weighted>
-14.0786

> <Gold.Chemscore.Internal_Hbond.Weighted>
0.0000

> <Gold.Chemscore.DEClash.Weighted>
0.1096

> <Gold.Chemscore.DEInternal.Weighted>
0.8612

> <Gold.Chemscore.Rot.Weighted>
7.0368

> <Gold.Chemscore.Internal.Correction.Weighted>
   9.000000E+99

> <Gold.Protein.RotatedTorsions>
[ 6907 6896 6895 6894 ] final  -78.99 input  -60.11 | X-H torsion
[ 7974 7965 7964 7962 ] final   94.53 input  175.53 | X-H torsion
[ 8008 7997 7996 7995 ] final   13.10 input   59.86 | X-H torsion
[ 10167 10162 10161 10158 ] final   67.63 input  -65.29 | X-H torsion
[ 10718 10713 10712 10709 ] final  144.41 input   66.30 | X-H torsion
[ 10763 10752 10751 10750 ] final   42.52 input  -60.55 | X-H torsion
[ 11005 11000 10999 10996 ] final  -38.46 input  -57.11 | X-H torsion

> <Gold.Protein.ActiveResidues>
 VAL166  LYS551  ARG553  GLY616  TRP617  ASP618  TYR619  PRO620  LYS621  CYS622 
 ASP623  PHE694  ASN695  SER759  ASP760  ASP761  ALA762  ILE779  LEU786  VAL792 
 PHE793  MET794  SER795  GLU796  ALA797  LYS798  CYS799  TRP800  GLU811  SER814 

> <Gold.Protein.RotatedAtoms>
  150.6960  134.4188  159.5195 H   0  0  0  0  0  0  0  0  0  0  0  0  # atno 6907 bound_to 6896
  152.1934  134.8649  160.0524 H   0  0  0  0  0  0  0  0  0  0  0  0  # atno 6908 bound_to 6896
  151.9596  133.3656  159.4067 H   0  0  0  0  0  0  0  0  0  0  0  0  # atno 6909 bound_to 6896
  145.4643  139.2285  143.2970 H   0  0  0  0  0  0  0  0  0  0  0  0  # atno 7974 bound_to 7965
  154.8298  140.2897  155.5730 H   0  0  0  0  0  0  0  0  0  0  0  0  # atno 8008 bound_to 7997
  156.3004  140.2534  156.3152 H   0  0  0  0  0  0  0  0  0  0  0  0  # atno 8009 bound_to 7997
  154.9244  140.0385  157.2004 H   0  0  0  0  0  0  0  0  0  0  0  0  # atno 8010 bound_to 7997
  140.0874  144.5018  150.7121 H   0  0  0  0  0  0  0  0  0  0  0  0  # atno 10167 bound_to 10162
  157.3575  131.0960  151.0945 H   0  0  0  0  0  0  0  0  0  0  0  0  # atno 10718 bound_to 10713
  152.9881  135.6129  154.2962 H   0  0  0  0  0  0  0  0  0  0  0  0  # atno 10763 bound_to 10752
  154.2685  135.2780  155.2750 H   0  0  0  0  0  0  0  0  0  0  0  0  # atno 10764 bound_to 10752
  154.5143  135.5832  153.6687 H   0  0  0  0  0  0  0  0  0  0  0  0  # atno 10765 bound_to 10752
  141.0029  133.6946  156.2056 H   0  0  0  0  0  0  0  0  0  0  0  0  # atno 11005 bound_to 11000
  146.2433  140.5415  142.8924 LP  0  0  0  0  0  0  0  0  0  0  0  0  # atno 17320 bound_to 7965
  144.7984  140.6166  143.6495 LP  0  0  0  0  0  0  0  0  0  0  0  0  # atno 17321 bound_to 7965
  140.7046  143.2459  151.4763 LP  0  0  0  0  0  0  0  0  0  0  0  0  # atno 17342 bound_to 10162
  139.5744  144.1853  152.1883 LP  0  0  0  0  0  0  0  0  0  0  0  0  # atno 17343 bound_to 10162
  157.2097  130.6432  149.5769 LP  0  0  0  0  0  0  0  0  0  0  0  0  # atno 17370 bound_to 10713
  155.9731  130.4664  150.6287 LP  0  0  0  0  0  0  0  0  0  0  0  0  # atno 17371 bound_to 10713
  140.6860  134.4717  157.5589 LP  0  0  0  0  0  0  0  0  0  0  0  0  # atno 17394 bound_to 11000
  139.9048  134.8474  156.1749 LP  0  0  0  0  0  0  0  0  0  0  0  0  # atno 17395 bound_to 11000

$$$$
