AV-unprocessed.smi:45|AV-procd|sdf|414|dock4
  -GOLD-   2262016283D 1   1.00000     0.00000
 Structure written by MMmdl.
 59 62  0  0  0  0  0  0  0  0  2 V2000
  136.3007  140.7385  153.3845 C   0  0  0  0  0  0  0  0  0  0  0  0
  136.3832  139.5056  154.0840 O   0  0  0  0  0  0  0  0  0  0  0  0
  137.5362  138.7585  153.9567 C   0  0  0  0  0  0  0  0  0  0  0  0
  138.6284  139.1274  153.1305 C   0  0  0  0  0  0  0  0  0  0  0  0
  139.7743  138.3129  153.0527 C   0  0  0  0  0  0  0  0  0  0  0  0
  139.8498  137.1191  153.7971 C   0  0  0  0  0  0  0  0  0  0  0  0
  141.0843  136.2439  153.7152 C   0  0  0  0  0  0  0  0  0  0  0  0
  141.8512  136.2203  154.9515 N   0  0  0  0  0  0  0  0  0  0  0  0
  143.1359  135.6535  155.0047 C   0  0  0  0  0  0  0  0  0  0  0  0
  143.6385  135.1248  153.8629 N   0  0  0  0  0  0  0  0  0  0  0  0
  144.8636  134.5983  153.9033 C   0  0  0  0  0  0  0  0  0  0  0  0
  145.3258  134.0459  152.7189 N   0  0  0  0  0  0  0  0  0  0  0  0
  145.3723  132.5923  152.5776 C   0  0  0  0  0  0  0  0  0  0  0  0
  144.9932  132.2676  151.1270 C   0  0  0  0  0  0  0  0  0  0  0  0
  145.2245  133.5794  150.3858 C   0  0  0  0  0  0  0  0  0  0  0  0
  144.8577  134.6083  151.4566 C   0  0  2  0  0  0  0  0  0  0  0  0
  145.3311  136.0529  151.1909 C   0  0  0  0  0  0  0  0  0  0  0  0
  144.6259  136.9901  151.9790 O   0  0  0  0  0  0  0  0  0  0  0  0
  145.6594  134.5318  154.9736 N   0  0  0  0  0  0  0  0  0  0  0  0
  145.1792  135.0547  156.1220 C   0  0  0  0  0  0  0  0  0  0  0  0
  143.8956  135.6463  156.2072 C   0  0  0  0  0  0  0  0  0  0  0  0
  143.3757  136.1859  157.5160 C   0  0  0  0  0  0  0  0  0  0  0  0
  142.2511  136.6987  157.5367 O   0  0  0  0  0  0  0  0  0  0  0  0
  144.2834  136.0387  158.5200 N   0  5  0  0  0  0  0  0  0  0  0  0
  144.3598  136.9072  159.6945 C   0  0  0  0  0  0  0  0  0  0  0  0
  145.3471  136.3705  160.7212 C   0  0  0  0  0  0  0  0  0  0  0  0
  146.3718  137.1678  161.0488 N   0  0  0  0  0  0  0  0  0  0  0  0
  147.2336  136.7073  161.9807 C   0  0  0  0  0  0  0  0  0  0  0  0
  147.0694  135.4441  162.5833 C   0  0  0  0  0  0  0  0  0  0  0  0
  145.9579  134.6900  162.1567 C   0  0  0  0  0  0  0  0  0  0  0  0
  145.0987  135.1546  161.2242 N   0  0  0  0  0  0  0  0  0  0  0  0
  138.7694  136.7459  154.6200 C   0  0  0  0  0  0  0  0  0  0  0  0
  137.6214  137.5584  154.6978 C   0  0  0  0  0  0  0  0  0  0  0  0
  136.3132  137.0697  155.7148 Cl  0  0  0  0  0  0  0  0  0  0  0  0
  143.7686  134.6367  151.5230 H   0  0  0  0  0  0  0  0  0  0  0  0
  135.3397  141.2073  153.5958 H   0  0  0  0  0  0  0  0  0  0  0  0
  136.3651  140.5910  152.3056 H   0  0  0  0  0  0  0  0  0  0  0  0
  137.0818  141.4301  153.7028 H   0  0  0  0  0  0  0  0  0  0  0  0
  138.6125  140.0331  152.5436 H   0  0  0  0  0  0  0  0  0  0  0  0
  140.5977  138.6070  152.4182 H   0  0  0  0  0  0  0  0  0  0  0  0
  140.7722  135.2292  153.4651 H   0  0  0  0  0  0  0  0  0  0  0  0
  141.7247  136.5911  152.9034 H   0  0  0  0  0  0  0  0  0  0  0  0
  141.4562  136.6337  155.7847 H   0  0  0  0  0  0  0  0  0  0  0  0
  146.3942  132.2700  152.7787 H   0  0  0  0  0  0  0  0  0  0  0  0
  144.7221  132.0735  153.2827 H   0  0  0  0  0  0  0  0  0  0  0  0
  145.5673  131.4379  150.7143 H   0  0  0  0  0  0  0  0  0  0  0  0
  143.9365  132.0018  151.0769 H   0  0  0  0  0  0  0  0  0  0  0  0
  146.2749  133.6600  150.1031 H   0  0  0  0  0  0  0  0  0  0  0  0
  144.6198  133.6708  149.4833 H   0  0  0  0  0  0  0  0  0  0  0  0
  146.3902  136.1402  151.4344 H   0  0  0  0  0  0  0  0  0  0  0  0
  145.2326  136.3158  150.1376 H   0  0  0  0  0  0  0  0  0  0  0  0
  144.1334  137.5547  151.4033 H   0  0  0  0  0  0  0  0  0  0  0  0
  145.8275  134.9831  156.9833 H   0  0  0  0  0  0  0  0  0  0  0  0
  144.6617  137.9185  159.4174 H   0  0  0  0  0  0  0  0  0  0  0  0
  143.3938  137.0274  160.1889 H   0  0  0  0  0  0  0  0  0  0  0  0
  148.0588  137.3507  162.2480 H   0  0  0  0  0  0  0  0  0  0  0  0
  147.7566  135.0746  163.3294 H   0  0  0  0  0  0  0  0  0  0  0  0
  145.7572  133.7109  162.5656 H   0  0  0  0  0  0  0  0  0  0  0  0
  138.8171  135.8316  155.1936 H   0  0  0  0  0  0  0  0  0  0  0  0
  1  2  1  0  0  0  0
  1 36  1  0  0  0  0
  1 37  1  0  0  0  0
  1 38  1  0  0  0  0
  2  3  1  0  0  0  0
  3 33  1  0  0  0  0
  3  4  2  0  0  0  0
  4  5  1  0  0  0  0
  4 39  1  0  0  0  0
  5  6  2  0  0  0  0
  5 40  1  0  0  0  0
  6  7  1  0  0  0  0
  6 32  1  0  0  0  0
  7  8  1  0  0  0  0
  7 41  1  0  0  0  0
  7 42  1  0  0  0  0
  8  9  1  0  0  0  0
  8 43  1  0  0  0  0
  9 21  1  0  0  0  0
  9 10  2  0  0  0  0
 10 11  1  0  0  0  0
 11 12  1  0  0  0  0
 11 19  2  0  0  0  0
 12 16  1  0  0  0  0
 12 13  1  0  0  0  0
 13 14  1  0  0  0  0
 13 44  1  0  0  0  0
 13 45  1  0  0  0  0
 14 15  1  0  0  0  0
 14 46  1  0  0  0  0
 14 47  1  0  0  0  0
 15 16  1  0  0  0  0
 15 48  1  0  0  0  0
 15 49  1  0  0  0  0
 16 35  1  0  0  0  0
 16 17  1  0  0  0  0
 17 18  1  0  0  0  0
 17 50  1  0  0  0  0
 17 51  1  0  0  0  0
 18 52  1  0  0  0  0
 19 20  1  0  0  0  0
 20 21  2  0  0  0  0
 20 53  1  0  0  0  0
 21 22  1  0  0  0  0
 22 23  2  0  0  0  0
 22 24  1  0  0  0  0
 24 25  1  0  0  0  0
 25 26  1  0  0  0  0
 25 54  1  0  0  0  0
 25 55  1  0  0  0  0
 26 31  1  0  0  0  0
 26 27  2  0  0  0  0
 27 28  1  0  0  0  0
 28 29  2  0  0  0  0
 28 56  1  0  0  0  0
 29 30  1  0  0  0  0
 29 57  1  0  0  0  0
 30 31  2  0  0  0  0
 30 58  1  0  0  0  0
 32 33  2  0  0  0  0
 32 59  1  0  0  0  0
 33 34  1  0  0  0  0
M  CHG  1  24  -1
M  END
> <s_m_source_file>
AV-unprocessed.smi

> <i_m_source_file_index>
45

> <i_lp_mmshare_version>
43012

> <i_f3d_flags>
0

> <s_epik_input>
W0NIM11PYzFbY0hdW2NIXWMoW2NIXWMxQ2wpW0NIMl1bTkhdYzJuYyhOM1tDSDJdW0NIMl1bQ0gyXVtDQEhdM1tDSDJdW09IXSluW2NIXWMyQyg9TylbTkhdW0NIMl1jNG5bY0hdW2NIXVtjSF1uNA==

> <s_epik_cmdline>
J2VwaWtfcHl0aG9uJywgJy1waCcsICc3LjAnLCAnLXRuJywgJzgnLCAnLW1hJywgJzIwMCcsICctbWV0YWxfYmluZGluZycsICctaW1hZScsICc8aW5maWxlLm1hZT4nLCAnLW9tYWUnLCAnPG91dGZpbGUubWFlPic=

> <r_lp_tautomer_probability>
1

> <r_epik_Ionization_Penalty>
7.35269

> <r_epik_Ionization_Penalty_Charging>
6.82087

> <r_epik_Ionization_Penalty_Neutral>
0.53182

> <r_epik_State_Penalty>
6.85781

> <r_epik_Charging_Adjusted_Penalty>
13.6787

> <i_epik_Tot_Q>
-1

> <i_epik_Tot_abs_Q>
1

> <r_epik_Metal_State_Penalty>
2.8146

> <b_epik_Metal_Only>
1

> <s_epik_Chemistry_Notes>
This compound contains an electron-poor aromatic ring that is susceptible to covalent hydrolysis at low pH, typically resulting in measured values for nitrogen ring protonation that are around two units higher than predicted values.

> <s_lp_Force_Field>
OPLS_2005

> <r_lp_Energy>
50.4559

> <b_lp_Chiralities_Consistent>
1

> <s_lp_Variant>
AV-unprocessed.smi:45-8

> <Gold.Version>
5.8.1

> <Gold.Id.Protein>
6NUR|6NUR_protein|mol2

> <Gold.PLP.Fitness>
53.8018

> <Gold.PLP.PLP>
-49.1087

> <Gold.PLP.part.hbond>
-2.7933

> <Gold.PLP.part.metal>
0.0000

> <Gold.PLP.part.buried>
-6.2709

> <Gold.PLP.part.nonpolar>
-38.5505

> <Gold.PLP.part.repulsive>
0.2223

> <Gold.PLP.ligand.clash>
0.2744

> <Gold.PLP.ligand.torsion>
0.9863

> <Gold.PLP.Chemscore.Hbond>
2.0000

> <Gold.PLP.Chemscore.CHOScore>
0.0000

> <Gold.PLP.Chemscore.Metal>
0.0000

> <Gold.Chemscore.Hbonds>
donor molecule, donor type, donor heavy atom, donor atom, acceptor molecule, acceptor atom, score
      L1  H    18    52       P1 10171  1.00
      P1  H  6934  6947       L1    27  0.80

> <Gold.PLP.Chemscore.Internal.Correction>
0.9402

> <Gold.Rescore>
     Score         DG    S(hbond)    S(metal)    S(lipo)     H(rot)  DE(clash)    DE(int)     intcor
     13.43     -16.32       1.72        0.00     111.45       3.11       0.08       2.81       ----

> <Gold.Chemscore.Fitness>
13.4348

> <Gold.Chemscore.DG>
-16.3214

> <Gold.Chemscore.ZeroCoef>
-5.4800

> <Gold.Chemscore.Hbond>
1.7238

> <Gold.Chemscore.Metal>
0.0000

> <Gold.Chemscore.Lipo>
111.4479

> <Gold.Chemscore.Internal_Hbond>
0.0000

> <Gold.Chemscore.DEClash>
0.0756

> <Gold.Chemscore.DEInternal>
2.8110

> <Gold.Chemscore.Rot>
3.1077

> <Gold.Chemscore.Internal.Correction>
   9.000000E+99

> <Gold.Chemscore.Hbonds>
donor molecule, donor type, donor heavy atom, donor atom, acceptor molecule, acceptor atom, score
      L1  H    18    52       P1 10171  0.98
      P1  H  6934  6947       L1    27  0.11

> <Gold.Chemscore.Hbond.Weighted>
-5.7577

> <Gold.Chemscore.Metal.Weighted>
-0.0000

> <Gold.Chemscore.Lipo.Weighted>
-13.0394

> <Gold.Chemscore.Internal_Hbond.Weighted>
0.0000

> <Gold.Chemscore.DEClash.Weighted>
0.0756

> <Gold.Chemscore.DEInternal.Weighted>
2.8110

> <Gold.Chemscore.Rot.Weighted>
7.9557

> <Gold.Chemscore.Internal.Correction.Weighted>
   9.000000E+99

> <Gold.Protein.RotatedTorsions>
[ 6907 6896 6895 6894 ] final -117.81 input  -60.11 | X-H torsion
[ 7974 7965 7964 7962 ] final  140.18 input  175.53 | X-H torsion
[ 8008 7997 7996 7995 ] final  -54.56 input   59.86 | X-H torsion
[ 10167 10162 10161 10158 ] final  -69.45 input  -65.29 | X-H torsion
[ 10718 10713 10712 10709 ] final   61.01 input   66.30 | X-H torsion
[ 10763 10752 10751 10750 ] final   49.81 input  -60.55 | X-H torsion
[ 11005 11000 10999 10996 ] final -167.22 input  -57.11 | X-H torsion

> <Gold.Protein.ActiveResidues>
 VAL166  LYS551  ARG553  GLY616  TRP617  ASP618  TYR619  PRO620  LYS621  CYS622 
 ASP623  PHE694  ASN695  SER759  ASP760  ASP761  ALA762  ILE779  LEU786  VAL792 
 PHE793  MET794  SER795  GLU796  ALA797  LYS798  CYS799  TRP800  GLU811  SER814 

> <Gold.Protein.RotatedAtoms>
  150.8167  133.8324  159.3156 H   0  0  0  0  0  0  0  0  0  0  0  0  # atno 6907 bound_to 6896
  151.6094  135.1039  160.0087 H   0  0  0  0  0  0  0  0  0  0  0  0  # atno 6908 bound_to 6896
  152.4258  133.7152  159.6558 H   0  0  0  0  0  0  0  0  0  0  0  0  # atno 6909 bound_to 6896
  144.9210  139.5168  143.5663 H   0  0  0  0  0  0  0  0  0  0  0  0  # atno 7974 bound_to 7965
  154.4166  140.1173  156.5335 H   0  0  0  0  0  0  0  0  0  0  0  0  # atno 8008 bound_to 7997
  155.6581  140.3496  155.4753 H   0  0  0  0  0  0  0  0  0  0  0  0  # atno 8009 bound_to 7997
  155.9736  140.1146  157.0780 H   0  0  0  0  0  0  0  0  0  0  0  0  # atno 8010 bound_to 7997
  140.5429  143.2314  151.7055 H   0  0  0  0  0  0  0  0  0  0  0  0  # atno 10167 bound_to 10162
  157.5796  130.8971  149.9407 H   0  0  0  0  0  0  0  0  0  0  0  0  # atno 10718 bound_to 10713
  152.9786  135.5899  154.4150 H   0  0  0  0  0  0  0  0  0  0  0  0  # atno 10763 bound_to 10752
  154.3781  135.2767  155.2229 H   0  0  0  0  0  0  0  0  0  0  0  0  # atno 10764 bound_to 10752
  154.4155  135.6071  153.6033 H   0  0  0  0  0  0  0  0  0  0  0  0  # atno 10765 bound_to 10752
  140.5556  134.5384  157.5132 H   0  0  0  0  0  0  0  0  0  0  0  0  # atno 11005 bound_to 11000
  146.3204  139.8089  142.8950 LP  0  0  0  0  0  0  0  0  0  0  0  0  # atno 17320 bound_to 7965
  145.3297  141.0263  143.3453 LP  0  0  0  0  0  0  0  0  0  0  0  0  # atno 17321 bound_to 7965
  139.4996  144.3940  152.0250 LP  0  0  0  0  0  0  0  0  0  0  0  0  # atno 17342 bound_to 10162
  140.3050  144.3603  150.6049 LP  0  0  0  0  0  0  0  0  0  0  0  0  # atno 17343 bound_to 10162
  156.0841  130.3670  150.0521 LP  0  0  0  0  0  0  0  0  0  0  0  0  # atno 17370 bound_to 10713
  156.8662  130.9509  151.3613 LP  0  0  0  0  0  0  0  0  0  0  0  0  # atno 17371 bound_to 10713
  139.9433  134.7747  156.0624 LP  0  0  0  0  0  0  0  0  0  0  0  0  # atno 17394 bound_to 11000
  141.1145  133.6632  156.3060 LP  0  0  0  0  0  0  0  0  0  0  0  0  # atno 17395 bound_to 11000

$$$$
