AV-unprocessed.smi:2623|AV-procd|sdf|10230|dock8
  -GOLD-   2272014233D 1   1.00000     0.00000
 Structure written by MMmdl.
 40 42  0  0  0  0  0  0  0  0  1 V2000
  151.9056  137.1946  155.0995 O   0  0  0  0  0  0  0  0  0  0  0  0
  152.1147  138.5426  154.7289 C   0  0  0  0  0  0  0  0  0  0  0  0
  151.9390  139.5216  155.8557 C   0  0  0  0  0  0  0  0  0  0  0  0
  152.6791  139.4954  156.9669 N   0  0  0  0  0  0  0  0  0  0  0  0
  152.1835  140.5612  157.6913 C   0  0  0  0  0  0  0  0  0  0  0  0
  152.5535  141.0601  158.9610 C   0  0  0  0  0  0  0  0  0  0  0  0
  151.8954  142.1817  159.5069 C   0  0  0  0  0  0  0  0  0  0  0  0
  150.8601  142.8186  158.7927 C   0  0  0  0  0  0  0  0  0  0  0  0
  150.4761  142.3378  157.5260 C   0  0  0  0  0  0  0  0  0  0  0  0
  151.1364  141.2178  156.9854 C   0  0  0  0  0  0  0  0  0  0  0  0
  151.0082  140.5071  155.7953 N   0  0  0  0  0  0  0  0  0  0  0  0
  150.0660  140.7864  154.7192 C   0  0  0  0  0  0  0  0  0  0  0  0
  148.6484  141.1142  155.2324 C   0  0  1  0  0  0  0  0  0  0  0  0
  148.1764  142.3035  154.6305 O   0  0  0  0  0  0  0  0  0  0  0  0
  147.6429  139.9916  154.9384 C   0  0  0  0  0  0  0  0  0  0  0  0
  147.4619  139.8891  153.5322 O   0  0  0  0  0  0  0  0  0  0  0  0
  146.8822  138.7433  153.0310 C   0  0  0  0  0  0  0  0  0  0  0  0
  146.8246  138.6170  151.6276 C   0  0  0  0  0  0  0  0  0  0  0  0
  146.2528  137.4778  151.0287 C   0  0  0  0  0  0  0  0  0  0  0  0
  145.7306  136.4479  151.8325 C   0  0  0  0  0  0  0  0  0  0  0  0
  145.7799  136.5608  153.2342 C   0  0  0  0  0  0  0  0  0  0  0  0
  146.3513  137.7008  153.8330 C   0  0  0  0  0  0  0  0  0  0  0  0
  151.0711  136.9143  154.7568 H   0  0  0  0  0  0  0  0  0  0  0  0
  153.1244  138.6379  154.3289 H   0  0  0  0  0  0  0  0  0  0  0  0
  151.4200  138.7865  153.9258 H   0  0  0  0  0  0  0  0  0  0  0  0
  153.3451  140.5787  159.5157 H   0  0  0  0  0  0  0  0  0  0  0  0
  152.1860  142.5543  160.4783 H   0  0  0  0  0  0  0  0  0  0  0  0
  150.3603  143.6764  159.2183 H   0  0  0  0  0  0  0  0  0  0  0  0
  149.6828  142.8233  156.9778 H   0  0  0  0  0  0  0  0  0  0  0  0
  150.4539  141.6158  154.1266 H   0  0  0  0  0  0  0  0  0  0  0  0
  150.0385  139.9290  154.0464 H   0  0  0  0  0  0  0  0  0  0  0  0
  148.6762  141.2866  156.3084 H   0  0  0  0  0  0  0  0  0  0  0  0
  148.5027  143.0404  155.1237 H   0  0  0  0  0  0  0  0  0  0  0  0
  148.0297  139.0462  155.3235 H   0  0  0  0  0  0  0  0  0  0  0  0
  146.6934  140.1975  155.4359 H   0  0  0  0  0  0  0  0  0  0  0  0
  147.2234  139.4024  151.0026 H   0  0  0  0  0  0  0  0  0  0  0  0
  146.2161  137.3942  149.9525 H   0  0  0  0  0  0  0  0  0  0  0  0
  145.2932  135.5729  151.3750 H   0  0  0  0  0  0  0  0  0  0  0  0
  145.3796  135.7709  153.8525 H   0  0  0  0  0  0  0  0  0  0  0  0
  146.3714  137.7495  154.9109 H   0  0  0  0  0  0  0  0  0  0  0  0
  1  2  1  0  0  0  0
  1 23  1  0  0  0  0
  2  3  1  0  0  0  0
  2 24  1  0  0  0  0
  2 25  1  0  0  0  0
  3 11  1  0  0  0  0
  3  4  2  0  0  0  0
  4  5  1  0  0  0  0
  5 10  2  0  0  0  0
  5  6  1  0  0  0  0
  6  7  2  0  0  0  0
  6 26  1  0  0  0  0
  7  8  1  0  0  0  0
  7 27  1  0  0  0  0
  8  9  2  0  0  0  0
  8 28  1  0  0  0  0
  9 10  1  0  0  0  0
  9 29  1  0  0  0  0
 10 11  1  0  0  0  0
 11 12  1  0  0  0  0
 12 13  1  0  0  0  0
 12 30  1  0  0  0  0
 12 31  1  0  0  0  0
 13 14  1  0  0  0  0
 13 15  1  0  0  0  0
 13 32  1  0  0  0  0
 14 33  1  0  0  0  0
 15 16  1  0  0  0  0
 15 34  1  0  0  0  0
 15 35  1  0  0  0  0
 16 17  1  0  0  0  0
 17 22  1  0  0  0  0
 17 18  2  0  0  0  0
 18 19  1  0  0  0  0
 18 36  1  0  0  0  0
 19 20  2  0  0  0  0
 19 37  1  0  0  0  0
 20 21  1  0  0  0  0
 20 38  1  0  0  0  0
 21 22  2  0  0  0  0
 21 39  1  0  0  0  0
 22 40  1  0  0  0  0
M  END
> <s_m_source_file>
AV-unprocessed.smi

> <i_m_source_file_index>
2623

> <i_lp_mmshare_version>
43012

> <i_f3d_flags>
0

> <s_epik_input>
W2NIXTFbY0hdW2NIXVtjSF1jKGMxMiluKGMobjIpW0NIMl1bT0hdKVtDSDJdW0NASF0oW09IXSlbQ0gyXU9jM1tjSF1bY0hdW2NIXVtjSF1bY0hdMw==

> <s_epik_cmdline>
J2VwaWtfcHl0aG9uJywgJy1waCcsICc3LjAnLCAnLXRuJywgJzgnLCAnLW1hJywgJzIwMCcsICctbWV0YWxfYmluZGluZycsICctaW1hZScsICc8aW5maWxlLm1hZT4nLCAnLW9tYWUnLCAnPG91dGZpbGUubWFlPic=

> <r_lp_tautomer_probability>
1

> <r_epik_Ionization_Penalty>
0.0583159

> <r_epik_Ionization_Penalty_Charging>
0

> <r_epik_Ionization_Penalty_Neutral>
0.0583159

> <r_epik_State_Penalty>
0.0503525

> <r_epik_Charging_Adjusted_Penalty>
0.0503525

> <i_epik_Tot_Q>
0

> <i_epik_Tot_abs_Q>
0

> <r_epik_Metal_State_Penalty>
5.25517e-05

> <b_epik_Metal_Only>
0

> <s_lp_Force_Field>
OPLS_2005

> <r_lp_Energy>
15.201

> <b_lp_Chiralities_Consistent>
1

> <s_lp_Variant>
AV-unprocessed.smi:2623-2

> <Gold.Version>
5.8.1

> <Gold.Id.Protein>
6NUR|6NUR_protein|mol2

> <Gold.PLP.Fitness>
46.3530

> <Gold.PLP.PLP>
-39.3151

> <Gold.PLP.part.hbond>
-3.2407

> <Gold.PLP.part.metal>
0.0000

> <Gold.PLP.part.buried>
1.0651

> <Gold.PLP.part.nonpolar>
-38.6955

> <Gold.PLP.part.repulsive>
0.1829

> <Gold.PLP.ligand.clash>
0.0000

> <Gold.PLP.ligand.torsion>
1.0273

> <Gold.PLP.Chemscore.Hbond>
3.0000

> <Gold.PLP.Chemscore.CHOScore>
0.0000

> <Gold.PLP.Chemscore.Metal>
0.0000

> <Gold.Chemscore.Hbonds>
donor molecule, donor type, donor heavy atom, donor atom, acceptor molecule, acceptor atom, score
      L1  H    14    33       P1  8028  1.00
      P1  H  7997  8009       L1     4  1.00
      P1  H 10752 10765       L1     1  0.88

> <Gold.PLP.Chemscore.Internal.Correction>
0.0925

> <Gold.Rescore>
     Score         DG    S(hbond)    S(metal)    S(lipo)     H(rot)  DE(clash)    DE(int)     intcor
     13.46     -15.57       1.78        0.00     101.89       3.04       1.07       1.04       ----

> <Gold.Chemscore.Fitness>
13.4612

> <Gold.Chemscore.DG>
-15.5685

> <Gold.Chemscore.ZeroCoef>
-5.4800

> <Gold.Chemscore.Hbond>
1.7780

> <Gold.Chemscore.Metal>
0.0000

> <Gold.Chemscore.Lipo>
101.8926

> <Gold.Chemscore.Internal_Hbond>
0.0000

> <Gold.Chemscore.DEClash>
1.0698

> <Gold.Chemscore.DEInternal>
1.0376

> <Gold.Chemscore.Rot>
3.0358

> <Gold.Chemscore.Internal.Correction>
   9.000000E+99

> <Gold.Chemscore.Hbonds>
donor molecule, donor type, donor heavy atom, donor atom, acceptor molecule, acceptor atom, score
      L1  H    14    33       P1  8028  1.00
      P1  H  7997  8009       L1     4  0.20
      P1  H 10752 10765       L1     1  0.16

> <Gold.Chemscore.Hbond.Weighted>
-5.9387

> <Gold.Chemscore.Metal.Weighted>
-0.0000

> <Gold.Chemscore.Lipo.Weighted>
-11.9214

> <Gold.Chemscore.Internal_Hbond.Weighted>
0.0000

> <Gold.Chemscore.DEClash.Weighted>
1.0698

> <Gold.Chemscore.DEInternal.Weighted>
1.0376

> <Gold.Chemscore.Rot.Weighted>
7.7716

> <Gold.Chemscore.Internal.Correction.Weighted>
   9.000000E+99

> <Gold.Protein.RotatedTorsions>
[ 6907 6896 6895 6894 ] final   54.04 input  -60.11 | X-H torsion
[ 7974 7965 7964 7962 ] final  -36.81 input  175.53 | X-H torsion
[ 8008 7997 7996 7995 ] final -173.86 input   59.86 | X-H torsion
[ 10167 10162 10161 10158 ] final  124.14 input  -65.29 | X-H torsion
[ 10718 10713 10712 10709 ] final    8.22 input   66.30 | X-H torsion
[ 10763 10752 10751 10750 ] final  179.38 input  -60.55 | X-H torsion
[ 11005 11000 10999 10996 ] final  -48.28 input  -57.11 | X-H torsion

> <Gold.Protein.ActiveResidues>
 VAL166  LYS551  ARG553  GLY616  TRP617  ASP618  TYR619  PRO620  LYS621  CYS622 
 ASP623  PHE694  ASN695  SER759  ASP760  ASP761  ALA762  ILE779  LEU786  VAL792 
 PHE793  MET794  SER795  GLU796  ALA797  LYS798  CYS799  TRP800  GLU811  SER814 

> <Gold.Protein.RotatedAtoms>
  152.3398  134.7149  160.0266 H   0  0  0  0  0  0  0  0  0  0  0  0  # atno 6907 bound_to 6896
  151.7538  133.3323  159.3407 H   0  0  0  0  0  0  0  0  0  0  0  0  # atno 6908 bound_to 6896
  150.7473  134.6100  159.6126 H   0  0  0  0  0  0  0  0  0  0  0  0  # atno 6909 bound_to 6896
  146.0629  140.6322  142.8988 H   0  0  0  0  0  0  0  0  0  0  0  0  # atno 7974 bound_to 7965
  155.9628  140.1148  157.0881 H   0  0  0  0  0  0  0  0  0  0  0  0  # atno 8008 bound_to 7997
  154.4136  140.1178  156.5269 H   0  0  0  0  0  0  0  0  0  0  0  0  # atno 8009 bound_to 7997
  155.6698  140.3473  155.4816 H   0  0  0  0  0  0  0  0  0  0  0  0  # atno 8010 bound_to 7997
  139.5759  144.6963  151.3655 H   0  0  0  0  0  0  0  0  0  0  0  0  # atno 10167 bound_to 10162
  156.9484  130.5888  149.5655 H   0  0  0  0  0  0  0  0  0  0  0  0  # atno 10718 bound_to 10713
  154.5200  135.2793  155.1271 H   0  0  0  0  0  0  0  0  0  0  0  0  # atno 10763 bound_to 10752
  154.2832  135.6281  153.5359 H   0  0  0  0  0  0  0  0  0  0  0  0  # atno 10764 bound_to 10752
  152.9935  135.5656  154.5686 H   0  0  0  0  0  0  0  0  0  0  0  0  # atno 10765 bound_to 10752
  141.0691  133.6684  156.3419 H   0  0  0  0  0  0  0  0  0  0  0  0  # atno 11005 bound_to 11000
  144.7185  140.4294  143.7026 LP  0  0  0  0  0  0  0  0  0  0  0  0  # atno 17320 bound_to 7965
  145.6528  139.1568  143.2852 LP  0  0  0  0  0  0  0  0  0  0  0  0  # atno 17321 bound_to 7965
  140.7041  143.7557  150.7452 LP  0  0  0  0  0  0  0  0  0  0  0  0  # atno 17342 bound_to 10162
  140.1077  143.4728  152.2388 LP  0  0  0  0  0  0  0  0  0  0  0  0  # atno 17343 bound_to 10162
  156.0373  130.5459  150.8686 LP  0  0  0  0  0  0  0  0  0  0  0  0  # atno 17370 bound_to 10713
  157.5738  131.0946  150.9377 LP  0  0  0  0  0  0  0  0  0  0  0  0  # atno 17371 bound_to 10713
  140.5710  134.5840  157.5457 LP  0  0  0  0  0  0  0  0  0  0  0  0  # atno 17394 bound_to 11000
  139.9506  134.7624  156.0458 LP  0  0  0  0  0  0  0  0  0  0  0  0  # atno 17395 bound_to 11000

$$$$
