AV-unprocessed.smi:580|AV-procd|sdf|2990|dock5
  -GOLD-   2262023493D 1   1.00000     0.00000
 Structure written by MMmdl.
 36 37  0  0  0  0  0  0  0  0  1 V2000
  140.2494  138.6503  153.4997 C   0  0  0  0  0  0  0  0  0  0  0  0
  140.7052  137.2319  153.5375 C   0  0  0  0  0  0  0  0  0  0  0  0
  141.8597  136.6151  153.1444 C   0  0  0  0  0  0  0  0  0  0  0  0
  141.6209  135.2532  153.4687 C   0  0  0  0  0  0  0  0  0  0  0  0
  142.6007  134.2611  153.2095 N   0  0  0  0  0  0  0  0  0  0  0  0
  143.5944  134.3072  152.3060 C   0  0  0  0  0  0  0  0  0  0  0  0
  143.8072  135.2411  151.5321 O   0  0  0  0  0  0  0  0  0  0  0  0
  144.3381  133.1921  152.3449 N   0  0  0  0  0  0  0  0  0  0  0  0
  145.4921  132.9112  151.4919 C   0  0  2  0  0  0  0  0  0  0  0  0
  145.1799  131.7978  150.4699 C   0  0  0  0  0  0  0  0  0  0  0  0
  145.0254  130.4205  151.1387 C   0  0  0  0  0  0  0  0  0  0  0  0
  146.2647  130.0538  151.9774 C   0  0  2  0  0  0  0  0  0  0  0  0
  146.1053  128.6806  152.6450 C   0  0  0  0  0  0  0  0  0  0  0  0
  146.5571  131.1537  153.0157 C   0  0  0  0  0  0  0  0  0  0  0  0
  146.7127  132.5349  152.3538 C   0  0  0  0  0  0  0  0  0  0  0  0
  140.4284  135.0560  154.0099 N   0  0  0  0  0  0  0  0  0  0  0  0
  139.8353  136.3232  154.0563 O   0  0  0  0  0  0  0  0  0  0  0  0
  141.0931  139.3266  153.3608 H   0  0  0  0  0  0  0  0  0  0  0  0
  139.7490  138.9224  154.4291 H   0  0  0  0  0  0  0  0  0  0  0  0
  139.5499  138.8088  152.6789 H   0  0  0  0  0  0  0  0  0  0  0  0
  142.7323  137.0681  152.6977 H   0  0  0  0  0  0  0  0  0  0  0  0
  142.5392  133.4270  153.7742 H   0  0  0  0  0  0  0  0  0  0  0  0
  144.0874  132.4779  153.0125 H   0  0  0  0  0  0  0  0  0  0  0  0
  145.7393  133.8241  150.9467 H   0  0  0  0  0  0  0  0  0  0  0  0
  144.2809  132.0403  149.9022 H   0  0  0  0  0  0  0  0  0  0  0  0
  145.9896  131.7480  149.7406 H   0  0  0  0  0  0  0  0  0  0  0  0
  144.1364  130.4181  151.7707 H   0  0  0  0  0  0  0  0  0  0  0  0
  144.8573  129.6628  150.3726 H   0  0  0  0  0  0  0  0  0  0  0  0
  147.1201  129.9931  151.3029 H   0  0  0  0  0  0  0  0  0  0  0  0
  145.2623  128.6713  153.3367 H   0  0  0  0  0  0  0  0  0  0  0  0
  147.0000  128.4110  153.2069 H   0  0  0  0  0  0  0  0  0  0  0  0
  145.9356  127.9003  151.9025 H   0  0  0  0  0  0  0  0  0  0  0  0
  145.7540  131.1885  153.7529 H   0  0  0  0  0  0  0  0  0  0  0  0
  147.4666  130.9120  153.5667 H   0  0  0  0  0  0  0  0  0  0  0  0
  147.6038  132.5274  151.7247 H   0  0  0  0  0  0  0  0  0  0  0  0
  146.8873  133.2967  153.1144 H   0  0  0  0  0  0  0  0  0  0  0  0
  1  2  1  0  0  0  0
  1 18  1  0  0  0  0
  1 19  1  0  0  0  0
  1 20  1  0  0  0  0
  2 17  1  0  0  0  0
  2  3  2  0  0  0  0
  3  4  1  0  0  0  0
  3 21  1  0  0  0  0
  4  5  1  0  0  0  0
  4 16  2  0  0  0  0
  5  6  1  0  0  0  0
  5 22  1  0  0  0  0
  6  7  2  0  0  0  0
  6  8  1  0  0  0  0
  8  9  1  0  0  0  0
  8 23  1  0  0  0  0
  9 15  1  0  0  0  0
  9 10  1  0  0  0  0
  9 24  1  0  0  0  0
 10 11  1  0  0  0  0
 10 25  1  0  0  0  0
 10 26  1  0  0  0  0
 11 12  1  0  0  0  0
 11 27  1  0  0  0  0
 11 28  1  0  0  0  0
 12 13  1  0  0  0  0
 12 14  1  0  0  0  0
 12 29  1  0  0  0  0
 13 30  1  0  0  0  0
 13 31  1  0  0  0  0
 13 32  1  0  0  0  0
 14 15  1  0  0  0  0
 14 33  1  0  0  0  0
 14 34  1  0  0  0  0
 15 35  1  0  0  0  0
 15 36  1  0  0  0  0
 16 17  1  0  0  0  0
M  END
> <s_m_source_file>
AV-unprocessed.smi

> <i_m_source_file_index>
580

> <i_lp_mmshare_version>
43012

> <i_f3d_flags>
0

> <s_epik_input>
W0NIM11jMVtjSF1jKG5vMSlbTkhdQyg9TylbTkhdW0NAQEhdMltDSDJdW0NIMl1bQ0BASF0oW0NIM10pW0NIMl1bQ0gyXTI=

> <s_epik_cmdline>
J2VwaWtfcHl0aG9uJywgJy1waCcsICc3LjAnLCAnLXRuJywgJzgnLCAnLW1hJywgJzIwMCcsICctbWV0YWxfYmluZGluZycsICctaW1hZScsICc8aW5maWxlLm1hZT4nLCAnLW9tYWUnLCAnPG91dGZpbGUubWFlPic=

> <r_lp_tautomer_probability>
1

> <r_epik_Ionization_Penalty>
2.357e-05

> <r_epik_Ionization_Penalty_Charging>
0

> <r_epik_Ionization_Penalty_Neutral>
2.357e-05

> <r_epik_State_Penalty>
-0

> <r_epik_Charging_Adjusted_Penalty>
0

> <i_epik_Tot_Q>
0

> <i_epik_Tot_abs_Q>
0

> <r_epik_Metal_State_Penalty>
-0

> <b_epik_Metal_Only>
0

> <s_lp_Force_Field>
OPLS_2005

> <r_lp_Energy>
6.11035

> <b_lp_Chiralities_Consistent>
1

> <s_lp_Variant>
AV-unprocessed.smi:580-2

> <Gold.Version>
5.8.1

> <Gold.Id.Protein>
6NUR|6NUR_protein|mol2

> <Gold.PLP.Fitness>
38.9040

> <Gold.PLP.PLP>
-32.9175

> <Gold.PLP.part.hbond>
-3.1779

> <Gold.PLP.part.metal>
0.0000

> <Gold.PLP.part.buried>
-7.4945

> <Gold.PLP.part.nonpolar>
-22.1937

> <Gold.PLP.part.repulsive>
0.4782

> <Gold.PLP.ligand.clash>
0.0000

> <Gold.PLP.ligand.torsion>
0.1912

> <Gold.PLP.Chemscore.Hbond>
2.1209

> <Gold.PLP.Chemscore.CHOScore>
0.0000

> <Gold.PLP.Chemscore.Metal>
0.0000

> <Gold.Chemscore.Hbonds>
donor molecule, donor type, donor heavy atom, donor atom, acceptor molecule, acceptor atom, score
      L1  H     5    22       P1 10957  1.00
      L1  H     8    23       P1 10957  0.13
      P1  H 11000 11005       L1    16  1.00

> <Gold.PLP.Chemscore.Internal.Correction>
0.0061

> <Gold.Rescore>
     Score         DG    S(hbond)    S(metal)    S(lipo)     H(rot)  DE(clash)    DE(int)     intcor
     16.37     -17.95       2.01        0.00      71.18       1.00       0.03       1.56       ----

> <Gold.Chemscore.Fitness>
16.3693

> <Gold.Chemscore.DG>
-17.9548

> <Gold.Chemscore.ZeroCoef>
-5.4800

> <Gold.Chemscore.Hbond>
2.0080

> <Gold.Chemscore.Metal>
0.0000

> <Gold.Chemscore.Lipo>
71.1805

> <Gold.Chemscore.Internal_Hbond>
0.0000

> <Gold.Chemscore.DEClash>
0.0279

> <Gold.Chemscore.DEInternal>
1.5576

> <Gold.Chemscore.Rot>
1.0000

> <Gold.Chemscore.Internal.Correction>
   9.000000E+99

> <Gold.Chemscore.Hbonds>
donor molecule, donor type, donor heavy atom, donor atom, acceptor molecule, acceptor atom, score
      L1  H     5    22       P1 10957  0.99
      L1  H     8    23       P1 10957  0.02
      P1  H 11000 11005       L1    16  0.59

> <Gold.Chemscore.Hbond.Weighted>
-6.7067

> <Gold.Chemscore.Metal.Weighted>
-0.0000

> <Gold.Chemscore.Lipo.Weighted>
-8.3281

> <Gold.Chemscore.Internal_Hbond.Weighted>
0.0000

> <Gold.Chemscore.DEClash.Weighted>
0.0279

> <Gold.Chemscore.DEInternal.Weighted>
1.5576

> <Gold.Chemscore.Rot.Weighted>
2.5600

> <Gold.Chemscore.Internal.Correction.Weighted>
   9.000000E+99

> <Gold.Protein.RotatedTorsions>
[ 6907 6896 6895 6894 ] final  -19.33 input  -60.11 | X-H torsion
[ 7974 7965 7964 7962 ] final -125.23 input  175.53 | X-H torsion
[ 8008 7997 7996 7995 ] final   19.19 input   59.86 | X-H torsion
[ 10167 10162 10161 10158 ] final -115.64 input  -65.29 | X-H torsion
[ 10718 10713 10712 10709 ] final   31.78 input   66.30 | X-H torsion
[ 10763 10752 10751 10750 ] final  106.81 input  -60.55 | X-H torsion
[ 11005 11000 10999 10996 ] final   31.07 input  -57.11 | X-H torsion

> <Gold.Protein.ActiveResidues>
 VAL166  LYS551  ARG553  GLY616  TRP617  ASP618  TYR619  PRO620  LYS621  CYS622 
 ASP623  PHE694  ASN695  SER759  ASP760  ASP761  ALA762  ILE779  LEU786  VAL792 
 PHE793  MET794  SER795  GLU796  ALA797  LYS798  CYS799  TRP800  GLU811  SER814 

> <Gold.Protein.RotatedAtoms>
  151.2647  135.0665  159.9111 H   0  0  0  0  0  0  0  0  0  0  0  0  # atno 6907 bound_to 6896
  152.5360  134.0194  159.7985 H   0  0  0  0  0  0  0  0  0  0  0  0  # atno 6908 bound_to 6896
  151.0422  133.5646  159.2681 H   0  0  0  0  0  0  0  0  0  0  0  0  # atno 6909 bound_to 6896
  144.9998  140.7810  143.4503 H   0  0  0  0  0  0  0  0  0  0  0  0  # atno 7974 bound_to 7965
  154.9172  140.3022  155.5235 H   0  0  0  0  0  0  0  0  0  0  0  0  # atno 8008 bound_to 7997
  156.3012  140.2378  156.4153 H   0  0  0  0  0  0  0  0  0  0  0  0  # atno 8009 bound_to 7997
  154.8367  140.0416  157.1502 H   0  0  0  0  0  0  0  0  0  0  0  0  # atno 8010 bound_to 7997
  140.0879  143.4727  152.1887 H   0  0  0  0  0  0  0  0  0  0  0  0  # atno 10167 bound_to 10162
  157.2769  130.7235  149.6535 H   0  0  0  0  0  0  0  0  0  0  0  0  # atno 10718 bound_to 10713
  153.3980  135.3865  155.1968 H   0  0  0  0  0  0  0  0  0  0  0  0  # atno 10763 bound_to 10752
  154.8726  135.3764  154.4654 H   0  0  0  0  0  0  0  0  0  0  0  0  # atno 10764 bound_to 10752
  153.5148  135.7087  153.5824 H   0  0  0  0  0  0  0  0  0  0  0  0  # atno 10765 bound_to 10752
  140.2878  134.2899  155.7784 H   0  0  0  0  0  0  0  0  0  0  0  0  # atno 11005 bound_to 11000
  145.2169  139.2177  143.5113 LP  0  0  0  0  0  0  0  0  0  0  0  0  # atno 17320 bound_to 7965
  146.3449  140.2019  142.8589 LP  0  0  0  0  0  0  0  0  0  0  0  0  # atno 17321 bound_to 7965
  139.5742  144.7478  151.3810 LP  0  0  0  0  0  0  0  0  0  0  0  0  # atno 17342 bound_to 10162
  140.7044  143.7551  150.7457 LP  0  0  0  0  0  0  0  0  0  0  0  0  # atno 17343 bound_to 10162
  155.9664  130.4350  150.5073 LP  0  0  0  0  0  0  0  0  0  0  0  0  # atno 17370 bound_to 10713
  157.3009  131.0645  151.2069 LP  0  0  0  0  0  0  0  0  0  0  0  0  # atno 17371 bound_to 10713
  141.2152  133.7565  156.9578 LP  0  0  0  0  0  0  0  0  0  0  0  0  # atno 17394 bound_to 11000
  140.1224  134.9408  157.2222 LP  0  0  0  0  0  0  0  0  0  0  0  0  # atno 17395 bound_to 11000

$$$$
