AV-unprocessed.smi:3233|AV-procd|sdf|12347|dock2
  -GOLD-   2272018213D 1   1.00000     0.00000
 Structure written by MMmdl.
 36 37  0  0  0  0  0  0  0  0  1 V2000
  151.7144  145.4102  159.8933 C   0  0  0  0  0  0  0  0  0  0  0  0
  152.0483  143.9893  159.7663 N   0  0  0  0  0  0  0  0  0  0  0  0
  152.7013  143.3758  160.8485 C   0  0  0  0  0  0  0  0  0  0  0  0
  153.0419  142.0800  160.8210 C   0  0  0  0  0  0  0  0  0  0  0  0
  152.7220  141.3107  159.6426 C   0  0  0  0  0  0  0  0  0  0  0  0
  152.0961  141.8839  158.5834 C   0  0  0  0  0  0  0  0  0  0  0  0
  151.7393  141.2142  157.3994 N   0  0  0  0  0  0  0  0  0  0  0  0
  152.1881  140.0482  156.8921 C   0  0  0  0  0  0  0  0  0  0  0  0
  153.0495  139.3322  157.4001 O   0  0  0  0  0  0  0  0  0  0  0  0
  151.5439  139.6122  155.5767 C   0  0  0  0  0  0  0  0  0  0  0  0
  150.7038  140.6548  155.1002 O   0  0  0  0  0  0  0  0  0  0  0  0
  149.3419  140.2759  154.9665 C   0  0  0  0  0  0  0  0  0  0  0  0
  149.1438  139.0126  154.1225 C   0  0  0  0  0  0  0  0  0  0  0  0
  147.7271  139.1305  153.5447 C   0  0  0  0  0  0  0  0  0  0  0  0
  147.3242  140.6076  153.6793 C   0  0  0  0  0  0  0  0  0  0  0  0
  148.5670  141.3397  154.1921 C   0  0  0  0  0  0  0  0  0  0  0  0
  151.7192  143.3108  158.6268 C   0  0  0  0  0  0  0  0  0  0  0  0
  151.1390  143.8739  157.6951 O   0  0  0  0  0  0  0  0  0  0  0  0
  152.0726  145.8462  160.8265 H   0  0  0  0  0  0  0  0  0  0  0  0
  150.6332  145.5518  159.8609 H   0  0  0  0  0  0  0  0  0  0  0  0
  152.1573  145.9846  159.0784 H   0  0  0  0  0  0  0  0  0  0  0  0
  152.9050  144.0173  161.6935 H   0  0  0  0  0  0  0  0  0  0  0  0
  153.5435  141.6217  161.6606 H   0  0  0  0  0  0  0  0  0  0  0  0
  152.9925  140.2681  159.6537 H   0  0  0  0  0  0  0  0  0  0  0  0
  151.0596  141.7033  156.8341 H   0  0  0  0  0  0  0  0  0  0  0  0
  152.3222  139.3805  154.8482 H   0  0  0  0  0  0  0  0  0  0  0  0
  150.9660  138.7034  155.7500 H   0  0  0  0  0  0  0  0  0  0  0  0
  148.8792  140.1489  155.9472 H   0  0  0  0  0  0  0  0  0  0  0  0
  149.8663  139.0024  153.3051 H   0  0  0  0  0  0  0  0  0  0  0  0
  149.2838  138.0964  154.6974 H   0  0  0  0  0  0  0  0  0  0  0  0
  147.7027  138.8005  152.5056 H   0  0  0  0  0  0  0  0  0  0  0  0
  147.0314  138.5019  154.1016 H   0  0  0  0  0  0  0  0  0  0  0  0
  146.9663  141.0262  152.7381 H   0  0  0  0  0  0  0  0  0  0  0  0
  146.5162  140.7005  154.4060 H   0  0  0  0  0  0  0  0  0  0  0  0
  148.3226  142.2100  154.8018 H   0  0  0  0  0  0  0  0  0  0  0  0
  149.1611  141.6848  153.3444 H   0  0  0  0  0  0  0  0  0  0  0  0
  1  2  1  0  0  0  0
  1 19  1  0  0  0  0
  1 20  1  0  0  0  0
  1 21  1  0  0  0  0
  2 17  1  0  0  0  0
  2  3  1  0  0  0  0
  3  4  2  0  0  0  0
  3 22  1  0  0  0  0
  4  5  1  0  0  0  0
  4 23  1  0  0  0  0
  5  6  2  0  0  0  0
  5 24  1  0  0  0  0
  6  7  1  0  0  0  0
  6 17  1  0  0  0  0
  7  8  1  0  0  0  0
  7 25  1  0  0  0  0
  8  9  2  0  0  0  0
  8 10  1  0  0  0  0
 10 11  1  0  0  0  0
 10 26  1  0  0  0  0
 10 27  1  0  0  0  0
 11 12  1  0  0  0  0
 12 16  1  0  0  0  0
 12 13  1  0  0  0  0
 12 28  1  0  0  0  0
 13 14  1  0  0  0  0
 13 29  1  0  0  0  0
 13 30  1  0  0  0  0
 14 15  1  0  0  0  0
 14 31  1  0  0  0  0
 14 32  1  0  0  0  0
 15 16  1  0  0  0  0
 15 33  1  0  0  0  0
 15 34  1  0  0  0  0
 16 35  1  0  0  0  0
 16 36  1  0  0  0  0
 17 18  2  0  0  0  0
M  END
> <s_m_source_file>
AV-unprocessed.smi

> <i_m_source_file_index>
3233

> <i_lp_mmshare_version>
43012

> <i_f3d_flags>
0

> <s_epik_input>
W0NIM11uMVtjSF1bY0hdW2NIXWMoYzE9TylbTkhdQyg9TylbQ0gyXU9bQ0hdMltDSDJdW0NIMl1bQ0gyXVtDSDJdMg==

> <s_epik_cmdline>
J2VwaWtfcHl0aG9uJywgJy1waCcsICc3LjAnLCAnLXRuJywgJzgnLCAnLW1hJywgJzIwMCcsICctbWV0YWxfYmluZGluZycsICctaW1hZScsICc8aW5maWxlLm1hZT4nLCAnLW9tYWUnLCAnPG91dGZpbGUubWFlPic=

> <r_lp_tautomer_probability>
1

> <r_epik_Ionization_Penalty>
8.96518e-07

> <r_epik_Ionization_Penalty_Charging>
8.5061e-07

> <r_epik_Ionization_Penalty_Neutral>
4.59088e-08

> <r_epik_State_Penalty>
-0

> <r_epik_Charging_Adjusted_Penalty>
8.5061e-07

> <i_epik_Tot_Q>
0

> <i_epik_Tot_abs_Q>
0

> <r_epik_Metal_State_Penalty>
-0

> <b_epik_Metal_Only>
0

> <s_lp_Force_Field>
OPLS_2005

> <r_lp_Energy>
37.0761

> <b_lp_Chiralities_Consistent>
1

> <s_lp_Variant>
AV-unprocessed.smi:3233-1

> <Gold.Version>
5.8.1

> <Gold.Id.Protein>
6NUR|6NUR_protein|mol2

> <Gold.PLP.Fitness>
47.0414

> <Gold.PLP.PLP>
-42.2044

> <Gold.PLP.part.hbond>
-2.0000

> <Gold.PLP.part.metal>
0.0000

> <Gold.PLP.part.buried>
-1.9643

> <Gold.PLP.part.nonpolar>
-37.5140

> <Gold.PLP.part.repulsive>
0.3069

> <Gold.PLP.ligand.clash>
0.0000

> <Gold.PLP.ligand.torsion>
0.5388

> <Gold.PLP.Chemscore.Hbond>
1.9600

> <Gold.PLP.Chemscore.CHOScore>
0.0000

> <Gold.PLP.Chemscore.Metal>
0.0000

> <Gold.Chemscore.Hbonds>
donor molecule, donor type, donor heavy atom, donor atom, acceptor molecule, acceptor atom, score
      P1  H  7989  7998       L1    11  0.70
      P1  H  7997  8010       L1     9  1.00

> <Gold.PLP.Chemscore.Internal.Correction>
0.0345

> <Gold.Rescore>
     Score         DG    S(hbond)    S(metal)    S(lipo)     H(rot)  DE(clash)    DE(int)     intcor
     13.94     -16.55       1.10        0.00      93.99       1.40       0.95       1.66       ----

> <Gold.Chemscore.Fitness>
13.9426

> <Gold.Chemscore.DG>
-16.5528

> <Gold.Chemscore.ZeroCoef>
-5.4800

> <Gold.Chemscore.Hbond>
1.0978

> <Gold.Chemscore.Metal>
0.0000

> <Gold.Chemscore.Lipo>
93.9913

> <Gold.Chemscore.Internal_Hbond>
0.0000

> <Gold.Chemscore.DEClash>
0.9500

> <Gold.Chemscore.DEInternal>
1.6603

> <Gold.Chemscore.Rot>
1.4027

> <Gold.Chemscore.Internal.Correction>
   9.000000E+99

> <Gold.Chemscore.Hbonds>
donor molecule, donor type, donor heavy atom, donor atom, acceptor molecule, acceptor atom, score
      P1  H  7989  7998       L1    11  0.08
      P1  H  7997  8010       L1     9  0.62

> <Gold.Chemscore.Hbond.Weighted>
-3.6668

> <Gold.Chemscore.Metal.Weighted>
-0.0000

> <Gold.Chemscore.Lipo.Weighted>
-10.9970

> <Gold.Chemscore.Internal_Hbond.Weighted>
0.0000

> <Gold.Chemscore.DEClash.Weighted>
0.9500

> <Gold.Chemscore.DEInternal.Weighted>
1.6603

> <Gold.Chemscore.Rot.Weighted>
3.5909

> <Gold.Chemscore.Internal.Correction.Weighted>
   9.000000E+99

> <Gold.Protein.RotatedTorsions>
[ 6907 6896 6895 6894 ] final  127.99 input  -60.11 | X-H torsion
[ 7974 7965 7964 7962 ] final   87.62 input  175.53 | X-H torsion
[ 8008 7997 7996 7995 ] final   30.40 input   59.86 | X-H torsion
[ 10167 10162 10161 10158 ] final -124.79 input  -65.29 | X-H torsion
[ 10718 10713 10712 10709 ] final  175.41 input   66.30 | X-H torsion
[ 10763 10752 10751 10750 ] final  173.28 input  -60.55 | X-H torsion
[ 11005 11000 10999 10996 ] final  -94.71 input  -57.11 | X-H torsion

> <Gold.Protein.ActiveResidues>
 VAL166  LYS551  ARG553  GLY616  TRP617  ASP618  TYR619  PRO620  LYS621  CYS622 
 ASP623  PHE694  ASN695  SER759  ASP760  ASP761  ALA762  ILE779  LEU786  VAL792 
 PHE793  MET794  SER795  GLU796  ALA797  LYS798  CYS799  TRP800  GLU811  SER814 

> <Gold.Protein.RotatedAtoms>
  152.3761  133.6483  159.6124 H   0  0  0  0  0  0  0  0  0  0  0  0  # atno 6907 bound_to 6896
  150.7705  133.9191  159.3401 H   0  0  0  0  0  0  0  0  0  0  0  0  # atno 6908 bound_to 6896
  151.7005  135.0932  160.0301 H   0  0  0  0  0  0  0  0  0  0  0  0  # atno 6909 bound_to 6896
  145.5566  139.2300  143.2483 H   0  0  0  0  0  0  0  0  0  0  0  0  # atno 7974 bound_to 7965
  155.0898  140.3219  155.4577 H   0  0  0  0  0  0  0  0  0  0  0  0  # atno 8008 bound_to 7997
  156.2745  140.2080  156.5972 H   0  0  0  0  0  0  0  0  0  0  0  0  # atno 8009 bound_to 7997
  154.6912  140.0516  157.0352 H   0  0  0  0  0  0  0  0  0  0  0  0  # atno 8010 bound_to 7997
  139.9890  143.5661  152.2349 H   0  0  0  0  0  0  0  0  0  0  0  0  # atno 10167 bound_to 10162
  156.9353  130.9984  151.2979 H   0  0  0  0  0  0  0  0  0  0  0  0  # atno 10718 bound_to 10713
  154.4378  135.2761  155.1868 H   0  0  0  0  0  0  0  0  0  0  0  0  # atno 10763 bound_to 10752
  154.3747  135.6101  153.5762 H   0  0  0  0  0  0  0  0  0  0  0  0  # atno 10764 bound_to 10752
  152.9839  135.5866  154.4700 H   0  0  0  0  0  0  0  0  0  0  0  0  # atno 10765 bound_to 10752
  141.1463  133.7975  157.0335 H   0  0  0  0  0  0  0  0  0  0  0  0  # atno 11005 bound_to 11000
  146.1880  140.6390  142.9158 LP  0  0  0  0  0  0  0  0  0  0  0  0  # atno 17320 bound_to 7965
  144.7503  140.5174  143.6806 LP  0  0  0  0  0  0  0  0  0  0  0  0  # atno 17321 bound_to 7965
  139.6354  144.7649  151.2450 LP  0  0  0  0  0  0  0  0  0  0  0  0  # atno 17342 bound_to 10162
  140.7461  143.6408  150.8336 LP  0  0  0  0  0  0  0  0  0  0  0  0  # atno 17343 bound_to 10162
  157.5820  130.8383  149.8536 LP  0  0  0  0  0  0  0  0  0  0  0  0  # atno 17370 bound_to 10713
  156.0429  130.3735  150.1391 LP  0  0  0  0  0  0  0  0  0  0  0  0  # atno 17371 bound_to 10713
  140.0739  134.9687  157.1513 LP  0  0  0  0  0  0  0  0  0  0  0  0  # atno 17394 bound_to 11000
  140.3672  134.2430  155.7181 LP  0  0  0  0  0  0  0  0  0  0  0  0  # atno 17395 bound_to 11000

$$$$
