AV-unprocessed.smi:2111|AV-procd|sdf|8612|dock3
  -GOLD-   2272011353D 1   1.00000     0.00000
 Structure written by MMmdl.
 28 29  0  0  0  0  0  0  0  0  1 V2000
  146.7911  141.8322  153.9559 C   0  0  0  0  0  0  0  0  0  0  0  0
  147.9882  141.9664  154.7146 O   0  0  0  0  0  0  0  0  0  0  0  0
  148.8710  140.9034  154.7492 C   0  0  0  0  0  0  0  0  0  0  0  0
  148.5254  139.7596  154.1067 N   0  0  0  0  0  0  0  0  0  0  0  0
  149.3832  138.7199  154.1386 C   0  0  0  0  0  0  0  0  0  0  0  0
  150.6192  138.7632  154.8080 C   0  0  0  0  0  0  0  0  0  0  0  0
  150.9805  139.9480  155.4756 C   0  0  0  0  0  0  0  0  0  0  0  0
  150.0921  141.0522  155.4492 C   0  0  0  0  0  0  0  0  0  0  0  0
  150.3384  142.3031  156.0854 N   0  0  0  0  0  0  0  0  0  0  0  0
  151.1352  142.6005  157.1268 C   0  0  0  0  0  0  0  0  0  0  0  0
  151.8307  141.8002  157.7508 O   0  0  0  0  0  0  0  0  0  0  0  0
  151.0816  143.9092  157.4101 N   0  0  0  0  0  0  0  0  0  0  0  0
  151.7962  144.5599  158.4608 C   0  0  0  0  0  0  0  0  0  0  0  0
  151.7225  143.9476  159.8429 C   0  0  0  0  0  0  0  0  0  0  0  0
  150.9902  145.2285  159.5535 C   0  0  0  0  0  0  0  0  0  0  0  0
  146.2115  142.7519  154.0315 H   0  0  0  0  0  0  0  0  0  0  0  0
  146.1697  141.0180  154.3317 H   0  0  0  0  0  0  0  0  0  0  0  0
  147.0044  141.6625  152.8996 H   0  0  0  0  0  0  0  0  0  0  0  0
  149.0745  137.8265  153.6165 H   0  0  0  0  0  0  0  0  0  0  0  0
  151.2759  137.9059  154.8108 H   0  0  0  0  0  0  0  0  0  0  0  0
  151.9271  139.9717  155.9898 H   0  0  0  0  0  0  0  0  0  0  0  0
  149.8433  143.0841  155.6802 H   0  0  0  0  0  0  0  0  0  0  0  0
  150.4855  144.4920  156.8407 H   0  0  0  0  0  0  0  0  0  0  0  0
  152.7399  145.0381  158.2022 H   0  0  0  0  0  0  0  0  0  0  0  0
  151.1263  143.0458  159.9696 H   0  0  0  0  0  0  0  0  0  0  0  0
  152.6126  144.0077  160.4660 H   0  0  0  0  0  0  0  0  0  0  0  0
  151.3916  146.1448  159.9819 H   0  0  0  0  0  0  0  0  0  0  0  0
  149.9048  145.1823  159.4883 H   0  0  0  0  0  0  0  0  0  0  0  0
  1  2  1  0  0  0  0
  1 16  1  0  0  0  0
  1 17  1  0  0  0  0
  1 18  1  0  0  0  0
  2  3  1  0  0  0  0
  3  8  1  0  0  0  0
  3  4  2  0  0  0  0
  4  5  1  0  0  0  0
  5  6  2  0  0  0  0
  5 19  1  0  0  0  0
  6  7  1  0  0  0  0
  6 20  1  0  0  0  0
  7  8  2  0  0  0  0
  7 21  1  0  0  0  0
  8  9  1  0  0  0  0
  9 10  1  0  0  0  0
  9 22  1  0  0  0  0
 10 11  2  0  0  0  0
 10 12  1  0  0  0  0
 12 13  1  0  0  0  0
 12 23  1  0  0  0  0
 13 15  1  0  0  0  0
 13 14  1  0  0  0  0
 13 24  1  0  0  0  0
 14 15  1  0  0  0  0
 14 25  1  0  0  0  0
 14 26  1  0  0  0  0
 15 27  1  0  0  0  0
 15 28  1  0  0  0  0
M  END
> <s_m_source_file>
AV-unprocessed.smi

> <i_m_source_file_index>
2111

> <i_lp_mmshare_version>
43012

> <i_f3d_flags>
0

> <s_epik_input>
W0NIM11PYzFuW2NIXVtjSF1bY0hdYzFbTkhdQyg9TylbTkhdW0NIXTJbQ0gyXVtDSDJdMg==

> <s_epik_cmdline>
J2VwaWtfcHl0aG9uJywgJy1waCcsICc3LjAnLCAnLXRuJywgJzgnLCAnLW1hJywgJzIwMCcsICctbWV0YWxfYmluZGluZycsICctaW1hZScsICc8aW5maWxlLm1hZT4nLCAnLW9tYWUnLCAnPG91dGZpbGUubWFlPic=

> <r_lp_tautomer_probability>
1

> <r_epik_Ionization_Penalty>
0.000100745

> <r_epik_Ionization_Penalty_Charging>
0

> <r_epik_Ionization_Penalty_Neutral>
0.000100745

> <r_epik_State_Penalty>
-0

> <r_epik_Charging_Adjusted_Penalty>
0

> <i_epik_Tot_Q>
0

> <i_epik_Tot_abs_Q>
0

> <r_epik_Metal_State_Penalty>
-0

> <b_epik_Metal_Only>
0

> <s_lp_Force_Field>
OPLS_2005

> <r_lp_Energy>
18.5112

> <b_lp_Chiralities_Consistent>
1

> <s_lp_Variant>
AV-unprocessed.smi:2111-1

> <Gold.Version>
5.8.1

> <Gold.Id.Protein>
6NUR|6NUR_protein|mol2

> <Gold.PLP.Fitness>
42.9352

> <Gold.PLP.PLP>
-34.2714

> <Gold.PLP.part.hbond>
-2.0000

> <Gold.PLP.part.metal>
0.0000

> <Gold.PLP.part.buried>
-4.7379

> <Gold.PLP.part.nonpolar>
-28.4915

> <Gold.PLP.part.repulsive>
1.3546

> <Gold.PLP.ligand.clash>
0.0000

> <Gold.PLP.ligand.torsion>
0.1858

> <Gold.PLP.Chemscore.Hbond>
2.0000

> <Gold.PLP.Chemscore.CHOScore>
1.0000

> <Gold.PLP.Chemscore.Metal>
0.0000

> <Gold.Chemscore.Hbonds>
donor molecule, donor type, donor heavy atom, donor atom, acceptor molecule, acceptor atom, score
      L1  H     9    22       P1  8028  1.00
      L1  H    12    23       P1  8028  1.00
      L1  C     5    19       P1  7948  1.00

> <Gold.PLP.Chemscore.Internal.Correction>
0.0354

> <Gold.Rescore>
     Score         DG    S(hbond)    S(metal)    S(lipo)     H(rot)  DE(clash)    DE(int)     intcor
     15.87     -16.79       1.88        0.00      70.33       1.25       0.05       0.88       ----

> <Gold.Chemscore.Fitness>
15.8695

> <Gold.Chemscore.DG>
-16.7927

> <Gold.Chemscore.ZeroCoef>
-5.4800

> <Gold.Chemscore.Hbond>
1.8809

> <Gold.Chemscore.Metal>
0.0000

> <Gold.Chemscore.Lipo>
70.3343

> <Gold.Chemscore.Internal_Hbond>
0.0000

> <Gold.Chemscore.DEClash>
0.0482

> <Gold.Chemscore.DEInternal>
0.8751

> <Gold.Chemscore.Rot>
1.2495

> <Gold.Chemscore.Internal.Correction>
   9.000000E+99

> <Gold.Chemscore.Hbonds>
donor molecule, donor type, donor heavy atom, donor atom, acceptor molecule, acceptor atom, score
      L1  H     9    22       P1  8028  0.99
      L1  H    12    23       P1  8028  0.86

> <Gold.Chemscore.Hbond.Weighted>
-6.2822

> <Gold.Chemscore.Metal.Weighted>
-0.0000

> <Gold.Chemscore.Lipo.Weighted>
-8.2291

> <Gold.Chemscore.Internal_Hbond.Weighted>
0.0000

> <Gold.Chemscore.DEClash.Weighted>
0.0482

> <Gold.Chemscore.DEInternal.Weighted>
0.8751

> <Gold.Chemscore.Rot.Weighted>
3.1986

> <Gold.Chemscore.Internal.Correction.Weighted>
   9.000000E+99

> <Gold.Protein.RotatedTorsions>
[ 6907 6896 6895 6894 ] final  -22.69 input  -60.11 | X-H torsion
[ 7974 7965 7964 7962 ] final   64.25 input  175.53 | X-H torsion
[ 8008 7997 7996 7995 ] final  -63.97 input   59.86 | X-H torsion
[ 10167 10162 10161 10158 ] final   19.40 input  -65.29 | X-H torsion
[ 10718 10713 10712 10709 ] final   -0.92 input   66.30 | X-H torsion
[ 10763 10752 10751 10750 ] final  163.86 input  -60.55 | X-H torsion
[ 11005 11000 10999 10996 ] final  -11.18 input  -57.11 | X-H torsion

> <Gold.Protein.ActiveResidues>
 VAL166  LYS551  ARG553  GLY616  TRP617  ASP618  TYR619  PRO620  LYS621  CYS622 
 ASP623  PHE694  ASN695  SER759  ASP760  ASP761  ALA762  ILE779  LEU786  VAL792 
 PHE793  MET794  SER795  GLU796  ALA797  LYS798  CYS799  TRP800  GLU811  SER814 

> <Gold.Protein.RotatedAtoms>
  151.2149  135.0496  159.8925 H   0  0  0  0  0  0  0  0  0  0  0  0  # atno 6907 bound_to 6896
  152.5421  134.0704  159.8201 H   0  0  0  0  0  0  0  0  0  0  0  0  # atno 6908 bound_to 6896
  151.0862  133.5303  159.2649 H   0  0  0  0  0  0  0  0  0  0  0  0  # atno 6909 bound_to 6896
  145.8523  139.3262  143.0868 H   0  0  0  0  0  0  0  0  0  0  0  0  # atno 7974 bound_to 7965
  154.4584  140.0963  156.6824 H   0  0  0  0  0  0  0  0  0  0  0  0  # atno 8008 bound_to 7997
  155.5067  140.3475  155.4362 H   0  0  0  0  0  0  0  0  0  0  0  0  # atno 8009 bound_to 7997
  156.0823  140.1376  156.9685 H   0  0  0  0  0  0  0  0  0  0  0  0  # atno 8010 bound_to 7997
  140.5582  143.9386  150.6624 H   0  0  0  0  0  0  0  0  0  0  0  0  # atno 10167 bound_to 10162
  156.8133  130.5432  149.5706 H   0  0  0  0  0  0  0  0  0  0  0  0  # atno 10718 bound_to 10713
  154.3001  135.2759  155.2615 H   0  0  0  0  0  0  0  0  0  0  0  0  # atno 10763 bound_to 10752
  154.5056  135.5796  153.6568 H   0  0  0  0  0  0  0  0  0  0  0  0  # atno 10764 bound_to 10752
  152.9902  135.6168  154.3171 H   0  0  0  0  0  0  0  0  0  0  0  0  # atno 10765 bound_to 10752
  140.7526  133.8580  155.9057 H   0  0  0  0  0  0  0  0  0  0  0  0  # atno 11005 bound_to 11000
  145.9343  140.9026  143.0340 LP  0  0  0  0  0  0  0  0  0  0  0  0  # atno 17320 bound_to 7965
  144.6729  140.1461  143.7433 LP  0  0  0  0  0  0  0  0  0  0  0  0  # atno 17321 bound_to 7965
  140.2830  143.3376  152.1134 LP  0  0  0  0  0  0  0  0  0  0  0  0  # atno 17342 bound_to 10162
  139.5058  144.6801  151.6030 LP  0  0  0  0  0  0  0  0  0  0  0  0  # atno 17343 bound_to 10162
  156.1032  130.5984  150.9928 LP  0  0  0  0  0  0  0  0  0  0  0  0  # atno 17370 bound_to 10713
  157.6495  131.0899  150.8082 LP  0  0  0  0  0  0  0  0  0  0  0  0  # atno 17371 bound_to 10713
  140.9737  134.1498  157.4555 LP  0  0  0  0  0  0  0  0  0  0  0  0  # atno 17394 bound_to 11000
  139.8785  134.9987  156.5915 LP  0  0  0  0  0  0  0  0  0  0  0  0  # atno 17395 bound_to 11000

$$$$
