#       Name:                AV-unprocessed.smi:644
#       Creating user name   scv26
#       Creation time:       Fri Mar 27 00:08:22 2020


#       File generated by GOLD software.
#

@<TRIPOS>MOLECULE
AV-unprocessed.smi:644
    42    44     1
SMALL
NO_CHARGES


@<TRIPOS>ATOM
      1 ****        -2.1744   4.2211  -2.6845 C.3            1 S1                 0.0000
      2 ****        -1.8347   3.1906  -1.6211 C.ar           1 S1                 0.0000
      3 ****        -1.9404   3.5636  -0.2619 C.ar           1 S1                 0.0000
      4 ****        -1.6211   2.5997   0.6872 C.ar           1 S1                 0.0000
      5 ****        -1.6209   2.6524   2.0831 N.pl3          1 S1                 1.0000
      6 ****        -1.2273   1.4482   2.5833 C.2            1 S1                 0.0000
      7 ****        -0.9776   0.6281   1.5267 N.pl3          1 S1                 0.0000
      8 ****        -0.5213  -0.7675   1.5005 C.3            1 S1                 0.0000
      9 ****         0.9918  -0.8944   1.2388 C.3            1 S1                 0.0000
     10 ****         1.7027  -0.2110   2.2536 O.3            1 S1                 0.0000
     11 ****         1.4472  -2.3614   1.1967 C.3            1 S1                 0.0000
     12 ****         3.1913  -2.5175   0.7020 S.3            1 S1                 0.0000
     13 ****         3.3645  -4.2733   0.7177 C.2            1 S1                 0.0000
     14 ****         2.4038  -5.1426   1.0636 N.2            1 S1                 0.0000
     15 ****         2.8293  -6.4616   0.9797 N.2            1 S1                 0.0000
     16 ****         4.0984  -6.5403   0.5725 C.2            1 S1                 0.0000
     17 ****         4.8936  -5.0102   0.2532 S.3            1 S1                 0.0000
     18 ****        -1.2098   1.3028   0.3242 C.ar           1 S1                 0.0000
     19 ****        -1.1008   0.9179  -1.0095 C.ar           1 S1                 0.0000
     20 ****        -1.4201   1.8843  -1.9900 C.ar           1 S1                 0.0000
     21 ****        -1.3092   1.4941  -3.4542 C.3            1 S1                 0.0000
     22 ****        -2.4701   5.1715  -2.2394 H              1 S1                 0.0000
     23 ****        -3.0003   3.8729  -3.3054 H              1 S1                 0.0000
     24 ****        -1.3129   4.4080  -3.3260 H              1 S1                 0.0000
     25 ****        -2.2543   4.5563   0.0263 H              1 S1                 0.0000
     26 ****        -1.1258   1.1915   3.6280 H              1 S1                 0.0000
     27 ****        -0.7792  -1.2152   2.4614 H              1 S1                 0.0000
     28 ****        -1.0967  -1.3034   0.7446 H              1 S1                 0.0000
     29 ****         1.2320  -0.4228   0.2853 H              1 S1                 0.0000
     30 ****         2.6279  -0.2928   2.0769 H              1 S1                 0.0000
     31 ****         1.3001  -2.8318   2.1699 H              1 S1                 0.0000
     32 ****         0.8383  -2.9105   0.4776 H              1 S1                 0.0000
     33 ****         4.5693  -7.5055   0.4596 H              1 S1                 0.0000
     34 ****        -0.7838  -0.0761  -1.2885 H              1 S1                 0.0000
     35 ****        -0.9691   0.4645  -3.5683 H              1 S1                 0.0000
     36 ****        -0.5966   2.1384  -3.9697 H              1 S1                 0.0000
     37 ****        -2.2771   1.5819  -3.9484 H              1 S1                 0.0000
     38 ****        -1.8675   3.4501   2.6549 H              1 S1                 0.0000
     39 ****         1.4920  -0.6146   3.1439 LP             1 S1                 0.0000
     40 ****         1.4434   0.7548   2.2557 LP             1 S1                 0.0000
     41 ****         1.4848  -4.8715   1.3497 LP             1 S1                 0.0000
     42 ****         2.2575  -7.2527   1.1968 LP             1 S1                 0.0000
@<TRIPOS>BOND
    1    1    2 1     
    2    1   22 1     
    3    1   23 1     
    4    1   24 1     
    5    2   20 ar    
    6    2    3 ar    
    7    3    4 ar    
    8    3   25 1     
    9    4   18 ar    
   10    4    5 1     
   11    5    6 2     
   12    5   38 1     
   13    6    7 1     
   14    6   26 1     
   15    7    8 1     
   16    7   18 1     
   17    8    9 1     
   18    8   27 1     
   19    8   28 1     
   20    9   10 1     
   21    9   11 1     
   22    9   29 1     
   23   10   30 1     
   24   11   12 1     
   25   11   31 1     
   26   11   32 1     
   27   12   13 1     
   28   13   17 1     
   29   13   14 2     
   30   14   15 1     
   31   15   16 2     
   32   16   17 1     
   33   16   33 1     
   34   18   19 ar    
   35   19   20 ar    
   36   19   34 1     
   37   20   21 1     
   38   21   35 1     
   39   21   36 1     
   40   21   37 1     
   41   10   39 1     
   42   10   40 1     
   43   14   41 1     
   44   15   42 1     
@<TRIPOS>SUBSTRUCTURE
      1 S1             1
@<TRIPOS>SET
LONE_PAIRS      STATIC     ATOMS    <user>   **** ""
4 39 40 41 42
DONOR_HYDROGENS      STATIC     ATOMS    <user>   **** ""
2 38 30
ATOM$BLUE        STATIC     ATOMS    COLORGROUP SYSTEM
4 39 40 41 42
ATOM$RED        STATIC     ATOMS    COLORGROUP SYSTEM
2 38 30
