AV-unprocessed.smi:3189|AV-procd|sdf|12187|dock3
  -GOLD-   2272018 33D 1   1.00000     0.00000
 Structure written by MMmdl.
 30 31  0  0  0  0  0  0  0  0  1 V2000
  147.2181  139.3501  153.1242 C   0  0  0  0  0  0  0  0  0  0  0  0
  148.4974  139.6188  153.8941 C   0  0  0  0  0  0  0  0  0  0  0  0
  149.4397  138.6539  153.8181 N   0  0  0  0  0  0  0  0  0  0  0  0
  150.5995  138.8464  154.4792 C   0  0  0  0  0  0  0  0  0  0  0  0
  150.8742  139.9955  155.2450 C   0  0  0  0  0  0  0  0  0  0  0  0
  149.8838  141.0030  155.3378 C   0  0  0  0  0  0  0  0  0  0  0  0
  150.0465  142.2122  156.0700 N   0  0  0  0  0  0  0  0  0  0  0  0
  150.6453  142.4291  157.2578 C   0  0  0  0  0  0  0  0  0  0  0  0
  151.1914  141.5653  157.9405 O   0  0  0  0  0  0  0  0  0  0  0  0
  150.5532  143.6997  157.6891 N   0  0  0  0  0  0  0  0  0  0  0  0
  151.0813  144.2442  158.9031 C   0  0  2  0  0  0  0  0  0  0  0  0
  152.4088  144.9627  158.8095 C   0  0  0  0  0  0  0  0  0  0  0  0
  152.3297  143.6206  159.4901 C   0  0  1  0  0  0  0  0  0  0  0  0
  152.5060  143.5148  160.9893 C   0  0  0  0  0  0  0  0  0  0  0  0
  148.6711  140.8116  154.6345 C   0  0  0  0  0  0  0  0  0  0  0  0
  147.4224  142.0121  154.6815 Cl  0  0  0  0  0  0  0  0  0  0  0  0
  146.3565  139.3925  153.7909 H   0  0  0  0  0  0  0  0  0  0  0  0
  147.2311  138.3649  152.6559 H   0  0  0  0  0  0  0  0  0  0  0  0
  147.0857  140.0959  152.3400 H   0  0  0  0  0  0  0  0  0  0  0  0
  151.3356  138.0612  154.3905 H   0  0  0  0  0  0  0  0  0  0  0  0
  151.8341  140.0792  155.7295 H   0  0  0  0  0  0  0  0  0  0  0  0
  149.5855  143.0151  155.6669 H   0  0  0  0  0  0  0  0  0  0  0  0
  149.9915  144.3275  157.1320 H   0  0  0  0  0  0  0  0  0  0  0  0
  150.3720  144.6898  159.5994 H   0  0  0  0  0  0  0  0  0  0  0  0
  152.9025  145.0026  157.8403 H   0  0  0  0  0  0  0  0  0  0  0  0
  152.5471  145.8416  159.4365 H   0  0  0  0  0  0  0  0  0  0  0  0
  152.7532  142.7818  158.9405 H   0  0  0  0  0  0  0  0  0  0  0  0
  152.0540  144.3691  161.4940 H   0  0  0  0  0  0  0  0  0  0  0  0
  153.5661  143.4822  161.2408 H   0  0  0  0  0  0  0  0  0  0  0  0
  152.0317  142.6046  161.3565 H   0  0  0  0  0  0  0  0  0  0  0  0
  1  2  1  0  0  0  0
  1 17  1  0  0  0  0
  1 18  1  0  0  0  0
  1 19  1  0  0  0  0
  2 15  1  0  0  0  0
  2  3  2  0  0  0  0
  3  4  1  0  0  0  0
  4  5  2  0  0  0  0
  4 20  1  0  0  0  0
  5  6  1  0  0  0  0
  5 21  1  0  0  0  0
  6  7  1  0  0  0  0
  6 15  2  0  0  0  0
  7  8  1  0  0  0  0
  7 22  1  0  0  0  0
  8  9  2  0  0  0  0
  8 10  1  0  0  0  0
 10 11  1  0  0  0  0
 10 23  1  0  0  0  0
 11 13  1  0  0  0  0
 11 12  1  0  0  0  0
 11 24  1  0  0  0  0
 12 13  1  0  0  0  0
 12 25  1  0  0  0  0
 12 26  1  0  0  0  0
 13 14  1  0  0  0  0
 13 27  1  0  0  0  0
 14 28  1  0  0  0  0
 14 29  1  0  0  0  0
 14 30  1  0  0  0  0
 15 16  1  0  0  0  0
M  END
> <s_m_source_file>
AV-unprocessed.smi

> <i_m_source_file_index>
3189

> <i_lp_mmshare_version>
43012

> <i_f3d_flags>
0

> <s_epik_input>
W0NIM11jMW5bY0hdW2NIXWMoYzFDbClbTkhdQyg9TylbTkhdW0NAQEhdMltDSDJdW0NASF0yW0NIM10=

> <s_epik_cmdline>
J2VwaWtfcHl0aG9uJywgJy1waCcsICc3LjAnLCAnLXRuJywgJzgnLCAnLW1hJywgJzIwMCcsICctbWV0YWxfYmluZGluZycsICctaW1hZScsICc8aW5maWxlLm1hZT4nLCAnLW9tYWUnLCAnPG91dGZpbGUubWFlPic=

> <r_epik_Ionization_Penalty>
0.00994309

> <r_epik_Ionization_Penalty_Charging>
0

> <r_epik_Ionization_Penalty_Neutral>
0.00994309

> <r_epik_State_Penalty>
0.00754503

> <r_epik_Charging_Adjusted_Penalty>
0.00754503

> <i_epik_Tot_Q>
0

> <i_epik_Tot_abs_Q>
0

> <r_epik_Metal_State_Penalty>
0.00742071

> <b_epik_Metal_Only>
0

> <s_lp_Force_Field>
OPLS_2005

> <r_lp_Energy>
33.6012

> <b_lp_Chiralities_Consistent>
1

> <s_lp_Variant>
AV-unprocessed.smi:3189-1

> <Gold.Version>
5.8.1

> <Gold.Id.Protein>
6NUR|6NUR_protein|mol2

> <Gold.PLP.Fitness>
42.2956

> <Gold.PLP.PLP>
-37.5171

> <Gold.PLP.part.hbond>
-2.0000

> <Gold.PLP.part.metal>
0.0000

> <Gold.PLP.part.buried>
-1.9788

> <Gold.PLP.part.nonpolar>
-34.4581

> <Gold.PLP.part.repulsive>
1.1175

> <Gold.PLP.ligand.clash>
0.0000

> <Gold.PLP.ligand.torsion>
0.6288

> <Gold.PLP.Chemscore.Hbond>
2.0000

> <Gold.PLP.Chemscore.CHOScore>
0.0000

> <Gold.PLP.Chemscore.Metal>
0.0000

> <Gold.Chemscore.Hbonds>
donor molecule, donor type, donor heavy atom, donor atom, acceptor molecule, acceptor atom, score
      L1  H     7    22       P1  8028  1.00
      L1  H    10    23       P1  8028  1.00

> <Gold.PLP.Chemscore.Internal.Correction>
0.0360

> <Gold.Rescore>
     Score         DG    S(hbond)    S(metal)    S(lipo)     H(rot)  DE(clash)    DE(int)     intcor
     18.36     -20.35       1.80        0.00      97.60       1.00       0.10       1.89       ----

> <Gold.Chemscore.Fitness>
18.3584

> <Gold.Chemscore.DG>
-20.3470

> <Gold.Chemscore.ZeroCoef>
-5.4800

> <Gold.Chemscore.Hbond>
1.7988

> <Gold.Chemscore.Metal>
0.0000

> <Gold.Chemscore.Lipo>
97.5980

> <Gold.Chemscore.Internal_Hbond>
0.0000

> <Gold.Chemscore.DEClash>
0.1026

> <Gold.Chemscore.DEInternal>
1.8860

> <Gold.Chemscore.Rot>
1.0000

> <Gold.Chemscore.Internal.Correction>
   9.000000E+99

> <Gold.Chemscore.Hbonds>
donor molecule, donor type, donor heavy atom, donor atom, acceptor molecule, acceptor atom, score
      L1  H     7    22       P1  8028  0.99
      L1  H    10    23       P1  8028  0.64

> <Gold.Chemscore.Hbond.Weighted>
-6.0080

> <Gold.Chemscore.Metal.Weighted>
-0.0000

> <Gold.Chemscore.Lipo.Weighted>
-11.4190

> <Gold.Chemscore.Internal_Hbond.Weighted>
0.0000

> <Gold.Chemscore.DEClash.Weighted>
0.1026

> <Gold.Chemscore.DEInternal.Weighted>
1.8860

> <Gold.Chemscore.Rot.Weighted>
2.5600

> <Gold.Chemscore.Internal.Correction.Weighted>
   9.000000E+99

> <Gold.Protein.RotatedTorsions>
[ 6907 6896 6895 6894 ] final  142.73 input  -60.11 | X-H torsion
[ 7974 7965 7964 7962 ] final   11.79 input  175.53 | X-H torsion
[ 8008 7997 7996 7995 ] final -133.14 input   59.86 | X-H torsion
[ 10167 10162 10161 10158 ] final  -18.12 input  -65.29 | X-H torsion
[ 10718 10713 10712 10709 ] final   21.17 input   66.30 | X-H torsion
[ 10763 10752 10751 10750 ] final  -31.07 input  -60.55 | X-H torsion
[ 11005 11000 10999 10996 ] final   38.99 input  -57.11 | X-H torsion

> <Gold.Protein.ActiveResidues>
 VAL166  LYS551  ARG553  GLY616  TRP617  ASP618  TYR619  PRO620  LYS621  CYS622 
 ASP623  PHE694  ASN695  SER759  ASP760  ASP761  ALA762  ILE779  LEU786  VAL792 
 PHE793  MET794  SER795  GLU796  ALA797  LYS798  CYS799  TRP800  GLU811  SER814 

> <Gold.Protein.RotatedAtoms>
  152.2151  133.4940  159.5131 H   0  0  0  0  0  0  0  0  0  0  0  0  # atno 6907 bound_to 6896
  150.6999  134.1416  159.4116 H   0  0  0  0  0  0  0  0  0  0  0  0  # atno 6908 bound_to 6896
  151.9336  135.0245  160.0581 H   0  0  0  0  0  0  0  0  0  0  0  0  # atno 6909 bound_to 6896
  146.2364  139.9433  142.8480 H   0  0  0  0  0  0  0  0  0  0  0  0  # atno 7974 bound_to 7965
  155.3406  140.0472  157.3045 H   0  0  0  0  0  0  0  0  0  0  0  0  # atno 8008 bound_to 7997
  154.5279  140.2247  155.8822 H   0  0  0  0  0  0  0  0  0  0  0  0  # atno 8009 bound_to 7997
  156.1758  140.3085  155.9063 H   0  0  0  0  0  0  0  0  0  0  0  0  # atno 8010 bound_to 7997
  140.7255  143.4948  150.9945 H   0  0  0  0  0  0  0  0  0  0  0  0  # atno 10167 bound_to 10162
  157.1347  130.6606  149.5962 H   0  0  0  0  0  0  0  0  0  0  0  0  # atno 10718 bound_to 10713
  153.7914  135.6897  153.4871 H   0  0  0  0  0  0  0  0  0  0  0  0  # atno 10763 bound_to 10752
  153.1747  135.4529  154.9948 H   0  0  0  0  0  0  0  0  0  0  0  0  # atno 10764 bound_to 10752
  154.8043  135.3350  154.7410 H   0  0  0  0  0  0  0  0  0  0  0  0  # atno 10765 bound_to 10752
  140.2072  134.3799  155.8067 H   0  0  0  0  0  0  0  0  0  0  0  0  # atno 11005 bound_to 11000
  145.1931  140.9821  143.4199 LP  0  0  0  0  0  0  0  0  0  0  0  0  # atno 17320 bound_to 7965
  144.9839  139.3755  143.6248 LP  0  0  0  0  0  0  0  0  0  0  0  0  # atno 17321 bound_to 7965
  139.8654  143.7261  152.3170 LP  0  0  0  0  0  0  0  0  0  0  0  0  # atno 17342 bound_to 10162
  139.7491  144.7539  151.0534 LP  0  0  0  0  0  0  0  0  0  0  0  0  # atno 17343 bound_to 10162
  155.9800  130.4798  150.6750 LP  0  0  0  0  0  0  0  0  0  0  0  0  # atno 17370 bound_to 10713
  157.4360  131.0855  151.0991 LP  0  0  0  0  0  0  0  0  0  0  0  0  # atno 17371 bound_to 10713
  141.2227  133.7124  156.8357 LP  0  0  0  0  0  0  0  0  0  0  0  0  # atno 17394 bound_to 11000
  140.1990  134.8911  157.3147 LP  0  0  0  0  0  0  0  0  0  0  0  0  # atno 17395 bound_to 11000

$$$$
