AV-unprocessed.smi:113|AV-procd|sdf|1099|dock4
  -GOLD-   2262018213D 1   1.00000     0.00000
 Structure written by MMmdl.
 53 56  0  0  0  0  0  0  0  0  2 V2000
  153.1287  139.2573  160.2454 C   0  0  0  0  0  0  0  0  0  0  0  0
  152.4752  140.5036  159.6871 C   0  0  0  0  0  0  0  0  0  0  0  0
  151.7096  140.4821  158.5053 C   0  0  0  0  0  0  0  0  0  0  0  0
  151.1174  141.6761  158.0241 C   0  0  0  0  0  0  0  0  0  0  0  0
  150.2787  141.6833  156.7415 C   0  0  0  0  0  0  0  0  0  0  0  0
  150.1249  140.4128  156.0467 N   0  0  0  0  0  0  0  0  0  0  0  0
  151.2899  139.7873  155.5426 C   0  0  0  0  0  0  0  0  0  0  0  0
  152.4058  140.2919  155.6846 O   0  0  0  0  0  0  0  0  0  0  0  0
  151.0585  138.5314  154.8265 C   0  0  0  0  0  0  0  0  0  0  0  0
  152.2601  137.8200  154.2238 C   0  0  0  0  0  0  0  0  0  0  0  0
  149.7987  138.0475  154.7034 C   0  0  0  0  0  0  0  0  0  0  0  0
  148.6731  138.6650  155.2322 N   0  0  0  0  0  0  0  0  0  0  0  0
  147.2567  138.1472  155.0125 C   0  0  2  0  0  0  0  0  0  0  0  0
  146.4777  137.8257  156.2928 C   0  0  0  0  0  0  0  0  0  0  0  0
  146.7074  136.3243  156.4782 C   0  0  1  0  0  0  0  0  0  0  0  0
  145.4663  135.6596  156.6242 O   0  0  0  0  0  0  0  0  0  0  0  0
  147.5068  135.8900  155.2271 C   0  0  1  0  0  0  0  0  0  0  0  0
  147.1338  134.5447  154.5788 C   0  0  0  0  0  0  0  0  0  0  0  0
  147.9966  134.2642  153.4964 O   0  0  0  0  0  0  0  0  0  0  0  0
  147.3245  136.9537  154.3003 O   0  0  0  0  0  0  0  0  0  0  0  0
  148.8152  139.9102  155.8812 C   0  0  0  0  0  0  0  0  0  0  0  0
  147.8287  140.5362  156.2770 O   0  0  0  0  0  0  0  0  0  0  0  0
  151.3187  142.8738  158.7638 C   0  0  0  0  0  0  0  0  0  0  0  0
  150.7670  144.1128  158.3580 C   0  0  0  0  0  0  0  0  0  0  0  0
  150.9917  145.2786  159.1163 C   0  0  0  0  0  0  0  0  0  0  0  0
  151.7669  145.2241  160.2897 C   0  0  0  0  0  0  0  0  0  0  0  0
  152.3212  144.0005  160.7087 C   0  0  0  0  0  0  0  0  0  0  0  0
  152.0996  142.8334  159.9506 C   0  0  0  0  0  0  0  0  0  0  0  0
  152.6365  141.6633  160.3562 N   0  3  0  0  0  0  0  0  0  0  0  0
  153.3206  138.5331  159.4532 H   0  0  0  0  0  0  0  0  0  0  0  0
  152.4792  138.7911  160.9868 H   0  0  0  0  0  0  0  0  0  0  0  0
  154.0797  139.4970  160.7220 H   0  0  0  0  0  0  0  0  0  0  0  0
  151.5871  139.5457  157.9816 H   0  0  0  0  0  0  0  0  0  0  0  0
  149.2789  142.0675  156.9497 H   0  0  0  0  0  0  0  0  0  0  0  0
  150.6940  142.3924  156.0234 H   0  0  0  0  0  0  0  0  0  0  0  0
  151.9763  136.8956  153.7202 H   0  0  0  0  0  0  0  0  0  0  0  0
  152.9827  137.5666  155.0004 H   0  0  0  0  0  0  0  0  0  0  0  0
  152.7540  138.4593  153.4913 H   0  0  0  0  0  0  0  0  0  0  0  0
  149.6874  137.1333  154.1437 H   0  0  0  0  0  0  0  0  0  0  0  0
  146.7531  138.9247  154.4358 H   0  0  0  0  0  0  0  0  0  0  0  0
  146.7759  138.4487  157.1358 H   0  0  0  0  0  0  0  0  0  0  0  0
  145.4251  138.0336  156.0937 H   0  0  0  0  0  0  0  0  0  0  0  0
  147.2948  136.1270  157.3752 H   0  0  0  0  0  0  0  0  0  0  0  0
  145.3772  135.3811  157.5228 H   0  0  0  0  0  0  0  0  0  0  0  0
  148.5689  135.8702  155.4781 H   0  0  0  0  0  0  0  0  0  0  0  0
  147.1595  133.7281  155.3005 H   0  0  0  0  0  0  0  0  0  0  0  0
  146.1153  134.5915  154.1930 H   0  0  0  0  0  0  0  0  0  0  0  0
  148.2289  135.0794  153.0785 H   0  0  0  0  0  0  0  0  0  0  0  0
  150.1665  144.1942  157.4647 H   0  0  0  0  0  0  0  0  0  0  0  0
  150.5673  146.2189  158.7957 H   0  0  0  0  0  0  0  0  0  0  0  0
  151.9360  146.1210  160.8677 H   0  0  0  0  0  0  0  0  0  0  0  0
  152.9158  143.9649  161.6103 H   0  0  0  0  0  0  0  0  0  0  0  0
  153.1932  141.6562  161.2107 H   0  0  0  0  0  0  0  0  0  0  0  0
  1  2  1  0  0  0  0
  1 30  1  0  0  0  0
  1 31  1  0  0  0  0
  1 32  1  0  0  0  0
  2 29  1  0  0  0  0
  2  3  2  0  0  0  0
  3  4  1  0  0  0  0
  3 33  1  0  0  0  0
  4  5  1  0  0  0  0
  4 23  2  0  0  0  0
  5  6  1  0  0  0  0
  5 34  1  0  0  0  0
  5 35  1  0  0  0  0
  6 21  1  0  0  0  0
  6  7  1  0  0  0  0
  7  8  2  0  0  0  0
  7  9  1  0  0  0  0
  9 10  1  0  0  0  0
  9 11  2  0  0  0  0
 10 36  1  0  0  0  0
 10 37  1  0  0  0  0
 10 38  1  0  0  0  0
 11 12  1  0  0  0  0
 11 39  1  0  0  0  0
 12 13  1  0  0  0  0
 12 21  1  0  0  0  0
 13 20  1  0  0  0  0
 13 14  1  0  0  0  0
 13 40  1  0  0  0  0
 14 15  1  0  0  0  0
 14 41  1  0  0  0  0
 14 42  1  0  0  0  0
 15 16  1  0  0  0  0
 15 17  1  0  0  0  0
 15 43  1  0  0  0  0
 16 44  1  0  0  0  0
 17 18  1  0  0  0  0
 17 20  1  0  0  0  0
 17 45  1  0  0  0  0
 18 19  1  0  0  0  0
 18 46  1  0  0  0  0
 18 47  1  0  0  0  0
 19 48  1  0  0  0  0
 21 22  2  0  0  0  0
 23 28  1  0  0  0  0
 23 24  1  0  0  0  0
 24 25  2  0  0  0  0
 24 49  1  0  0  0  0
 25 26  1  0  0  0  0
 25 50  1  0  0  0  0
 26 27  2  0  0  0  0
 26 51  1  0  0  0  0
 27 28  1  0  0  0  0
 27 52  1  0  0  0  0
 28 29  2  0  0  0  0
 29 53  1  0  0  0  0
M  CHG  1  29   1
M  END
> <s_m_source_file>
AV-unprocessed.smi

> <i_m_source_file_index>
113

> <i_lp_mmshare_version>
43012

> <i_f3d_flags>
0

> <s_epik_input>
W2NIXTFbY0hdW2NIXVtjSF1jKGMxMiluYyhbQ0gzXSlbY0hdYzJbQ0gyXW4zYyg9TyljKFtDSDNdKVtjSF1uKGMzPU8pW0NAQEhdNFtDSDJdW0NAQEhdKFtPSF0pW0NASF0oTzQpW0NIMl1bT0hd

> <s_epik_cmdline>
J2VwaWtfcHl0aG9uJywgJy1waCcsICc3LjAnLCAnLXRuJywgJzgnLCAnLW1hJywgJzIwMCcsICctbWV0YWxfYmluZGluZycsICctaW1hZScsICc8aW5maWxlLm1hZT4nLCAnLW9tYWUnLCAnPG91dGZpbGUubWFlPic=

> <r_lp_tautomer_probability>
1

> <r_epik_Ionization_Penalty>
0.705471

> <r_epik_Ionization_Penalty_Charging>
0.70547

> <r_epik_Ionization_Penalty_Neutral>
1.19947e-07

> <r_epik_State_Penalty>
0.728574

> <r_epik_Charging_Adjusted_Penalty>
1.43404

> <i_epik_Tot_Q>
1

> <i_epik_Tot_abs_Q>
1

> <r_epik_Metal_State_Penalty>
4.61665

> <b_epik_Metal_Only>
0

> <s_epik_Chemistry_Notes>
This compound contains an acetal/aminal-like group ( X-CH(R)-Y where X, Y are N, S, or O) that may be acid/base labile, releasing an aldehyde.

> <s_lp_Force_Field>
OPLS_2005

> <r_lp_Energy>
45.3358

> <b_lp_Chiralities_Consistent>
1

> <s_lp_Variant>
AV-unprocessed.smi:113-9

> <Gold.Version>
5.8.1

> <Gold.Id.Protein>
6NUR|6NUR_protein|mol2

> <Gold.PLP.Fitness>
52.2404

> <Gold.PLP.PLP>
-43.2484

> <Gold.PLP.part.hbond>
-3.0000

> <Gold.PLP.part.metal>
0.0000

> <Gold.PLP.part.buried>
-3.1466

> <Gold.PLP.part.nonpolar>
-37.4532

> <Gold.PLP.part.repulsive>
0.8005

> <Gold.PLP.ligand.clash>
0.0000

> <Gold.PLP.ligand.torsion>
0.0351

> <Gold.PLP.Chemscore.Hbond>
2.0000

> <Gold.PLP.Chemscore.CHOScore>
1.0000

> <Gold.PLP.Chemscore.Metal>
0.0000

> <Gold.Chemscore.Hbonds>
donor molecule, donor type, donor heavy atom, donor atom, acceptor molecule, acceptor atom, score
      L1  H    19    48       P1  7948  1.00
      P1  H  7997  8010       L1     8  1.00
      L1  C    11    39       P1  7948  1.00

> <Gold.PLP.Chemscore.Internal.Correction>
0.0622

> <Gold.Rescore>
     Score         DG    S(hbond)    S(metal)    S(lipo)     H(rot)  DE(clash)    DE(int)     intcor
     16.56     -17.96       1.85        0.00     119.84       3.01       0.60       0.80       ----

> <Gold.Chemscore.Fitness>
16.5647

> <Gold.Chemscore.DG>
-17.9612

> <Gold.Chemscore.ZeroCoef>
-5.4800

> <Gold.Chemscore.Hbond>
1.8476

> <Gold.Chemscore.Metal>
0.0000

> <Gold.Chemscore.Lipo>
119.8380

> <Gold.Chemscore.Internal_Hbond>
0.0000

> <Gold.Chemscore.DEClash>
0.6011

> <Gold.Chemscore.DEInternal>
0.7954

> <Gold.Chemscore.Rot>
3.0120

> <Gold.Chemscore.Internal.Correction>
   9.000000E+99

> <Gold.Chemscore.Hbonds>
donor molecule, donor type, donor heavy atom, donor atom, acceptor molecule, acceptor atom, score
      L1  H    19    48       P1  7948  0.94
      P1  H  7997  8010       L1     8  0.90

> <Gold.Chemscore.Hbond.Weighted>
-6.1709

> <Gold.Chemscore.Metal.Weighted>
-0.0000

> <Gold.Chemscore.Lipo.Weighted>
-14.0211

> <Gold.Chemscore.Internal_Hbond.Weighted>
0.0000

> <Gold.Chemscore.DEClash.Weighted>
0.6011

> <Gold.Chemscore.DEInternal.Weighted>
0.7954

> <Gold.Chemscore.Rot.Weighted>
7.7108

> <Gold.Chemscore.Internal.Correction.Weighted>
   9.000000E+99

> <Gold.Protein.RotatedTorsions>
[ 6907 6896 6895 6894 ] final  137.57 input  -60.11 | X-H torsion
[ 7974 7965 7964 7962 ] final  -36.34 input  175.53 | X-H torsion
[ 8008 7997 7996 7995 ] final  100.58 input   59.86 | X-H torsion
[ 10167 10162 10161 10158 ] final -139.38 input  -65.29 | X-H torsion
[ 10718 10713 10712 10709 ] final  174.09 input   66.30 | X-H torsion
[ 10763 10752 10751 10750 ] final -178.70 input  -60.55 | X-H torsion
[ 11005 11000 10999 10996 ] final  143.12 input  -57.11 | X-H torsion

> <Gold.Protein.ActiveResidues>
 VAL166  LYS551  ARG553  GLY616  TRP617  ASP618  TYR619  PRO620  LYS621  CYS622 
 ASP623  PHE694  ASN695  SER759  ASP760  ASP761  ALA762  ILE779  LEU786  VAL792 
 PHE793  MET794  SER795  GLU796  ALA797  LYS798  CYS799  TRP800  GLU811  SER814 

> <Gold.Protein.RotatedAtoms>
  152.2766  133.5431  159.5471 H   0  0  0  0  0  0  0  0  0  0  0  0  # atno 6907 bound_to 6896
  150.7179  134.0623  159.3844 H   0  0  0  0  0  0  0  0  0  0  0  0  # atno 6908 bound_to 6896
  151.8536  135.0549  160.0512 H   0  0  0  0  0  0  0  0  0  0  0  0  # atno 6909 bound_to 6896
  146.0670  140.6267  142.8970 H   0  0  0  0  0  0  0  0  0  0  0  0  # atno 7974 bound_to 7965
  156.1217  140.3211  155.8217 H   0  0  0  0  0  0  0  0  0  0  0  0  # atno 8008 bound_to 7997
  155.4493  140.0531  157.3020 H   0  0  0  0  0  0  0  0  0  0  0  0  # atno 8009 bound_to 7997
  154.4832  140.2062  155.9729 H   0  0  0  0  0  0  0  0  0  0  0  0  # atno 8010 bound_to 7997
  139.8385  143.7353  152.2664 H   0  0  0  0  0  0  0  0  0  0  0  0  # atno 10167 bound_to 10162
  156.9547  131.0042  151.2941 H   0  0  0  0  0  0  0  0  0  0  0  0  # atno 10718 bound_to 10713
  154.5444  135.2808  155.1066 H   0  0  0  0  0  0  0  0  0  0  0  0  # atno 10763 bound_to 10752
  154.2537  135.6335  153.5253 H   0  0  0  0  0  0  0  0  0  0  0  0  # atno 10764 bound_to 10752
  152.9987  135.5589  154.5992 H   0  0  0  0  0  0  0  0  0  0  0  0  # atno 10765 bound_to 10752
  140.0529  134.9246  157.1049 H   0  0  0  0  0  0  0  0  0  0  0  0  # atno 11005 bound_to 11000
  144.7208  140.4367  143.7009 LP  0  0  0  0  0  0  0  0  0  0  0  0  # atno 17320 bound_to 7965
  145.6460  139.1557  143.2889 LP  0  0  0  0  0  0  0  0  0  0  0  0  # atno 17321 bound_to 7965
  139.7583  144.7514  151.0402 LP  0  0  0  0  0  0  0  0  0  0  0  0  # atno 17342 bound_to 10162
  140.7800  143.4780  151.0056 LP  0  0  0  0  0  0  0  0  0  0  0  0  # atno 17343 bound_to 10162
  157.5698  130.8303  149.8376 LP  0  0  0  0  0  0  0  0  0  0  0  0  # atno 17370 bound_to 10713
  156.0347  130.3754  150.1591 LP  0  0  0  0  0  0  0  0  0  0  0  0  # atno 17371 bound_to 10713
  140.3889  134.2206  155.7167 LP  0  0  0  0  0  0  0  0  0  0  0  0  # atno 17394 bound_to 11000
  141.1938  133.8141  157.0781 LP  0  0  0  0  0  0  0  0  0  0  0  0  # atno 17395 bound_to 11000

$$$$
