AV-unprocessed.smi:3282|AV-procd|sdf|12561|dock7
  -GOLD-   2272018483D 1   1.00000     0.00000
 Structure written by MMmdl.
 34 35  0  0  0  0  0  0  0  0  1 V2000
  152.4187  142.5773  158.8142 C   0  0  0  0  0  0  0  0  0  0  0  0
  151.6065  142.3926  157.5222 C   0  0  0  0  0  0  0  0  0  0  0  0
  151.6701  140.9670  156.9486 C   0  0  0  0  0  0  0  0  0  0  0  0
  152.4937  140.1640  157.3898 O   0  0  0  0  0  0  0  0  0  0  0  0
  150.8087  140.6375  155.9636 N   0  0  0  0  0  0  0  0  0  0  0  0
  149.7930  141.5175  155.3895 C   0  0  0  0  0  0  0  0  0  0  0  0
  148.9464  140.6382  154.4689 C   0  0  0  0  0  0  0  0  0  0  0  0
  149.8567  139.4644  154.1087 C   0  0  2  0  0  0  0  0  0  0  0  0
  149.1142  138.2318  153.8659 N   0  0  0  0  0  0  0  0  0  0  0  0
  148.2391  137.6850  154.7218 C   0  0  0  0  0  0  0  0  0  0  0  0
  147.9738  138.1683  155.8229 O   0  0  0  0  0  0  0  0  0  0  0  0
  147.7041  136.5589  154.2212 N   0  0  0  0  0  0  0  0  0  0  0  0
  146.7322  135.7223  154.8257 C   0  0  0  0  0  0  0  0  0  0  0  0
  146.0720  134.7205  154.2424 N   0  0  0  0  0  0  0  0  0  0  0  0
  145.2503  134.2156  155.2397 C   0  0  0  0  0  0  0  0  0  0  0  0
  145.4622  134.9476  156.3798 C   0  0  0  0  0  0  0  0  0  0  0  0
  146.4035  135.9103  156.1312 O   0  0  0  0  0  0  0  0  0  0  0  0
  150.7854  139.3265  155.3196 C   0  0  0  0  0  0  0  0  0  0  0  0
  152.3443  143.6045  159.1715 H   0  0  0  0  0  0  0  0  0  0  0  0
  153.4757  142.3605  158.6550 H   0  0  0  0  0  0  0  0  0  0  0  0
  152.0559  141.9263  159.6102 H   0  0  0  0  0  0  0  0  0  0  0  0
  150.5640  142.6466  157.7157 H   0  0  0  0  0  0  0  0  0  0  0  0
  151.9722  143.0947  156.7722 H   0  0  0  0  0  0  0  0  0  0  0  0
  149.1751  141.9907  156.1538 H   0  0  0  0  0  0  0  0  0  0  0  0
  150.2855  142.3027  154.8141 H   0  0  0  0  0  0  0  0  0  0  0  0
  148.0744  140.2822  155.0199 H   0  0  0  0  0  0  0  0  0  0  0  0
  148.5852  141.1746  153.5909 H   0  0  0  0  0  0  0  0  0  0  0  0
  150.4566  139.7274  153.2352 H   0  0  0  0  0  0  0  0  0  0  0  0
  149.2736  137.7698  152.9825 H   0  0  0  0  0  0  0  0  0  0  0  0
  148.0188  136.2724  153.3060 H   0  0  0  0  0  0  0  0  0  0  0  0
  144.5864  133.3823  155.0627 H   0  0  0  0  0  0  0  0  0  0  0  0
  145.0549  134.9133  157.3794 H   0  0  0  0  0  0  0  0  0  0  0  0
  151.7823  139.0030  155.0159 H   0  0  0  0  0  0  0  0  0  0  0  0
  150.3996  138.5986  156.0359 H   0  0  0  0  0  0  0  0  0  0  0  0
  1  2  1  0  0  0  0
  1 19  1  0  0  0  0
  1 20  1  0  0  0  0
  1 21  1  0  0  0  0
  2  3  1  0  0  0  0
  2 22  1  0  0  0  0
  2 23  1  0  0  0  0
  3  4  2  0  0  0  0
  3  5  1  0  0  0  0
  5 18  1  0  0  0  0
  5  6  1  0  0  0  0
  6  7  1  0  0  0  0
  6 24  1  0  0  0  0
  6 25  1  0  0  0  0
  7  8  1  0  0  0  0
  7 26  1  0  0  0  0
  7 27  1  0  0  0  0
  8  9  1  0  0  0  0
  8 18  1  0  0  0  0
  8 28  1  0  0  0  0
  9 10  1  0  0  0  0
  9 29  1  0  0  0  0
 10 11  2  0  0  0  0
 10 12  1  0  0  0  0
 12 13  1  0  0  0  0
 12 30  1  0  0  0  0
 13 17  1  0  0  0  0
 13 14  2  0  0  0  0
 14 15  1  0  0  0  0
 15 16  2  0  0  0  0
 15 31  1  0  0  0  0
 16 17  1  0  0  0  0
 16 32  1  0  0  0  0
 18 33  1  0  0  0  0
 18 34  1  0  0  0  0
M  END
> <s_m_source_file>
AV-unprocessed.smi

> <i_m_source_file_index>
3282

> <i_lp_mmshare_version>
43012

> <i_f3d_flags>
0

> <s_epik_input>
W0NIM11bQ0gyXUMoPU8pTjFbQ0gyXVtDSDJdW0NASF0oW0NIMl0xKVtOSF1DKD1PKVtOSF1jMm5bY0hdW2NIXW8y

> <s_epik_cmdline>
J2VwaWtfcHl0aG9uJywgJy1waCcsICc3LjAnLCAnLXRuJywgJzgnLCAnLW1hJywgJzIwMCcsICctbWV0YWxfYmluZGluZycsICctaW1hZScsICc8aW5maWxlLm1hZT4nLCAnLW9tYWUnLCAnPG91dGZpbGUubWFlPic=

> <r_lp_tautomer_probability>
0.785861

> <r_epik_Ionization_Penalty>
4.35681e-05

> <r_epik_Ionization_Penalty_Charging>
0

> <r_epik_Ionization_Penalty_Neutral>
4.35681e-05

> <r_epik_State_Penalty>
0.0212547

> <r_epik_Charging_Adjusted_Penalty>
0.0212547

> <i_epik_Tot_Q>
0

> <i_epik_Tot_abs_Q>
0

> <r_epik_Metal_State_Penalty>
0.00779955

> <b_epik_Metal_Only>
0

> <s_lp_Force_Field>
OPLS_2005

> <r_lp_Energy>
25.4049

> <b_lp_Chiralities_Consistent>
1

> <s_lp_Variant>
AV-unprocessed.smi:3282-2

> <Gold.Version>
5.8.1

> <Gold.Id.Protein>
6NUR|6NUR_protein|mol2

> <Gold.PLP.Fitness>
34.6321

> <Gold.PLP.PLP>
-22.9895

> <Gold.PLP.part.hbond>
-3.1343

> <Gold.PLP.part.metal>
0.0000

> <Gold.PLP.part.buried>
-1.4293

> <Gold.PLP.part.nonpolar>
-18.1434

> <Gold.PLP.part.repulsive>
0.1268

> <Gold.PLP.ligand.clash>
0.0000

> <Gold.PLP.ligand.torsion>
0.1705

> <Gold.PLP.Chemscore.Hbond>
2.9920

> <Gold.PLP.Chemscore.CHOScore>
1.0000

> <Gold.PLP.Chemscore.Metal>
0.0000

> <Gold.Chemscore.Hbonds>
donor molecule, donor type, donor heavy atom, donor atom, acceptor molecule, acceptor atom, score
      L1  H     9    29       P1  7948  0.99
      L1  H    12    30       P1  7948  1.00
      P1  H  7997  8010       L1     4  1.00
      L1  C    15    31       P1 10957  1.00

> <Gold.PLP.Chemscore.Internal.Correction>
0.0077

> <Gold.Rescore>
     Score         DG    S(hbond)    S(metal)    S(lipo)     H(rot)  DE(clash)    DE(int)     intcor
     14.89     -17.73       2.93        0.00      49.95       1.32       0.17       2.67       ----

> <Gold.Chemscore.Fitness>
14.8870

> <Gold.Chemscore.DG>
-17.7292

> <Gold.Chemscore.ZeroCoef>
-5.4800

> <Gold.Chemscore.Hbond>
2.9295

> <Gold.Chemscore.Metal>
0.0000

> <Gold.Chemscore.Lipo>
49.9467

> <Gold.Chemscore.Internal_Hbond>
0.0000

> <Gold.Chemscore.DEClash>
0.1730

> <Gold.Chemscore.DEInternal>
2.6691

> <Gold.Chemscore.Rot>
1.3199

> <Gold.Chemscore.Internal.Correction>
   9.000000E+99

> <Gold.Chemscore.Hbonds>
donor molecule, donor type, donor heavy atom, donor atom, acceptor molecule, acceptor atom, score
      L1  H     9    29       P1  7948  0.90
      L1  H    12    30       P1  7948  1.00
      P1  H  7997  8010       L1     4  0.91

> <Gold.Chemscore.Hbond.Weighted>
-9.7844

> <Gold.Chemscore.Metal.Weighted>
-0.0000

> <Gold.Chemscore.Lipo.Weighted>
-5.8438

> <Gold.Chemscore.Internal_Hbond.Weighted>
0.0000

> <Gold.Chemscore.DEClash.Weighted>
0.1730

> <Gold.Chemscore.DEInternal.Weighted>
2.6691

> <Gold.Chemscore.Rot.Weighted>
3.3789

> <Gold.Chemscore.Internal.Correction.Weighted>
   9.000000E+99

> <Gold.Protein.RotatedTorsions>
[ 6907 6896 6895 6894 ] final   29.17 input  -60.11 | X-H torsion
[ 7974 7965 7964 7962 ] final  178.65 input  175.53 | X-H torsion
[ 8008 7997 7996 7995 ] final   56.62 input   59.86 | X-H torsion
[ 10167 10162 10161 10158 ] final   35.41 input  -65.29 | X-H torsion
[ 10718 10713 10712 10709 ] final  -66.52 input   66.30 | X-H torsion
[ 10763 10752 10751 10750 ] final   69.55 input  -60.55 | X-H torsion
[ 11005 11000 10999 10996 ] final  173.74 input  -57.11 | X-H torsion

> <Gold.Protein.ActiveResidues>
 VAL166  LYS551  ARG553  GLY616  TRP617  ASP618  TYR619  PRO620  LYS621  CYS622 
 ASP623  PHE694  ASN695  SER759  ASP760  ASP761  ALA762  ILE779  LEU786  VAL792 
 PHE793  MET794  SER795  GLU796  ALA797  LYS798  CYS799  TRP800  GLU811  SER814 

> <Gold.Protein.RotatedAtoms>
  152.0277  134.9786  160.0571 H   0  0  0  0  0  0  0  0  0  0  0  0  # atno 6907 bound_to 6896
  152.1275  133.4384  159.4713 H   0  0  0  0  0  0  0  0  0  0  0  0  # atno 6908 bound_to 6896
  150.6853  134.2379  159.4504 H   0  0  0  0  0  0  0  0  0  0  0  0  # atno 6909 bound_to 6896
  144.7154  140.0429  143.6437 H   0  0  0  0  0  0  0  0  0  0  0  0  # atno 7974 bound_to 7965
  155.5204  140.3479  155.4405 H   0  0  0  0  0  0  0  0  0  0  0  0  # atno 8008 bound_to 7997
  156.0788  140.1381  156.9765 H   0  0  0  0  0  0  0  0  0  0  0  0  # atno 8009 bound_to 7997
  154.4568  140.0950  156.6756 H   0  0  0  0  0  0  0  0  0  0  0  0  # atno 8010 bound_to 7997
  140.4224  144.1440  150.6149 H   0  0  0  0  0  0  0  0  0  0  0  0  # atno 10167 bound_to 10162
  156.0608  130.4263  150.1721 H   0  0  0  0  0  0  0  0  0  0  0  0  # atno 10718 bound_to 10713
  153.0293  135.5206  154.7306 H   0  0  0  0  0  0  0  0  0  0  0  0  # atno 10763 bound_to 10752
  154.6334  135.2903  155.0191 H   0  0  0  0  0  0  0  0  0  0  0  0  # atno 10764 bound_to 10752
  154.1135  135.6618  153.4942 H   0  0  0  0  0  0  0  0  0  0  0  0  # atno 10765 bound_to 10752
  140.3438  134.7254  157.4221 H   0  0  0  0  0  0  0  0  0  0  0  0  # atno 11005 bound_to 11000
  146.0009  139.3090  143.0928 LP  0  0  0  0  0  0  0  0  0  0  0  0  # atno 17320 bound_to 7965
  145.8795  140.9371  143.0609 LP  0  0  0  0  0  0  0  0  0  0  0  0  # atno 17321 bound_to 7965
  140.4518  143.2483  151.9337 LP  0  0  0  0  0  0  0  0  0  0  0  0  # atno 17342 bound_to 10162
  139.4783  144.5554  151.8321 LP  0  0  0  0  0  0  0  0  0  0  0  0  # atno 17343 bound_to 10162
  156.9790  130.9858  151.3442 LP  0  0  0  0  0  0  0  0  0  0  0  0  # atno 17370 bound_to 10713
  157.5614  130.8248  149.8271 LP  0  0  0  0  0  0  0  0  0  0  0  0  # atno 17371 bound_to 10713
  140.0759  134.5798  155.8592 LP  0  0  0  0  0  0  0  0  0  0  0  0  # atno 17394 bound_to 11000
  141.2031  133.6629  156.6044 LP  0  0  0  0  0  0  0  0  0  0  0  0  # atno 17395 bound_to 11000

$$$$
