#       Name:                AV-unprocessed.smi:3046
#       Creating user name   scv26
#       Creation time:       Fri Mar 27 17:00:23 2020


#       File generated by GOLD software.
#

@<TRIPOS>MOLECULE
AV-unprocessed.smi:3046
    41    41     1
SMALL
NO_CHARGES


@<TRIPOS>ATOM
      1 ****        -1.0277  -4.2508  -1.7755 C.2            1 S1                 0.0000
      2 ****        -1.0839  -2.9537  -2.1122 C.2            1 S1                 0.0000
      3 ****        -2.2446  -2.0326  -1.7909 C.3            1 S1                 0.0000
      4 ****        -1.8004  -0.8605  -1.0479 N.am           1 S1                 0.0000
      5 ****        -1.2191   0.2229  -1.5864 C.2            1 S1                 0.0000
      6 ****        -1.0139   0.3495  -2.7941 O.2            1 S1                 0.0000
      7 ****        -0.7674   1.3180  -0.6064 C.3            1 S1                 0.0000
      8 ****        -1.3402   2.6842  -1.0152 C.3            1 S1                 0.0000
      9 ****         0.6980   1.4113  -0.4805 N.3            1 S1                 0.0000
     10 ****         1.3645   0.2107   0.0242 C.3            1 S1                 0.0000
     11 ****         2.2065  -0.3998  -1.1067 C.3            1 S1                 0.0000
     12 ****         2.2392   0.5942   1.2340 C.3            1 S1                 0.0000
     13 ****         1.4439   1.0080   2.3775 N.pl3          1 S1                 0.0000
     14 ****         0.7382   0.2162   3.2587 C.2            1 S1                 0.0000
     15 ****         0.1375   1.0469   4.1604 C.2            1 S1                 0.0000
     16 ****         0.5430   2.3459   3.7448 C.2            1 S1                 0.0000
     17 ****         1.3263   2.3194   2.6789 N.2            1 S1                 0.0000
     18 ****        -1.8327  -4.7266  -1.2345 H              1 S1                 0.0000
     19 ****        -0.1716  -4.8547  -2.0380 H              1 S1                 0.0000
     20 ****        -0.2597  -2.5155  -2.6565 H              1 S1                 0.0000
     21 ****        -2.7344  -1.7325  -2.7186 H              1 S1                 0.0000
     22 ****        -2.9899  -2.5626  -1.1969 H              1 S1                 0.0000
     23 ****        -1.9237  -0.8816  -0.0459 H              1 S1                 0.0000
     24 ****        -1.1699   1.0812   0.3805 H              1 S1                 0.0000
     25 ****        -2.4270   2.6487  -1.1004 H              1 S1                 0.0000
     26 ****        -0.9416   3.0191  -1.9739 H              1 S1                 0.0000
     27 ****        -1.0972   3.4456  -0.2731 H              1 S1                 0.0000
     28 ****         1.1348   1.7256  -1.3352 H              1 S1                 0.0000
     29 ****         0.6395  -0.5322   0.3599 H              1 S1                 0.0000
     30 ****         2.7238  -1.2968  -0.7654 H              1 S1                 0.0000
     31 ****         2.9615   0.3014  -1.4644 H              1 S1                 0.0000
     32 ****         1.5879  -0.6861  -1.9576 H              1 S1                 0.0000
     33 ****         2.8411  -0.2610   1.5437 H              1 S1                 0.0000
     34 ****         2.9409   1.3888   0.9729 H              1 S1                 0.0000
     35 ****         0.7193  -0.8598   3.1682 H              1 S1                 0.0000
     36 ****        -0.4952   0.7694   4.9902 H              1 S1                 0.0000
     37 ****         0.2934   3.3009   4.1831 H              1 S1                 0.0000
     38 ****        -1.2845  -0.3767  -3.4261 LP             1 S1                 0.0000
     39 ****        -0.5767   1.1785  -3.1428 LP             1 S1                 0.0000
     40 ****         0.8266   2.1040   0.2291 LP             1 S1                 0.0000
     41 ****         1.7389   3.0961   2.2030 LP             1 S1                 0.0000
@<TRIPOS>BOND
    1    1    2 2     
    2    1   18 1     
    3    1   19 1     
    4    2    3 1     
    5    2   20 1     
    6    3    4 1     
    7    3   21 1     
    8    3   22 1     
    9    4    5 am    
   10    4   23 1     
   11    5    6 2     
   12    5    7 1     
   13    7    8 1     
   14    7    9 1     
   15    7   24 1     
   16    8   25 1     
   17    8   26 1     
   18    8   27 1     
   19    9   10 1     
   20    9   28 1     
   21   10   11 1     
   22   10   12 1     
   23   10   29 1     
   24   11   30 1     
   25   11   31 1     
   26   11   32 1     
   27   12   13 1     
   28   12   33 1     
   29   12   34 1     
   30   13   17 1     
   31   13   14 1     
   32   14   15 2     
   33   14   35 1     
   34   15   16 1     
   35   15   36 1     
   36   16   17 2     
   37   16   37 1     
   38    6   38 1     
   39    6   39 1     
   40    9   40 1     
   41   17   41 1     
@<TRIPOS>SUBSTRUCTURE
      1 S1             1
@<TRIPOS>SET
LONE_PAIRS      STATIC     ATOMS    <user>   **** ""
4 38 39 40 41
DONOR_HYDROGENS      STATIC     ATOMS    <user>   **** ""
2 23 28
ATOM$BLUE        STATIC     ATOMS    COLORGROUP SYSTEM
4 38 39 40 41
ATOM$RED        STATIC     ATOMS    COLORGROUP SYSTEM
2 23 28
