AV-unprocessed.smi:2715|AV-procd|sdf|10482|dock10
  -GOLD-   2272014523D 1   1.00000     0.00000
 Structure written by MMmdl.
 38 39  0  0  0  0  0  0  0  0  1 V2000
  155.5625  140.9160  170.4082 C   0  0  0  0  0  0  0  0  0  0  0  0
  155.6909  141.8475  169.2522 C   0  0  0  0  0  0  0  0  0  0  0  0
  155.6980  141.4466  167.9783 N   0  0  0  0  0  0  0  0  0  0  0  0
  155.8341  142.5100  167.0788 C   0  0  0  0  0  0  0  0  0  0  0  0
  155.8666  142.2441  165.6013 C   0  0  0  0  0  0  0  0  0  0  0  0
  154.8935  143.1695  164.8691 C   0  0  0  0  0  0  0  0  0  0  0  0
  154.8317  144.3600  165.1746 O   0  0  0  0  0  0  0  0  0  0  0  0
  154.1338  142.6058  163.9160 N   0  0  0  0  0  0  0  0  0  0  0  0
  153.1258  143.2883  163.1097 C   0  0  0  0  0  0  0  0  0  0  0  0
  152.6112  142.3959  161.9653 C   0  0  0  0  0  0  0  0  0  0  0  0
  152.1020  143.1789  160.7650 C   0  0  0  0  0  0  0  0  0  0  0  0
  151.7360  144.4722  160.8600 C   0  0  0  0  0  0  0  0  0  0  0  0
  151.2611  145.3115  159.6872 C   0  0  0  0  0  0  0  0  0  0  0  0
  151.5729  144.6505  158.3342 C   0  0  0  0  0  0  0  0  0  0  0  0
  151.2378  143.1542  158.3611 C   0  0  0  0  0  0  0  0  0  0  0  0
  152.0467  142.4185  159.4443 C   0  0  0  0  0  0  0  0  0  0  0  0
  155.9210  143.7327  167.6981 C   0  0  0  0  0  0  0  0  0  0  0  0
  155.8444  143.5908  169.4326 S   0  0  0  0  0  0  0  0  0  0  0  0
  155.7207  139.8849  170.0902 H   0  0  0  0  0  0  0  0  0  0  0  0
  154.5669  140.9997  170.8442 H   0  0  0  0  0  0  0  0  0  0  0  0
  156.3014  141.1627  171.1707 H   0  0  0  0  0  0  0  0  0  0  0  0
  156.8698  142.3900  165.1984 H   0  0  0  0  0  0  0  0  0  0  0  0
  155.6011  141.2065  165.3950 H   0  0  0  0  0  0  0  0  0  0  0  0
  154.2626  141.6201  163.7385 H   0  0  0  0  0  0  0  0  0  0  0  0
  152.2985  143.6467  163.7242 H   0  0  0  0  0  0  0  0  0  0  0  0
  153.5920  144.1786  162.6878 H   0  0  0  0  0  0  0  0  0  0  0  0
  153.4081  141.7314  161.6302 H   0  0  0  0  0  0  0  0  0  0  0  0
  151.8183  141.7483  162.3420 H   0  0  0  0  0  0  0  0  0  0  0  0
  151.7751  144.9730  161.8165 H   0  0  0  0  0  0  0  0  0  0  0  0
  150.1873  145.4674  159.7948 H   0  0  0  0  0  0  0  0  0  0  0  0
  151.7318  146.2937  159.7357 H   0  0  0  0  0  0  0  0  0  0  0  0
  151.0211  145.1507  157.5379 H   0  0  0  0  0  0  0  0  0  0  0  0
  152.6319  144.7749  158.1035 H   0  0  0  0  0  0  0  0  0  0  0  0
  150.1716  143.0299  158.5557 H   0  0  0  0  0  0  0  0  0  0  0  0
  151.4274  142.7041  157.3863 H   0  0  0  0  0  0  0  0  0  0  0  0
  153.0671  142.2611  159.0954 H   0  0  0  0  0  0  0  0  0  0  0  0
  151.6165  141.4304  159.6096 H   0  0  0  0  0  0  0  0  0  0  0  0
  156.0288  144.7045  167.2395 H   0  0  0  0  0  0  0  0  0  0  0  0
  1  2  1  0  0  0  0
  1 19  1  0  0  0  0
  1 20  1  0  0  0  0
  1 21  1  0  0  0  0
  2 18  1  0  0  0  0
  2  3  2  0  0  0  0
  3  4  1  0  0  0  0
  4  5  1  0  0  0  0
  4 17  2  0  0  0  0
  5  6  1  0  0  0  0
  5 22  1  0  0  0  0
  5 23  1  0  0  0  0
  6  7  2  0  0  0  0
  6  8  1  0  0  0  0
  8  9  1  0  0  0  0
  8 24  1  0  0  0  0
  9 10  1  0  0  0  0
  9 25  1  0  0  0  0
  9 26  1  0  0  0  0
 10 11  1  0  0  0  0
 10 27  1  0  0  0  0
 10 28  1  0  0  0  0
 11 16  1  0  0  0  0
 11 12  2  0  0  0  0
 12 13  1  0  0  0  0
 12 29  1  0  0  0  0
 13 14  1  0  0  0  0
 13 30  1  0  0  0  0
 13 31  1  0  0  0  0
 14 15  1  0  0  0  0
 14 32  1  0  0  0  0
 14 33  1  0  0  0  0
 15 16  1  0  0  0  0
 15 34  1  0  0  0  0
 15 35  1  0  0  0  0
 16 36  1  0  0  0  0
 16 37  1  0  0  0  0
 17 18  1  0  0  0  0
 17 38  1  0  0  0  0
M  END
> <s_m_source_file>
AV-unprocessed.smi

> <i_m_source_file_index>
2715

> <i_lp_mmshare_version>
43012

> <i_f3d_flags>
0

> <s_epik_input>
W0NIM11jMW5jKFtjSF1zMSlbQ0gyXUMoPU8pW05IXVtDSDJdW0NIMl1DMj1bQ0hdW0NIMl1bQ0gyXVtDSDJdW0NIMl0y

> <s_epik_cmdline>
J2VwaWtfcHl0aG9uJywgJy1waCcsICc3LjAnLCAnLXRuJywgJzgnLCAnLW1hJywgJzIwMCcsICctbWV0YWxfYmluZGluZycsICctaW1hZScsICc8aW5maWxlLm1hZT4nLCAnLW9tYWUnLCAnPG91dGZpbGUubWFlPic=

> <r_lp_tautomer_probability>
1

> <r_epik_Ionization_Penalty>
5.73492e-05

> <r_epik_Ionization_Penalty_Charging>
0

> <r_epik_Ionization_Penalty_Neutral>
5.73492e-05

> <r_epik_State_Penalty>
-0

> <r_epik_Charging_Adjusted_Penalty>
0

> <i_epik_Tot_Q>
0

> <i_epik_Tot_abs_Q>
0

> <r_epik_Metal_State_Penalty>
-0

> <b_epik_Metal_Only>
0

> <s_lp_Force_Field>
OPLS_2005

> <r_lp_Energy>
6.36926

> <b_lp_Chiralities_Consistent>
1

> <s_lp_Variant>
AV-unprocessed.smi:2715-1

> <Gold.Version>
5.8.1

> <Gold.Id.Protein>
6NUR|6NUR_protein|mol2

> <Gold.PLP.Fitness>
47.1375

> <Gold.PLP.PLP>
-48.7450

> <Gold.PLP.part.hbond>
-0.8915

> <Gold.PLP.part.metal>
0.0000

> <Gold.PLP.part.buried>
-7.5825

> <Gold.PLP.part.nonpolar>
-39.4636

> <Gold.PLP.part.repulsive>
0.2309

> <Gold.PLP.ligand.clash>
0.0000

> <Gold.PLP.ligand.torsion>
0.8137

> <Gold.PLP.Chemscore.Hbond>
0.0000

> <Gold.PLP.Chemscore.CHOScore>
0.0000

> <Gold.PLP.Chemscore.Metal>
0.0000

> <Gold.PLP.Chemscore.Internal.Correction>
0.0200

> <Gold.Rescore>
     Score         DG    S(hbond)    S(metal)    S(lipo)     H(rot)  DE(clash)    DE(int)     intcor
     14.49     -17.44       0.00        0.00     134.99       1.50       1.30       1.66       ----

> <Gold.Chemscore.Fitness>
14.4859

> <Gold.Chemscore.DG>
-17.4428

> <Gold.Chemscore.ZeroCoef>
-5.4800

> <Gold.Chemscore.Hbond>
0.0000

> <Gold.Chemscore.Metal>
0.0000

> <Gold.Chemscore.Lipo>
134.9903

> <Gold.Chemscore.Internal_Hbond>
0.0000

> <Gold.Chemscore.DEClash>
1.2989

> <Gold.Chemscore.DEInternal>
1.6580

> <Gold.Chemscore.Rot>
1.4965

> <Gold.Chemscore.Internal.Correction>
   9.000000E+99

> <Gold.Chemscore.Hbond.Weighted>
-0.0000

> <Gold.Chemscore.Metal.Weighted>
-0.0000

> <Gold.Chemscore.Lipo.Weighted>
-15.7939

> <Gold.Chemscore.Internal_Hbond.Weighted>
0.0000

> <Gold.Chemscore.DEClash.Weighted>
1.2989

> <Gold.Chemscore.DEInternal.Weighted>
1.6580

> <Gold.Chemscore.Rot.Weighted>
3.8311

> <Gold.Chemscore.Internal.Correction.Weighted>
   9.000000E+99

> <Gold.Protein.RotatedTorsions>
[ 6907 6896 6895 6894 ] final    6.10 input  -60.11 | X-H torsion
[ 7974 7965 7964 7962 ] final   -9.61 input  175.53 | X-H torsion
[ 8008 7997 7996 7995 ] final  -62.75 input   59.86 | X-H torsion
[ 10167 10162 10161 10158 ] final  122.84 input  -65.29 | X-H torsion
[ 10718 10713 10712 10709 ] final  -69.49 input   66.30 | X-H torsion
[ 10763 10752 10751 10750 ] final -127.94 input  -60.55 | X-H torsion
[ 11005 11000 10999 10996 ] final  -49.84 input  -57.11 | X-H torsion

> <Gold.Protein.ActiveResidues>
 VAL166  LYS551  ARG553  GLY616  TRP617  ASP618  TYR619  PRO620  LYS621  CYS622 
 ASP623  PHE694  ASN695  SER759  ASP760  ASP761  ALA762  ILE779  LEU786  VAL792 
 PHE793  MET794  SER795  GLU796  ALA797  LYS798  CYS799  TRP800  GLU811  SER814 

> <Gold.Protein.RotatedAtoms>
  151.6682  135.0980  160.0192 H   0  0  0  0  0  0  0  0  0  0  0  0  # atno 6907 bound_to 6896
  152.3907  133.6671  159.6244 H   0  0  0  0  0  0  0  0  0  0  0  0  # atno 6908 bound_to 6896
  150.7823  133.8875  159.3345 H   0  0  0  0  0  0  0  0  0  0  0  0  # atno 6909 bound_to 6896
  146.2246  140.2642  142.8353 H   0  0  0  0  0  0  0  0  0  0  0  0  # atno 7974 bound_to 7965
  154.4516  140.0989  156.6635 H   0  0  0  0  0  0  0  0  0  0  0  0  # atno 8008 bound_to 7997
  155.5267  140.3480  155.4399 H   0  0  0  0  0  0  0  0  0  0  0  0  # atno 8009 bound_to 7997
  156.0693  140.1345  156.9837 H   0  0  0  0  0  0  0  0  0  0  0  0  # atno 8010 bound_to 7997
  139.5834  144.6996  151.3470 H   0  0  0  0  0  0  0  0  0  0  0  0  # atno 10167 bound_to 10162
  156.0453  130.4313  150.2155 H   0  0  0  0  0  0  0  0  0  0  0  0  # atno 10718 bound_to 10713
  154.8754  135.3945  154.3675 H   0  0  0  0  0  0  0  0  0  0  0  0  # atno 10763 bound_to 10752
  153.4439  135.7027  153.6156 H   0  0  0  0  0  0  0  0  0  0  0  0  # atno 10764 bound_to 10752
  153.4725  135.3787  155.2368 H   0  0  0  0  0  0  0  0  0  0  0  0  # atno 10765 bound_to 10752
  141.0782  133.6660  156.3644 H   0  0  0  0  0  0  0  0  0  0  0  0  # atno 11005 bound_to 11000
  144.9316  140.7981  143.5685 LP  0  0  0  0  0  0  0  0  0  0  0  0  # atno 17320 bound_to 7965
  145.2586  139.2001  143.4904 LP  0  0  0  0  0  0  0  0  0  0  0  0  # atno 17321 bound_to 7965
  140.7109  143.7391  150.7566 LP  0  0  0  0  0  0  0  0  0  0  0  0  # atno 17342 bound_to 10162
  140.0930  143.4860  152.2468 LP  0  0  0  0  0  0  0  0  0  0  0  0  # atno 17343 bound_to 10162
  157.0246  130.9989  151.3330 LP  0  0  0  0  0  0  0  0  0  0  0  0  # atno 17370 bound_to 10713
  157.5320  130.8065  149.7928 LP  0  0  0  0  0  0  0  0  0  0  0  0  # atno 17371 bound_to 10713
  140.5526  134.6012  157.5412 LP  0  0  0  0  0  0  0  0  0  0  0  0  # atno 17394 bound_to 11000
  139.9595  134.7477  156.0268 LP  0  0  0  0  0  0  0  0  0  0  0  0  # atno 17395 bound_to 11000

$$$$
