AV-unprocessed.smi:1662|AV-procd|sdf|6658|dock10
  -GOLD-   22720 7363D 1   1.00000     0.00000
 Structure written by MMmdl.
 47 48  0  0  0  0  0  0  0  0  1 V2000
  151.6944  143.5929  159.1086 C   0  0  0  0  0  0  0  0  0  0  0  0
  152.1898  142.1860  159.3092 C   0  0  0  0  0  0  0  0  0  0  0  0
  151.9011  141.3321  158.3829 N   0  0  0  0  0  0  0  0  0  0  0  0
  152.3026  140.0133  158.4696 N   0  0  0  0  0  0  0  0  0  0  0  0
  151.8730  139.1788  157.3378 C   0  0  0  0  0  0  0  0  0  0  0  0
  151.0388  139.9486  156.3041 C   0  0  0  0  0  0  0  0  0  0  0  0
  151.4321  140.0694  155.1431 O   0  0  0  0  0  0  0  0  0  0  0  0
  149.8773  140.4552  156.7445 N   0  0  0  0  0  0  0  0  0  0  0  0
  148.9435  141.2475  155.9475 C   0  0  1  0  0  0  0  0  0  0  0  0
  148.6777  140.5429  154.6030 C   0  0  0  0  0  0  0  0  0  0  0  0
  147.7236  141.3642  153.7231 C   0  0  0  0  0  0  0  0  0  0  0  0
  146.4129  141.6851  154.4583 C   0  0  0  0  0  0  0  0  0  0  0  0
  146.6787  142.3832  155.8074 C   0  0  1  0  0  0  0  0  0  0  0  0
  145.3713  142.7989  156.5023 C   0  0  0  0  0  0  0  0  0  0  0  0
  147.6221  141.5442  156.7104 C   0  0  1  0  0  0  0  0  0  0  0  0
  146.9557  140.2750  157.2918 C   0  0  0  0  0  0  0  0  0  0  0  0
  153.0298  139.4886  159.4983 C   0  0  0  0  0  0  0  0  0  0  0  0
  153.3739  138.3059  159.5305 O   0  0  0  0  0  0  0  0  0  0  0  0
  153.3528  140.4615  160.5442 C   0  0  0  0  0  0  0  0  0  0  0  0
  154.1060  139.9517  161.6442 C   0  0  0  0  0  0  0  0  0  0  0  0
  154.7005  139.5412  162.5489 N   0  0  0  0  0  0  0  0  0  0  0  0
  152.9615  141.7585  160.4721 C   0  0  0  0  0  0  0  0  0  0  0  0
  153.2721  142.8071  161.5314 C   0  0  0  0  0  0  0  0  0  0  0  0
  152.5294  144.2801  158.9729 H   0  0  0  0  0  0  0  0  0  0  0  0
  151.1160  143.9280  159.9694 H   0  0  0  0  0  0  0  0  0  0  0  0
  151.0518  143.6763  158.2310 H   0  0  0  0  0  0  0  0  0  0  0  0
  152.7393  138.7574  156.8246 H   0  0  0  0  0  0  0  0  0  0  0  0
  151.3058  138.3217  157.7065 H   0  0  0  0  0  0  0  0  0  0  0  0
  149.6309  140.3017  157.7115 H   0  0  0  0  0  0  0  0  0  0  0  0
  149.4263  142.2002  155.7202 H   0  0  0  0  0  0  0  0  0  0  0  0
  149.6176  140.3893  154.0714 H   0  0  0  0  0  0  0  0  0  0  0  0
  148.2574  139.5509  154.7717 H   0  0  0  0  0  0  0  0  0  0  0  0
  148.2121  142.2942  153.4293 H   0  0  0  0  0  0  0  0  0  0  0  0
  147.5103  140.8240  152.8004 H   0  0  0  0  0  0  0  0  0  0  0  0
  145.7933  142.3225  153.8264 H   0  0  0  0  0  0  0  0  0  0  0  0
  145.8440  140.7680  154.6140 H   0  0  0  0  0  0  0  0  0  0  0  0
  147.2064  143.3116  155.5832 H   0  0  0  0  0  0  0  0  0  0  0  0
  144.7156  141.9460  156.6783 H   0  0  0  0  0  0  0  0  0  0  0  0
  144.8173  143.5119  155.8912 H   0  0  0  0  0  0  0  0  0  0  0  0
  145.5700  143.2756  157.4626 H   0  0  0  0  0  0  0  0  0  0  0  0
  147.8783  142.1703  157.5664 H   0  0  0  0  0  0  0  0  0  0  0  0
  146.6353  139.5852  156.5118 H   0  0  0  0  0  0  0  0  0  0  0  0
  146.0813  140.5227  157.8923 H   0  0  0  0  0  0  0  0  0  0  0  0
  147.6330  139.7324  157.9513 H   0  0  0  0  0  0  0  0  0  0  0  0
  153.9278  142.4231  162.3124 H   0  0  0  0  0  0  0  0  0  0  0  0
  152.3532  143.1472  162.0103 H   0  0  0  0  0  0  0  0  0  0  0  0
  153.7685  143.6702  161.0865 H   0  0  0  0  0  0  0  0  0  0  0  0
  1  2  1  0  0  0  0
  1 24  1  0  0  0  0
  1 25  1  0  0  0  0
  1 26  1  0  0  0  0
  2 22  1  0  0  0  0
  2  3  2  0  0  0  0
  3  4  1  0  0  0  0
  4  5  1  0  0  0  0
  4 17  1  0  0  0  0
  5  6  1  0  0  0  0
  5 27  1  0  0  0  0
  5 28  1  0  0  0  0
  6  7  2  0  0  0  0
  6  8  1  0  0  0  0
  8  9  1  0  0  0  0
  8 29  1  0  0  0  0
  9 15  1  0  0  0  0
  9 10  1  0  0  0  0
  9 30  1  0  0  0  0
 10 11  1  0  0  0  0
 10 31  1  0  0  0  0
 10 32  1  0  0  0  0
 11 12  1  0  0  0  0
 11 33  1  0  0  0  0
 11 34  1  0  0  0  0
 12 13  1  0  0  0  0
 12 35  1  0  0  0  0
 12 36  1  0  0  0  0
 13 14  1  0  0  0  0
 13 15  1  0  0  0  0
 13 37  1  0  0  0  0
 14 38  1  0  0  0  0
 14 39  1  0  0  0  0
 14 40  1  0  0  0  0
 15 16  1  0  0  0  0
 15 41  1  0  0  0  0
 16 42  1  0  0  0  0
 16 43  1  0  0  0  0
 16 44  1  0  0  0  0
 17 18  2  0  0  0  0
 17 19  1  0  0  0  0
 19 20  1  0  0  0  0
 19 22  2  0  0  0  0
 20 21  3  0  0  0  0
 22 23  1  0  0  0  0
 23 45  1  0  0  0  0
 23 46  1  0  0  0  0
 23 47  1  0  0  0  0
M  END
> <s_m_source_file>
AV-unprocessed.smi

> <i_m_source_file_index>
1662

> <i_lp_mmshare_version>
43012

> <i_f3d_flags>
0

> <s_epik_input>
TiNDYyhjMVtDSDNdKWMoPU8pbihuYzFbQ0gzXSlbQ0gyXUMoPU8pW05IXVtDQEBIXTJbQ0gyXVtDSDJdW0NIMl1bQ0BASF0oW0NIM10pW0NASF0yW0NIM10=

> <s_epik_cmdline>
J2VwaWtfcHl0aG9uJywgJy1waCcsICc3LjAnLCAnLXRuJywgJzgnLCAnLW1hJywgJzIwMCcsICctbWV0YWxfYmluZGluZycsICctaW1hZScsICc8aW5maWxlLm1hZT4nLCAnLW9tYWUnLCAnPG91dGZpbGUubWFlPic=

> <r_lp_tautomer_probability>
1

> <r_epik_Ionization_Penalty>
1.90709e-08

> <r_epik_Ionization_Penalty_Charging>
2.37982e-11

> <r_epik_Ionization_Penalty_Neutral>
1.90471e-08

> <r_epik_State_Penalty>
-0

> <r_epik_Charging_Adjusted_Penalty>
2.37982e-11

> <i_epik_Tot_Q>
0

> <i_epik_Tot_abs_Q>
0

> <r_epik_Metal_State_Penalty>
-0

> <b_epik_Metal_Only>
0

> <s_lp_Force_Field>
OPLS_2005

> <r_lp_Energy>
29.2459

> <b_lp_Chiralities_Consistent>
1

> <s_lp_Variant>
AV-unprocessed.smi:1662-2

> <Gold.Version>
5.8.1

> <Gold.Id.Protein>
6NUR|6NUR_protein|mol2

> <Gold.PLP.Fitness>
41.9751

> <Gold.PLP.PLP>
-39.1538

> <Gold.PLP.part.hbond>
-1.0000

> <Gold.PLP.part.metal>
0.0000

> <Gold.PLP.part.buried>
-5.4143

> <Gold.PLP.part.nonpolar>
-32.0894

> <Gold.PLP.part.repulsive>
0.0813

> <Gold.PLP.ligand.clash>
0.0000

> <Gold.PLP.ligand.torsion>
0.0834

> <Gold.PLP.Chemscore.Hbond>
0.9920

> <Gold.PLP.Chemscore.CHOScore>
0.0000

> <Gold.PLP.Chemscore.Metal>
0.0000

> <Gold.Chemscore.Hbonds>
donor molecule, donor type, donor heavy atom, donor atom, acceptor molecule, acceptor atom, score
      P1  H  7989  7998       L1     7  1.00

> <Gold.PLP.Chemscore.Internal.Correction>
0.0120

> <Gold.Rescore>
     Score         DG    S(hbond)    S(metal)    S(lipo)     H(rot)  DE(clash)    DE(int)     intcor
     15.35     -15.55       0.99        0.00      89.57       1.45       0.09       0.10       ----

> <Gold.Chemscore.Fitness>
15.3537

> <Gold.Chemscore.DG>
-15.5487

> <Gold.Chemscore.ZeroCoef>
-5.4800

> <Gold.Chemscore.Hbond>
0.9886

> <Gold.Chemscore.Metal>
0.0000

> <Gold.Chemscore.Lipo>
89.5703

> <Gold.Chemscore.Internal_Hbond>
0.0000

> <Gold.Chemscore.DEClash>
0.0948

> <Gold.Chemscore.DEInternal>
0.1002

> <Gold.Chemscore.Rot>
1.4504

> <Gold.Chemscore.Internal.Correction>
   9.000000E+99

> <Gold.Chemscore.Hbonds>
donor molecule, donor type, donor heavy atom, donor atom, acceptor molecule, acceptor atom, score
      P1  H  7989  7998       L1     7  0.98

> <Gold.Chemscore.Hbond.Weighted>
-3.3019

> <Gold.Chemscore.Metal.Weighted>
-0.0000

> <Gold.Chemscore.Lipo.Weighted>
-10.4797

> <Gold.Chemscore.Internal_Hbond.Weighted>
0.0000

> <Gold.Chemscore.DEClash.Weighted>
0.0948

> <Gold.Chemscore.DEInternal.Weighted>
0.1002

> <Gold.Chemscore.Rot.Weighted>
3.7129

> <Gold.Chemscore.Internal.Correction.Weighted>
   9.000000E+99

> <Gold.Protein.RotatedTorsions>
[ 6907 6896 6895 6894 ] final  123.62 input  -60.11 | X-H torsion
[ 7974 7965 7964 7962 ] final   86.39 input  175.53 | X-H torsion
[ 8008 7997 7996 7995 ] final  -97.91 input   59.86 | X-H torsion
[ 10167 10162 10161 10158 ] final  -94.06 input  -65.29 | X-H torsion
[ 10718 10713 10712 10709 ] final   41.11 input   66.30 | X-H torsion
[ 10763 10752 10751 10750 ] final  -46.65 input  -60.55 | X-H torsion
[ 11005 11000 10999 10996 ] final  -43.33 input  -57.11 | X-H torsion

> <Gold.Protein.ActiveResidues>
 VAL166  LYS551  ARG553  GLY616  TRP617  ASP618  TYR619  PRO620  LYS621  CYS622 
 ASP623  PHE694  ASN695  SER759  ASP760  ASP761  ALA762  ILE779  LEU786  VAL792 
 PHE793  MET794  SER795  GLU796  ALA797  LYS798  CYS799  TRP800  GLU811  SER814 

> <Gold.Protein.RotatedAtoms>
  152.4147  133.7019  159.6428 H   0  0  0  0  0  0  0  0  0  0  0  0  # atno 6907 bound_to 6896
  150.8025  133.8562  159.3228 H   0  0  0  0  0  0  0  0  0  0  0  0  # atno 6908 bound_to 6896
  151.6295  135.1026  160.0170 H   0  0  0  0  0  0  0  0  0  0  0  0  # atno 6909 bound_to 6896
  145.5729  139.2316  143.2396 H   0  0  0  0  0  0  0  0  0  0  0  0  # atno 7974 bound_to 7965
  154.7941  140.0459  157.1223 H   0  0  0  0  0  0  0  0  0  0  0  0  # atno 8008 bound_to 7997
  154.9556  140.3071  155.5035 H   0  0  0  0  0  0  0  0  0  0  0  0  # atno 8009 bound_to 7997
  156.2953  140.2280  156.4637 H   0  0  0  0  0  0  0  0  0  0  0  0  # atno 8010 bound_to 7997
  140.3183  143.3064  152.0074 H   0  0  0  0  0  0  0  0  0  0  0  0  # atno 10167 bound_to 10162
  157.3898  130.7800  149.7260 H   0  0  0  0  0  0  0  0  0  0  0  0  # atno 10718 bound_to 10713
  154.0484  135.6634  153.4797 H   0  0  0  0  0  0  0  0  0  0  0  0  # atno 10763 bound_to 10752
  153.0473  135.5106  154.7774 H   0  0  0  0  0  0  0  0  0  0  0  0  # atno 10764 bound_to 10752
  154.6773  135.3039  154.9628 H   0  0  0  0  0  0  0  0  0  0  0  0  # atno 10765 bound_to 10752
  141.0376  133.6793  156.2718 H   0  0  0  0  0  0  0  0  0  0  0  0  # atno 11005 bound_to 11000
  146.1771  140.6555  142.9206 LP  0  0  0  0  0  0  0  0  0  0  0  0  # atno 17320 bound_to 7965
  144.7429  140.4991  143.6856 LP  0  0  0  0  0  0  0  0  0  0  0  0  # atno 17321 bound_to 7965
  139.4879  144.6331  151.7030 LP  0  0  0  0  0  0  0  0  0  0  0  0  # atno 17342 bound_to 10162
  140.5506  144.0431  150.6125 LP  0  0  0  0  0  0  0  0  0  0  0  0  # atno 17343 bound_to 10162
  155.9795  130.4039  150.3580 LP  0  0  0  0  0  0  0  0  0  0  0  0  # atno 17370 bound_to 10713
  157.1695  131.0365  151.2802 LP  0  0  0  0  0  0  0  0  0  0  0  0  # atno 17371 bound_to 10713
  140.6293  134.5280  157.5557 LP  0  0  0  0  0  0  0  0  0  0  0  0  # atno 17394 bound_to 11000
  139.9252  134.8070  156.1090 LP  0  0  0  0  0  0  0  0  0  0  0  0  # atno 17395 bound_to 11000

$$$$
