AV-unprocessed.smi:314|AV-procd|sdf|2315|dock4
  -GOLD-   2262022223D 1   1.00000     0.00000
 Structure written by MMmdl.
 48 49  0  0  0  0  0  0  0  0  1 V2000
  141.0904  145.1994  161.3016 C   0  0  0  0  0  0  0  0  0  0  0  0
  142.1547  144.3913  161.7917 O   0  0  0  0  0  0  0  0  0  0  0  0
  143.2609  144.2067  160.9877 C   0  0  0  0  0  0  0  0  0  0  0  0
  144.2798  143.3403  161.4312 C   0  0  0  0  0  0  0  0  0  0  0  0
  145.4116  143.1509  160.6160 C   0  0  0  0  0  0  0  0  0  0  0  0
  145.4980  143.8400  159.3899 C   0  0  0  0  0  0  0  0  0  0  0  0
  146.6407  143.6200  158.5750 N   0  0  0  0  0  0  0  0  0  0  0  0
  147.2833  142.4624  158.3449 C   0  0  0  0  0  0  0  0  0  0  0  0
  146.9296  141.3593  158.7616 O   0  0  0  0  0  0  0  0  0  0  0  0
  148.3659  142.6503  157.5768 N   0  0  0  0  0  0  0  0  0  0  0  0
  149.2703  141.5936  157.1366 C   0  0  0  0  0  0  0  0  0  0  0  0
  150.7255  142.0958  157.0322 C   0  0  0  0  0  0  0  0  0  0  0  0
  151.6072  141.6942  158.2267 C   0  0  0  0  0  0  0  0  0  0  0  0
  151.7051  140.5024  158.5233 O   0  0  0  0  0  0  0  0  0  0  0  0
  152.2409  142.6653  158.9269 N   0  0  0  0  0  0  0  0  0  0  0  0
  152.9975  142.4094  160.1535 C   0  0  0  0  0  0  0  0  0  0  0  0
  152.2407  143.0607  161.3277 C   0  0  1  0  0  0  0  0  0  0  0  0
  152.9909  142.9054  162.6545 C   0  0  0  0  0  0  0  0  0  0  0  0
  152.0744  144.4585  161.0739 O   0  0  0  0  0  0  0  0  0  0  0  0
  151.4360  144.7945  159.8374 C   0  0  2  0  0  0  0  0  0  0  0  0
  149.9253  144.5011  159.8861 C   0  0  0  0  0  0  0  0  0  0  0  0
  152.1722  144.1064  158.6685 C   0  0  0  0  0  0  0  0  0  0  0  0
  144.4157  144.6775  159.0260 C   0  0  0  0  0  0  0  0  0  0  0  0
  143.3262  144.8604  159.8015 N   0  0  0  0  0  0  0  0  0  0  0  0
  140.3043  145.2558  162.0542 H   0  0  0  0  0  0  0  0  0  0  0  0
  140.6522  144.7758  160.3967 H   0  0  0  0  0  0  0  0  0  0  0  0
  141.4243  146.2173  161.0952 H   0  0  0  0  0  0  0  0  0  0  0  0
  144.1943  142.8308  162.3794 H   0  0  0  0  0  0  0  0  0  0  0  0
  146.2042  142.4894  160.9339 H   0  0  0  0  0  0  0  0  0  0  0  0
  146.9844  144.4290  158.0787 H   0  0  0  0  0  0  0  0  0  0  0  0
  148.5788  143.5890  157.2722 H   0  0  0  0  0  0  0  0  0  0  0  0
  149.1996  140.7470  157.8222 H   0  0  0  0  0  0  0  0  0  0  0  0
  148.9239  141.2389  156.1652 H   0  0  0  0  0  0  0  0  0  0  0  0
  151.1801  141.7188  156.1153 H   0  0  0  0  0  0  0  0  0  0  0  0
  150.7171  143.1838  156.9647 H   0  0  0  0  0  0  0  0  0  0  0  0
  153.1418  141.3454  160.3464 H   0  0  0  0  0  0  0  0  0  0  0  0
  153.9975  142.8356  160.0604 H   0  0  0  0  0  0  0  0  0  0  0  0
  151.2620  142.5920  161.4353 H   0  0  0  0  0  0  0  0  0  0  0  0
  153.1287  141.8536  162.9060 H   0  0  0  0  0  0  0  0  0  0  0  0
  152.4389  143.3724  163.4707 H   0  0  0  0  0  0  0  0  0  0  0  0
  153.9754  143.3713  162.6081 H   0  0  0  0  0  0  0  0  0  0  0  0
  151.5497  145.8723  159.7168 H   0  0  0  0  0  0  0  0  0  0  0  0
  149.4342  144.8495  158.9771 H   0  0  0  0  0  0  0  0  0  0  0  0
  149.4583  145.0119  160.7283 H   0  0  0  0  0  0  0  0  0  0  0  0
  149.7108  143.4373  159.9825 H   0  0  0  0  0  0  0  0  0  0  0  0
  153.1889  144.4962  158.5988 H   0  0  0  0  0  0  0  0  0  0  0  0
  151.7029  144.3654  157.7207 H   0  0  0  0  0  0  0  0  0  0  0  0
  144.3934  145.2047  158.0848 H   0  0  0  0  0  0  0  0  0  0  0  0
  1  2  1  0  0  0  0
  1 25  1  0  0  0  0
  1 26  1  0  0  0  0
  1 27  1  0  0  0  0
  2  3  1  0  0  0  0
  3 24  1  0  0  0  0
  3  4  2  0  0  0  0
  4  5  1  0  0  0  0
  4 28  1  0  0  0  0
  5  6  2  0  0  0  0
  5 29  1  0  0  0  0
  6  7  1  0  0  0  0
  6 23  1  0  0  0  0
  7  8  1  0  0  0  0
  7 30  1  0  0  0  0
  8  9  2  0  0  0  0
  8 10  1  0  0  0  0
 10 11  1  0  0  0  0
 10 31  1  0  0  0  0
 11 12  1  0  0  0  0
 11 32  1  0  0  0  0
 11 33  1  0  0  0  0
 12 13  1  0  0  0  0
 12 34  1  0  0  0  0
 12 35  1  0  0  0  0
 13 14  2  0  0  0  0
 13 15  1  0  0  0  0
 15 22  1  0  0  0  0
 15 16  1  0  0  0  0
 16 17  1  0  0  0  0
 16 36  1  0  0  0  0
 16 37  1  0  0  0  0
 17 18  1  0  0  0  0
 17 19  1  0  0  0  0
 17 38  1  0  0  0  0
 18 39  1  0  0  0  0
 18 40  1  0  0  0  0
 18 41  1  0  0  0  0
 19 20  1  0  0  0  0
 20 21  1  0  0  0  0
 20 22  1  0  0  0  0
 20 42  1  0  0  0  0
 21 43  1  0  0  0  0
 21 44  1  0  0  0  0
 21 45  1  0  0  0  0
 22 46  1  0  0  0  0
 22 47  1  0  0  0  0
 23 24  2  0  0  0  0
 23 48  1  0  0  0  0
M  END
> <s_m_source_file>
AV-unprocessed.smi

> <i_m_source_file_index>
314

> <i_lp_mmshare_version>
43012

> <i_f3d_flags>
0

> <s_epik_input>
W0NIM11PYzFbY0hdW2NIXWMoW2NIXW4xKVtOSF1DKD1PKVtOSF1bQ0gyXVtDSDJdQyg9TylOMltDSDJdW0NAQEhdKFtDSDNdKU9bQ0BASF0oW0NIM10pW0NIMl0y

> <s_epik_cmdline>
J2VwaWtfcHl0aG9uJywgJy1waCcsICc3LjAnLCAnLXRuJywgJzgnLCAnLW1hJywgJzIwMCcsICctbWV0YWxfYmluZGluZycsICctaW1hZScsICc8aW5maWxlLm1hZT4nLCAnLW9tYWUnLCAnPG91dGZpbGUubWFlPic=

> <r_lp_tautomer_probability>
1

> <r_epik_Ionization_Penalty>
8.55977e-05

> <r_epik_Ionization_Penalty_Charging>
0

> <r_epik_Ionization_Penalty_Neutral>
8.55977e-05

> <r_epik_State_Penalty>
-0

> <r_epik_Charging_Adjusted_Penalty>
0

> <i_epik_Tot_Q>
0

> <i_epik_Tot_abs_Q>
0

> <r_epik_Metal_State_Penalty>
-0

> <b_epik_Metal_Only>
0

> <s_lp_Force_Field>
OPLS_2005

> <r_lp_Energy>
24.1988

> <b_lp_Chiralities_Consistent>
1

> <s_lp_Variant>
AV-unprocessed.smi:314-3

> <Gold.Version>
5.8.1

> <Gold.Id.Protein>
6NUR|6NUR_protein|mol2

> <Gold.PLP.Fitness>
53.0376

> <Gold.PLP.PLP>
-48.1332

> <Gold.PLP.part.hbond>
-3.2729

> <Gold.PLP.part.metal>
0.0000

> <Gold.PLP.part.buried>
-7.4020

> <Gold.PLP.part.nonpolar>
-37.6222

> <Gold.PLP.part.repulsive>
0.4391

> <Gold.PLP.ligand.clash>
0.0000

> <Gold.PLP.ligand.torsion>
0.8309

> <Gold.PLP.Chemscore.Hbond>
2.1800

> <Gold.PLP.Chemscore.CHOScore>
0.0000

> <Gold.PLP.Chemscore.Metal>
0.0000

> <Gold.Chemscore.Hbonds>
donor molecule, donor type, donor heavy atom, donor atom, acceptor molecule, acceptor atom, score
      L1  H     7    30       P1  8029  1.00
      L1  H    10    31       P1  8028  0.63
      P1  H  6934  6946       L1     9  0.42

> <Gold.PLP.Chemscore.Internal.Correction>
0.0261

> <Gold.Rescore>
     Score         DG    S(hbond)    S(metal)    S(lipo)     H(rot)  DE(clash)    DE(int)     intcor
     15.11     -17.76       1.49        0.00     101.88       1.81       0.44       2.22       ----

> <Gold.Chemscore.Fitness>
15.1093

> <Gold.Chemscore.DG>
-17.7638

> <Gold.Chemscore.ZeroCoef>
-5.4800

> <Gold.Chemscore.Hbond>
1.4936

> <Gold.Chemscore.Metal>
0.0000

> <Gold.Chemscore.Lipo>
101.8834

> <Gold.Chemscore.Internal_Hbond>
0.0000

> <Gold.Chemscore.DEClash>
0.4393

> <Gold.Chemscore.DEInternal>
2.2153

> <Gold.Chemscore.Rot>
1.8067

> <Gold.Chemscore.Internal.Correction>
   9.000000E+99

> <Gold.Chemscore.Hbonds>
donor molecule, donor type, donor heavy atom, donor atom, acceptor molecule, acceptor atom, score
      L1  H     7    30       P1  8029  0.55
      L1  H    10    31       P1  8028  0.06
      P1  H  6934  6946       L1     9  0.41

> <Gold.Chemscore.Hbond.Weighted>
-4.9886

> <Gold.Chemscore.Metal.Weighted>
-0.0000

> <Gold.Chemscore.Lipo.Weighted>
-11.9204

> <Gold.Chemscore.Internal_Hbond.Weighted>
0.0000

> <Gold.Chemscore.DEClash.Weighted>
0.4393

> <Gold.Chemscore.DEInternal.Weighted>
2.2153

> <Gold.Chemscore.Rot.Weighted>
4.6252

> <Gold.Chemscore.Internal.Correction.Weighted>
   9.000000E+99

> <Gold.Protein.RotatedTorsions>
[ 6907 6896 6895 6894 ] final  101.93 input  -60.11 | X-H torsion
[ 7974 7965 7964 7962 ] final -133.44 input  175.53 | X-H torsion
[ 8008 7997 7996 7995 ] final   39.41 input   59.86 | X-H torsion
[ 10167 10162 10161 10158 ] final   15.61 input  -65.29 | X-H torsion
[ 10718 10713 10712 10709 ] final -116.30 input   66.30 | X-H torsion
[ 10763 10752 10751 10750 ] final    2.99 input  -60.55 | X-H torsion
[ 11005 11000 10999 10996 ] final -150.12 input  -57.11 | X-H torsion

> <Gold.Protein.ActiveResidues>
 VAL166  LYS551  ARG553  GLY616  TRP617  ASP618  TYR619  PRO620  LYS621  CYS622 
 ASP623  PHE694  ASN695  SER759  ASP760  ASP761  ALA762  ILE779  LEU786  VAL792 
 PHE793  MET794  SER795  GLU796  ALA797  LYS798  CYS799  TRP800  GLU811  SER814 

> <Gold.Protein.RotatedAtoms>
  152.5337  134.0052  159.7912 H   0  0  0  0  0  0  0  0  0  0  0  0  # atno 6907 bound_to 6896
  151.0264  133.5822  159.2672 H   0  0  0  0  0  0  0  0  0  0  0  0  # atno 6908 bound_to 6896
  151.2843  135.0730  159.9234 H   0  0  0  0  0  0  0  0  0  0  0  0  # atno 6909 bound_to 6896
  144.9193  140.6994  143.4975 H   0  0  0  0  0  0  0  0  0  0  0  0  # atno 7974 bound_to 7965
  155.2362  140.3342  155.4297 H   0  0  0  0  0  0  0  0  0  0  0  0  # atno 8008 bound_to 7997
  156.2275  140.1835  156.7372 H   0  0  0  0  0  0  0  0  0  0  0  0  # atno 8009 bound_to 7997
  154.5922  140.0636  156.9240 H   0  0  0  0  0  0  0  0  0  0  0  0  # atno 8010 bound_to 7997
  140.5855  143.8898  150.6826 H   0  0  0  0  0  0  0  0  0  0  0  0  # atno 10167 bound_to 10162
  156.0954  130.6128  150.9018 H   0  0  0  0  0  0  0  0  0  0  0  0  # atno 10718 bound_to 10713
  153.2888  135.6947  153.7313 H   0  0  0  0  0  0  0  0  0  0  0  0  # atno 10763 bound_to 10752
  153.6272  135.3416  155.3031 H   0  0  0  0  0  0  0  0  0  0  0  0  # atno 10764 bound_to 10752
  154.8518  135.4400  154.1964 H   0  0  0  0  0  0  0  0  0  0  0  0  # atno 10765 bound_to 10752
  140.7436  134.3487  157.5142 H   0  0  0  0  0  0  0  0  0  0  0  0  # atno 11005 bound_to 11000
  145.3323  139.1756  143.4530 LP  0  0  0  0  0  0  0  0  0  0  0  0  # atno 17320 bound_to 7965
  146.3197  140.3354  142.8643 LP  0  0  0  0  0  0  0  0  0  0  0  0  # atno 17321 bound_to 7965
  140.2408  143.3665  152.1488 LP  0  0  0  0  0  0  0  0  0  0  0  0  # atno 17342 bound_to 10162
  139.5195  144.7020  151.5465 LP  0  0  0  0  0  0  0  0  0  0  0  0  # atno 17343 bound_to 10162
  157.6113  131.0936  150.8789 LP  0  0  0  0  0  0  0  0  0  0  0  0  # atno 17370 bound_to 10713
  156.8928  130.5219  149.5285 LP  0  0  0  0  0  0  0  0  0  0  0  0  # atno 17371 bound_to 10713
  139.8801  134.9096  156.2995 LP  0  0  0  0  0  0  0  0  0  0  0  0  # atno 17394 bound_to 11000
  140.9815  133.7264  156.0679 LP  0  0  0  0  0  0  0  0  0  0  0  0  # atno 17395 bound_to 11000

$$$$
