AV-unprocessed.smi:1055|AV-procd|sdf|4629|dock2
  -GOLD-   22720 3133D 1   1.00000     0.00000
 Structure written by MMmdl.
 50 51  0  0  0  0  0  0  0  0  1 V2000
  143.6193  132.4349  148.3446 C   0  0  0  0  0  0  0  0  0  0  0  0
  144.2099  132.3242  149.5457 C   0  0  0  0  0  0  0  0  0  0  0  0
  145.6328  131.8201  149.6984 C   0  0  0  0  0  0  0  0  0  0  0  0
  143.4977  132.7201  150.8310 C   0  0  0  0  0  0  0  0  0  0  0  0
  143.9801  133.9769  151.4039 N   0  0  0  0  0  0  0  0  0  0  0  0
  143.0596  134.4926  152.4234 C   0  0  0  0  0  0  0  0  0  0  0  0
  143.6214  135.7786  153.0539 C   0  0  0  0  0  0  0  0  0  0  0  0
  143.8741  136.8565  151.9859 C   0  0  0  0  0  0  0  0  0  0  0  0
  144.5360  138.0213  152.5657 N   0  0  0  0  0  0  0  0  0  0  0  0
  145.7484  138.0158  153.1376 C   0  0  0  0  0  0  0  0  0  0  0  0
  146.4434  137.0059  153.2456 O   0  0  0  0  0  0  0  0  0  0  0  0
  146.0800  139.2402  153.5819 N   0  0  0  0  0  0  0  0  0  0  0  0
  147.2802  139.6554  154.2193 C   0  0  0  0  0  0  0  0  0  0  0  0
  147.2902  140.9085  154.8604 C   0  0  0  0  0  0  0  0  0  0  0  0
  148.4696  141.3553  155.4856 C   0  0  0  0  0  0  0  0  0  0  0  0
  149.6255  140.5366  155.4480 C   0  0  0  0  0  0  0  0  0  0  0  0
  150.8342  140.9372  156.0624 N   0  0  0  0  0  0  0  0  0  0  0  0
  151.9899  140.0488  156.0572 C   0  0  0  0  0  0  0  0  0  0  0  0
  150.9424  142.2677  156.6521 C   0  0  0  0  0  0  0  0  0  0  0  0
  149.6165  139.3375  154.8157 N   0  0  0  0  0  0  0  0  0  0  0  0
  148.4833  138.9117  154.2192 C   0  0  0  0  0  0  0  0  0  0  0  0
  144.7452  136.2609  150.8704 C   0  0  0  0  0  0  0  0  0  0  0  0
  144.1329  134.9581  150.3278 C   0  0  0  0  0  0  0  0  0  0  0  0
  144.1366  132.1592  147.4375 H   0  0  0  0  0  0  0  0  0  0  0  0
  142.6081  132.8027  148.2500 H   0  0  0  0  0  0  0  0  0  0  0  0
  146.2482  132.5722  150.1920 H   0  0  0  0  0  0  0  0  0  0  0  0
  146.0817  131.5963  148.7302 H   0  0  0  0  0  0  0  0  0  0  0  0
  145.6554  130.9102  150.2986 H   0  0  0  0  0  0  0  0  0  0  0  0
  142.4343  132.8121  150.6056 H   0  0  0  0  0  0  0  0  0  0  0  0
  143.5964  131.9196  151.5661 H   0  0  0  0  0  0  0  0  0  0  0  0
  142.0809  134.6840  151.9806 H   0  0  0  0  0  0  0  0  0  0  0  0
  142.9134  133.7550  153.2124 H   0  0  0  0  0  0  0  0  0  0  0  0
  142.9250  136.1498  153.8067 H   0  0  0  0  0  0  0  0  0  0  0  0
  144.5495  135.5475  153.5793 H   0  0  0  0  0  0  0  0  0  0  0  0
  142.9199  137.1613  151.5512 H   0  0  0  0  0  0  0  0  0  0  0  0
  144.0336  138.8960  152.5239 H   0  0  0  0  0  0  0  0  0  0  0  0
  145.3689  139.9512  153.4943 H   0  0  0  0  0  0  0  0  0  0  0  0
  146.4026  141.5240  154.8792 H   0  0  0  0  0  0  0  0  0  0  0  0
  148.4634  142.3155  155.9787 H   0  0  0  0  0  0  0  0  0  0  0  0
  151.7669  139.1276  156.5965 H   0  0  0  0  0  0  0  0  0  0  0  0
  152.8513  140.5141  156.5368 H   0  0  0  0  0  0  0  0  0  0  0  0
  152.2754  139.7962  155.0355 H   0  0  0  0  0  0  0  0  0  0  0  0
  150.1959  142.4015  157.4357 H   0  0  0  0  0  0  0  0  0  0  0  0
  150.7904  143.0363  155.8935 H   0  0  0  0  0  0  0  0  0  0  0  0
  151.9243  142.4276  157.0976 H   0  0  0  0  0  0  0  0  0  0  0  0
  148.5700  137.9604  153.7182 H   0  0  0  0  0  0  0  0  0  0  0  0
  144.8569  136.9806  150.0588 H   0  0  0  0  0  0  0  0  0  0  0  0
  145.7497  136.0587  151.2461 H   0  0  0  0  0  0  0  0  0  0  0  0
  144.7844  134.5523  149.5528 H   0  0  0  0  0  0  0  0  0  0  0  0
  143.1671  135.1587  149.8610 H   0  0  0  0  0  0  0  0  0  0  0  0
  1  2  2  0  0  0  0
  1 24  1  0  0  0  0
  1 25  1  0  0  0  0
  2  3  1  0  0  0  0
  2  4  1  0  0  0  0
  3 26  1  0  0  0  0
  3 27  1  0  0  0  0
  3 28  1  0  0  0  0
  4  5  1  0  0  0  0
  4 29  1  0  0  0  0
  4 30  1  0  0  0  0
  5 23  1  0  0  0  0
  5  6  1  0  0  0  0
  6  7  1  0  0  0  0
  6 31  1  0  0  0  0
  6 32  1  0  0  0  0
  7  8  1  0  0  0  0
  7 33  1  0  0  0  0
  7 34  1  0  0  0  0
  8  9  1  0  0  0  0
  8 22  1  0  0  0  0
  8 35  1  0  0  0  0
  9 10  1  0  0  0  0
  9 36  1  0  0  0  0
 10 11  2  0  0  0  0
 10 12  1  0  0  0  0
 12 13  1  0  0  0  0
 12 37  1  0  0  0  0
 13 21  1  0  0  0  0
 13 14  2  0  0  0  0
 14 15  1  0  0  0  0
 14 38  1  0  0  0  0
 15 16  2  0  0  0  0
 15 39  1  0  0  0  0
 16 17  1  0  0  0  0
 16 20  1  0  0  0  0
 17 18  1  0  0  0  0
 17 19  1  0  0  0  0
 18 40  1  0  0  0  0
 18 41  1  0  0  0  0
 18 42  1  0  0  0  0
 19 43  1  0  0  0  0
 19 44  1  0  0  0  0
 19 45  1  0  0  0  0
 20 21  2  0  0  0  0
 21 46  1  0  0  0  0
 22 23  1  0  0  0  0
 22 47  1  0  0  0  0
 22 48  1  0  0  0  0
 23 49  1  0  0  0  0
 23 50  1  0  0  0  0
M  END
> <s_m_source_file>
AV-unprocessed.smi

> <i_m_source_file_index>
1055

> <i_lp_mmshare_version>
43012

> <i_f3d_flags>
0

> <s_epik_input>
W0NIMl09QyhbQ0gzXSlbQ0gyXU4xW0NIMl1bQ0gyXVtDSF0oW0NIMl1bQ0gyXTEpW05IXUMoPU8pW05IXWMyW2NIXVtjSF1jKE4oW0NIM10pW0NIM10pbltjSF0y

> <s_epik_cmdline>
J2VwaWtfcHl0aG9uJywgJy1waCcsICc3LjAnLCAnLXRuJywgJzgnLCAnLW1hJywgJzIwMCcsICctbWV0YWxfYmluZGluZycsICctaW1hZScsICc8aW5maWxlLm1hZT4nLCAnLW9tYWUnLCAnPG91dGZpbGUubWFlPic=

> <r_epik_Ionization_Penalty>
2.66572

> <r_epik_Ionization_Penalty_Charging>
0

> <r_epik_Ionization_Penalty_Neutral>
2.66572

> <r_epik_State_Penalty>
2.75204

> <r_epik_Charging_Adjusted_Penalty>
2.75204

> <i_epik_Tot_Q>
0

> <i_epik_Tot_abs_Q>
0

> <r_epik_Metal_State_Penalty>
2.38689

> <b_epik_Metal_Only>
1

> <s_lp_Force_Field>
OPLS_2005

> <r_lp_Energy>
18.8719

> <b_lp_Chiralities_Consistent>
1

> <s_lp_Variant>
AV-unprocessed.smi:1055-6

> <Gold.Version>
5.8.1

> <Gold.Id.Protein>
6NUR|6NUR_protein|mol2

> <Gold.PLP.Fitness>
47.3249

> <Gold.PLP.PLP>
-39.3842

> <Gold.PLP.part.hbond>
-3.0000

> <Gold.PLP.part.metal>
0.0000

> <Gold.PLP.part.buried>
0.2899

> <Gold.PLP.part.nonpolar>
-39.2976

> <Gold.PLP.part.repulsive>
1.7251

> <Gold.PLP.ligand.clash>
0.0505

> <Gold.PLP.ligand.torsion>
0.3362

> <Gold.PLP.Chemscore.Hbond>
1.8723

> <Gold.PLP.Chemscore.CHOScore>
1.0000

> <Gold.PLP.Chemscore.Metal>
0.0000

> <Gold.Chemscore.Hbonds>
donor molecule, donor type, donor heavy atom, donor atom, acceptor molecule, acceptor atom, score
      L1  H     9    36       P1 10175  1.00
      L1  H    12    37       P1 10175  0.86
      L1  C    21    46       P1  7948  0.95

> <Gold.PLP.Chemscore.Internal.Correction>
0.0466

> <Gold.Rescore>
     Score         DG    S(hbond)    S(metal)    S(lipo)     H(rot)  DE(clash)    DE(int)     intcor
     15.20     -20.96       1.89        0.00     106.93       1.30       2.66       3.10       ----

> <Gold.Chemscore.Fitness>
15.2008

> <Gold.Chemscore.DG>
-20.9604

> <Gold.Chemscore.ZeroCoef>
-5.4800

> <Gold.Chemscore.Hbond>
1.8876

> <Gold.Chemscore.Metal>
0.0000

> <Gold.Chemscore.Lipo>
106.9291

> <Gold.Chemscore.Internal_Hbond>
0.0000

> <Gold.Chemscore.DEClash>
2.6560

> <Gold.Chemscore.DEInternal>
3.1036

> <Gold.Chemscore.Rot>
1.3027

> <Gold.Chemscore.Internal.Correction>
   9.000000E+99

> <Gold.Chemscore.Hbonds>
donor molecule, donor type, donor heavy atom, donor atom, acceptor molecule, acceptor atom, score
      L1  H     9    36       P1 10175  0.98
      L1  H    12    37       P1 10175  0.79

> <Gold.Chemscore.Hbond.Weighted>
-6.3045

> <Gold.Chemscore.Metal.Weighted>
-0.0000

> <Gold.Chemscore.Lipo.Weighted>
-12.5107

> <Gold.Chemscore.Internal_Hbond.Weighted>
0.0000

> <Gold.Chemscore.DEClash.Weighted>
2.6560

> <Gold.Chemscore.DEInternal.Weighted>
3.1036

> <Gold.Chemscore.Rot.Weighted>
3.3348

> <Gold.Chemscore.Internal.Correction.Weighted>
   9.000000E+99

> <Gold.Protein.RotatedTorsions>
[ 6907 6896 6895 6894 ] final   96.99 input  -60.11 | X-H torsion
[ 7974 7965 7964 7962 ] final  -68.47 input  175.53 | X-H torsion
[ 8008 7997 7996 7995 ] final  -78.59 input   59.86 | X-H torsion
[ 10167 10162 10161 10158 ] final  168.66 input  -65.29 | X-H torsion
[ 10718 10713 10712 10709 ] final   -5.65 input   66.30 | X-H torsion
[ 10763 10752 10751 10750 ] final  -70.00 input  -60.55 | X-H torsion
[ 11005 11000 10999 10996 ] final -139.23 input  -57.11 | X-H torsion

> <Gold.Protein.ActiveResidues>
 VAL166  LYS551  ARG553  GLY616  TRP617  ASP618  TYR619  PRO620  LYS621  CYS622 
 ASP623  PHE694  ASN695  SER759  ASP760  ASP761  ALA762  ILE779  LEU786  VAL792 
 PHE793  MET794  SER795  GLU796  ALA797  LYS798  CYS799  TRP800  GLU811  SER814 

> <Gold.Protein.RotatedAtoms>
  152.5429  134.0802  159.8232 H   0  0  0  0  0  0  0  0  0  0  0  0  # atno 6907 bound_to 6896
  151.0905  133.5312  159.2622 H   0  0  0  0  0  0  0  0  0  0  0  0  # atno 6908 bound_to 6896
  151.2105  135.0488  159.8963 H   0  0  0  0  0  0  0  0  0  0  0  0  # atno 6909 bound_to 6896
  145.7161  140.9058  143.0655 H   0  0  0  0  0  0  0  0  0  0  0  0  # atno 7974 bound_to 7965
  154.5704  140.0692  156.8956 H   0  0  0  0  0  0  0  0  0  0  0  0  # atno 8008 bound_to 7997
  155.2644  140.3361  155.4252 H   0  0  0  0  0  0  0  0  0  0  0  0  # atno 8009 bound_to 7997
  156.2114  140.1760  156.7672 H   0  0  0  0  0  0  0  0  0  0  0  0  # atno 8010 bound_to 7997
  139.4973  144.3790  151.9643 H   0  0  0  0  0  0  0  0  0  0  0  0  # atno 10167 bound_to 10162
  156.7435  130.5217  149.5819 H   0  0  0  0  0  0  0  0  0  0  0  0  # atno 10718 bound_to 10713
  154.4114  135.6008  153.5955 H   0  0  0  0  0  0  0  0  0  0  0  0  # atno 10763 bound_to 10752
  152.9790  135.5930  154.4065 H   0  0  0  0  0  0  0  0  0  0  0  0  # atno 10764 bound_to 10752
  154.3878  135.2841  155.2151 H   0  0  0  0  0  0  0  0  0  0  0  0  # atno 10765 bound_to 10752
  140.8539  134.2252  157.4745 H   0  0  0  0  0  0  0  0  0  0  0  0  # atno 11005 bound_to 11000
  144.6929  139.9139  143.7465 LP  0  0  0  0  0  0  0  0  0  0  0  0  # atno 17320 bound_to 7965
  146.0668  139.3659  143.0547 LP  0  0  0  0  0  0  0  0  0  0  0  0  # atno 17321 bound_to 7965
  140.3226  144.3410  150.6006 LP  0  0  0  0  0  0  0  0  0  0  0  0  # atno 17342 bound_to 10162
  140.5710  143.2181  151.7599 LP  0  0  0  0  0  0  0  0  0  0  0  0  # atno 17343 bound_to 10162
  156.1448  130.6270  151.0517 LP  0  0  0  0  0  0  0  0  0  0  0  0  # atno 17370 bound_to 10713
  157.6808  131.0838  150.7374 LP  0  0  0  0  0  0  0  0  0  0  0  0  # atno 17371 bound_to 10713
  139.8705  134.9697  156.4674 LP  0  0  0  0  0  0  0  0  0  0  0  0  # atno 17394 bound_to 11000
  140.8759  133.7954  155.9414 LP  0  0  0  0  0  0  0  0  0  0  0  0  # atno 17395 bound_to 11000

$$$$
