AV-unprocessed.smi:109|AV-procd|sdf|1041|dock1
  -GOLD-   2262018 73D 1   1.00000     0.00000
 Structure written by MMmdl.
 58 61  0  0  0  0  0  0  0  0  1 V2000
  149.0918  141.3677  153.7294 O   0  0  0  0  0  0  0  0  0  0  0  0
  149.7468  140.7501  154.8164 C   0  0  0  0  0  0  0  0  0  0  0  0
  150.0541  141.7947  155.9030 C   0  0  0  0  0  0  0  0  0  0  0  0
  150.9824  141.2865  157.0343 C   0  0  2  0  0  0  0  0  0  0  0  0
  150.2398  140.3673  157.9001 N   0  0  0  0  0  0  0  0  0  0  0  0
  150.5117  139.0438  157.9505 C   0  0  0  0  0  0  0  0  0  0  0  0
  151.3253  138.5212  158.9040 N   0  0  0  0  0  0  0  0  0  0  0  0
  151.5791  137.2100  158.9219 C   0  0  0  0  0  0  0  0  0  0  0  0
  151.1300  136.2632  158.0960 N   0  0  0  0  0  0  0  0  0  0  0  0
  150.3103  136.7798  157.1354 C   0  0  0  0  0  0  0  0  0  0  0  0
  149.9551  138.1511  156.9983 C   0  0  0  0  0  0  0  0  0  0  0  0
  149.1038  138.3113  155.9132 N   0  0  0  0  0  0  0  0  0  0  0  0
  148.9652  137.1020  155.4404 C   0  0  0  0  0  0  0  0  0  0  0  0
  149.6534  136.1181  156.1156 N   0  0  0  0  0  0  0  0  0  0  0  0
  149.6782  134.6524  155.7985 C   0  0  1  0  0  0  0  0  0  0  0  0
  148.9229  134.4118  154.6478 O   0  0  0  0  0  0  0  0  0  0  0  0
  149.7281  133.8038  153.6409 C   0  0  2  0  0  0  0  0  0  0  0  0
  148.8779  132.8995  152.7311 C   0  0  0  0  0  0  0  0  0  0  0  0
  149.6330  131.7888  152.2954 O   0  0  0  0  0  0  0  0  0  0  0  0
  150.8803  133.1385  154.4082 C   0  0  2  0  0  0  0  0  0  0  0  0
  150.5131  131.8590  154.8903 O   0  0  0  0  0  0  0  0  0  0  0  0
  151.0995  134.0985  155.5666 C   0  0  1  0  0  0  0  0  0  0  0  0
  152.0549  135.0868  155.2232 O   0  0  0  0  0  0  0  0  0  0  0  0
  151.5892  142.4320  157.8955 C   0  0  0  0  0  0  0  0  0  0  0  0
  152.6315  141.9313  158.9274 C   0  0  0  0  0  0  0  0  0  0  0  0
  153.1967  143.0696  159.7932 C   0  0  0  0  0  0  0  0  0  0  0  0
  152.0802  143.8402  160.5079 C   0  0  0  0  0  0  0  0  0  0  0  0
  151.0551  144.3655  159.4964 C   0  0  0  0  0  0  0  0  0  0  0  0
  150.4839  143.2232  158.6425 C   0  0  0  0  0  0  0  0  0  0  0  0
  149.1790  134.1796  156.6452 H   0  0  0  0  0  0  0  0  0  0  0  0
  150.1454  134.6104  153.0370 H   0  0  0  0  0  0  0  0  0  0  0  0
  151.7696  133.0212  153.7876 H   0  0  0  0  0  0  0  0  0  0  0  0
  151.4483  133.5940  156.4686 H   0  0  0  0  0  0  0  0  0  0  0  0
  148.9707  140.7247  153.0475 H   0  0  0  0  0  0  0  0  0  0  0  0
  149.1057  139.9562  155.1994 H   0  0  0  0  0  0  0  0  0  0  0  0
  150.6661  140.2865  154.4577 H   0  0  0  0  0  0  0  0  0  0  0  0
  150.5152  142.6420  155.3989 H   0  0  0  0  0  0  0  0  0  0  0  0
  149.1214  142.1629  156.3326 H   0  0  0  0  0  0  0  0  0  0  0  0
  151.8239  140.7747  156.5677 H   0  0  0  0  0  0  0  0  0  0  0  0
  149.5478  140.8001  158.4948 H   0  0  0  0  0  0  0  0  0  0  0  0
  152.2350  136.8708  159.7100 H   0  0  0  0  0  0  0  0  0  0  0  0
  148.3490  136.8921  154.5781 H   0  0  0  0  0  0  0  0  0  0  0  0
  147.9753  132.5558  153.2369 H   0  0  0  0  0  0  0  0  0  0  0  0
  148.5545  133.4590  151.8530 H   0  0  0  0  0  0  0  0  0  0  0  0
  149.4953  131.6775  151.3670 H   0  0  0  0  0  0  0  0  0  0  0  0
  149.5798  131.8553  155.0403 H   0  0  0  0  0  0  0  0  0  0  0  0
  152.0277  135.7686  155.8770 H   0  0  0  0  0  0  0  0  0  0  0  0
  152.0974  143.1244  157.2221 H   0  0  0  0  0  0  0  0  0  0  0  0
  152.1788  141.1749  159.5701 H   0  0  0  0  0  0  0  0  0  0  0  0
  153.4739  141.4530  158.4307 H   0  0  0  0  0  0  0  0  0  0  0  0
  153.8952  142.6656  160.5265 H   0  0  0  0  0  0  0  0  0  0  0  0
  153.7697  143.7541  159.1665 H   0  0  0  0  0  0  0  0  0  0  0  0
  151.5856  143.1879  161.2285 H   0  0  0  0  0  0  0  0  0  0  0  0
  152.5033  144.6690  161.0763 H   0  0  0  0  0  0  0  0  0  0  0  0
  150.2472  144.8786  160.0188 H   0  0  0  0  0  0  0  0  0  0  0  0
  151.5246  145.1070  158.8487 H   0  0  0  0  0  0  0  0  0  0  0  0
  149.7697  143.6517  157.9392 H   0  0  0  0  0  0  0  0  0  0  0  0
  149.9144  142.5443  159.2785 H   0  0  0  0  0  0  0  0  0  0  0  0
  1  2  1  0  0  0  0
  1 34  1  0  0  0  0
  2  3  1  0  0  0  0
  2 35  1  0  0  0  0
  2 36  1  0  0  0  0
  3  4  1  0  0  0  0
  3 37  1  0  0  0  0
  3 38  1  0  0  0  0
  4  5  1  0  0  0  0
  4 24  1  0  0  0  0
  4 39  1  0  0  0  0
  5  6  1  0  0  0  0
  5 40  1  0  0  0  0
  6 11  1  0  0  0  0
  6  7  2  0  0  0  0
  7  8  1  0  0  0  0
  8  9  2  0  0  0  0
  8 41  1  0  0  0  0
  9 10  1  0  0  0  0
 10 14  1  0  0  0  0
 10 11  2  0  0  0  0
 11 12  1  0  0  0  0
 12 13  2  0  0  0  0
 13 14  1  0  0  0  0
 13 42  1  0  0  0  0
 14 15  1  0  0  0  0
 15 30  1  0  0  0  0
 15 22  1  0  0  0  0
 15 16  1  0  0  0  0
 16 17  1  0  0  0  0
 17 31  1  0  0  0  0
 17 18  1  0  0  0  0
 17 20  1  0  0  0  0
 18 19  1  0  0  0  0
 18 43  1  0  0  0  0
 18 44  1  0  0  0  0
 19 45  1  0  0  0  0
 20 32  1  0  0  0  0
 20 21  1  0  0  0  0
 20 22  1  0  0  0  0
 21 46  1  0  0  0  0
 22 33  1  0  0  0  0
 22 23  1  0  0  0  0
 23 47  1  0  0  0  0
 24 29  1  0  0  0  0
 24 25  1  0  0  0  0
 24 48  1  0  0  0  0
 25 26  1  0  0  0  0
 25 49  1  0  0  0  0
 25 50  1  0  0  0  0
 26 27  1  0  0  0  0
 26 51  1  0  0  0  0
 26 52  1  0  0  0  0
 27 28  1  0  0  0  0
 27 53  1  0  0  0  0
 27 54  1  0  0  0  0
 28 29  1  0  0  0  0
 28 55  1  0  0  0  0
 28 56  1  0  0  0  0
 29 57  1  0  0  0  0
 29 58  1  0  0  0  0
M  END
> <s_m_source_file>
AV-unprocessed.smi

> <i_m_source_file_index>
109

> <i_lp_mmshare_version>
43012

> <i_f3d_flags>
0

> <s_epik_input>
W0NIMl0xW0NIMl1bQ0gyXVtDSDJdW0NIMl1bQ0hdMVtDQEhdKFtDSDJdW0NIMl1bT0hdKVtOSF1jKG5bY0hdbjIpYyhjMjMpbltjSF1uM1tDQEBIXTRPW0NASF0oW0NIMl1bT0hdKVtDQEBIXShbT0hdKVtDQEhdNFtPSF0=

> <s_epik_cmdline>
J2VwaWtfcHl0aG9uJywgJy1waCcsICc3LjAnLCAnLXRuJywgJzgnLCAnLW1hJywgJzIwMCcsICctbWV0YWxfYmluZGluZycsICctaW1hZScsICc8aW5maWxlLm1hZT4nLCAnLW9tYWUnLCAnPG91dGZpbGUubWFlPic=

> <r_lp_tautomer_probability>
1

> <r_epik_Ionization_Penalty>
0.000793976

> <r_epik_Ionization_Penalty_Charging>
0

> <r_epik_Ionization_Penalty_Neutral>
0.000793976

> <r_epik_State_Penalty>
-0

> <r_epik_Charging_Adjusted_Penalty>
0

> <i_epik_Tot_Q>
0

> <i_epik_Tot_abs_Q>
0

> <r_epik_Metal_State_Penalty>
-0

> <b_epik_Metal_Only>
0

> <s_epik_Chemistry_Notes>
This compound contains an acetal/aminal-like group ( X-CH(R)-Y where X, Y are N, S, or O) that may be acid/base labile, releasing an aldehyde.

> <s_lp_Force_Field>
OPLS_2005

> <r_lp_Energy>
56.0983

> <b_lp_Chiralities_Consistent>
1

> <s_lp_Variant>
AV-unprocessed.smi:109-11

> <Gold.Version>
5.8.1

> <Gold.Id.Protein>
6NUR|6NUR_protein|mol2

> <Gold.PLP.Fitness>
54.2102

> <Gold.PLP.PLP>
-44.5978

> <Gold.PLP.part.hbond>
-6.7163

> <Gold.PLP.part.metal>
0.0000

> <Gold.PLP.part.buried>
-3.8222

> <Gold.PLP.part.nonpolar>
-34.2526

> <Gold.PLP.part.repulsive>
0.2105

> <Gold.PLP.ligand.clash>
0.0000

> <Gold.PLP.ligand.torsion>
1.3860

> <Gold.PLP.Chemscore.Hbond>
4.0564

> <Gold.PLP.Chemscore.CHOScore>
0.0000

> <Gold.PLP.Chemscore.Metal>
0.0000

> <Gold.Chemscore.Hbonds>
donor molecule, donor type, donor heavy atom, donor atom, acceptor molecule, acceptor atom, score
      L1  H     1    34       P1  7957  0.74
      L1  H    19    45       P1 10747  0.52
      P1  H  6896  6907       L1     9  0.25
      P1  H  8011  8017       L1     1  0.17
      L1  C    13    42       P1  7948  0.19

> <Gold.PLP.Chemscore.Internal.Correction>
0.2152

> <Gold.Rescore>
     Score         DG    S(hbond)    S(metal)    S(lipo)     H(rot)  DE(clash)    DE(int)     intcor
      8.96     -12.04       2.55        0.00     103.04       5.47       0.01       3.08       ----

> <Gold.Chemscore.Fitness>
8.9560

> <Gold.Chemscore.DG>
-12.0429

> <Gold.Chemscore.ZeroCoef>
-5.4800

> <Gold.Chemscore.Hbond>
2.5452

> <Gold.Chemscore.Metal>
0.0000

> <Gold.Chemscore.Lipo>
103.0368

> <Gold.Chemscore.Internal_Hbond>
0.0000

> <Gold.Chemscore.DEClash>
0.0057

> <Gold.Chemscore.DEInternal>
3.0812

> <Gold.Chemscore.Rot>
5.4662

> <Gold.Chemscore.Internal.Correction>
   9.000000E+99

> <Gold.Chemscore.Hbonds>
donor molecule, donor type, donor heavy atom, donor atom, acceptor molecule, acceptor atom, score
      L1  H     1    34       P1  7957  0.72
      L1  H    19    45       P1 10747  0.06
      P1  H  6896  6907       L1     9  0.04

> <Gold.Chemscore.Hbond.Weighted>
-8.5011

> <Gold.Chemscore.Metal.Weighted>
-0.0000

> <Gold.Chemscore.Lipo.Weighted>
-12.0553

> <Gold.Chemscore.Internal_Hbond.Weighted>
0.0000

> <Gold.Chemscore.DEClash.Weighted>
0.0057

> <Gold.Chemscore.DEInternal.Weighted>
3.0812

> <Gold.Chemscore.Rot.Weighted>
13.9935

> <Gold.Chemscore.Internal.Correction.Weighted>
   9.000000E+99

> <Gold.Protein.RotatedTorsions>
[ 6907 6896 6895 6894 ] final  -56.75 input  -60.11 | X-H torsion
[ 7974 7965 7964 7962 ] final  -54.26 input  175.53 | X-H torsion
[ 8008 7997 7996 7995 ] final -155.46 input   59.86 | X-H torsion
[ 10167 10162 10161 10158 ] final -136.99 input  -65.29 | X-H torsion
[ 10718 10713 10712 10709 ] final  111.76 input   66.30 | X-H torsion
[ 10763 10752 10751 10750 ] final  -50.94 input  -60.55 | X-H torsion
[ 11005 11000 10999 10996 ] final  -75.03 input  -57.11 | X-H torsion

> <Gold.Protein.ActiveResidues>
 VAL166  LYS551  ARG553  GLY616  TRP617  ASP618  TYR619  PRO620  LYS621  CYS622 
 ASP623  PHE694  ASN695  SER759  ASP760  ASP761  ALA762  ILE779  LEU786  VAL792 
 PHE793  MET794  SER795  GLU796  ALA797  LYS798  CYS799  TRP800  GLU811  SER814 

> <Gold.Protein.RotatedAtoms>
  150.8142  134.7314  159.6714 H   0  0  0  0  0  0  0  0  0  0  0  0  # atno 6907 bound_to 6896
  152.4261  134.5862  159.9971 H   0  0  0  0  0  0  0  0  0  0  0  0  # atno 6908 bound_to 6896
  151.6064  133.3314  159.3094 H   0  0  0  0  0  0  0  0  0  0  0  0  # atno 6909 bound_to 6896
  145.8876  140.8096  142.9808 H   0  0  0  0  0  0  0  0  0  0  0  0  # atno 7974 bound_to 7965
  155.7021  140.0768  157.2406 H   0  0  0  0  0  0  0  0  0  0  0  0  # atno 8008 bound_to 7997
  154.4071  140.1645  156.2256 H   0  0  0  0  0  0  0  0  0  0  0  0  # atno 8009 bound_to 7997
  155.9358  140.3388  155.6289 H   0  0  0  0  0  0  0  0  0  0  0  0  # atno 8010 bound_to 7997
  139.8623  143.7062  152.2649 H   0  0  0  0  0  0  0  0  0  0  0  0  # atno 10167 bound_to 10162
  157.6428  131.0956  150.6796 H   0  0  0  0  0  0  0  0  0  0  0  0  # atno 10718 bound_to 10713
  154.1185  135.6538  153.4898 H   0  0  0  0  0  0  0  0  0  0  0  0  # atno 10763 bound_to 10752
  153.0233  135.5264  154.7121 H   0  0  0  0  0  0  0  0  0  0  0  0  # atno 10764 bound_to 10752
  154.6321  135.2977  155.0173 H   0  0  0  0  0  0  0  0  0  0  0  0  # atno 10765 bound_to 10752
  141.1641  133.6932  156.7455 H   0  0  0  0  0  0  0  0  0  0  0  0  # atno 11005 bound_to 11000
  144.6729  140.1479  143.7432 LP  0  0  0  0  0  0  0  0  0  0  0  0  # atno 17320 bound_to 7965
  145.8948  139.2396  143.1528 LP  0  0  0  0  0  0  0  0  0  0  0  0  # atno 17321 bound_to 7965
  139.7362  144.7570  151.0724 LP  0  0  0  0  0  0  0  0  0  0  0  0  # atno 17342 bound_to 10162
  140.7773  143.5028  150.9750 LP  0  0  0  0  0  0  0  0  0  0  0  0  # atno 17343 bound_to 10162
  156.7118  130.4654  149.5545 LP  0  0  0  0  0  0  0  0  0  0  0  0  # atno 17370 bound_to 10713
  156.1725  130.6446  151.0854 LP  0  0  0  0  0  0  0  0  0  0  0  0  # atno 17371 bound_to 10713
  140.2642  134.8442  157.3787 LP  0  0  0  0  0  0  0  0  0  0  0  0  # atno 17394 bound_to 11000
  140.1582  134.4763  155.7913 LP  0  0  0  0  0  0  0  0  0  0  0  0  # atno 17395 bound_to 11000

$$$$
