AV-unprocessed.smi:567|AV-procd|sdf|2956|dock9
  -GOLD-   2262023463D 1   1.00000     0.00000
 Structure written by MMmdl.
 53 54  0  0  0  0  0  0  0  0  2 V2000
  152.5412  144.6048  158.3390 C   0  0  0  0  0  0  0  0  0  0  0  0
  152.5007  144.2657  159.7134 O   0  0  0  0  0  0  0  0  0  0  0  0
  153.0652  142.9902  159.9772 C   0  0  0  0  0  0  0  0  0  0  0  0
  152.0244  141.8985  159.6821 C   0  0  0  0  0  0  0  0  0  0  0  0
  152.6365  140.5660  159.6294 N   0  0  0  0  0  0  0  0  0  0  0  0
  152.4158  139.9016  158.4370 N   0  0  0  0  0  0  0  0  0  0  0  0
  152.8983  138.7162  158.2509 C   0  0  0  0  0  0  0  0  0  0  0  0
  152.6581  137.9731  156.9851 C   0  0  0  0  0  0  0  0  0  0  0  0
  153.1440  136.8612  156.7742 O   0  0  0  0  0  0  0  0  0  0  0  0
  151.8849  138.6194  156.0955 N   0  0  0  0  0  0  0  0  0  0  0  0
  151.5561  138.1782  154.7459 C   0  0  0  0  0  0  0  0  0  0  0  0
  150.4811  139.0575  154.0839 C   0  0  0  0  0  0  0  0  0  0  0  0
  149.0383  138.8377  154.6090 C   0  0  0  0  0  0  0  0  0  0  0  0
  148.7801  139.5559  155.9531 C   0  0  0  0  0  0  0  0  0  0  0  0
  148.0647  139.4587  153.5884 C   0  0  0  0  0  0  0  0  0  0  0  0
  148.7074  137.3863  154.6905 N   0  3  0  0  0  0  0  0  0  0  0  0
  149.6963  136.4247  155.2568 C   0  0  0  0  0  0  0  0  0  0  0  0
  149.6379  136.3899  156.8016 C   0  0  0  0  0  0  0  0  0  0  0  0
  149.2765  135.0231  154.7729 C   0  0  0  0  0  0  0  0  0  0  0  0
  151.1251  136.7034  154.7207 C   0  0  0  0  0  0  0  0  0  0  0  0
  153.6958  138.0674  159.2763 C   0  0  0  0  0  0  0  0  0  0  0  0
  153.8852  138.7192  160.4451 C   0  0  0  0  0  0  0  0  0  0  0  0
  153.3223  140.0486  160.6931 C   0  0  0  0  0  0  0  0  0  0  0  0
  153.4523  140.6453  161.7615 O   0  0  0  0  0  0  0  0  0  0  0  0
  152.0917  145.5866  158.1912 H   0  0  0  0  0  0  0  0  0  0  0  0
  151.9840  143.8849  157.7379 H   0  0  0  0  0  0  0  0  0  0  0  0
  153.5683  144.6459  157.9743 H   0  0  0  0  0  0  0  0  0  0  0  0
  153.9365  142.8438  159.3373 H   0  0  0  0  0  0  0  0  0  0  0  0
  153.4065  142.9238  161.0115 H   0  0  0  0  0  0  0  0  0  0  0  0
  151.2416  141.9187  160.4424 H   0  0  0  0  0  0  0  0  0  0  0  0
  151.5152  142.1259  158.7443 H   0  0  0  0  0  0  0  0  0  0  0  0
  151.5207  139.5192  156.3750 H   0  0  0  0  0  0  0  0  0  0  0  0
  152.4683  138.2558  154.1514 H   0  0  0  0  0  0  0  0  0  0  0  0
  150.7550  140.1113  154.1574 H   0  0  0  0  0  0  0  0  0  0  0  0
  150.5007  138.8306  153.0166 H   0  0  0  0  0  0  0  0  0  0  0  0
  148.8864  140.6356  155.8414 H   0  0  0  0  0  0  0  0  0  0  0  0
  149.4616  139.2687  156.7464 H   0  0  0  0  0  0  0  0  0  0  0  0
  147.7683  139.3675  156.3134 H   0  0  0  0  0  0  0  0  0  0  0  0
  148.2552  140.5244  153.4535 H   0  0  0  0  0  0  0  0  0  0  0  0
  147.0271  139.3501  153.9070 H   0  0  0  0  0  0  0  0  0  0  0  0
  148.1538  138.9862  152.6093 H   0  0  0  0  0  0  0  0  0  0  0  0
  147.8269  137.2754  155.1728 H   0  0  0  0  0  0  0  0  0  0  0  0
  150.2515  135.5784  157.1946 H   0  0  0  0  0  0  0  0  0  0  0  0
  148.6197  136.2214  157.1539 H   0  0  0  0  0  0  0  0  0  0  0  0
  149.9970  137.2946  157.2803 H   0  0  0  0  0  0  0  0  0  0  0  0
  149.9672  134.2558  155.1255 H   0  0  0  0  0  0  0  0  0  0  0  0
  149.2534  134.9643  153.6838 H   0  0  0  0  0  0  0  0  0  0  0  0
  148.2814  134.7570  155.1322 H   0  0  0  0  0  0  0  0  0  0  0  0
  151.1758  136.3774  153.6804 H   0  0  0  0  0  0  0  0  0  0  0  0
  151.8557  136.0891  155.2493 H   0  0  0  0  0  0  0  0  0  0  0  0
  154.1219  137.0873  159.1182 H   0  0  0  0  0  0  0  0  0  0  0  0
  154.4723  138.2487  161.2204 H   0  0  0  0  0  0  0  0  0  0  0  0
  148.5697  137.0923  153.7341 H   0  0  0  0  0  0  0  0  0  0  0  0
  1  2  1  0  0  0  0
  1 25  1  0  0  0  0
  1 26  1  0  0  0  0
  1 27  1  0  0  0  0
  2  3  1  0  0  0  0
  3  4  1  0  0  0  0
  3 28  1  0  0  0  0
  3 29  1  0  0  0  0
  4  5  1  0  0  0  0
  4 30  1  0  0  0  0
  4 31  1  0  0  0  0
  5 23  1  0  0  0  0
  5  6  1  0  0  0  0
  6  7  2  0  0  0  0
  7  8  1  0  0  0  0
  7 21  1  0  0  0  0
  8  9  2  0  0  0  0
  8 10  1  0  0  0  0
 10 11  1  0  0  0  0
 10 32  1  0  0  0  0
 11 20  1  0  0  0  0
 11 12  1  0  0  0  0
 11 33  1  0  0  0  0
 12 13  1  0  0  0  0
 12 34  1  0  0  0  0
 12 35  1  0  0  0  0
 13 14  1  0  0  0  0
 13 15  1  0  0  0  0
 13 16  1  0  0  0  0
 14 36  1  0  0  0  0
 14 37  1  0  0  0  0
 14 38  1  0  0  0  0
 15 39  1  0  0  0  0
 15 40  1  0  0  0  0
 15 41  1  0  0  0  0
 16 17  1  0  0  0  0
 16 42  1  0  0  0  0
 16 53  1  0  0  0  0
 17 18  1  0  0  0  0
 17 19  1  0  0  0  0
 17 20  1  0  0  0  0
 18 43  1  0  0  0  0
 18 44  1  0  0  0  0
 18 45  1  0  0  0  0
 19 46  1  0  0  0  0
 19 47  1  0  0  0  0
 19 48  1  0  0  0  0
 20 49  1  0  0  0  0
 20 50  1  0  0  0  0
 21 22  2  0  0  0  0
 21 51  1  0  0  0  0
 22 23  1  0  0  0  0
 22 52  1  0  0  0  0
 23 24  2  0  0  0  0
M  CHG  1  16   1
M  END
> <s_m_source_file>
AV-unprocessed.smi

> <i_m_source_file_index>
567

> <i_lp_mmshare_version>
43012

> <i_f3d_flags>
0

> <s_epik_input>
W0NIM11PW0NIMl1bQ0gyXW4xbmMoW2NIXVtjSF1jMT1PKUMoPU8pW05IXVtDSF0oW0NIMl1DMihbQ0gzXSlbQ0gzXSlbQ0gyXUMoW05IXTIpKFtDSDNdKVtDSDNd

> <s_epik_cmdline>
J2VwaWtfcHl0aG9uJywgJy1waCcsICc3LjAnLCAnLXRuJywgJzgnLCAnLW1hJywgJzIwMCcsICctbWV0YWxfYmluZGluZycsICctaW1hZScsICc8aW5maWxlLm1hZT4nLCAnLW9tYWUnLCAnPG91dGZpbGUubWFlPic=

> <r_lp_tautomer_probability>
1

> <r_epik_Ionization_Penalty>
0.000138804

> <r_epik_Ionization_Penalty_Charging>
0.000136152

> <r_epik_Ionization_Penalty_Neutral>
2.65225e-06

> <r_epik_State_Penalty>
-0

> <r_epik_Charging_Adjusted_Penalty>
0.000136152

> <i_epik_Tot_Q>
1

> <i_epik_Tot_abs_Q>
1

> <r_epik_Metal_State_Penalty>
-0

> <b_epik_Metal_Only>
0

> <s_lp_Force_Field>
OPLS_2005

> <r_lp_Energy>
46.3617

> <b_lp_Chiralities_Consistent>
1

> <s_lp_Variant>
AV-unprocessed.smi:567-1

> <Gold.Version>
5.8.1

> <Gold.Id.Protein>
6NUR|6NUR_protein|mol2

> <Gold.PLP.Fitness>
41.8624

> <Gold.PLP.PLP>
-34.3297

> <Gold.PLP.part.hbond>
-2.4531

> <Gold.PLP.part.metal>
0.0000

> <Gold.PLP.part.buried>
0.2185

> <Gold.PLP.part.nonpolar>
-32.1661

> <Gold.PLP.part.repulsive>
0.1669

> <Gold.PLP.ligand.clash>
0.0000

> <Gold.PLP.ligand.torsion>
0.2731

> <Gold.PLP.Chemscore.Hbond>
2.6880

> <Gold.PLP.Chemscore.CHOScore>
0.0000

> <Gold.PLP.Chemscore.Metal>
0.0000

> <Gold.Chemscore.Hbonds>
donor molecule, donor type, donor heavy atom, donor atom, acceptor molecule, acceptor atom, score
      L1  H    16    53       P1  7948  1.72
      P1  H 10752 10765       L1     9  0.41

> <Gold.PLP.Chemscore.Internal.Correction>
0.0150

> <Gold.Rescore>
     Score         DG    S(hbond)    S(metal)    S(lipo)     H(rot)  DE(clash)    DE(int)     intcor
     13.79     -17.81       1.45        0.00      99.12       1.61       1.64       2.37       ----

> <Gold.Chemscore.Fitness>
13.7930

> <Gold.Chemscore.DG>
-17.8075

> <Gold.Chemscore.ZeroCoef>
-5.4800

> <Gold.Chemscore.Hbond>
1.4536

> <Gold.Chemscore.Metal>
0.0000

> <Gold.Chemscore.Lipo>
99.1213

> <Gold.Chemscore.Internal_Hbond>
0.0000

> <Gold.Chemscore.DEClash>
1.6446

> <Gold.Chemscore.DEInternal>
2.3700

> <Gold.Chemscore.Rot>
1.6112

> <Gold.Chemscore.Internal.Correction>
   9.000000E+99

> <Gold.Chemscore.Hbonds>
donor molecule, donor type, donor heavy atom, donor atom, acceptor molecule, acceptor atom, score
      L1  H    16    53       P1  7948  0.83
      P1  H 10752 10765       L1     9  0.42

> <Gold.Chemscore.Hbond.Weighted>
-4.8550

> <Gold.Chemscore.Metal.Weighted>
-0.0000

> <Gold.Chemscore.Lipo.Weighted>
-11.5972

> <Gold.Chemscore.Internal_Hbond.Weighted>
0.0000

> <Gold.Chemscore.DEClash.Weighted>
1.6446

> <Gold.Chemscore.DEInternal.Weighted>
2.3700

> <Gold.Chemscore.Rot.Weighted>
4.1247

> <Gold.Chemscore.Internal.Correction.Weighted>
   9.000000E+99

> <Gold.Protein.RotatedTorsions>
[ 6907 6896 6895 6894 ] final  162.46 input  -60.11 | X-H torsion
[ 7974 7965 7964 7962 ] final   24.29 input  175.53 | X-H torsion
[ 8008 7997 7996 7995 ] final   52.08 input   59.86 | X-H torsion
[ 10167 10162 10161 10158 ] final -147.96 input  -65.29 | X-H torsion
[ 10718 10713 10712 10709 ] final -155.27 input   66.30 | X-H torsion
[ 10763 10752 10751 10750 ] final  -97.94 input  -60.55 | X-H torsion
[ 11005 11000 10999 10996 ] final  147.55 input  -57.11 | X-H torsion

> <Gold.Protein.ActiveResidues>
 VAL166  LYS551  ARG553  GLY616  TRP617  ASP618  TYR619  PRO620  LYS621  CYS622 
 ASP623  PHE694  ASN695  SER759  ASP760  ASP761  ALA762  ILE779  LEU786  VAL792 
 PHE793  MET794  SER795  GLU796  ALA797  LYS798  CYS799  TRP800  GLU811  SER814 

> <Gold.Protein.RotatedAtoms>
  151.9401  133.3635  159.3961 H   0  0  0  0  0  0  0  0  0  0  0  0  # atno 6907 bound_to 6896
  150.7000  134.4448  159.5318 H   0  0  0  0  0  0  0  0  0  0  0  0  # atno 6908 bound_to 6896
  152.2103  134.8507  160.0549 H   0  0  0  0  0  0  0  0  0  0  0  0  # atno 6909 bound_to 6896
  146.1944  139.7625  142.8808 H   0  0  0  0  0  0  0  0  0  0  0  0  # atno 7974 bound_to 7965
  155.4459  140.3456  155.4295 H   0  0  0  0  0  0  0  0  0  0  0  0  # atno 8008 bound_to 7997
  156.1250  140.1498  156.9179 H   0  0  0  0  0  0  0  0  0  0  0  0  # atno 8009 bound_to 7997
  154.4851  140.0857  156.7448 H   0  0  0  0  0  0  0  0  0  0  0  0  # atno 8010 bound_to 7997
  139.7574  143.8427  152.2600 H   0  0  0  0  0  0  0  0  0  0  0  0  # atno 10167 bound_to 10162
  156.5106  130.8433  151.2645 H   0  0  0  0  0  0  0  0  0  0  0  0  # atno 10718 bound_to 10713
  154.7372  135.5028  153.9061 H   0  0  0  0  0  0  0  0  0  0  0  0  # atno 10763 bound_to 10752
  153.1007  135.6684  153.9687 H   0  0  0  0  0  0  0  0  0  0  0  0  # atno 10764 bound_to 10752
  153.9474  135.3061  155.3419 H   0  0  0  0  0  0  0  0  0  0  0  0  # atno 10765 bound_to 10752
  140.0885  134.9055  157.1614 H   0  0  0  0  0  0  0  0  0  0  0  0  # atno 11005 bound_to 11000
  145.3690  141.0339  143.3242 LP  0  0  0  0  0  0  0  0  0  0  0  0  # atno 17320 bound_to 7965
  144.8551  139.5262  143.6838 LP  0  0  0  0  0  0  0  0  0  0  0  0  # atno 17321 bound_to 7965
  139.8423  144.7204  150.9315 LP  0  0  0  0  0  0  0  0  0  0  0  0  # atno 17342 bound_to 10162
  140.7804  143.3972  151.1209 LP  0  0  0  0  0  0  0  0  0  0  0  0  # atno 17343 bound_to 10162
  157.7451  130.9951  150.2731 LP  0  0  0  0  0  0  0  0  0  0  0  0  # atno 17370 bound_to 10713
  156.3244  130.3791  149.7546 LP  0  0  0  0  0  0  0  0  0  0  0  0  # atno 17371 bound_to 10713
  140.3385  134.2730  155.7216 LP  0  0  0  0  0  0  0  0  0  0  0  0  # atno 17394 bound_to 11000
  141.2070  133.7817  157.0142 LP  0  0  0  0  0  0  0  0  0  0  0  0  # atno 17395 bound_to 11000

$$$$
