AV-unprocessed.smi:2331|AV-procd|sdf|9316|dock5
  -GOLD-   2272012533D 1   1.00000     0.00000
 Structure written by MMmdl.
 50 51  0  0  0  0  0  0  0  0  2 V2000
  148.6231  141.6409  157.0518 C   0  0  0  0  0  0  0  0  0  0  0  0
  149.9595  140.9524  156.6814 C   0  0  0  0  0  0  0  0  0  0  0  0
  150.9632  142.0800  156.3577 C   0  0  0  0  0  0  0  0  0  0  0  0
  150.4791  140.1628  157.9146 C   0  0  0  0  0  0  0  0  0  0  0  0
  151.1744  141.0092  158.8824 N   0  0  0  0  0  0  0  0  0  0  0  0
  152.5053  141.0895  159.0493 C   0  0  0  0  0  0  0  0  0  0  0  0
  153.2963  140.3694  158.4413 O   0  0  0  0  0  0  0  0  0  0  0  0
  152.8731  141.9732  160.0056 N   0  0  0  0  0  0  0  0  0  0  0  0
  153.9362  141.6848  160.9762 C   0  0  0  0  0  0  0  0  0  0  0  0
  153.4803  142.3211  162.2820 C   0  0  0  0  0  0  0  0  0  0  0  0
  152.6696  143.5160  161.8175 C   0  0  0  0  0  0  0  0  0  0  0  0
  152.0093  143.0663  160.4993 C   0  0  1  0  0  0  0  0  0  0  0  0
  151.8048  144.2429  159.4863 C   0  0  0  0  0  0  0  0  0  0  0  0
  151.4779  145.5690  160.2040 C   0  0  0  0  0  0  0  0  0  0  0  0
  152.9787  144.4326  158.5041 C   0  0  0  0  0  0  0  0  0  0  0  0
  150.6418  143.9868  158.7242 O   0  0  0  0  0  0  0  0  0  0  0  0
  149.8254  140.0149  155.4637 C   0  0  0  0  0  0  0  0  0  0  0  0
  148.5911  139.7976  154.7976 C   0  0  0  0  0  0  0  0  0  0  0  0
  148.5312  138.9101  153.7041 C   0  0  0  0  0  0  0  0  0  0  0  0
  149.6456  138.2709  153.2924 N   0  3  0  0  0  0  0  0  0  0  0  0
  150.8435  138.4412  153.8885 C   0  0  0  0  0  0  0  0  0  0  0  0
  150.9621  139.3147  154.9880 C   0  0  0  0  0  0  0  0  0  0  0  0
  148.7434  142.2932  157.9174 H   0  0  0  0  0  0  0  0  0  0  0  0
  147.8428  140.9237  157.3053 H   0  0  0  0  0  0  0  0  0  0  0  0
  148.2508  142.2605  156.2350 H   0  0  0  0  0  0  0  0  0  0  0  0
  151.0622  142.7736  157.1937 H   0  0  0  0  0  0  0  0  0  0  0  0
  150.6422  142.6583  155.4905 H   0  0  0  0  0  0  0  0  0  0  0  0
  151.9610  141.6970  156.1445 H   0  0  0  0  0  0  0  0  0  0  0  0
  149.6414  139.7121  158.4475 H   0  0  0  0  0  0  0  0  0  0  0  0
  151.1068  139.3261  157.6024 H   0  0  0  0  0  0  0  0  0  0  0  0
  150.5978  141.6049  159.4584 H   0  0  0  0  0  0  0  0  0  0  0  0
  154.1199  140.6180  161.1176 H   0  0  0  0  0  0  0  0  0  0  0  0
  154.8620  142.1440  160.6271 H   0  0  0  0  0  0  0  0  0  0  0  0
  152.8373  141.6286  162.8271 H   0  0  0  0  0  0  0  0  0  0  0  0
  154.3103  142.5965  162.9332 H   0  0  0  0  0  0  0  0  0  0  0  0
  151.9426  143.8414  162.5622 H   0  0  0  0  0  0  0  0  0  0  0  0
  153.3561  144.3449  161.6434 H   0  0  0  0  0  0  0  0  0  0  0  0
  151.0386  142.6371  160.7573 H   0  0  0  0  0  0  0  0  0  0  0  0
  152.3289  145.9489  160.7691 H   0  0  0  0  0  0  0  0  0  0  0  0
  150.6461  145.4497  160.8996 H   0  0  0  0  0  0  0  0  0  0  0  0
  151.2002  146.3489  159.4935 H   0  0  0  0  0  0  0  0  0  0  0  0
  153.9117  144.6269  159.0325 H   0  0  0  0  0  0  0  0  0  0  0  0
  152.8018  145.2761  157.8360 H   0  0  0  0  0  0  0  0  0  0  0  0
  153.1322  143.5550  157.8760 H   0  0  0  0  0  0  0  0  0  0  0  0
  150.7244  144.4243  157.8908 H   0  0  0  0  0  0  0  0  0  0  0  0
  147.6809  140.2897  155.1035 H   0  0  0  0  0  0  0  0  0  0  0  0
  147.6290  138.6936  153.1507 H   0  0  0  0  0  0  0  0  0  0  0  0
  151.6653  137.8760  153.4733 H   0  0  0  0  0  0  0  0  0  0  0  0
  151.9245  139.4368  155.4625 H   0  0  0  0  0  0  0  0  0  0  0  0
  149.5796  137.6331  152.4985 H   0  0  0  0  0  0  0  0  0  0  0  0
  1  2  1  0  0  0  0
  1 23  1  0  0  0  0
  1 24  1  0  0  0  0
  1 25  1  0  0  0  0
  2  3  1  0  0  0  0
  2  4  1  0  0  0  0
  2 17  1  0  0  0  0
  3 26  1  0  0  0  0
  3 27  1  0  0  0  0
  3 28  1  0  0  0  0
  4  5  1  0  0  0  0
  4 29  1  0  0  0  0
  4 30  1  0  0  0  0
  5  6  1  0  0  0  0
  5 31  1  0  0  0  0
  6  7  2  0  0  0  0
  6  8  1  0  0  0  0
  8 12  1  0  0  0  0
  8  9  1  0  0  0  0
  9 10  1  0  0  0  0
  9 32  1  0  0  0  0
  9 33  1  0  0  0  0
 10 11  1  0  0  0  0
 10 34  1  0  0  0  0
 10 35  1  0  0  0  0
 11 12  1  0  0  0  0
 11 36  1  0  0  0  0
 11 37  1  0  0  0  0
 12 13  1  0  0  0  0
 12 38  1  0  0  0  0
 13 14  1  0  0  0  0
 13 15  1  0  0  0  0
 13 16  1  0  0  0  0
 14 39  1  0  0  0  0
 14 40  1  0  0  0  0
 14 41  1  0  0  0  0
 15 42  1  0  0  0  0
 15 43  1  0  0  0  0
 15 44  1  0  0  0  0
 16 45  1  0  0  0  0
 17 22  1  0  0  0  0
 17 18  2  0  0  0  0
 18 19  1  0  0  0  0
 18 46  1  0  0  0  0
 19 20  2  0  0  0  0
 19 47  1  0  0  0  0
 20 21  1  0  0  0  0
 20 50  1  0  0  0  0
 21 22  2  0  0  0  0
 21 48  1  0  0  0  0
 22 49  1  0  0  0  0
M  CHG  1  20   1
M  END
> <s_m_source_file>
AV-unprocessed.smi

> <i_m_source_file_index>
2331

> <i_lp_mmshare_version>
43012

> <i_f3d_flags>
0

> <s_epik_input>
W2NIXTFbY0hdbltjSF1bY0hdYzFDKFtDSDNdKShbQ0gzXSlbQ0gyXVtOSF1DKD1PKU4yW0NIMl1bQ0gyXVtDSDJdW0NASF0yQyhbQ0gzXSkoW0NIM10pW09IXQ==

> <s_epik_cmdline>
J2VwaWtfcHl0aG9uJywgJy1waCcsICc3LjAnLCAnLXRuJywgJzgnLCAnLW1hJywgJzIwMCcsICctbWV0YWxfYmluZGluZycsICctaW1hZScsICc8aW5maWxlLm1hZT4nLCAnLW9tYWUnLCAnPG91dGZpbGUubWFlPic=

> <r_epik_Ionization_Penalty>
1.40501

> <r_epik_Ionization_Penalty_Charging>
1.40494

> <r_epik_Ionization_Penalty_Neutral>
7.00889e-05

> <r_epik_State_Penalty>
1.48741

> <r_epik_Charging_Adjusted_Penalty>
2.89235

> <i_epik_Tot_Q>
1

> <i_epik_Tot_abs_Q>
1

> <r_epik_Metal_State_Penalty>
1.54092

> <b_epik_Metal_Only>
0

> <s_lp_Force_Field>
OPLS_2005

> <r_lp_Energy>
55.517

> <b_lp_Chiralities_Consistent>
1

> <s_lp_Variant>
AV-unprocessed.smi:2331-3

> <Gold.Version>
5.8.1

> <Gold.Id.Protein>
6NUR|6NUR_protein|mol2

> <Gold.PLP.Fitness>
55.6673

> <Gold.PLP.PLP>
-50.6376

> <Gold.PLP.part.hbond>
-3.0000

> <Gold.PLP.part.metal>
0.0000

> <Gold.PLP.part.buried>
-6.1203

> <Gold.PLP.part.nonpolar>
-42.7697

> <Gold.PLP.part.repulsive>
0.2568

> <Gold.PLP.ligand.clash>
0.1287

> <Gold.PLP.ligand.torsion>
1.9969

> <Gold.PLP.Chemscore.Hbond>
2.8892

> <Gold.PLP.Chemscore.CHOScore>
0.0000

> <Gold.PLP.Chemscore.Metal>
0.0000

> <Gold.Chemscore.Hbonds>
donor molecule, donor type, donor heavy atom, donor atom, acceptor molecule, acceptor atom, score
      L1  H    20    50       P1  7948  2.00
      P1  H  7997  8008       L1     7  0.86

> <Gold.PLP.Chemscore.Internal.Correction>
0.4845

> <Gold.Rescore>
     Score         DG    S(hbond)    S(metal)    S(lipo)     H(rot)  DE(clash)    DE(int)     intcor
     18.96     -22.03       1.92        0.00     130.86       2.02       0.05       3.02       ----

> <Gold.Chemscore.Fitness>
18.9589

> <Gold.Chemscore.DG>
-22.0326

> <Gold.Chemscore.ZeroCoef>
-5.4800

> <Gold.Chemscore.Hbond>
1.9197

> <Gold.Chemscore.Metal>
0.0000

> <Gold.Chemscore.Lipo>
130.8553

> <Gold.Chemscore.Internal_Hbond>
0.0000

> <Gold.Chemscore.DEClash>
0.0526

> <Gold.Chemscore.DEInternal>
3.0212

> <Gold.Chemscore.Rot>
2.0192

> <Gold.Chemscore.Internal.Correction>
   9.000000E+99

> <Gold.Chemscore.Hbonds>
donor molecule, donor type, donor heavy atom, donor atom, acceptor molecule, acceptor atom, score
      L1  H    20    50       P1  7948  0.47
      P1  H  7997  8008       L1     7  0.84

> <Gold.Chemscore.Hbond.Weighted>
-6.4117

> <Gold.Chemscore.Metal.Weighted>
-0.0000

> <Gold.Chemscore.Lipo.Weighted>
-15.3101

> <Gold.Chemscore.Internal_Hbond.Weighted>
0.0000

> <Gold.Chemscore.DEClash.Weighted>
0.0526

> <Gold.Chemscore.DEInternal.Weighted>
3.0212

> <Gold.Chemscore.Rot.Weighted>
5.1691

> <Gold.Chemscore.Internal.Correction.Weighted>
   9.000000E+99

> <Gold.Protein.RotatedTorsions>
[ 6907 6896 6895 6894 ] final  -15.77 input  -60.11 | X-H torsion
[ 7974 7965 7964 7962 ] final  128.85 input  175.53 | X-H torsion
[ 8008 7997 7996 7995 ] final  -87.69 input   59.86 | X-H torsion
[ 10167 10162 10161 10158 ] final  175.10 input  -65.29 | X-H torsion
[ 10718 10713 10712 10709 ] final  115.93 input   66.30 | X-H torsion
[ 10763 10752 10751 10750 ] final  117.17 input  -60.55 | X-H torsion
[ 11005 11000 10999 10996 ] final    1.26 input  -57.11 | X-H torsion

> <Gold.Protein.ActiveResidues>
 VAL166  LYS551  ARG553  GLY616  TRP617  ASP618  TYR619  PRO620  LYS621  CYS622 
 ASP623  PHE694  ASN695  SER759  ASP760  ASP761  ALA762  ILE779  LEU786  VAL792 
 PHE793  MET794  SER795  GLU796  ALA797  LYS798  CYS799  TRP800  GLU811  SER814 

> <Gold.Protein.RotatedAtoms>
  151.3189  135.0813  159.9298 H   0  0  0  0  0  0  0  0  0  0  0  0  # atno 6907 bound_to 6896
  152.5261  133.9659  159.7749 H   0  0  0  0  0  0  0  0  0  0  0  0  # atno 6908 bound_to 6896
  150.9977  133.6035  159.2729 H   0  0  0  0  0  0  0  0  0  0  0  0  # atno 6909 bound_to 6896
  145.0351  139.4012  143.5130 H   0  0  0  0  0  0  0  0  0  0  0  0  # atno 7974 bound_to 7965
  154.6662  140.0562  157.0116 H   0  0  0  0  0  0  0  0  0  0  0  0  # atno 8008 bound_to 7997
  155.1156  140.3242  155.4492 H   0  0  0  0  0  0  0  0  0  0  0  0  # atno 8009 bound_to 7997
  156.2639  140.2006  156.6279 H   0  0  0  0  0  0  0  0  0  0  0  0  # atno 8010 bound_to 7997
  139.5165  144.3071  152.0326 H   0  0  0  0  0  0  0  0  0  0  0  0  # atno 10167 bound_to 10162
  157.6192  131.1019  150.7400 H   0  0  0  0  0  0  0  0  0  0  0  0  # atno 10718 bound_to 10713
  153.5483  135.3545  155.2748 H   0  0  0  0  0  0  0  0  0  0  0  0  # atno 10763 bound_to 10752
  154.8710  135.4107  154.2966 H   0  0  0  0  0  0  0  0  0  0  0  0  # atno 10764 bound_to 10752
  153.3687  135.7063  153.6723 H   0  0  0  0  0  0  0  0  0  0  0  0  # atno 10765 bound_to 10752
  140.6174  133.9692  155.8208 H   0  0  0  0  0  0  0  0  0  0  0  0  # atno 11005 bound_to 11000
  146.3503  139.9921  142.8684 LP  0  0  0  0  0  0  0  0  0  0  0  0  # atno 17320 bound_to 7965
  145.1720  140.9725  143.4316 LP  0  0  0  0  0  0  0  0  0  0  0  0  # atno 17321 bound_to 7965
  140.2516  144.4162  150.6219 LP  0  0  0  0  0  0  0  0  0  0  0  0  # atno 17342 bound_to 10162
  140.6220  143.2177  151.6674 LP  0  0  0  0  0  0  0  0  0  0  0  0  # atno 17343 bound_to 10162
  156.7761  130.4844  149.5409 LP  0  0  0  0  0  0  0  0  0  0  0  0  # atno 17370 bound_to 10713
  156.1328  130.6190  151.0358 LP  0  0  0  0  0  0  0  0  0  0  0  0  # atno 17371 bound_to 10713
  141.0766  134.0126  157.3449 LP  0  0  0  0  0  0  0  0  0  0  0  0  # atno 17394 bound_to 11000
  139.9167  135.0197  156.7908 LP  0  0  0  0  0  0  0  0  0  0  0  0  # atno 17395 bound_to 11000

$$$$
