AV-unprocessed.smi:2849|AV-procd|sdf|10957|dock2
  -GOLD-   2272015413D 1   1.00000     0.00000
 Structure written by MMmdl.
 55 58  0  0  0  0  0  0  0  0  2 V2000
  142.1738  134.1261  152.6192 C   0  0  0  0  0  0  0  0  0  0  0  0
  143.5429  134.0934  153.1868 N   0  3  2  0  0  0  0  0  0  0  0  0
  143.8350  135.1637  154.1700 C   0  0  2  0  0  0  0  0  0  0  0  0
  143.9324  136.5503  153.4858 C   0  0  0  0  0  0  0  0  0  0  0  0
  144.8883  136.5899  152.2803 C   0  0  0  0  0  0  0  0  0  0  0  0
  144.7726  135.3378  151.3929 C   0  0  0  0  0  0  0  0  0  0  0  0
  144.6313  134.0131  152.1834 C   0  0  1  0  0  0  0  0  0  0  0  0
  145.9229  133.5213  152.8768 C   0  0  0  0  0  0  0  0  0  0  0  0
  146.2886  134.2340  154.2078 C   0  0  1  0  0  0  0  0  0  0  0  0
  147.3069  135.2690  154.0399 N   0  0  0  0  0  0  0  0  0  0  0  0
  147.7572  136.0884  155.0016 C   0  0  0  0  0  0  0  0  0  0  0  0
  147.3694  136.0423  156.1686 O   0  0  0  0  0  0  0  0  0  0  0  0
  148.6886  136.9310  154.5237 N   0  0  0  0  0  0  0  0  0  0  0  0
  149.3494  137.9941  155.1968 C   0  0  0  0  0  0  0  0  0  0  0  0
  149.5355  138.0589  156.5973 C   0  0  0  0  0  0  0  0  0  0  0  0
  150.1812  139.1820  157.1489 C   0  0  0  0  0  0  0  0  0  0  0  0
  150.6168  140.2193  156.2905 C   0  0  0  0  0  0  0  0  0  0  0  0
  151.2657  141.3599  156.8042 N   0  0  0  0  0  0  0  0  0  0  0  0
  150.8156  142.7052  156.4805 C   0  0  0  0  0  0  0  0  0  0  0  0
  151.6645  143.6202  157.3612 C   0  0  0  0  0  0  0  0  0  0  0  0
  151.8910  142.7776  158.6160 C   0  0  0  0  0  0  0  0  0  0  0  0
  151.9398  141.3362  158.0954 C   0  0  0  0  0  0  0  0  0  0  0  0
  150.4358  140.1556  154.9499 N   0  0  0  0  0  0  0  0  0  0  0  0
  149.8150  139.0781  154.4264 C   0  0  0  0  0  0  0  0  0  0  0  0
  145.0683  134.7557  155.0095 C   0  0  0  0  0  0  0  0  0  0  0  0
  141.9937  135.0202  152.0228 H   0  0  0  0  0  0  0  0  0  0  0  0
  141.4310  134.0977  153.4168 H   0  0  0  0  0  0  0  0  0  0  0  0
  142.0063  133.2568  151.9829 H   0  0  0  0  0  0  0  0  0  0  0  0
  142.9962  135.2123  154.8661 H   0  0  0  0  0  0  0  0  0  0  0  0
  142.9389  136.8427  153.1450 H   0  0  0  0  0  0  0  0  0  0  0  0
  144.2231  137.3092  154.2128 H   0  0  0  0  0  0  0  0  0  0  0  0
  144.6821  137.4784  151.6830 H   0  0  0  0  0  0  0  0  0  0  0  0
  145.9120  136.7210  152.6142 H   0  0  0  0  0  0  0  0  0  0  0  0
  143.9022  135.4548  150.7467 H   0  0  0  0  0  0  0  0  0  0  0  0
  145.6277  135.2836  150.7185 H   0  0  0  0  0  0  0  0  0  0  0  0
  144.3605  133.2407  151.4618 H   0  0  0  0  0  0  0  0  0  0  0  0
  145.7732  132.4666  153.1123 H   0  0  0  0  0  0  0  0  0  0  0  0
  146.7590  133.5347  152.1766 H   0  0  0  0  0  0  0  0  0  0  0  0
  146.7583  133.4823  154.8459 H   0  0  0  0  0  0  0  0  0  0  0  0
  147.6913  135.3788  153.1129 H   0  0  0  0  0  0  0  0  0  0  0  0
  148.9778  136.7812  153.5684 H   0  0  0  0  0  0  0  0  0  0  0  0
  149.1852  137.2830  157.2599 H   0  0  0  0  0  0  0  0  0  0  0  0
  150.3324  139.2311  158.2169 H   0  0  0  0  0  0  0  0  0  0  0  0
  150.9461  142.9301  155.4215 H   0  0  0  0  0  0  0  0  0  0  0  0
  149.7582  142.8057  156.7292 H   0  0  0  0  0  0  0  0  0  0  0  0
  152.6200  143.8206  156.8747 H   0  0  0  0  0  0  0  0  0  0  0  0
  151.1828  144.5762  157.5681 H   0  0  0  0  0  0  0  0  0  0  0  0
  152.7909  143.0608  159.1624 H   0  0  0  0  0  0  0  0  0  0  0  0
  151.0405  142.8937  159.2892 H   0  0  0  0  0  0  0  0  0  0  0  0
  151.4621  140.6534  158.7990 H   0  0  0  0  0  0  0  0  0  0  0  0
  152.9707  141.0125  157.9477 H   0  0  0  0  0  0  0  0  0  0  0  0
  149.6882  139.0828  153.3537 H   0  0  0  0  0  0  0  0  0  0  0  0
  145.3589  135.5643  155.6818 H   0  0  0  0  0  0  0  0  0  0  0  0
  144.7482  133.9460  155.6670 H   0  0  0  0  0  0  0  0  0  0  0  0
  143.5832  133.2272  153.7047 H   0  0  0  0  0  0  0  0  0  0  0  0
  1  2  1  0  0  0  0
  1 26  1  0  0  0  0
  1 27  1  0  0  0  0
  1 28  1  0  0  0  0
  2  7  1  0  0  0  0
  2  3  1  0  0  0  0
  2 55  1  0  0  0  0
  3 25  1  0  0  0  0
  3  4  1  0  0  0  0
  3 29  1  0  0  0  0
  4  5  1  0  0  0  0
  4 30  1  0  0  0  0
  4 31  1  0  0  0  0
  5  6  1  0  0  0  0
  5 32  1  0  0  0  0
  5 33  1  0  0  0  0
  6  7  1  0  0  0  0
  6 34  1  0  0  0  0
  6 35  1  0  0  0  0
  7  8  1  0  0  0  0
  7 36  1  0  0  0  0
  8  9  1  0  0  0  0
  8 37  1  0  0  0  0
  8 38  1  0  0  0  0
  9 10  1  0  0  0  0
  9 25  1  0  0  0  0
  9 39  1  0  0  0  0
 10 11  1  0  0  0  0
 10 40  1  0  0  0  0
 11 12  2  0  0  0  0
 11 13  1  0  0  0  0
 13 14  1  0  0  0  0
 13 41  1  0  0  0  0
 14 24  1  0  0  0  0
 14 15  2  0  0  0  0
 15 16  1  0  0  0  0
 15 42  1  0  0  0  0
 16 17  2  0  0  0  0
 16 43  1  0  0  0  0
 17 18  1  0  0  0  0
 17 23  1  0  0  0  0
 18 22  1  0  0  0  0
 18 19  1  0  0  0  0
 19 20  1  0  0  0  0
 19 44  1  0  0  0  0
 19 45  1  0  0  0  0
 20 21  1  0  0  0  0
 20 46  1  0  0  0  0
 20 47  1  0  0  0  0
 21 22  1  0  0  0  0
 21 48  1  0  0  0  0
 21 49  1  0  0  0  0
 22 50  1  0  0  0  0
 22 51  1  0  0  0  0
 23 24  2  0  0  0  0
 24 52  1  0  0  0  0
 25 53  1  0  0  0  0
 25 54  1  0  0  0  0
M  CHG  1   2   1
M  END
> <s_m_source_file>
AV-unprocessed.smi

> <i_m_source_file_index>
2849

> <i_lp_mmshare_version>
43012

> <i_f3d_flags>
0

> <s_epik_input>
W0NIMl0xW0NIMl1bQ0gyXVtDQEhdKE4oW0NIM10pW0NIXTEyKVtDSDJdW0NASF0oW0NIMl0yKVtOSF1DKD1PKVtOSF1jM1tjSF1bY0hdYyhuW2NIXTMpTjRbQ0gyXVtDSDJdW0NIMl1bQ0gyXTQ=

> <s_epik_cmdline>
J2VwaWtfcHl0aG9uJywgJy1waCcsICc3LjAnLCAnLXRuJywgJzgnLCAnLW1hJywgJzIwMCcsICctbWV0YWxfYmluZGluZycsICctaW1hZScsICc8aW5maWxlLm1hZT4nLCAnLW9tYWUnLCAnPG91dGZpbGUubWFlPic=

> <r_lp_tautomer_probability>
1

> <r_epik_Ionization_Penalty>
0.07954

> <r_epik_Ionization_Penalty_Charging>
0.00089841

> <r_epik_Ionization_Penalty_Neutral>
0.0786416

> <r_epik_State_Penalty>
0.0689917

> <r_epik_Charging_Adjusted_Penalty>
0.0698901

> <i_epik_Tot_Q>
1

> <i_epik_Tot_abs_Q>
1

> <r_epik_Metal_State_Penalty>
0.060891

> <b_epik_Metal_Only>
0

> <s_lp_Force_Field>
OPLS_2005

> <r_lp_Energy>
63.0915

> <b_lp_Chiralities_Consistent>
1

> <s_lp_Variant>
AV-unprocessed.smi:2849-1

> <Gold.Version>
5.8.1

> <Gold.Id.Protein>
6NUR|6NUR_protein|mol2

> <Gold.PLP.Fitness>
47.9705

> <Gold.PLP.PLP>
-31.4110

> <Gold.PLP.part.hbond>
-4.0000

> <Gold.PLP.part.metal>
0.0000

> <Gold.PLP.part.buried>
-3.9852

> <Gold.PLP.part.nonpolar>
-24.6062

> <Gold.PLP.part.repulsive>
0.0790

> <Gold.PLP.ligand.clash>
0.0000

> <Gold.PLP.ligand.torsion>
0.8220

> <Gold.PLP.Chemscore.Hbond>
4.9825

> <Gold.PLP.Chemscore.CHOScore>
1.0000

> <Gold.PLP.Chemscore.Metal>
0.0000

> <Gold.Chemscore.Hbonds>
donor molecule, donor type, donor heavy atom, donor atom, acceptor molecule, acceptor atom, score
      L1  H     2    55       P1 10957  1.98
      L1  H    10    40       P1  7948  1.00
      L1  H    13    41       P1  7948  1.00
      P1  H  7989  7998       L1    23  1.00
      L1  C    24    52       P1  7957  1.00

> <Gold.PLP.Chemscore.Internal.Correction>
0.2561

> <Gold.Rescore>
     Score         DG    S(hbond)    S(metal)    S(lipo)     H(rot)  DE(clash)    DE(int)     intcor
     20.34     -24.34       3.34        0.00      87.64       1.00       1.02       2.98       ----

> <Gold.Chemscore.Fitness>
20.3364

> <Gold.Chemscore.DG>
-24.3374

> <Gold.Chemscore.ZeroCoef>
-5.4800

> <Gold.Chemscore.Hbond>
3.3422

> <Gold.Chemscore.Metal>
0.0000

> <Gold.Chemscore.Lipo>
87.6448

> <Gold.Chemscore.Internal_Hbond>
0.0000

> <Gold.Chemscore.DEClash>
1.0205

> <Gold.Chemscore.DEInternal>
2.9805

> <Gold.Chemscore.Rot>
1.0000

> <Gold.Chemscore.Internal.Correction>
   9.000000E+99

> <Gold.Chemscore.Hbonds>
donor molecule, donor type, donor heavy atom, donor atom, acceptor molecule, acceptor atom, score
      L1  H     2    55       P1 10957  0.87
      L1  H    10    40       P1  7948  0.95
      L1  H    13    41       P1  7948  1.00
      P1  H  7989  7998       L1    23  0.52

> <Gold.Chemscore.Hbond.Weighted>
-11.1630

> <Gold.Chemscore.Metal.Weighted>
-0.0000

> <Gold.Chemscore.Lipo.Weighted>
-10.2544

> <Gold.Chemscore.Internal_Hbond.Weighted>
0.0000

> <Gold.Chemscore.DEClash.Weighted>
1.0205

> <Gold.Chemscore.DEInternal.Weighted>
2.9805

> <Gold.Chemscore.Rot.Weighted>
2.5600

> <Gold.Chemscore.Internal.Correction.Weighted>
   9.000000E+99

> <Gold.Protein.RotatedTorsions>
[ 6907 6896 6895 6894 ] final  102.63 input  -60.11 | X-H torsion
[ 7974 7965 7964 7962 ] final  170.06 input  175.53 | X-H torsion
[ 8008 7997 7996 7995 ] final  103.09 input   59.86 | X-H torsion
[ 10167 10162 10161 10158 ] final -151.58 input  -65.29 | X-H torsion
[ 10718 10713 10712 10709 ] final   -1.06 input   66.30 | X-H torsion
[ 10763 10752 10751 10750 ] final  138.56 input  -60.55 | X-H torsion
[ 11005 11000 10999 10996 ] final  -85.19 input  -57.11 | X-H torsion

> <Gold.Protein.ActiveResidues>
 VAL166  LYS551  ARG553  GLY616  TRP617  ASP618  TYR619  PRO620  LYS621  CYS622 
 ASP623  PHE694  ASN695  SER759  ASP760  ASP761  ALA762  ILE779  LEU786  VAL792 
 PHE793  MET794  SER795  GLU796  ALA797  LYS798  CYS799  TRP800  GLU811  SER814 

> <Gold.Protein.RotatedAtoms>
  152.5318  133.9947  159.7866 H   0  0  0  0  0  0  0  0  0  0  0  0  # atno 6907 bound_to 6896
  151.0177  133.5898  159.2682 H   0  0  0  0  0  0  0  0  0  0  0  0  # atno 6908 bound_to 6896
  151.2949  135.0759  159.9271 H   0  0  0  0  0  0  0  0  0  0  0  0  # atno 6909 bound_to 6896
  144.7335  139.9146  143.6417 H   0  0  0  0  0  0  0  0  0  0  0  0  # atno 7974 bound_to 7965
  156.1452  140.3170  155.8559 H   0  0  0  0  0  0  0  0  0  0  0  0  # atno 8008 bound_to 7997
  155.4077  140.0504  157.3050 H   0  0  0  0  0  0  0  0  0  0  0  0  # atno 8009 bound_to 7997
  154.5010  140.2129  155.9358 H   0  0  0  0  0  0  0  0  0  0  0  0  # atno 8010 bound_to 7997
  139.7255  143.8890  152.2518 H   0  0  0  0  0  0  0  0  0  0  0  0  # atno 10167 bound_to 10162
  156.8113  130.5425  149.5708 H   0  0  0  0  0  0  0  0  0  0  0  0  # atno 10718 bound_to 10713
  153.8916  135.3032  155.3447 H   0  0  0  0  0  0  0  0  0  0  0  0  # atno 10763 bound_to 10752
  154.7714  135.4884  153.9659 H   0  0  0  0  0  0  0  0  0  0  0  0  # atno 10764 bound_to 10752
  153.1295  135.6800  153.9301 H   0  0  0  0  0  0  0  0  0  0  0  0  # atno 10765 bound_to 10752
  141.1643  133.7386  156.8979 H   0  0  0  0  0  0  0  0  0  0  0  0  # atno 11005 bound_to 11000
  146.0975  139.3968  143.0367 LP  0  0  0  0  0  0  0  0  0  0  0  0  # atno 17320 bound_to 7965
  145.7625  140.9929  143.1192 LP  0  0  0  0  0  0  0  0  0  0  0  0  # atno 17321 bound_to 7965
  139.8798  144.7024  150.8891 LP  0  0  0  0  0  0  0  0  0  0  0  0  # atno 17342 bound_to 10162
  140.7762  143.3670  151.1719 LP  0  0  0  0  0  0  0  0  0  0  0  0  # atno 17343 bound_to 10162
  156.1043  130.5992  150.9945 LP  0  0  0  0  0  0  0  0  0  0  0  0  # atno 17370 bound_to 10713
  157.6504  131.0898  150.8062 LP  0  0  0  0  0  0  0  0  0  0  0  0  # atno 17371 bound_to 10713
  140.1603  134.9170  157.2706 LP  0  0  0  0  0  0  0  0  0  0  0  0  # atno 17394 bound_to 11000
  140.2619  134.3561  155.7403 LP  0  0  0  0  0  0  0  0  0  0  0  0  # atno 17395 bound_to 11000

$$$$
