AV-unprocessed.smi:1674|AV-procd|sdf|6713|dock5
  -GOLD-   22720 7453D 1   1.00000     0.00000
 Structure written by MMmdl.
 47 48  0  0  0  0  0  0  0  0  1 V2000
  145.3558  143.7504  154.0605 C   0  0  0  0  0  0  0  0  0  0  0  0
  145.9479  142.9244  155.1703 C   0  0  0  0  0  0  0  0  0  0  0  0
  146.8083  142.0238  154.8262 N   0  0  0  0  0  0  0  0  0  0  0  0
  147.4047  141.2013  155.7611 N   0  0  0  0  0  0  0  0  0  0  0  0
  148.3129  140.2084  155.1657 C   0  0  0  0  0  0  0  0  0  0  0  0
  149.7756  140.7010  154.9949 C   0  0  2  0  0  0  0  0  0  0  0  0
  150.4492  139.8471  154.0907 O   0  0  0  0  0  0  0  0  0  0  0  0
  150.5413  140.9253  156.2958 C   0  0  0  0  0  0  0  0  0  0  0  0
  151.6748  140.1354  156.5817 C   0  0  0  0  0  0  0  0  0  0  0  0
  152.4111  140.3473  157.7629 C   0  0  0  0  0  0  0  0  0  0  0  0
  152.0188  141.3509  158.6727 C   0  0  0  0  0  0  0  0  0  0  0  0
  152.8117  141.5837  159.9474 C   0  0  0  0  0  0  0  0  0  0  0  0
  152.3175  142.7922  160.7692 C   0  0  0  0  0  0  0  0  0  0  0  0
  152.5235  144.1013  159.9926 C   0  0  0  0  0  0  0  0  0  0  0  0
  152.9786  142.8704  162.1560 C   0  0  0  0  0  0  0  0  0  0  0  0
  150.8862  142.1419  158.3904 C   0  0  0  0  0  0  0  0  0  0  0  0
  150.1500  141.9295  157.2096 C   0  0  0  0  0  0  0  0  0  0  0  0
  147.1774  141.2639  157.1058 C   0  0  0  0  0  0  0  0  0  0  0  0
  147.7349  140.5169  157.9113 O   0  0  0  0  0  0  0  0  0  0  0  0
  146.2013  142.2864  157.4888 C   0  0  0  0  0  0  0  0  0  0  0  0
  145.9184  142.3705  158.8852 C   0  0  0  0  0  0  0  0  0  0  0  0
  145.7053  142.4260  160.0217 N   0  0  0  0  0  0  0  0  0  0  0  0
  145.6013  143.0923  156.5776 C   0  0  0  0  0  0  0  0  0  0  0  0
  144.5801  144.1666  156.9251 C   0  0  0  0  0  0  0  0  0  0  0  0
  145.6673  144.7915  154.1460 H   0  0  0  0  0  0  0  0  0  0  0  0
  144.2665  143.7189  154.0903 H   0  0  0  0  0  0  0  0  0  0  0  0
  145.6659  143.3925  153.0774 H   0  0  0  0  0  0  0  0  0  0  0  0
  148.2811  139.2765  155.7336 H   0  0  0  0  0  0  0  0  0  0  0  0
  147.9370  139.9252  154.1814 H   0  0  0  0  0  0  0  0  0  0  0  0
  149.7361  141.6612  154.4787 H   0  0  0  0  0  0  0  0  0  0  0  0
  150.9830  139.2467  154.5885 H   0  0  0  0  0  0  0  0  0  0  0  0
  151.9908  139.3702  155.8878 H   0  0  0  0  0  0  0  0  0  0  0  0
  153.2783  139.7368  157.9674 H   0  0  0  0  0  0  0  0  0  0  0  0
  152.7886  140.6812  160.5601 H   0  0  0  0  0  0  0  0  0  0  0  0
  153.8562  141.7301  159.6688 H   0  0  0  0  0  0  0  0  0  0  0  0
  151.2433  142.6779  160.9222 H   0  0  0  0  0  0  0  0  0  0  0  0
  153.5806  144.2835  159.7962 H   0  0  0  0  0  0  0  0  0  0  0  0
  152.1373  144.9550  160.5501 H   0  0  0  0  0  0  0  0  0  0  0  0
  152.0058  144.0755  159.0332 H   0  0  0  0  0  0  0  0  0  0  0  0
  154.0628  142.9528  162.0736 H   0  0  0  0  0  0  0  0  0  0  0  0
  152.7562  141.9884  162.7570 H   0  0  0  0  0  0  0  0  0  0  0  0
  152.6205  143.7372  162.7121 H   0  0  0  0  0  0  0  0  0  0  0  0
  150.5804  142.9158  159.0791 H   0  0  0  0  0  0  0  0  0  0  0  0
  149.2920  142.5522  157.0027 H   0  0  0  0  0  0  0  0  0  0  0  0
  144.4646  144.2928  158.0012 H   0  0  0  0  0  0  0  0  0  0  0  0
  143.6030  143.9077  156.5159 H   0  0  0  0  0  0  0  0  0  0  0  0
  144.8802  145.1320  156.5163 H   0  0  0  0  0  0  0  0  0  0  0  0
  1  2  1  0  0  0  0
  1 25  1  0  0  0  0
  1 26  1  0  0  0  0
  1 27  1  0  0  0  0
  2 23  1  0  0  0  0
  2  3  2  0  0  0  0
  3  4  1  0  0  0  0
  4  5  1  0  0  0  0
  4 18  1  0  0  0  0
  5  6  1  0  0  0  0
  5 28  1  0  0  0  0
  5 29  1  0  0  0  0
  6  7  1  0  0  0  0
  6  8  1  0  0  0  0
  6 30  1  0  0  0  0
  7 31  1  0  0  0  0
  8 17  1  0  0  0  0
  8  9  2  0  0  0  0
  9 10  1  0  0  0  0
  9 32  1  0  0  0  0
 10 11  2  0  0  0  0
 10 33  1  0  0  0  0
 11 12  1  0  0  0  0
 11 16  1  0  0  0  0
 12 13  1  0  0  0  0
 12 34  1  0  0  0  0
 12 35  1  0  0  0  0
 13 14  1  0  0  0  0
 13 15  1  0  0  0  0
 13 36  1  0  0  0  0
 14 37  1  0  0  0  0
 14 38  1  0  0  0  0
 14 39  1  0  0  0  0
 15 40  1  0  0  0  0
 15 41  1  0  0  0  0
 15 42  1  0  0  0  0
 16 17  2  0  0  0  0
 16 43  1  0  0  0  0
 17 44  1  0  0  0  0
 18 19  2  0  0  0  0
 18 20  1  0  0  0  0
 20 21  1  0  0  0  0
 20 23  2  0  0  0  0
 21 22  3  0  0  0  0
 23 24  1  0  0  0  0
 24 45  1  0  0  0  0
 24 46  1  0  0  0  0
 24 47  1  0  0  0  0
M  END
> <s_m_source_file>
AV-unprocessed.smi

> <i_m_source_file_index>
1674

> <i_lp_mmshare_version>
43012

> <i_f3d_flags>
0

> <s_epik_input>
TiNDYyhjMVtDSDNdKWMoPU8pbihuYzFbQ0gzXSlbQ0gyXVtDQEhdKFtPSF0pYzJbY0hdW2NIXWMoW2NIXVtjSF0yKVtDSDJdW0NIXShbQ0gzXSlbQ0gzXQ==

> <s_epik_cmdline>
J2VwaWtfcHl0aG9uJywgJy1waCcsICc3LjAnLCAnLXRuJywgJzgnLCAnLW1hJywgJzIwMCcsICctbWV0YWxfYmluZGluZycsICctaW1hZScsICc8aW5maWxlLm1hZT4nLCAnLW9tYWUnLCAnPG91dGZpbGUubWFlPic=

> <r_lp_tautomer_probability>
1

> <r_epik_Ionization_Penalty>
4.60566e-08

> <r_epik_Ionization_Penalty_Charging>
1.40848e-10

> <r_epik_Ionization_Penalty_Neutral>
4.59158e-08

> <r_epik_State_Penalty>
-0

> <r_epik_Charging_Adjusted_Penalty>
1.40848e-10

> <i_epik_Tot_Q>
0

> <i_epik_Tot_abs_Q>
0

> <r_epik_Metal_State_Penalty>
-0

> <b_epik_Metal_Only>
0

> <s_lp_Force_Field>
OPLS_2005

> <r_lp_Energy>
29.2193

> <b_lp_Chiralities_Consistent>
1

> <s_lp_Variant>
AV-unprocessed.smi:1674-1

> <Gold.Version>
5.8.1

> <Gold.Id.Protein>
6NUR|6NUR_protein|mol2

> <Gold.PLP.Fitness>
49.6042

> <Gold.PLP.PLP>
-44.7527

> <Gold.PLP.part.hbond>
-3.6192

> <Gold.PLP.part.metal>
0.0000

> <Gold.PLP.part.buried>
-6.1247

> <Gold.PLP.part.nonpolar>
-35.8181

> <Gold.PLP.part.repulsive>
0.1340

> <Gold.PLP.ligand.clash>
0.0000

> <Gold.PLP.ligand.torsion>
0.6380

> <Gold.PLP.Chemscore.Hbond>
2.0000

> <Gold.PLP.Chemscore.CHOScore>
0.0000

> <Gold.PLP.Chemscore.Metal>
0.0000

> <Gold.Chemscore.Hbonds>
donor molecule, donor type, donor heavy atom, donor atom, acceptor molecule, acceptor atom, score
      P1  H  6934  6946       L1    22  0.84
      P1  H  7989  7998       L1     7  1.00

> <Gold.PLP.Chemscore.Internal.Correction>
0.1276

> <Gold.Rescore>
     Score         DG    S(hbond)    S(metal)    S(lipo)     H(rot)  DE(clash)    DE(int)     intcor
     14.97     -15.91       0.81        0.00     112.72       2.13       0.15       0.78       ----

> <Gold.Chemscore.Fitness>
14.9739

> <Gold.Chemscore.DG>
-15.9082

> <Gold.Chemscore.ZeroCoef>
-5.4800

> <Gold.Chemscore.Hbond>
0.8063

> <Gold.Chemscore.Metal>
0.0000

> <Gold.Chemscore.Lipo>
112.7166

> <Gold.Chemscore.Internal_Hbond>
0.0000

> <Gold.Chemscore.DEClash>
0.1527

> <Gold.Chemscore.DEInternal>
0.7816

> <Gold.Chemscore.Rot>
2.1299

> <Gold.Chemscore.Internal.Correction>
   9.000000E+99

> <Gold.Chemscore.Hbonds>
donor molecule, donor type, donor heavy atom, donor atom, acceptor molecule, acceptor atom, score
      P1  H  6934  6946       L1    22  0.25
      P1  H  7989  7998       L1     7  0.10

> <Gold.Chemscore.Hbond.Weighted>
-2.6930

> <Gold.Chemscore.Metal.Weighted>
-0.0000

> <Gold.Chemscore.Lipo.Weighted>
-13.1878

> <Gold.Chemscore.Internal_Hbond.Weighted>
0.0000

> <Gold.Chemscore.DEClash.Weighted>
0.1527

> <Gold.Chemscore.DEInternal.Weighted>
0.7816

> <Gold.Chemscore.Rot.Weighted>
5.4526

> <Gold.Chemscore.Internal.Correction.Weighted>
   9.000000E+99

> <Gold.Protein.RotatedTorsions>
[ 6907 6896 6895 6894 ] final -179.96 input  -60.11 | X-H torsion
[ 7974 7965 7964 7962 ] final -146.80 input  175.53 | X-H torsion
[ 8008 7997 7996 7995 ] final  -88.87 input   59.86 | X-H torsion
[ 10167 10162 10161 10158 ] final   70.63 input  -65.29 | X-H torsion
[ 10718 10713 10712 10709 ] final -166.30 input   66.30 | X-H torsion
[ 10763 10752 10751 10750 ] final  131.75 input  -60.55 | X-H torsion
[ 11005 11000 10999 10996 ] final -103.71 input  -57.11 | X-H torsion

> <Gold.Protein.ActiveResidues>
 VAL166  LYS551  ARG553  GLY616  TRP617  ASP618  TYR619  PRO620  LYS621  CYS622 
 ASP623  PHE694  ASN695  SER759  ASP760  ASP761  ALA762  ILE779  LEU786  VAL792 
 PHE793  MET794  SER795  GLU796  ALA797  LYS798  CYS799  TRP800  GLU811  SER814 

> <Gold.Protein.RotatedAtoms>
  151.6619  133.3316  159.3175 H   0  0  0  0  0  0  0  0  0  0  0  0  # atno 6907 bound_to 6896
  150.7909  134.6936  159.6520 H   0  0  0  0  0  0  0  0  0  0  0  0  # atno 6908 bound_to 6896
  152.3988  134.6324  160.0130 H   0  0  0  0  0  0  0  0  0  0  0  0  # atno 6909 bound_to 6896
  144.8135  140.5409  143.5626 H   0  0  0  0  0  0  0  0  0  0  0  0  # atno 7974 bound_to 7965
  154.6799  140.0548  157.0255 H   0  0  0  0  0  0  0  0  0  0  0  0  # atno 8008 bound_to 7997
  155.0966  140.3224  155.4540 H   0  0  0  0  0  0  0  0  0  0  0  0  # atno 8009 bound_to 7997
  156.2690  140.2038  156.6093 H   0  0  0  0  0  0  0  0  0  0  0  0  # atno 8010 bound_to 7997
  140.0548  144.5282  150.7337 H   0  0  0  0  0  0  0  0  0  0  0  0  # atno 10167 bound_to 10162
  156.6658  130.9064  151.3036 H   0  0  0  0  0  0  0  0  0  0  0  0  # atno 10718 bound_to 10713
  153.7794  135.3170  155.3363 H   0  0  0  0  0  0  0  0  0  0  0  0  # atno 10763 bound_to 10752
  154.8167  135.4631  154.0666 H   0  0  0  0  0  0  0  0  0  0  0  0  # atno 10764 bound_to 10752
  153.1950  135.6914  153.8389 H   0  0  0  0  0  0  0  0  0  0  0  0  # atno 10765 bound_to 10752
  141.1134  133.8662  157.1520 H   0  0  0  0  0  0  0  0  0  0  0  0  # atno 11005 bound_to 11000
  145.5269  139.1476  143.3521 LP  0  0  0  0  0  0  0  0  0  0  0  0  # atno 17320 bound_to 7965
  146.2436  140.5409  142.8923 LP  0  0  0  0  0  0  0  0  0  0  0  0  # atno 17321 bound_to 7965
  140.7200  143.2579  151.4311 LP  0  0  0  0  0  0  0  0  0  0  0  0  # atno 17342 bound_to 10162
  139.5930  144.1458  152.2111 LP  0  0  0  0  0  0  0  0  0  0  0  0  # atno 17343 bound_to 10162
  157.7094  130.9422  150.1038 LP  0  0  0  0  0  0  0  0  0  0  0  0  # atno 17370 bound_to 10713
  156.1976  130.3658  149.8829 LP  0  0  0  0  0  0  0  0  0  0  0  0  # atno 17371 bound_to 10713
  140.0040  135.0016  157.0253 LP  0  0  0  0  0  0  0  0  0  0  0  0  # atno 17394 bound_to 11000
  140.4714  134.1383  155.7203 LP  0  0  0  0  0  0  0  0  0  0  0  0  # atno 17395 bound_to 11000

$$$$
