AV-unprocessed.smi:2379|AV-procd|sdf|9454|dock1
  -GOLD-   2272013 83D 1   1.00000     0.00000
 Structure written by MMmdl.
 53 55  0  0  0  0  0  0  0  0  2 V2000
  152.2416  144.0502  161.1767 C   0  0  0  0  0  0  0  0  0  0  0  0
  152.5793  142.8028  160.3876 C   0  0  0  0  0  0  0  0  0  0  0  0
  153.7515  142.0746  160.6650 C   0  0  0  0  0  0  0  0  0  0  0  0
  154.0164  140.9235  159.8978 C   0  0  0  0  0  0  0  0  0  0  0  0
  155.2610  140.0963  160.1400 C   0  0  0  0  0  0  0  0  0  0  0  0
  153.2009  140.4914  158.9120 N   0  0  0  0  0  0  0  0  0  0  0  0
  152.0694  141.1854  158.6352 C   0  0  0  0  0  0  0  0  0  0  0  0
  151.1509  140.8183  157.6159 N   0  0  0  0  0  0  0  0  0  0  0  0
  151.4156  140.2519  156.4252 C   0  0  0  0  0  0  0  0  0  0  0  0
  152.5309  139.9144  156.0276 O   0  0  0  0  0  0  0  0  0  0  0  0
  150.2960  140.0896  155.7043 N   0  0  0  0  0  0  0  0  0  0  0  0
  150.2247  139.4799  154.3763 C   0  0  2  0  0  0  0  0  0  0  0  0
  148.7859  139.0739  153.9994 C   0  0  0  0  0  0  0  0  0  0  0  0
  148.2895  137.8729  154.8230 C   0  0  0  0  0  0  0  0  0  0  0  0
  149.2089  136.7130  154.6897 N   0  3  2  0  0  0  0  0  0  0  0  0
  148.6841  135.4891  155.3507 C   0  0  0  0  0  0  0  0  0  0  0  0
  149.4623  134.2205  154.9468 C   0  0  1  0  0  0  0  0  0  0  0  0
  149.6438  133.1785  156.0407 C   0  0  0  0  0  0  0  0  0  0  0  0
  149.7584  131.8553  155.2773 C   0  0  0  0  0  0  0  0  0  0  0  0
  149.4214  132.1457  153.9253 O   0  0  0  0  0  0  0  0  0  0  0  0
  148.7506  133.3938  153.8793 C   0  0  0  0  0  0  0  0  0  0  0  0
  150.5889  137.0648  155.1168 C   0  0  0  0  0  0  0  0  0  0  0  0
  151.1427  138.2477  154.3012 C   0  0  0  0  0  0  0  0  0  0  0  0
  151.7298  142.3519  159.3567 C   0  0  0  0  0  0  0  0  0  0  0  0
  152.6254  143.9807  162.1950 H   0  0  0  0  0  0  0  0  0  0  0  0
  151.1622  144.1951  161.2320 H   0  0  0  0  0  0  0  0  0  0  0  0
  152.6829  144.9262  160.7017 H   0  0  0  0  0  0  0  0  0  0  0  0
  154.4298  142.3910  161.4440 H   0  0  0  0  0  0  0  0  0  0  0  0
  155.7363  140.3664  161.0833 H   0  0  0  0  0  0  0  0  0  0  0  0
  155.9804  140.2550  159.3366 H   0  0  0  0  0  0  0  0  0  0  0  0
  155.0143  139.0347  160.1770 H   0  0  0  0  0  0  0  0  0  0  0  0
  150.1818  141.0155  157.8161 H   0  0  0  0  0  0  0  0  0  0  0  0
  149.4241  140.3908  156.1144 H   0  0  0  0  0  0  0  0  0  0  0  0
  150.5844  140.2150  153.6538 H   0  0  0  0  0  0  0  0  0  0  0  0
  148.1019  139.9151  154.1157 H   0  0  0  0  0  0  0  0  0  0  0  0
  148.7575  138.8121  152.9408 H   0  0  0  0  0  0  0  0  0  0  0  0
  148.1914  138.1452  155.8750 H   0  0  0  0  0  0  0  0  0  0  0  0
  147.2940  137.5963  154.4734 H   0  0  0  0  0  0  0  0  0  0  0  0
  148.6546  135.6137  156.4343 H   0  0  0  0  0  0  0  0  0  0  0  0
  147.6476  135.3383  155.0453 H   0  0  0  0  0  0  0  0  0  0  0  0
  150.4423  134.5000  154.5555 H   0  0  0  0  0  0  0  0  0  0  0  0
  150.5195  133.3721  156.6611 H   0  0  0  0  0  0  0  0  0  0  0  0
  148.7684  133.1475  156.6911 H   0  0  0  0  0  0  0  0  0  0  0  0
  150.7691  131.4487  155.3205 H   0  0  0  0  0  0  0  0  0  0  0  0
  149.0755  131.1088  155.6843 H   0  0  0  0  0  0  0  0  0  0  0  0
  147.6979  133.2485  154.1283 H   0  0  0  0  0  0  0  0  0  0  0  0
  148.8112  133.8418  152.8871 H   0  0  0  0  0  0  0  0  0  0  0  0
  150.5905  137.3067  156.1806 H   0  0  0  0  0  0  0  0  0  0  0  0
  151.2536  136.2123  154.9929 H   0  0  0  0  0  0  0  0  0  0  0  0
  151.2467  137.9422  153.2591 H   0  0  0  0  0  0  0  0  0  0  0  0
  152.1468  138.5020  154.6429 H   0  0  0  0  0  0  0  0  0  0  0  0
  150.8265  142.8971  159.1239 H   0  0  0  0  0  0  0  0  0  0  0  0
  149.2483  136.5056  153.7019 H   0  0  0  0  0  0  0  0  0  0  0  0
  1  2  1  0  0  0  0
  1 25  1  0  0  0  0
  1 26  1  0  0  0  0
  1 27  1  0  0  0  0
  2 24  1  0  0  0  0
  2  3  2  0  0  0  0
  3  4  1  0  0  0  0
  3 28  1  0  0  0  0
  4  5  1  0  0  0  0
  4  6  2  0  0  0  0
  5 29  1  0  0  0  0
  5 30  1  0  0  0  0
  5 31  1  0  0  0  0
  6  7  1  0  0  0  0
  7  8  1  0  0  0  0
  7 24  2  0  0  0  0
  8  9  1  0  0  0  0
  8 32  1  0  0  0  0
  9 10  2  0  0  0  0
  9 11  1  0  0  0  0
 11 12  1  0  0  0  0
 11 33  1  0  0  0  0
 12 23  1  0  0  0  0
 12 13  1  0  0  0  0
 12 34  1  0  0  0  0
 13 14  1  0  0  0  0
 13 35  1  0  0  0  0
 13 36  1  0  0  0  0
 14 15  1  0  0  0  0
 14 37  1  0  0  0  0
 14 38  1  0  0  0  0
 15 16  1  0  0  0  0
 15 22  1  0  0  0  0
 15 53  1  0  0  0  0
 16 17  1  0  0  0  0
 16 39  1  0  0  0  0
 16 40  1  0  0  0  0
 17 21  1  0  0  0  0
 17 18  1  0  0  0  0
 17 41  1  0  0  0  0
 18 19  1  0  0  0  0
 18 42  1  0  0  0  0
 18 43  1  0  0  0  0
 19 20  1  0  0  0  0
 19 44  1  0  0  0  0
 19 45  1  0  0  0  0
 20 21  1  0  0  0  0
 21 46  1  0  0  0  0
 21 47  1  0  0  0  0
 22 23  1  0  0  0  0
 22 48  1  0  0  0  0
 22 49  1  0  0  0  0
 23 50  1  0  0  0  0
 23 51  1  0  0  0  0
 24 52  1  0  0  0  0
M  CHG  1  15   1
M  END
> <s_m_source_file>
AV-unprocessed.smi

> <i_m_source_file_index>
2379

> <i_lp_mmshare_version>
43012

> <i_f3d_flags>
0

> <s_epik_input>
W0NIM11jMVtjSF1jKFtDSDNdKW5jKFtjSF0xKVtOSF1DKD1PKVtOSF1bQ0hdMltDSDJdW0NIMl1OKFtDSDJdW0NIMl0yKVtDSDJdW0NAQEhdM1tDSDJdW0NIMl1PW0NIMl0z

> <s_epik_cmdline>
J2VwaWtfcHl0aG9uJywgJy1waCcsICc3LjAnLCAnLXRuJywgJzgnLCAnLW1hJywgJzIwMCcsICctbWV0YWxfYmluZGluZycsICctaW1hZScsICc8aW5maWxlLm1hZT4nLCAnLW9tYWUnLCAnPG91dGZpbGUubWFlPic=

> <r_epik_Ionization_Penalty>
0.00766556

> <r_epik_Ionization_Penalty_Charging>
0.00747775

> <r_epik_Ionization_Penalty_Neutral>
0.00018781

> <r_epik_State_Penalty>
0.00558817

> <r_epik_Charging_Adjusted_Penalty>
0.0130659

> <i_epik_Tot_Q>
1

> <i_epik_Tot_abs_Q>
1

> <r_epik_Metal_State_Penalty>
-0

> <b_epik_Metal_Only>
0

> <s_lp_Force_Field>
OPLS_2005

> <r_lp_Energy>
36.2098

> <b_lp_Chiralities_Consistent>
1

> <s_lp_Variant>
AV-unprocessed.smi:2379-4

> <Gold.Version>
5.8.1

> <Gold.Id.Protein>
6NUR|6NUR_protein|mol2

> <Gold.PLP.Fitness>
52.3053

> <Gold.PLP.PLP>
-45.2655

> <Gold.PLP.part.hbond>
-2.2535

> <Gold.PLP.part.metal>
0.0000

> <Gold.PLP.part.buried>
-3.5055

> <Gold.PLP.part.nonpolar>
-38.6711

> <Gold.PLP.part.repulsive>
0.2249

> <Gold.PLP.ligand.clash>
0.0000

> <Gold.PLP.ligand.torsion>
1.0582

> <Gold.PLP.Chemscore.Hbond>
3.0000

> <Gold.PLP.Chemscore.CHOScore>
0.0000

> <Gold.PLP.Chemscore.Metal>
0.0000

> <Gold.Chemscore.Hbonds>
donor molecule, donor type, donor heavy atom, donor atom, acceptor molecule, acceptor atom, score
      L1  H    15    53       P1  7948  2.00
      P1  H  7997  8010       L1    10  1.00

> <Gold.PLP.Chemscore.Internal.Correction>
0.1563

> <Gold.Rescore>
     Score         DG    S(hbond)    S(metal)    S(lipo)     H(rot)  DE(clash)    DE(int)     intcor
     18.64     -22.01       1.96        0.00     115.31       1.37       0.08       3.30       ----

> <Gold.Chemscore.Fitness>
18.6374

> <Gold.Chemscore.DG>
-22.0142

> <Gold.Chemscore.ZeroCoef>
-5.4800

> <Gold.Chemscore.Hbond>
1.9631

> <Gold.Chemscore.Metal>
0.0000

> <Gold.Chemscore.Lipo>
115.3081

> <Gold.Chemscore.Internal_Hbond>
0.0000

> <Gold.Chemscore.DEClash>
0.0806

> <Gold.Chemscore.DEInternal>
3.2962

> <Gold.Chemscore.Rot>
1.3725

> <Gold.Chemscore.Internal.Correction>
   9.000000E+99

> <Gold.Chemscore.Hbonds>
donor molecule, donor type, donor heavy atom, donor atom, acceptor molecule, acceptor atom, score
      L1  H    15    53       P1  7948  0.94
      P1  H  7997  8010       L1    10  1.00

> <Gold.Chemscore.Hbond.Weighted>
-6.5567

> <Gold.Chemscore.Metal.Weighted>
-0.0000

> <Gold.Chemscore.Lipo.Weighted>
-13.4910

> <Gold.Chemscore.Internal_Hbond.Weighted>
0.0000

> <Gold.Chemscore.DEClash.Weighted>
0.0806

> <Gold.Chemscore.DEInternal.Weighted>
3.2962

> <Gold.Chemscore.Rot.Weighted>
3.5136

> <Gold.Chemscore.Internal.Correction.Weighted>
   9.000000E+99

> <Gold.Protein.RotatedTorsions>
[ 6907 6896 6895 6894 ] final  147.64 input  -60.11 | X-H torsion
[ 7974 7965 7964 7962 ] final   26.24 input  175.53 | X-H torsion
[ 8008 7997 7996 7995 ] final   82.25 input   59.86 | X-H torsion
[ 10167 10162 10161 10158 ] final  -26.93 input  -65.29 | X-H torsion
[ 10718 10713 10712 10709 ] final  127.10 input   66.30 | X-H torsion
[ 10763 10752 10751 10750 ] final  162.84 input  -60.55 | X-H torsion
[ 11005 11000 10999 10996 ] final  -84.07 input  -57.11 | X-H torsion

> <Gold.Protein.ActiveResidues>
 VAL166  LYS551  ARG553  GLY616  TRP617  ASP618  TYR619  PRO620  LYS621  CYS622 
 ASP623  PHE694  ASN695  SER759  ASP760  ASP761  ALA762  ILE779  LEU786  VAL792 
 PHE793  MET794  SER795  GLU796  ALA797  LYS798  CYS799  TRP800  GLU811  SER814 

> <Gold.Protein.RotatedAtoms>
  152.1520  133.4528  159.4818 H   0  0  0  0  0  0  0  0  0  0  0  0  # atno 6907 bound_to 6896
  150.6896  134.2177  159.4393 H   0  0  0  0  0  0  0  0  0  0  0  0  # atno 6908 bound_to 6896
  152.0074  134.9895  160.0617 H   0  0  0  0  0  0  0  0  0  0  0  0  # atno 6909 bound_to 6896
  146.1848  139.7356  142.8874 H   0  0  0  0  0  0  0  0  0  0  0  0  # atno 7974 bound_to 7965
  155.9081  140.3429  155.6078 H   0  0  0  0  0  0  0  0  0  0  0  0  # atno 8008 bound_to 7997
  155.7420  140.0809  157.2260 H   0  0  0  0  0  0  0  0  0  0  0  0  # atno 8009 bound_to 7997
  154.4052  140.1569  156.2614 H   0  0  0  0  0  0  0  0  0  0  0  0  # atno 8010 bound_to 7997
  140.7280  143.4136  151.1065 H   0  0  0  0  0  0  0  0  0  0  0  0  # atno 10167 bound_to 10162
  157.5362  131.1097  150.8931 H   0  0  0  0  0  0  0  0  0  0  0  0  # atno 10718 bound_to 10713
  154.2845  135.2762  155.2682 H   0  0  0  0  0  0  0  0  0  0  0  0  # atno 10763 bound_to 10752
  154.5189  135.5762  153.6668 H   0  0  0  0  0  0  0  0  0  0  0  0  # atno 10764 bound_to 10752
  152.9924  135.6199  154.3006 H   0  0  0  0  0  0  0  0  0  0  0  0  # atno 10765 bound_to 10752
  141.1653  133.7327  156.8813 H   0  0  0  0  0  0  0  0  0  0  0  0  # atno 11005 bound_to 11000
  145.3971  141.0380  143.3091 LP  0  0  0  0  0  0  0  0  0  0  0  0  # atno 17320 bound_to 7965
  144.8377  139.5522  143.6914 LP  0  0  0  0  0  0  0  0  0  0  0  0  # atno 17321 bound_to 7965
  139.7773  143.8407  152.3131 LP  0  0  0  0  0  0  0  0  0  0  0  0  # atno 17342 bound_to 10162
  139.8346  144.7238  150.9407 LP  0  0  0  0  0  0  0  0  0  0  0  0  # atno 17343 bound_to 10162
  156.9498  130.5415  149.5282 LP  0  0  0  0  0  0  0  0  0  0  0  0  # atno 17370 bound_to 10713
  156.0460  130.5537  150.8882 LP  0  0  0  0  0  0  0  0  0  0  0  0  # atno 17371 bound_to 10713
  140.1712  134.9098  157.2836 LP  0  0  0  0  0  0  0  0  0  0  0  0  # atno 17394 bound_to 11000
  140.2499  134.3695  155.7446 LP  0  0  0  0  0  0  0  0  0  0  0  0  # atno 17395 bound_to 11000

$$$$
