#       Name:                AV-unprocessed.smi:38
#       Creating user name   scv26
#       Creation time:       Thu Mar 26 16:18:26 2020


#       File generated by GOLD software.
#

@<TRIPOS>MOLECULE
AV-unprocessed.smi:38
    38    39     1
SMALL
NO_CHARGES


@<TRIPOS>ATOM
      1 ****        -3.0923   4.5212  -0.6480 O.2            1 S1                 0.0000
      2 ****        -2.6074   3.4144  -0.4174 C.2            1 S1                 0.0000
      3 ****        -3.3691   2.3224  -0.1170 N.pl3          1 S1                -1.0000
      4 ****        -2.8292   1.0951   0.1420 C.2            1 S1                 0.0000
      5 ****        -3.5099   0.0995   0.3894 O.2            1 S1                 0.0000
      6 ****        -1.4158   0.9495   0.1182 N.am           1 S1                 0.0000
      7 ****        -0.8017  -0.4025   0.3894 C.3            1 S1                 0.0000
      8 ****        -0.6338  -1.1993  -0.8998 C.3            1 S1                 0.0000
      9 ****         0.6180  -2.0226  -0.6128 C.3            1 S1                 0.0000
     10 ****         1.5203  -1.9272  -1.6997 O.3            1 S1                 0.0000
     11 ****         1.1709  -1.4618   0.7194 C.3            1 S1                 0.0000
     12 ****         2.6919  -1.2273   0.7808 C.3            1 S1                 0.0000
     13 ****         3.1161  -1.1322   2.1240 O.3            1 S1                 0.0000
     14 ****         0.4804  -0.2315   0.8945 O.3            1 S1                 0.0000
     15 ****        -0.6182   2.0345  -0.2034 C.2            1 S1                 0.0000
     16 ****        -1.1563   3.2429  -0.4664 C.2            1 S1                 0.0000
     17 ****        -0.3574   4.2784  -0.7775 F              1 S1                 0.0000
     18 ****        -1.4152  -0.9011   1.1424 H              1 S1                 0.0000
     19 ****         0.3581  -3.0739  -0.4844 H              1 S1                 0.0000
     20 ****         0.8665  -2.1385   1.5206 H              1 S1                 0.0000
     21 ****        -1.5209  -1.8009  -1.1008 H              1 S1                 0.0000
     22 ****        -0.4763  -0.5106  -1.7323 H              1 S1                 0.0000
     23 ****         2.2756  -2.4628  -1.5114 H              1 S1                 0.0000
     24 ****         3.2255  -2.0698   0.3407 H              1 S1                 0.0000
     25 ****         2.9776  -0.3322   0.2273 H              1 S1                 0.0000
     26 ****         4.0488  -0.9814   2.1343 H              1 S1                 0.0000
     27 ****         0.4544   1.9189  -0.2533 H              1 S1                 0.0000
     28 ****        -2.4952   5.2930  -0.8664 LP             1 S1                 0.0000
     29 ****        -4.0836   4.6490  -0.6170 LP             1 S1                 0.0000
     30 ****        -4.3633   2.4252  -0.0852 LP             1 S1                 0.0000
     31 ****        -4.5074   0.1676   0.4073 LP             1 S1                 0.0000
     32 ****        -3.0653  -0.7774   0.5725 LP             1 S1                 0.0000
     33 ****         1.8034  -0.9758  -1.8202 LP             1 S1                 0.0000
     34 ****         1.0769  -2.2516  -2.5353 LP             1 S1                 0.0000
     35 ****         2.9068  -1.9837   2.6049 LP             1 S1                 0.0000
     36 ****         2.6466  -0.3719   2.5729 LP             1 S1                 0.0000
     37 ****         0.4373   0.0015   1.8661 LP             1 S1                 0.0000
     38 ****         0.9497   0.4981   0.3972 LP             1 S1                 0.0000
@<TRIPOS>BOND
    1    1    2 2     
    2    2   16 1     
    3    2    3 1     
    4    3    4 1     
    5    4    5 2     
    6    4    6 am    
    7    6    7 1     
    8    6   15 1     
    9    7   18 1     
   10    7   14 1     
   11    7    8 1     
   12    8    9 1     
   13    8   21 1     
   14    8   22 1     
   15    9   19 1     
   16    9   10 1     
   17    9   11 1     
   18   10   23 1     
   19   11   20 1     
   20   11   12 1     
   21   11   14 1     
   22   12   13 1     
   23   12   24 1     
   24   12   25 1     
   25   13   26 1     
   26   15   16 2     
   27   15   27 1     
   28   16   17 1     
   29    1   28 1     
   30    1   29 1     
   31    3   30 1     
   32    5   31 1     
   33    5   32 1     
   34   10   33 1     
   35   10   34 1     
   36   13   35 1     
   37   13   36 1     
   38   14   37 1     
   39   14   38 1     
@<TRIPOS>SUBSTRUCTURE
      1 S1             1
@<TRIPOS>SET
LONE_PAIRS      STATIC     ATOMS    <user>   **** ""
11 28 29 30 31 32 33 34 35 36 37 38
DONOR_HYDROGENS      STATIC     ATOMS    <user>   **** ""
2 23 26
ATOM$BLUE        STATIC     ATOMS    COLORGROUP SYSTEM
11 28 29 30 31 32 33 34 35 36 37 38
ATOM$RED        STATIC     ATOMS    COLORGROUP SYSTEM
2 23 26
