AV-unprocessed.smi:2248|AV-procd|sdf|9095|dock1
  -GOLD-   2272012293D 1   1.00000     0.00000
 Structure written by MMmdl.
 35 36  0  0  0  0  0  0  0  0  1 V2000
  152.5215  142.3187  161.7622 C   0  0  0  0  0  0  0  0  0  0  0  0
  152.0696  143.3234  160.7234 C   0  0  0  0  0  0  0  0  0  0  0  0
  152.2496  144.7055  160.9272 C   0  0  0  0  0  0  0  0  0  0  0  0
  151.8104  145.5860  159.9224 C   0  0  0  0  0  0  0  0  0  0  0  0
  151.2158  145.0521  158.7628 C   0  0  0  0  0  0  0  0  0  0  0  0
  151.0752  143.6519  158.6353 C   0  0  0  0  0  0  0  0  0  0  0  0
  150.4715  143.2149  157.4260 N   0  0  0  0  0  0  0  0  0  0  0  0
  150.3364  141.9563  156.9724 C   0  0  0  0  0  0  0  0  0  0  0  0
  150.6906  140.9400  157.5712 O   0  0  0  0  0  0  0  0  0  0  0  0
  149.7574  141.9353  155.7631 N   0  0  0  0  0  0  0  0  0  0  0  0
  149.4852  140.7278  154.9911 C   0  0  1  0  0  0  0  0  0  0  0  0
  148.7640  139.7122  155.8340 C   0  0  0  0  0  0  0  0  0  0  0  0
  147.5813  139.3700  155.3280 C   0  0  0  0  0  0  0  0  0  0  0  0
  147.2531  140.1040  154.0544 C   0  0  2  0  0  0  0  0  0  0  0  0
  146.9247  139.1408  152.9015 C   0  0  0  0  0  0  0  0  0  0  0  0
  146.9169  139.8352  151.6723 O   0  0  0  0  0  0  0  0  0  0  0  0
  148.5129  140.9753  153.8076 C   0  0  0  0  0  0  0  0  0  0  0  0
  151.5008  142.8111  159.6109 N   0  0  0  0  0  0  0  0  0  0  0  0
  150.4200  140.2866  154.6407 H   0  0  0  0  0  0  0  0  0  0  0  0
  146.3924  140.7428  154.2579 H   0  0  0  0  0  0  0  0  0  0  0  0
  152.6982  142.8005  162.7243 H   0  0  0  0  0  0  0  0  0  0  0  0
  153.4474  141.8389  161.4444 H   0  0  0  0  0  0  0  0  0  0  0  0
  151.7652  141.5460  161.9049 H   0  0  0  0  0  0  0  0  0  0  0  0
  152.7118  145.0829  161.8275 H   0  0  0  0  0  0  0  0  0  0  0  0
  151.9287  146.6532  160.0375 H   0  0  0  0  0  0  0  0  0  0  0  0
  150.8743  145.7153  157.9812 H   0  0  0  0  0  0  0  0  0  0  0  0
  150.1166  143.9473  156.8295 H   0  0  0  0  0  0  0  0  0  0  0  0
  149.4971  142.8143  155.3408 H   0  0  0  0  0  0  0  0  0  0  0  0
  149.1898  139.3110  156.7420 H   0  0  0  0  0  0  0  0  0  0  0  0
  146.9010  138.6575  155.7709 H   0  0  0  0  0  0  0  0  0  0  0  0
  147.6492  138.3270  152.8530 H   0  0  0  0  0  0  0  0  0  0  0  0
  145.9420  138.6916  153.0489 H   0  0  0  0  0  0  0  0  0  0  0  0
  147.8050  140.0772  151.4580 H   0  0  0  0  0  0  0  0  0  0  0  0
  148.2328  142.0262  153.7202 H   0  0  0  0  0  0  0  0  0  0  0  0
  149.0019  140.7077  152.8700 H   0  0  0  0  0  0  0  0  0  0  0  0
  1  2  1  0  0  0  0
  1 21  1  0  0  0  0
  1 22  1  0  0  0  0
  1 23  1  0  0  0  0
  2 18  1  0  0  0  0
  2  3  2  0  0  0  0
  3  4  1  0  0  0  0
  3 24  1  0  0  0  0
  4  5  2  0  0  0  0
  4 25  1  0  0  0  0
  5  6  1  0  0  0  0
  5 26  1  0  0  0  0
  6  7  1  0  0  0  0
  6 18  2  0  0  0  0
  7  8  1  0  0  0  0
  7 27  1  0  0  0  0
  8  9  2  0  0  0  0
  8 10  1  0  0  0  0
 10 11  1  0  0  0  0
 10 28  1  0  0  0  0
 11 19  1  0  0  0  0
 11 17  1  0  0  0  0
 11 12  1  0  0  0  0
 12 13  2  0  0  0  0
 12 29  1  0  0  0  0
 13 14  1  0  0  0  0
 13 30  1  0  0  0  0
 14 20  1  0  0  0  0
 14 15  1  0  0  0  0
 14 17  1  0  0  0  0
 15 16  1  0  0  0  0
 15 31  1  0  0  0  0
 15 32  1  0  0  0  0
 16 33  1  0  0  0  0
 17 34  1  0  0  0  0
 17 35  1  0  0  0  0
M  END
> <s_m_source_file>
AV-unprocessed.smi

> <i_m_source_file_index>
2248

> <i_lp_mmshare_version>
43012

> <i_f3d_flags>
0

> <s_epik_input>
W0NIM11jMVtjSF1bY0hdW2NIXWMobjEpW05IXUMoPU8pW05IXVtDQEBIXTJbQ0hdPVtDSF1bQ0BASF0oW0NIMl0yKVtDSDJdW09IXQ==

> <s_epik_cmdline>
J2VwaWtfcHl0aG9uJywgJy1waCcsICc3LjAnLCAnLXRuJywgJzgnLCAnLW1hJywgJzIwMCcsICctbWV0YWxfYmluZGluZycsICctaW1hZScsICc8aW5maWxlLm1hZT4nLCAnLW9tYWUnLCAnPG91dGZpbGUubWFlPic=

> <r_lp_tautomer_probability>
1

> <r_epik_Ionization_Penalty>
8.36606e-05

> <r_epik_Ionization_Penalty_Charging>
0

> <r_epik_Ionization_Penalty_Neutral>
8.36606e-05

> <r_epik_State_Penalty>
-0

> <r_epik_Charging_Adjusted_Penalty>
0

> <i_epik_Tot_Q>
0

> <i_epik_Tot_abs_Q>
0

> <r_epik_Metal_State_Penalty>
-0

> <b_epik_Metal_Only>
0

> <s_lp_Force_Field>
OPLS_2005

> <r_lp_Energy>
17.7077

> <b_lp_Chiralities_Consistent>
1

> <s_lp_Variant>
AV-unprocessed.smi:2248-2

> <Gold.Version>
5.8.1

> <Gold.Id.Protein>
6NUR|6NUR_protein|mol2

> <Gold.PLP.Fitness>
47.9422

> <Gold.PLP.PLP>
-39.3590

> <Gold.PLP.part.hbond>
-3.2184

> <Gold.PLP.part.metal>
0.0000

> <Gold.PLP.part.buried>
-5.9453

> <Gold.PLP.part.nonpolar>
-30.4257

> <Gold.PLP.part.repulsive>
0.1715

> <Gold.PLP.ligand.clash>
0.0000

> <Gold.PLP.ligand.torsion>
0.2058

> <Gold.PLP.Chemscore.Hbond>
2.9920

> <Gold.PLP.Chemscore.CHOScore>
0.0000

> <Gold.PLP.Chemscore.Metal>
0.0000

> <Gold.Chemscore.Hbonds>
donor molecule, donor type, donor heavy atom, donor atom, acceptor molecule, acceptor atom, score
      L1  H     7    27       P1  8028  1.00
      L1  H    10    28       P1  8028  0.94
      L1  H    16    33       P1  7957  1.00

> <Gold.PLP.Chemscore.Internal.Correction>
0.0187

> <Gold.Rescore>
     Score         DG    S(hbond)    S(metal)    S(lipo)     H(rot)  DE(clash)    DE(int)     intcor
     18.19     -21.21       2.90        0.00      91.32       1.82       0.12       2.89       ----

> <Gold.Chemscore.Fitness>
18.1935

> <Gold.Chemscore.DG>
-21.2065

> <Gold.Chemscore.ZeroCoef>
-5.4800

> <Gold.Chemscore.Hbond>
2.9035

> <Gold.Chemscore.Metal>
0.0000

> <Gold.Chemscore.Lipo>
91.3158

> <Gold.Chemscore.Internal_Hbond>
0.0000

> <Gold.Chemscore.DEClash>
0.1227

> <Gold.Chemscore.DEInternal>
2.8904

> <Gold.Chemscore.Rot>
1.8184

> <Gold.Chemscore.Internal.Correction>
   9.000000E+99

> <Gold.Chemscore.Hbonds>
donor molecule, donor type, donor heavy atom, donor atom, acceptor molecule, acceptor atom, score
      L1  H     7    27       P1  8028  0.97
      L1  H    10    28       P1  8028  0.86
      L1  H    16    33       P1  7957  1.00

> <Gold.Chemscore.Hbond.Weighted>
-9.6976

> <Gold.Chemscore.Metal.Weighted>
-0.0000

> <Gold.Chemscore.Lipo.Weighted>
-10.6839

> <Gold.Chemscore.Internal_Hbond.Weighted>
0.0000

> <Gold.Chemscore.DEClash.Weighted>
0.1227

> <Gold.Chemscore.DEInternal.Weighted>
2.8904

> <Gold.Chemscore.Rot.Weighted>
4.6551

> <Gold.Chemscore.Internal.Correction.Weighted>
   9.000000E+99

> <Gold.Protein.RotatedTorsions>
[ 6907 6896 6895 6894 ] final -178.89 input  -60.11 | X-H torsion
[ 7974 7965 7964 7962 ] final -101.14 input  175.53 | X-H torsion
[ 8008 7997 7996 7995 ] final  138.06 input   59.86 | X-H torsion
[ 10167 10162 10161 10158 ] final   99.36 input  -65.29 | X-H torsion
[ 10718 10713 10712 10709 ] final -153.88 input   66.30 | X-H torsion
[ 10763 10752 10751 10750 ] final -157.45 input  -60.55 | X-H torsion
[ 11005 11000 10999 10996 ] final -136.62 input  -57.11 | X-H torsion

> <Gold.Protein.ActiveResidues>
 VAL166  LYS551  ARG553  GLY616  TRP617  ASP618  TYR619  PRO620  LYS621  CYS622 
 ASP623  PHE694  ASN695  SER759  ASP760  ASP761  ALA762  ILE779  LEU786  VAL792 
 PHE793  MET794  SER795  GLU796  ALA797  LYS798  CYS799  TRP800  GLU811  SER814 

> <Gold.Protein.RotatedAtoms>
  151.6445  133.3324  159.3137 H   0  0  0  0  0  0  0  0  0  0  0  0  # atno 6907 bound_to 6896
  150.7991  134.7076  159.6595 H   0  0  0  0  0  0  0  0  0  0  0  0  # atno 6908 bound_to 6896
  152.4081  134.6176  160.0093 H   0  0  0  0  0  0  0  0  0  0  0  0  # atno 6909 bound_to 6896
  145.2855  140.9338  143.2907 H   0  0  0  0  0  0  0  0  0  0  0  0  # atno 7974 bound_to 7965
  156.2999  140.2403  156.4012 H   0  0  0  0  0  0  0  0  0  0  0  0  # atno 8008 bound_to 7997
  154.8526  140.0423  157.1634 H   0  0  0  0  0  0  0  0  0  0  0  0  # atno 8009 bound_to 7997
  154.8982  140.2973  155.5336 H   0  0  0  0  0  0  0  0  0  0  0  0  # atno 8010 bound_to 7997
  139.7624  144.6950  151.0272 H   0  0  0  0  0  0  0  0  0  0  0  0  # atno 10167 bound_to 10162
  156.4917  130.8350  151.2573 H   0  0  0  0  0  0  0  0  0  0  0  0  # atno 10718 bound_to 10713
  154.7635  135.3124  154.8332 H   0  0  0  0  0  0  0  0  0  0  0  0  # atno 10763 bound_to 10752
  153.9087  135.6808  153.4756 H   0  0  0  0  0  0  0  0  0  0  0  0  # atno 10764 bound_to 10752
  153.1238  135.4810  154.9171 H   0  0  0  0  0  0  0  0  0  0  0  0  # atno 10765 bound_to 10752
  140.8788  134.1958  157.4605 H   0  0  0  0  0  0  0  0  0  0  0  0  # atno 11005 bound_to 11000
  144.9217  139.4404  143.6538 LP  0  0  0  0  0  0  0  0  0  0  0  0  # atno 17320 bound_to 7965
  146.3202  139.8080  142.8951 LP  0  0  0  0  0  0  0  0  0  0  0  0  # atno 17321 bound_to 7965
  140.7808  143.4681  151.0184 LP  0  0  0  0  0  0  0  0  0  0  0  0  # atno 17342 bound_to 10162
  139.8367  143.7618  152.3180 LP  0  0  0  0  0  0  0  0  0  0  0  0  # atno 17343 bound_to 10162
  157.7473  131.0011  150.2951 LP  0  0  0  0  0  0  0  0  0  0  0  0  # atno 17370 bound_to 10713
  156.3420  130.3817  149.7401 LP  0  0  0  0  0  0  0  0  0  0  0  0  # atno 17371 bound_to 10713
  139.8718  134.9808  156.5089 LP  0  0  0  0  0  0  0  0  0  0  0  0  # atno 17394 bound_to 11000
  140.8486  133.8149  155.9146 LP  0  0  0  0  0  0  0  0  0  0  0  0  # atno 17395 bound_to 11000

$$$$
