AV-unprocessed.smi:1565|AV-procd|sdf|6297|dock1
  -GOLD-   22720 6493D 1   1.00000     0.00000
 Structure written by MMmdl.
 40 41  0  0  0  0  0  0  0  0  1 V2000
  149.9950  145.2553  160.4584 C   0  0  0  0  0  0  0  0  0  0  0  0
  151.4547  145.0681  160.0076 C   0  0  2  0  0  0  0  0  0  0  0  0
  151.6147  144.0580  158.8543 C   0  0  0  0  0  0  0  0  0  0  0  0
  151.4723  142.6867  159.3354 N   0  0  0  0  0  0  0  0  0  0  0  0
  151.3046  141.7046  158.3361 C   0  0  0  0  0  0  0  0  0  0  0  0
  151.3134  140.3328  158.6808 C   0  0  0  0  0  0  0  0  0  0  0  0
  151.1399  139.3686  157.6695 C   0  0  0  0  0  0  0  0  0  0  0  0
  150.9545  139.7946  156.3377 C   0  0  0  0  0  0  0  0  0  0  0  0
  150.7866  138.7946  155.2305 C   0  0  0  0  0  0  0  0  0  0  0  0
  150.7298  139.1584  154.0558 O   0  0  0  0  0  0  0  0  0  0  0  0
  150.7659  137.5071  155.6104 N   0  0  0  0  0  0  0  0  0  0  0  0
  150.6686  136.3653  154.7071 C   0  0  0  0  0  0  0  0  0  0  0  0
  149.9790  135.1617  155.3718 C   0  0  0  0  0  0  0  0  0  0  0  0
  150.7644  134.6880  156.3381 F   0  0  0  0  0  0  0  0  0  0  0  0
  148.8120  135.5174  155.9089 F   0  0  0  0  0  0  0  0  0  0  0  0
  149.7740  134.1953  154.4765 F   0  0  0  0  0  0  0  0  0  0  0  0
  150.9789  141.1846  156.0872 C   0  0  0  0  0  0  0  0  0  0  0  0
  151.1457  142.1123  157.0530 N   0  0  0  0  0  0  0  0  0  0  0  0
  152.3479  142.3791  160.4627 C   0  0  0  0  0  0  0  0  0  0  0  0
  152.1364  143.3962  161.5980 C   0  0  1  0  0  0  0  0  0  0  0  0
  153.1297  143.1860  162.7456 C   0  0  0  0  0  0  0  0  0  0  0  0
  152.3160  144.7191  161.0939 O   0  0  0  0  0  0  0  0  0  0  0  0
  149.3884  145.6525  159.6444 H   0  0  0  0  0  0  0  0  0  0  0  0
  149.9318  145.9578  161.2896 H   0  0  0  0  0  0  0  0  0  0  0  0
  149.5359  144.3191  160.7748 H   0  0  0  0  0  0  0  0  0  0  0  0
  151.7992  146.0379  159.6477 H   0  0  0  0  0  0  0  0  0  0  0  0
  150.9005  144.2926  158.0661 H   0  0  0  0  0  0  0  0  0  0  0  0
  152.6075  144.1610  158.4143 H   0  0  0  0  0  0  0  0  0  0  0  0
  151.4652  140.0107  159.7003 H   0  0  0  0  0  0  0  0  0  0  0  0
  151.1486  138.3179  157.9215 H   0  0  0  0  0  0  0  0  0  0  0  0
  150.8456  137.3011  156.5956 H   0  0  0  0  0  0  0  0  0  0  0  0
  150.0945  136.6798  153.8351 H   0  0  0  0  0  0  0  0  0  0  0  0
  151.6557  136.0827  154.3374 H   0  0  0  0  0  0  0  0  0  0  0  0
  150.8658  141.5744  155.0861 H   0  0  0  0  0  0  0  0  0  0  0  0
  152.1440  141.3747  160.8363 H   0  0  0  0  0  0  0  0  0  0  0  0
  153.3856  142.3982  160.1263 H   0  0  0  0  0  0  0  0  0  0  0  0
  151.1292  143.2898  162.0011 H   0  0  0  0  0  0  0  0  0  0  0  0
  153.0244  142.1907  163.1782 H   0  0  0  0  0  0  0  0  0  0  0  0
  152.9652  143.9130  163.5410 H   0  0  0  0  0  0  0  0  0  0  0  0
  154.1589  143.2951  162.4021 H   0  0  0  0  0  0  0  0  0  0  0  0
  1  2  1  0  0  0  0
  1 23  1  0  0  0  0
  1 24  1  0  0  0  0
  1 25  1  0  0  0  0
  2 22  1  0  0  0  0
  2  3  1  0  0  0  0
  2 26  1  0  0  0  0
  3  4  1  0  0  0  0
  3 27  1  0  0  0  0
  3 28  1  0  0  0  0
  4  5  1  0  0  0  0
  4 19  1  0  0  0  0
  5 18  1  0  0  0  0
  5  6  2  0  0  0  0
  6  7  1  0  0  0  0
  6 29  1  0  0  0  0
  7  8  2  0  0  0  0
  7 30  1  0  0  0  0
  8  9  1  0  0  0  0
  8 17  1  0  0  0  0
  9 10  2  0  0  0  0
  9 11  1  0  0  0  0
 11 12  1  0  0  0  0
 11 31  1  0  0  0  0
 12 13  1  0  0  0  0
 12 32  1  0  0  0  0
 12 33  1  0  0  0  0
 13 14  1  0  0  0  0
 13 15  1  0  0  0  0
 13 16  1  0  0  0  0
 17 18  2  0  0  0  0
 17 34  1  0  0  0  0
 19 20  1  0  0  0  0
 19 35  1  0  0  0  0
 19 36  1  0  0  0  0
 20 21  1  0  0  0  0
 20 22  1  0  0  0  0
 20 37  1  0  0  0  0
 21 38  1  0  0  0  0
 21 39  1  0  0  0  0
 21 40  1  0  0  0  0
M  END
> <s_m_source_file>
AV-unprocessed.smi

> <i_m_source_file_index>
1565

> <i_lp_mmshare_version>
43012

> <i_f3d_flags>
0

> <s_epik_input>
W0NIM11bQ0BASF0xW0NIMl1OKFtDSDJdW0NASF0oTzEpW0NIM10pYzJbY0hdW2NIXWMoW2NIXW4yKUMoPU8pW05IXVtDSDJdQyhGKShGKUY=

> <s_epik_cmdline>
J2VwaWtfcHl0aG9uJywgJy1waCcsICc3LjAnLCAnLXRuJywgJzgnLCAnLW1hJywgJzIwMCcsICctbWV0YWxfYmluZGluZycsICctaW1hZScsICc8aW5maWxlLm1hZT4nLCAnLW9tYWUnLCAnPG91dGZpbGUubWFlPic=

> <r_lp_tautomer_probability>
1

> <r_epik_Ionization_Penalty>
1.48031e-05

> <r_epik_Ionization_Penalty_Charging>
0

> <r_epik_Ionization_Penalty_Neutral>
1.48031e-05

> <r_epik_State_Penalty>
-0

> <r_epik_Charging_Adjusted_Penalty>
0

> <i_epik_Tot_Q>
0

> <i_epik_Tot_abs_Q>
0

> <r_epik_Metal_State_Penalty>
0.00620302

> <b_epik_Metal_Only>
0

> <s_lp_Force_Field>
OPLS_2005

> <r_lp_Energy>
19.6517

> <b_lp_Chiralities_Consistent>
1

> <s_lp_Variant>
AV-unprocessed.smi:1565-1

> <Gold.Version>
5.8.1

> <Gold.Id.Protein>
6NUR|6NUR_protein|mol2

> <Gold.PLP.Fitness>
41.7652

> <Gold.PLP.PLP>
-39.6934

> <Gold.PLP.part.hbond>
-1.0000

> <Gold.PLP.part.metal>
0.0000

> <Gold.PLP.part.buried>
-2.0661

> <Gold.PLP.part.nonpolar>
-36.7068

> <Gold.PLP.part.repulsive>
0.4971

> <Gold.PLP.ligand.clash>
0.0000

> <Gold.PLP.ligand.torsion>
0.6442

> <Gold.PLP.Chemscore.Hbond>
1.0000

> <Gold.PLP.Chemscore.CHOScore>
0.0000

> <Gold.PLP.Chemscore.Metal>
0.0000

> <Gold.Chemscore.Hbonds>
donor molecule, donor type, donor heavy atom, donor atom, acceptor molecule, acceptor atom, score
      P1  H  7989  7998       L1    10  1.00

> <Gold.PLP.Chemscore.Internal.Correction>
0.3601

> <Gold.Rescore>
     Score         DG    S(hbond)    S(metal)    S(lipo)     H(rot)  DE(clash)    DE(int)     intcor
     15.73     -16.94       0.99        0.00      98.27       1.31       0.63       0.58       ----

> <Gold.Chemscore.Fitness>
15.7274

> <Gold.Chemscore.DG>
-16.9405

> <Gold.Chemscore.ZeroCoef>
-5.4800

> <Gold.Chemscore.Hbond>
0.9894

> <Gold.Chemscore.Metal>
0.0000

> <Gold.Chemscore.Lipo>
98.2694

> <Gold.Chemscore.Internal_Hbond>
0.0000

> <Gold.Chemscore.DEClash>
0.6314

> <Gold.Chemscore.DEInternal>
0.5817

> <Gold.Chemscore.Rot>
1.3052

> <Gold.Chemscore.Internal.Correction>
   9.000000E+99

> <Gold.Chemscore.Hbonds>
donor molecule, donor type, donor heavy atom, donor atom, acceptor molecule, acceptor atom, score
      P1  H  7989  7998       L1    10  0.94

> <Gold.Chemscore.Hbond.Weighted>
-3.3044

> <Gold.Chemscore.Metal.Weighted>
-0.0000

> <Gold.Chemscore.Lipo.Weighted>
-11.4975

> <Gold.Chemscore.Internal_Hbond.Weighted>
0.0000

> <Gold.Chemscore.DEClash.Weighted>
0.6314

> <Gold.Chemscore.DEInternal.Weighted>
0.5817

> <Gold.Chemscore.Rot.Weighted>
3.3414

> <Gold.Chemscore.Internal.Correction.Weighted>
   9.000000E+99

> <Gold.Protein.RotatedTorsions>
[ 6907 6896 6895 6894 ] final   73.22 input  -60.11 | X-H torsion
[ 7974 7965 7964 7962 ] final  135.74 input  175.53 | X-H torsion
[ 8008 7997 7996 7995 ] final   29.66 input   59.86 | X-H torsion
[ 10167 10162 10161 10158 ] final   63.30 input  -65.29 | X-H torsion
[ 10718 10713 10712 10709 ] final   23.44 input   66.30 | X-H torsion
[ 10763 10752 10751 10750 ] final    7.34 input  -60.55 | X-H torsion
[ 11005 11000 10999 10996 ] final   38.40 input  -57.11 | X-H torsion

> <Gold.Protein.ActiveResidues>
 VAL166  LYS551  ARG553  GLY616  TRP617  ASP618  TYR619  PRO620  LYS621  CYS622 
 ASP623  PHE694  ASN695  SER759  ASP760  ASP761  ALA762  ILE779  LEU786  VAL792 
 PHE793  MET794  SER795  GLU796  ALA797  LYS798  CYS799  TRP800  GLU811  SER814 

> <Gold.Protein.RotatedAtoms>
  152.4911  134.4455  159.9557 H   0  0  0  0  0  0  0  0  0  0  0  0  # atno 6907 bound_to 6896
  151.4442  133.3629  159.2794 H   0  0  0  0  0  0  0  0  0  0  0  0  # atno 6908 bound_to 6896
  150.9066  134.8505  159.7457 H   0  0  0  0  0  0  0  0  0  0  0  0  # atno 6909 bound_to 6896
  144.9633  139.4685  143.5468 H   0  0  0  0  0  0  0  0  0  0  0  0  # atno 7974 bound_to 7965
  155.0780  140.3207  155.4610 H   0  0  0  0  0  0  0  0  0  0  0  0  # atno 8008 bound_to 7997
  156.2774  140.2100  156.5853 H   0  0  0  0  0  0  0  0  0  0  0  0  # atno 8009 bound_to 7997
  154.7002  140.0508  157.0437 H   0  0  0  0  0  0  0  0  0  0  0  0  # atno 8010 bound_to 7997
  140.1346  144.4611  150.6845 H   0  0  0  0  0  0  0  0  0  0  0  0  # atno 10167 bound_to 10162
  157.1661  130.6738  149.6061 H   0  0  0  0  0  0  0  0  0  0  0  0  # atno 10718 bound_to 10713
  153.2374  135.6899  153.7821 H   0  0  0  0  0  0  0  0  0  0  0  0  # atno 10763 bound_to 10752
  153.6964  135.3304  155.3215 H   0  0  0  0  0  0  0  0  0  0  0  0  # atno 10764 bound_to 10752
  154.8340  135.4557  154.1282 H   0  0  0  0  0  0  0  0  0  0  0  0  # atno 10765 bound_to 10752
  140.2130  134.3732  155.8040 H   0  0  0  0  0  0  0  0  0  0  0  0  # atno 11005 bound_to 11000
  146.3360  139.8798  142.8826 LP  0  0  0  0  0  0  0  0  0  0  0  0  # atno 17320 bound_to 7965
  145.2667  141.0095  143.3795 LP  0  0  0  0  0  0  0  0  0  0  0  0  # atno 17321 bound_to 7965
  140.6797  143.2321  151.5417 LP  0  0  0  0  0  0  0  0  0  0  0  0  # atno 17342 bound_to 10162
  139.5502  144.2415  152.1517 LP  0  0  0  0  0  0  0  0  0  0  0  0  # atno 17343 bound_to 10162
  155.9746  130.4695  150.6397 LP  0  0  0  0  0  0  0  0  0  0  0  0  # atno 17370 bound_to 10713
  157.4087  131.0820  151.1241 LP  0  0  0  0  0  0  0  0  0  0  0  0  # atno 17371 bound_to 10713
  141.2225  133.7153  156.8450 LP  0  0  0  0  0  0  0  0  0  0  0  0  # atno 17394 bound_to 11000
  140.1930  134.8952  157.3082 LP  0  0  0  0  0  0  0  0  0  0  0  0  # atno 17395 bound_to 11000

$$$$
