AV-unprocessed.smi:72|AV-procd|sdf|755|dock1
  -GOLD-   2262017 93D 1   1.00000     0.00000
 Structure written by MMmdl.
 29 30  0  0  0  0  0  0  0  0  1 V2000
  146.8856  132.9766  156.3589 N   0  0  0  0  0  0  0  0  0  0  0  0
  147.7041  134.0862  156.3362 C   0  0  0  0  0  0  0  0  0  0  0  0
  147.6517  134.8742  155.1782 N   0  0  0  0  0  0  0  0  0  0  0  0
  148.4151  135.9201  155.1545 C   0  0  0  0  0  0  0  0  0  0  0  0
  149.2745  136.2530  156.2761 N   0  0  0  0  0  0  0  0  0  0  0  0
  150.1701  137.4749  156.2423 C   0  0  2  0  0  0  0  0  0  0  0  0
  149.3740  138.6158  156.1176 O   0  0  0  0  0  0  0  0  0  0  0  0
  149.9960  139.5267  155.2199 C   0  0  2  0  0  0  0  0  0  0  0  0
  148.9849  140.5553  154.6822 C   0  0  0  0  0  0  0  0  0  0  0  0
  149.4311  141.0841  153.4516 O   0  0  0  0  0  0  0  0  0  0  0  0
  150.6853  138.6177  154.1918 C   0  0  2  0  0  0  0  0  0  0  0  0
  149.7735  138.1936  153.1922 O   0  0  0  0  0  0  0  0  0  0  0  0
  151.1726  137.4646  155.0660 C   0  0  2  0  0  0  0  0  0  0  0  0
  151.2935  136.2373  154.3659 O   0  0  0  0  0  0  0  0  0  0  0  0
  149.2894  135.4001  157.4139 C   0  0  0  0  0  0  0  0  0  0  0  0
  150.0334  135.6441  158.3639 O   0  0  0  0  0  0  0  0  0  0  0  0
  148.4411  134.2864  157.3910 N   0  0  0  0  0  0  0  0  0  0  0  0
  150.6660  137.5231  157.2126 H   0  0  0  0  0  0  0  0  0  0  0  0
  150.7648  140.0517  155.7904 H   0  0  0  0  0  0  0  0  0  0  0  0
  151.5140  139.1265  153.6983 H   0  0  0  0  0  0  0  0  0  0  0  0
  152.1494  137.7213  155.4780 H   0  0  0  0  0  0  0  0  0  0  0  0
  146.8399  132.3363  157.1383 H   0  0  0  0  0  0  0  0  0  0  0  0
  146.2691  132.7240  155.6003 H   0  0  0  0  0  0  0  0  0  0  0  0
  148.4633  136.6049  154.3070 H   0  0  0  0  0  0  0  0  0  0  0  0
  147.9919  140.1218  154.5612 H   0  0  0  0  0  0  0  0  0  0  0  0
  148.8848  141.3790  155.3892 H   0  0  0  0  0  0  0  0  0  0  0  0
  149.3664  140.4087  152.7937 H   0  0  0  0  0  0  0  0  0  0  0  0
  149.6972  138.8806  152.5482 H   0  0  0  0  0  0  0  0  0  0  0  0
  151.0230  136.3741  153.4708 H   0  0  0  0  0  0  0  0  0  0  0  0
  1  2  1  0  0  0  0
  1 22  1  0  0  0  0
  1 23  1  0  0  0  0
  2 17  2  0  0  0  0
  2  3  1  0  0  0  0
  3  4  2  0  0  0  0
  4  5  1  0  0  0  0
  4 24  1  0  0  0  0
  5  6  1  0  0  0  0
  5 15  1  0  0  0  0
  6 18  1  0  0  0  0
  6 13  1  0  0  0  0
  6  7  1  0  0  0  0
  7  8  1  0  0  0  0
  8 19  1  0  0  0  0
  8  9  1  0  0  0  0
  8 11  1  0  0  0  0
  9 10  1  0  0  0  0
  9 25  1  0  0  0  0
  9 26  1  0  0  0  0
 10 27  1  0  0  0  0
 11 20  1  0  0  0  0
 11 12  1  0  0  0  0
 11 13  1  0  0  0  0
 12 28  1  0  0  0  0
 13 21  1  0  0  0  0
 13 14  1  0  0  0  0
 14 29  1  0  0  0  0
 15 16  2  0  0  0  0
 15 17  1  0  0  0  0
M  END
> <s_m_source_file>
AV-unprocessed.smi

> <i_m_source_file_index>
72

> <i_lp_mmshare_version>
43012

> <i_f3d_flags>
0

> <s_epik_input>
W05IMl1jMW5bY0hdbihjKD1PKW4xKVtDQEBIXTJPW0NASF0oW0NIMl1bT0hdKVtDQEBIXShbT0hdKVtDQEhdMltPSF0=

> <s_epik_cmdline>
J2VwaWtfcHl0aG9uJywgJy1waCcsICc3LjAnLCAnLXRuJywgJzgnLCAnLW1hJywgJzIwMCcsICctbWV0YWxfYmluZGluZycsICctaW1hZScsICc8aW5maWxlLm1hZT4nLCAnLW9tYWUnLCAnPG91dGZpbGUubWFlPic=

> <r_lp_tautomer_probability>
4.77166e-05

> <r_epik_Ionization_Penalty>
1.3546

> <r_epik_Ionization_Penalty_Charging>
1.46833e-10

> <r_epik_Ionization_Penalty_Neutral>
1.3546

> <r_epik_State_Penalty>
3.51908

> <r_epik_Charging_Adjusted_Penalty>
3.51908

> <i_epik_Tot_Q>
0

> <i_epik_Tot_abs_Q>
0

> <r_epik_Metal_State_Penalty>
3.44088

> <b_epik_Metal_Only>
1

> <s_epik_Chemistry_Notes>
This compound contains an acetal/aminal-like group ( X-CH(R)-Y where X, Y are N, S, or O) that may be acid/base labile, releasing an aldehyde.

> <s_lp_Force_Field>
OPLS_2005

> <r_lp_Energy>
36.4179

> <b_lp_Chiralities_Consistent>
1

> <s_lp_Variant>
AV-unprocessed.smi:72-93

> <Gold.Version>
5.8.1

> <Gold.Id.Protein>
6NUR|6NUR_protein|mol2

> <Gold.PLP.Fitness>
39.3228

> <Gold.PLP.PLP>
-19.1526

> <Gold.PLP.part.hbond>
-8.4276

> <Gold.PLP.part.metal>
0.0000

> <Gold.PLP.part.buried>
-2.1823

> <Gold.PLP.part.nonpolar>
-9.2510

> <Gold.PLP.part.repulsive>
0.0700

> <Gold.PLP.ligand.clash>
0.0000

> <Gold.PLP.ligand.torsion>
0.2413

> <Gold.PLP.Chemscore.Hbond>
5.8834

> <Gold.PLP.Chemscore.CHOScore>
1.0000

> <Gold.PLP.Chemscore.Metal>
0.0000

> <Gold.Chemscore.Hbonds>
donor molecule, donor type, donor heavy atom, donor atom, acceptor molecule, acceptor atom, score
      L1  H    10    27       P1  7957  0.88
      L1  H    12    28       P1  7957  1.00
      L1  H    14    29       P1  7949  1.00
      P1  H  6896  6909       L1    16  0.94
      P1  H  7989  7998       L1    10  0.07
      P1  H  8011  8017       L1    10  0.80
      P1  H 10752 10764       L1    14  1.00
      L1  C     4    24       P1  7948  1.00

> <Gold.PLP.Chemscore.Internal.Correction>
0.0027

> <Gold.Rescore>
     Score         DG    S(hbond)    S(metal)    S(lipo)     H(rot)  DE(clash)    DE(int)     intcor
     11.23     -11.55       3.99        0.00      26.86       4.06       0.04       0.28       ----

> <Gold.Chemscore.Fitness>
11.2341

> <Gold.Chemscore.DG>
-11.5470

> <Gold.Chemscore.ZeroCoef>
-5.4800

> <Gold.Chemscore.Hbond>
3.9875

> <Gold.Chemscore.Metal>
0.0000

> <Gold.Chemscore.Lipo>
26.8578

> <Gold.Chemscore.Internal_Hbond>
0.0000

> <Gold.Chemscore.DEClash>
0.0354

> <Gold.Chemscore.DEInternal>
0.2775

> <Gold.Chemscore.Rot>
4.0600

> <Gold.Chemscore.Internal.Correction>
   9.000000E+99

> <Gold.Chemscore.Hbonds>
donor molecule, donor type, donor heavy atom, donor atom, acceptor molecule, acceptor atom, score
      L1  H    10    27       P1  7957  0.86
      L1  H    12    28       P1  7957  0.74
      L1  H    14    29       P1  7949  0.23
      P1  H  6896  6909       L1    16  0.92
      P1  H  8011  8017       L1    10  0.12
      P1  H 10752 10764       L1    14  0.51

> <Gold.Chemscore.Hbond.Weighted>
-13.3183

> <Gold.Chemscore.Metal.Weighted>
-0.0000

> <Gold.Chemscore.Lipo.Weighted>
-3.1424

> <Gold.Chemscore.Internal_Hbond.Weighted>
0.0000

> <Gold.Chemscore.DEClash.Weighted>
0.0354

> <Gold.Chemscore.DEInternal.Weighted>
0.2775

> <Gold.Chemscore.Rot.Weighted>
10.3936

> <Gold.Chemscore.Internal.Correction.Weighted>
   9.000000E+99

> <Gold.Protein.RotatedTorsions>
[ 6907 6896 6895 6894 ] final   48.11 input  -60.11 | X-H torsion
[ 7974 7965 7964 7962 ] final -167.08 input  175.53 | X-H torsion
[ 8008 7997 7996 7995 ] final   67.62 input   59.86 | X-H torsion
[ 10167 10162 10161 10158 ] final -134.34 input  -65.29 | X-H torsion
[ 10718 10713 10712 10709 ] final  -27.21 input   66.30 | X-H torsion
[ 10763 10752 10751 10750 ] final  -76.18 input  -60.55 | X-H torsion
[ 11005 11000 10999 10996 ] final  149.95 input  -57.11 | X-H torsion

> <Gold.Protein.ActiveResidues>
 VAL166  LYS551  ARG553  GLY616  TRP617  ASP618  TYR619  PRO620  LYS621  CYS622 
 ASP623  PHE694  ASN695  SER759  ASP760  ASP761  ALA762  ILE779  LEU786  VAL792 
 PHE793  MET794  SER795  GLU796  ALA797  LYS798  CYS799  TRP800  GLU811  SER814 

> <Gold.Protein.RotatedAtoms>
  152.2758  134.7883  160.0405 H   0  0  0  0  0  0  0  0  0  0  0  0  # atno 6907 bound_to 6896
  151.8480  133.3429  159.3672 H   0  0  0  0  0  0  0  0  0  0  0  0  # atno 6908 bound_to 6896
  150.7169  134.5255  159.5719 H   0  0  0  0  0  0  0  0  0  0  0  0  # atno 6909 bound_to 6896
  144.7231  140.2571  143.6270 H   0  0  0  0  0  0  0  0  0  0  0  0  # atno 7974 bound_to 7965
  155.6958  140.3495  155.4912 H   0  0  0  0  0  0  0  0  0  0  0  0  # atno 8008 bound_to 7997
  155.9484  140.1114  157.1019 H   0  0  0  0  0  0  0  0  0  0  0  0  # atno 8009 bound_to 7997
  154.4117  140.1199  156.5007 H   0  0  0  0  0  0  0  0  0  0  0  0  # atno 8010 bound_to 7997
  139.8891  143.6745  152.2615 H   0  0  0  0  0  0  0  0  0  0  0  0  # atno 10167 bound_to 10162
  156.4411  130.4464  149.7052 H   0  0  0  0  0  0  0  0  0  0  0  0  # atno 10718 bound_to 10713
  154.4964  135.5806  153.6498 H   0  0  0  0  0  0  0  0  0  0  0  0  # atno 10763 bound_to 10752
  152.9871  135.6125  154.3058 H   0  0  0  0  0  0  0  0  0  0  0  0  # atno 10764 bound_to 10752
  154.2962  135.2847  155.2611 H   0  0  0  0  0  0  0  0  0  0  0  0  # atno 10765 bound_to 10752
  140.1089  134.8937  157.1907 H   0  0  0  0  0  0  0  0  0  0  0  0  # atno 11005 bound_to 11000
  145.8171  139.2028  143.1959 LP  0  0  0  0  0  0  0  0  0  0  0  0  # atno 17320 bound_to 7965
  146.0546  140.8034  142.9765 LP  0  0  0  0  0  0  0  0  0  0  0  0  # atno 17321 bound_to 7965
  139.7126  144.7617  151.1087 LP  0  0  0  0  0  0  0  0  0  0  0  0  # atno 17342 bound_to 10162
  140.7730  143.5311  150.9422 LP  0  0  0  0  0  0  0  0  0  0  0  0  # atno 17343 bound_to 10162
  156.3917  130.7630  151.2631 LP  0  0  0  0  0  0  0  0  0  0  0  0  # atno 17370 bound_to 10713
  157.7506  131.0266  150.3969 LP  0  0  0  0  0  0  0  0  0  0  0  0  # atno 17371 bound_to 10713
  140.3118  134.3015  155.7265 LP  0  0  0  0  0  0  0  0  0  0  0  0  # atno 17394 bound_to 11000
  141.2125  133.7655  156.9787 LP  0  0  0  0  0  0  0  0  0  0  0  0  # atno 17395 bound_to 11000

$$$$
