AV-unprocessed.smi:837|AV-procd|sdf|3901|dock6
  -GOLD-   22720 1363D 1   1.00000     0.00000
 Structure written by MMmdl.
 48 50  0  0  0  0  0  0  0  0  2 V2000
  152.5197  137.3361  157.4393 C   0  0  0  0  0  0  0  0  0  0  0  0
  151.2850  138.0575  156.8551 C   0  0  1  0  0  0  0  0  0  0  0  0
  151.7253  139.0380  155.7446 C   0  0  0  0  0  0  0  0  0  0  0  0
  150.5415  139.8385  155.1825 C   0  0  0  0  0  0  0  0  0  0  0  0
  149.4395  138.9086  154.6596 C   0  0  0  0  0  0  0  0  0  0  0  0
  148.9774  137.9315  155.7544 C   0  0  0  0  0  0  0  0  0  0  0  0
  150.1362  137.1068  156.3775 C   0  0  2  0  0  0  0  0  0  0  0  0
  149.6081  136.3475  157.4979 N   0  5  0  0  0  0  0  0  0  0  0  0
  149.7269  135.0254  157.2345 C   0  0  0  0  0  0  0  0  0  0  0  0
  149.3657  134.0963  157.9559 O   0  0  0  0  0  0  0  0  0  0  0  0
  150.3114  134.8218  156.0390 N   0  0  0  0  0  0  0  0  0  0  0  0
  150.5719  133.5050  155.4408 C   0  0  0  0  0  0  0  0  0  0  0  0
  149.3041  132.7943  154.9442 C   0  0  0  0  0  0  0  0  0  0  0  0
  149.0677  131.6230  155.2451 O   0  0  0  0  0  0  0  0  0  0  0  0
  148.4847  133.5321  154.1797 N   0  0  0  0  0  0  0  0  0  0  0  0
  147.2278  133.0635  153.6086 C   0  0  0  0  0  0  0  0  0  0  0  0
  147.1484  133.3530  152.1007 C   0  0  0  0  0  0  0  0  0  0  0  0
  145.7725  133.0568  151.5368 C   0  0  0  0  0  0  0  0  0  0  0  0
  144.6211  133.6485  152.0957 C   0  0  0  0  0  0  0  0  0  0  0  0
  143.3646  133.3485  151.5351 C   0  0  0  0  0  0  0  0  0  0  0  0
  143.3137  132.4679  150.4359 C   0  0  0  0  0  0  0  0  0  0  0  0
  144.4099  131.8964  149.8919 N   0  0  0  0  0  0  0  0  0  0  0  0
  145.6109  132.1885  150.4360 C   0  0  0  0  0  0  0  0  0  0  0  0
  150.5940  135.9866  155.4451 C   0  0  0  0  0  0  0  0  0  0  0  0
  151.1255  136.1497  154.3458 O   0  0  0  0  0  0  0  0  0  0  0  0
  153.0312  136.7336  156.6884 H   0  0  0  0  0  0  0  0  0  0  0  0
  152.2488  136.6797  158.2664 H   0  0  0  0  0  0  0  0  0  0  0  0
  153.2419  138.0557  157.8256 H   0  0  0  0  0  0  0  0  0  0  0  0
  150.8774  138.6673  157.6636 H   0  0  0  0  0  0  0  0  0  0  0  0
  152.4680  139.7319  156.1396 H   0  0  0  0  0  0  0  0  0  0  0  0
  152.2190  138.4984  154.9361 H   0  0  0  0  0  0  0  0  0  0  0  0
  150.1348  140.4843  155.9618 H   0  0  0  0  0  0  0  0  0  0  0  0
  150.8836  140.4958  154.3826 H   0  0  0  0  0  0  0  0  0  0  0  0
  148.5913  139.5003  154.3145 H   0  0  0  0  0  0  0  0  0  0  0  0
  149.7998  138.3612  153.7887 H   0  0  0  0  0  0  0  0  0  0  0  0
  148.4774  138.5031  156.5383 H   0  0  0  0  0  0  0  0  0  0  0  0
  148.2154  137.2675  155.3420 H   0  0  0  0  0  0  0  0  0  0  0  0
  151.2627  133.6073  154.6023 H   0  0  0  0  0  0  0  0  0  0  0  0
  151.0790  132.8626  156.1626 H   0  0  0  0  0  0  0  0  0  0  0  0
  148.7514  134.4856  153.9815 H   0  0  0  0  0  0  0  0  0  0  0  0
  147.1064  131.9960  153.8008 H   0  0  0  0  0  0  0  0  0  0  0  0
  146.4113  133.5667  154.1274 H   0  0  0  0  0  0  0  0  0  0  0  0
  147.3952  134.3978  151.9062 H   0  0  0  0  0  0  0  0  0  0  0  0
  147.8857  132.7577  151.5600 H   0  0  0  0  0  0  0  0  0  0  0  0
  144.6984  134.3212  152.9374 H   0  0  0  0  0  0  0  0  0  0  0  0
  142.4616  133.7832  151.9375 H   0  0  0  0  0  0  0  0  0  0  0  0
  142.3669  132.2163  149.9813 H   0  0  0  0  0  0  0  0  0  0  0  0
  146.4678  131.7174  149.9775 H   0  0  0  0  0  0  0  0  0  0  0  0
  1  2  1  0  0  0  0
  1 26  1  0  0  0  0
  1 27  1  0  0  0  0
  1 28  1  0  0  0  0
  2  7  1  0  0  0  0
  2  3  1  0  0  0  0
  2 29  1  0  0  0  0
  3  4  1  0  0  0  0
  3 30  1  0  0  0  0
  3 31  1  0  0  0  0
  4  5  1  0  0  0  0
  4 32  1  0  0  0  0
  4 33  1  0  0  0  0
  5  6  1  0  0  0  0
  5 34  1  0  0  0  0
  5 35  1  0  0  0  0
  6  7  1  0  0  0  0
  6 36  1  0  0  0  0
  6 37  1  0  0  0  0
  7 24  1  0  0  0  0
  7  8  1  0  0  0  0
  8  9  1  0  0  0  0
  9 10  2  0  0  0  0
  9 11  1  0  0  0  0
 11 12  1  0  0  0  0
 11 24  1  0  0  0  0
 12 13  1  0  0  0  0
 12 38  1  0  0  0  0
 12 39  1  0  0  0  0
 13 14  2  0  0  0  0
 13 15  1  0  0  0  0
 15 16  1  0  0  0  0
 15 40  1  0  0  0  0
 16 17  1  0  0  0  0
 16 41  1  0  0  0  0
 16 42  1  0  0  0  0
 17 18  1  0  0  0  0
 17 43  1  0  0  0  0
 17 44  1  0  0  0  0
 18 23  1  0  0  0  0
 18 19  2  0  0  0  0
 19 20  1  0  0  0  0
 19 45  1  0  0  0  0
 20 21  2  0  0  0  0
 20 46  1  0  0  0  0
 21 22  1  0  0  0  0
 21 47  1  0  0  0  0
 22 23  2  0  0  0  0
 23 48  1  0  0  0  0
 24 25  2  0  0  0  0
M  CHG  1   8  -1
M  END
> <s_m_source_file>
AV-unprocessed.smi

> <i_m_source_file_index>
837

> <i_lp_mmshare_version>
43012

> <i_f3d_flags>
0

> <s_epik_input>
W0NIMl0xW0NIMl1bQ0gyXVtDSDJdW0NAQEhdKFtDSDNdKVtDQEBdMTJbTkhdQyg9TylOKEMyPU8pW0NIMl1DKD1PKVtOSF1bQ0gyXVtDSDJdYzNbY0hdW2NIXVtjSF1uW2NIXTM=

> <s_epik_cmdline>
J2VwaWtfcHl0aG9uJywgJy1waCcsICc3LjAnLCAnLXRuJywgJzgnLCAnLW1hJywgJzIwMCcsICctbWV0YWxfYmluZGluZycsICctaW1hZScsICc8aW5maWxlLm1hZT4nLCAnLW9tYWUnLCAnPG91dGZpbGUubWFlPic=

> <r_lp_tautomer_probability>
1

> <r_epik_Ionization_Penalty>
6.03002

> <r_epik_Ionization_Penalty_Charging>
6.01728

> <r_epik_Ionization_Penalty_Neutral>
0.0127382

> <r_epik_State_Penalty>
6.02713

> <r_epik_Charging_Adjusted_Penalty>
12.0444

> <i_epik_Tot_Q>
-1

> <i_epik_Tot_abs_Q>
1

> <r_epik_Metal_State_Penalty>
1.99078

> <b_epik_Metal_Only>
1

> <s_lp_Force_Field>
OPLS_2005

> <r_lp_Energy>
14.5441

> <b_lp_Chiralities_Consistent>
1

> <s_lp_Variant>
AV-unprocessed.smi:837-10

> <Gold.Version>
5.8.1

> <Gold.Id.Protein>
6NUR|6NUR_protein|mol2

> <Gold.PLP.Fitness>
47.0153

> <Gold.PLP.PLP>
-34.9369

> <Gold.PLP.part.hbond>
-2.7571

> <Gold.PLP.part.metal>
0.0000

> <Gold.PLP.part.buried>
-6.3902

> <Gold.PLP.part.nonpolar>
-28.4858

> <Gold.PLP.part.repulsive>
1.7213

> <Gold.PLP.ligand.clash>
0.0000

> <Gold.PLP.ligand.torsion>
0.3483

> <Gold.PLP.Chemscore.Hbond>
2.0081

> <Gold.PLP.Chemscore.CHOScore>
2.2404

> <Gold.PLP.Chemscore.Metal>
0.0000

> <Gold.Chemscore.Hbonds>
donor molecule, donor type, donor heavy atom, donor atom, acceptor molecule, acceptor atom, score
      P1  H  6896  6909       L1    10  1.00
      P1  H 10752 10763       L1    25  1.00
      P1  H 10785 10796       L1    22  0.02
      L1  C    21    47       P1 10186  0.47
      L1  C    21    47       P1 10952  1.00
      L1  C    23    48       P1 10747  0.69

> <Gold.PLP.Chemscore.Internal.Correction>
0.0296

> <Gold.Rescore>
     Score         DG    S(hbond)    S(metal)    S(lipo)     H(rot)  DE(clash)    DE(int)     intcor
     15.68     -16.15       1.58        0.00      85.60       1.81       0.08       0.39       ----

> <Gold.Chemscore.Fitness>
15.6753

> <Gold.Chemscore.DG>
-16.1484

> <Gold.Chemscore.ZeroCoef>
-5.4800

> <Gold.Chemscore.Hbond>
1.5819

> <Gold.Chemscore.Metal>
0.0000

> <Gold.Chemscore.Lipo>
85.6050

> <Gold.Chemscore.Internal_Hbond>
0.0000

> <Gold.Chemscore.DEClash>
0.0816

> <Gold.Chemscore.DEInternal>
0.3915

> <Gold.Chemscore.Rot>
1.8090

> <Gold.Chemscore.Internal.Correction>
   9.000000E+99

> <Gold.Chemscore.Hbonds>
donor molecule, donor type, donor heavy atom, donor atom, acceptor molecule, acceptor atom, score
      P1  H  6896  6909       L1    10  0.50
      P1  H 10752 10763       L1    25  0.78
      P1  H 10785 10796       L1    22  0.01

> <Gold.Chemscore.Hbond.Weighted>
-5.2837

> <Gold.Chemscore.Metal.Weighted>
-0.0000

> <Gold.Chemscore.Lipo.Weighted>
-10.0158

> <Gold.Chemscore.Internal_Hbond.Weighted>
0.0000

> <Gold.Chemscore.DEClash.Weighted>
0.0816

> <Gold.Chemscore.DEInternal.Weighted>
0.3915

> <Gold.Chemscore.Rot.Weighted>
4.6310

> <Gold.Chemscore.Internal.Correction.Weighted>
   9.000000E+99

> <Gold.Protein.RotatedTorsions>
[ 6907 6896 6895 6894 ] final   14.35 input  -60.11 | X-H torsion
[ 7974 7965 7964 7962 ] final   94.91 input  175.53 | X-H torsion
[ 8008 7997 7996 7995 ] final  142.19 input   59.86 | X-H torsion
[ 10167 10162 10161 10158 ] final   93.12 input  -65.29 | X-H torsion
[ 10718 10713 10712 10709 ] final   40.51 input   66.30 | X-H torsion
[ 10763 10752 10751 10750 ] final   47.99 input  -60.55 | X-H torsion
[ 11005 11000 10999 10996 ] final -159.52 input  -57.11 | X-H torsion

> <Gold.Protein.ActiveResidues>
 VAL166  LYS551  ARG553  GLY616  TRP617  ASP618  TYR619  PRO620  LYS621  CYS622 
 ASP623  PHE694  ASN695  SER759  ASP760  ASP761  ALA762  ILE779  LEU786  VAL792 
 PHE793  MET794  SER795  GLU796  ALA797  LYS798  CYS799  TRP800  GLU811  SER814 

> <Gold.Protein.RotatedAtoms>
  151.8008  135.0709  160.0399 H   0  0  0  0  0  0  0  0  0  0  0  0  # atno 6907 bound_to 6896
  152.3090  133.5729  159.5677 H   0  0  0  0  0  0  0  0  0  0  0  0  # atno 6908 bound_to 6896
  150.7310  134.0096  159.3707 H   0  0  0  0  0  0  0  0  0  0  0  0  # atno 6909 bound_to 6896
  145.4593  139.2288  143.2996 H   0  0  0  0  0  0  0  0  0  0  0  0  # atno 7974 bound_to 7965
  156.2953  140.2295  156.4688 H   0  0  0  0  0  0  0  0  0  0  0  0  # atno 8008 bound_to 7997
  154.7953  140.0451  157.1253 H   0  0  0  0  0  0  0  0  0  0  0  0  # atno 8009 bound_to 7997
  154.9596  140.3052  155.5040 H   0  0  0  0  0  0  0  0  0  0  0  0  # atno 8010 bound_to 7997
  139.8210  144.6731  150.9519 H   0  0  0  0  0  0  0  0  0  0  0  0  # atno 10167 bound_to 10162
  157.3830  130.7764  149.7208 H   0  0  0  0  0  0  0  0  0  0  0  0  # atno 10718 bound_to 10713
  152.9795  135.5958  154.3853 H   0  0  0  0  0  0  0  0  0  0  0  0  # atno 10763 bound_to 10752
  154.3514  135.2767  155.2372 H   0  0  0  0  0  0  0  0  0  0  0  0  # atno 10764 bound_to 10752
  154.4410  135.6013  153.6184 H   0  0  0  0  0  0  0  0  0  0  0  0  # atno 10765 bound_to 10752
  140.6416  134.4545  157.5233 H   0  0  0  0  0  0  0  0  0  0  0  0  # atno 11005 bound_to 11000
  146.2460  140.5360  142.8913 LP  0  0  0  0  0  0  0  0  0  0  0  0  # atno 17320 bound_to 7965
  144.8013  140.6218  143.6476 LP  0  0  0  0  0  0  0  0  0  0  0  0  # atno 17321 bound_to 7965
  140.7813  143.4092  151.1021 LP  0  0  0  0  0  0  0  0  0  0  0  0  # atno 17342 bound_to 10162
  139.7752  143.8436  152.3128 LP  0  0  0  0  0  0  0  0  0  0  0  0  # atno 17343 bound_to 10162
  155.9780  130.4056  150.3676 LP  0  0  0  0  0  0  0  0  0  0  0  0  # atno 17370 bound_to 10713
  157.1782  131.0385  151.2762 LP  0  0  0  0  0  0  0  0  0  0  0  0  # atno 17371 bound_to 10713
  139.9078  134.8411  156.1640 LP  0  0  0  0  0  0  0  0  0  0  0  0  # atno 17394 bound_to 11000
  141.0602  133.6845  156.1938 LP  0  0  0  0  0  0  0  0  0  0  0  0  # atno 17395 bound_to 11000

$$$$
