AV-unprocessed.smi:1740|AV-procd|sdf|7015|dock9
  -GOLD-   22720 8233D 1   1.00000     0.00000
 Structure written by MMmdl.
 52 54  0  0  0  0  0  0  0  0  4 V2000
  148.3800  137.1008  160.8572 N   0  5  0  0  0  0  0  0  0  0  0  0
  149.0688  136.8498  159.7259 C   0  0  0  0  0  0  0  0  0  0  0  0
  150.2737  136.6418  159.6053 O   0  0  0  0  0  0  0  0  0  0  0  0
  148.1691  136.8382  158.4856 C   0  0  0  0  0  0  0  0  0  0  0  0
  148.7649  136.0077  157.4077 N   0  3  2  0  0  0  0  0  0  0  0  0
  148.8050  136.6967  156.0898 C   0  0  0  0  0  0  0  0  0  0  0  0
  149.5441  135.8499  155.0373 C   0  0  0  0  0  0  0  0  0  0  0  0
  148.9413  134.4409  154.9011 C   0  0  2  0  0  0  0  0  0  0  0  0
  147.6310  134.5049  154.2541 N   0  0  0  0  0  0  0  0  0  0  0  0
  147.2856  133.8480  153.1378 C   0  0  0  0  0  0  0  0  0  0  0  0
  148.0506  133.1146  152.5120 O   0  0  0  0  0  0  0  0  0  0  0  0
  146.0021  134.0747  152.8139 N   0  0  0  0  0  0  0  0  0  0  0  0
  145.2649  133.4693  151.7589 C   0  0  0  0  0  0  0  0  0  0  0  0
  145.8321  132.4190  150.9933 C   0  0  0  0  0  0  0  0  0  0  0  0
  145.1200  131.8777  149.9069 C   0  0  0  0  0  0  0  0  0  0  0  0
  143.8568  132.4066  149.5917 C   0  0  0  0  0  0  0  0  0  0  0  0
  143.3495  133.4139  150.3319 N   0  3  0  0  0  0  0  0  0  0  0  0
  143.9786  133.9675  151.3990 C   0  0  0  0  0  0  0  0  0  0  0  0
  143.3139  135.0089  152.0874 N   0  0  0  0  0  0  0  0  0  0  0  0
  142.4968  134.7146  153.2587 C   0  0  0  0  0  0  0  0  0  0  0  0
  142.2360  136.0691  153.9112 C   0  0  0  0  0  0  0  0  0  0  0  0
  143.5367  136.8196  153.6411 C   0  0  0  0  0  0  0  0  0  0  0  0
  143.9858  136.2913  152.2748 C   0  0  0  0  0  0  0  0  0  0  0  0
  148.8613  133.7786  156.2909 C   0  0  0  0  0  0  0  0  0  0  0  0
  148.1309  134.6688  157.3118 C   0  0  0  0  0  0  0  0  0  0  0  0
  148.1266  136.3118  161.4643 H   0  0  0  0  0  0  0  0  0  0  0  0
  147.1977  136.4381  158.7816 H   0  0  0  0  0  0  0  0  0  0  0  0
  147.9908  137.8541  158.1293 H   0  0  0  0  0  0  0  0  0  0  0  0
  147.7871  136.9079  155.7585 H   0  0  0  0  0  0  0  0  0  0  0  0
  149.3079  137.6595  156.1845 H   0  0  0  0  0  0  0  0  0  0  0  0
  149.5376  136.3600  154.0733 H   0  0  0  0  0  0  0  0  0  0  0  0
  150.5925  135.7636  155.3261 H   0  0  0  0  0  0  0  0  0  0  0  0
  149.6029  133.8495  154.2653 H   0  0  0  0  0  0  0  0  0  0  0  0
  146.9367  135.0909  154.6942 H   0  0  0  0  0  0  0  0  0  0  0  0
  145.4641  134.6250  153.4671 H   0  0  0  0  0  0  0  0  0  0  0  0
  146.8170  132.0346  151.2136 H   0  0  0  0  0  0  0  0  0  0  0  0
  145.5435  131.0778  149.3172 H   0  0  0  0  0  0  0  0  0  0  0  0
  143.2420  132.0607  148.7735 H   0  0  0  0  0  0  0  0  0  0  0  0
  141.5692  134.2119  152.9836 H   0  0  0  0  0  0  0  0  0  0  0  0
  143.0440  134.0740  153.9515 H   0  0  0  0  0  0  0  0  0  0  0  0
  141.4056  136.5713  153.4130 H   0  0  0  0  0  0  0  0  0  0  0  0
  141.9985  135.9913  154.9723 H   0  0  0  0  0  0  0  0  0  0  0  0
  143.4148  137.9029  153.6569 H   0  0  0  0  0  0  0  0  0  0  0  0
  144.2755  136.5540  154.3983 H   0  0  0  0  0  0  0  0  0  0  0  0
  145.0715  136.1996  152.2240 H   0  0  0  0  0  0  0  0  0  0  0  0
  143.6639  136.9739  151.4881 H   0  0  0  0  0  0  0  0  0  0  0  0
  148.3743  132.8049  156.2275 H   0  0  0  0  0  0  0  0  0  0  0  0
  149.8724  133.5839  156.6511 H   0  0  0  0  0  0  0  0  0  0  0  0
  148.1544  134.1820  158.2876 H   0  0  0  0  0  0  0  0  0  0  0  0
  147.0802  134.7799  157.0392 H   0  0  0  0  0  0  0  0  0  0  0  0
  149.7228  135.8521  157.6916 H   0  0  0  0  0  0  0  0  0  0  0  0
  142.4306  133.7762  150.0768 H   0  0  0  0  0  0  0  0  0  0  0  0
  1  2  1  0  0  0  0
  1 26  1  0  0  0  0
  2  3  2  0  0  0  0
  2  4  1  0  0  0  0
  4  5  1  0  0  0  0
  4 27  1  0  0  0  0
  4 28  1  0  0  0  0
  5 25  1  0  0  0  0
  5  6  1  0  0  0  0
  5 51  1  0  0  0  0
  6  7  1  0  0  0  0
  6 29  1  0  0  0  0
  6 30  1  0  0  0  0
  7  8  1  0  0  0  0
  7 31  1  0  0  0  0
  7 32  1  0  0  0  0
  8  9  1  0  0  0  0
  8 24  1  0  0  0  0
  8 33  1  0  0  0  0
  9 10  1  0  0  0  0
  9 34  1  0  0  0  0
 10 11  2  0  0  0  0
 10 12  1  0  0  0  0
 12 13  1  0  0  0  0
 12 35  1  0  0  0  0
 13 18  1  0  0  0  0
 13 14  2  0  0  0  0
 14 15  1  0  0  0  0
 14 36  1  0  0  0  0
 15 16  2  0  0  0  0
 15 37  1  0  0  0  0
 16 17  1  0  0  0  0
 16 38  1  0  0  0  0
 17 18  2  0  0  0  0
 17 52  1  0  0  0  0
 18 19  1  0  0  0  0
 19 23  1  0  0  0  0
 19 20  1  0  0  0  0
 20 21  1  0  0  0  0
 20 39  1  0  0  0  0
 20 40  1  0  0  0  0
 21 22  1  0  0  0  0
 21 41  1  0  0  0  0
 21 42  1  0  0  0  0
 22 23  1  0  0  0  0
 22 43  1  0  0  0  0
 22 44  1  0  0  0  0
 23 45  1  0  0  0  0
 23 46  1  0  0  0  0
 24 25  1  0  0  0  0
 24 47  1  0  0  0  0
 24 48  1  0  0  0  0
 25 49  1  0  0  0  0
 25 50  1  0  0  0  0
M  CHG  1   1  -1
M  CHG  1   5   1
M  CHG  1  17   1
M  END
> <s_m_source_file>
AV-unprocessed.smi

> <i_m_source_file_index>
1740

> <i_lp_mmshare_version>
43012

> <i_f3d_flags>
0

> <s_epik_input>
W05IMl1DKD1PKVtDSDJdTjFbQ0gyXVtDSDJdW0NIXShbQ0gyXVtDSDJdMSlbTkhdQyg9TylbTkhdYzJbY0hdW2NIXVtjSF1uYzJOM1tDSDJdW0NIMl1bQ0gyXVtDSDJdMw==

> <s_epik_cmdline>
J2VwaWtfcHl0aG9uJywgJy1waCcsICc3LjAnLCAnLXRuJywgJzgnLCAnLW1hJywgJzIwMCcsICctbWV0YWxfYmluZGluZycsICctaW1hZScsICc8aW5maWxlLm1hZT4nLCAnLW9tYWUnLCAnPG91dGZpbGUubWFlPic=

> <r_lp_tautomer_probability>
0.999994

> <r_epik_Ionization_Penalty>
6.97817

> <r_epik_Ionization_Penalty_Charging>
6.97815

> <r_epik_Ionization_Penalty_Neutral>
1.88285e-05

> <r_epik_State_Penalty>
7.80985

> <r_epik_Charging_Adjusted_Penalty>
14.788

> <i_epik_Tot_Q>
1

> <i_epik_Tot_abs_Q>
3

> <r_epik_Metal_State_Penalty>
3.85728

> <b_epik_Metal_Only>
1

> <s_lp_Force_Field>
OPLS_2005

> <r_lp_Energy>
44.1168

> <b_lp_Chiralities_Consistent>
1

> <s_lp_Variant>
AV-unprocessed.smi:1740-10

> <Gold.Version>
5.8.1

> <Gold.Id.Protein>
6NUR|6NUR_protein|mol2

> <Gold.PLP.Fitness>
49.8646

> <Gold.PLP.PLP>
-32.5546

> <Gold.PLP.part.hbond>
-4.0000

> <Gold.PLP.part.metal>
0.0000

> <Gold.PLP.part.buried>
-7.0171

> <Gold.PLP.part.nonpolar>
-23.3678

> <Gold.PLP.part.repulsive>
0.4697

> <Gold.PLP.ligand.clash>
0.0000

> <Gold.PLP.ligand.torsion>
1.4181

> <Gold.PLP.Chemscore.Hbond>
6.5697

> <Gold.PLP.Chemscore.CHOScore>
0.0000

> <Gold.PLP.Chemscore.Metal>
0.0000

> <Gold.Chemscore.Hbonds>
donor molecule, donor type, donor heavy atom, donor atom, acceptor molecule, acceptor atom, score
      L1  H    17    52       P1 10186  2.00
      P1  H  6896  6908       L1     3  1.00
      P1  H  6931  6943       L1     1  1.89
      P1  H  6934  6947       L1     1  0.52

> <Gold.PLP.Chemscore.Internal.Correction>
0.4369

> <Gold.Rescore>
     Score         DG    S(hbond)    S(metal)    S(lipo)     H(rot)  DE(clash)    DE(int)     intcor
     16.09     -18.63       3.18        0.00      69.45       2.18       0.01       2.53       ----

> <Gold.Chemscore.Fitness>
16.0861

> <Gold.Chemscore.DG>
-18.6280

> <Gold.Chemscore.ZeroCoef>
-5.4800

> <Gold.Chemscore.Hbond>
3.1769

> <Gold.Chemscore.Metal>
0.0000

> <Gold.Chemscore.Lipo>
69.4545

> <Gold.Chemscore.Internal_Hbond>
0.0000

> <Gold.Chemscore.DEClash>
0.0103

> <Gold.Chemscore.DEInternal>
2.5316

> <Gold.Chemscore.Rot>
2.1832

> <Gold.Chemscore.Internal.Correction>
   9.000000E+99

> <Gold.Chemscore.Hbonds>
donor molecule, donor type, donor heavy atom, donor atom, acceptor molecule, acceptor atom, score
      L1  H    17    52       P1 10186  1.00
      P1  H  6896  6908       L1     3  0.99
      P1  H  6931  6943       L1     1  0.42
      P1  H  6934  6947       L1     1  0.24

> <Gold.Chemscore.Hbond.Weighted>
-10.6110

> <Gold.Chemscore.Metal.Weighted>
-0.0000

> <Gold.Chemscore.Lipo.Weighted>
-8.1262

> <Gold.Chemscore.Internal_Hbond.Weighted>
0.0000

> <Gold.Chemscore.DEClash.Weighted>
0.0103

> <Gold.Chemscore.DEInternal.Weighted>
2.5316

> <Gold.Chemscore.Rot.Weighted>
5.5891

> <Gold.Chemscore.Internal.Correction.Weighted>
   9.000000E+99

> <Gold.Protein.RotatedTorsions>
[ 6907 6896 6895 6894 ] final -156.14 input  -60.11 | X-H torsion
[ 7974 7965 7964 7962 ] final   21.79 input  175.53 | X-H torsion
[ 8008 7997 7996 7995 ] final    2.19 input   59.86 | X-H torsion
[ 10167 10162 10161 10158 ] final  175.42 input  -65.29 | X-H torsion
[ 10718 10713 10712 10709 ] final -139.98 input   66.30 | X-H torsion
[ 10763 10752 10751 10750 ] final   30.06 input  -60.55 | X-H torsion
[ 11005 11000 10999 10996 ] final -138.18 input  -57.11 | X-H torsion

> <Gold.Protein.ActiveResidues>
 VAL166  LYS551  ARG553  GLY616  TRP617  ASP618  TYR619  PRO620  LYS621  CYS622 
 ASP623  PHE694  ASN695  SER759  ASP760  ASP761  ALA762  ILE779  LEU786  VAL792 
 PHE793  MET794  SER795  GLU796  ALA797  LYS798  CYS799  TRP800  GLU811  SER814 

> <Gold.Protein.RotatedAtoms>
  151.2831  133.4200  159.2627 H   0  0  0  0  0  0  0  0  0  0  0  0  # atno 6907 bound_to 6896
  151.0343  134.9562  159.8138 H   0  0  0  0  0  0  0  0  0  0  0  0  # atno 6908 bound_to 6896
  152.5352  134.2791  159.9053 H   0  0  0  0  0  0  0  0  0  0  0  0  # atno 6909 bound_to 6896
  146.2056  139.7977  142.8728 H   0  0  0  0  0  0  0  0  0  0  0  0  # atno 7974 bound_to 7965
  154.6887  140.2648  155.6835 H   0  0  0  0  0  0  0  0  0  0  0  0  # atno 8008 bound_to 7997
  156.2724  140.2795  156.1380 H   0  0  0  0  0  0  0  0  0  0  0  0  # atno 8009 bound_to 7997
  155.0928  140.0373  157.2664 H   0  0  0  0  0  0  0  0  0  0  0  0  # atno 8010 bound_to 7997
  139.5176  144.3034  152.0358 H   0  0  0  0  0  0  0  0  0  0  0  0  # atno 10167 bound_to 10162
  156.3170  130.7513  151.1603 H   0  0  0  0  0  0  0  0  0  0  0  0  # atno 10718 bound_to 10713
  153.0394  135.6473  154.0986 H   0  0  0  0  0  0  0  0  0  0  0  0  # atno 10763 bound_to 10752
  154.0695  135.2881  155.3312 H   0  0  0  0  0  0  0  0  0  0  0  0  # atno 10764 bound_to 10752
  154.6603  135.5394  153.8075 H   0  0  0  0  0  0  0  0  0  0  0  0  # atno 10765 bound_to 10752
  140.8641  134.2133  157.4690 H   0  0  0  0  0  0  0  0  0  0  0  0  # atno 11005 bound_to 11000
  145.3330  141.0271  143.3435 LP  0  0  0  0  0  0  0  0  0  0  0  0  # atno 17320 bound_to 7965
  144.8785  139.4937  143.6734 LP  0  0  0  0  0  0  0  0  0  0  0  0  # atno 17321 bound_to 7965
  140.2481  144.4199  150.6233 LP  0  0  0  0  0  0  0  0  0  0  0  0  # atno 17342 bound_to 10162
  140.6244  143.2179  151.6627 LP  0  0  0  0  0  0  0  0  0  0  0  0  # atno 17343 bound_to 10162
  157.7404  131.0518  150.5170 LP  0  0  0  0  0  0  0  0  0  0  0  0  # atno 17370 bound_to 10713
  156.5317  130.4186  149.6198 LP  0  0  0  0  0  0  0  0  0  0  0  0  # atno 17371 bound_to 10713
  139.8708  134.9743  156.4842 LP  0  0  0  0  0  0  0  0  0  0  0  0  # atno 17394 bound_to 11000
  140.8649  133.8032  155.9304 LP  0  0  0  0  0  0  0  0  0  0  0  0  # atno 17395 bound_to 11000

$$$$
