AV-unprocessed.smi:171|AV-procd|sdf|1421|dock6
  -GOLD-   2262019193D 1   1.00000     0.00000
 Structure written by MMmdl.
 56 59  0  0  0  0  0  0  0  0  1 V2000
  150.5112  137.6828  158.2268 C   0  0  0  0  0  0  0  0  0  0  0  0
  150.2805  138.8587  157.2644 C   0  0  0  0  0  0  0  0  0  0  0  0
  150.5231  140.1915  157.9895 C   0  0  0  0  0  0  0  0  0  0  0  0
  148.8849  138.8507  156.5975 C   0  0  0  0  0  0  0  0  0  0  0  0
  148.4691  140.1857  155.9077 C   0  0  1  0  0  0  0  0  0  0  0  0
  149.2300  140.5218  154.6005 C   0  0  0  0  0  0  0  0  0  0  0  0
  150.3604  140.0841  154.3979 O   0  0  0  0  0  0  0  0  0  0  0  0
  148.6181  141.3092  153.6976 N   0  0  0  0  0  0  0  0  0  0  0  0
  147.2594  141.8469  153.8064 C   0  0  0  0  0  0  0  0  0  0  0  0
  146.6035  141.6013  155.1818 C   0  0  0  0  0  0  0  0  0  0  0  0
  147.0106  140.3106  155.7329 N   0  0  0  0  0  0  0  0  0  0  0  0
  146.2791  139.2771  155.2331 C   0  0  0  0  0  0  0  0  0  0  0  0
  145.4102  138.5938  156.0254 N   0  0  0  0  0  0  0  0  0  0  0  0
  144.7077  137.5704  155.5317 C   0  0  0  0  0  0  0  0  0  0  0  0
  144.7227  137.0675  154.2960 N   0  0  0  0  0  0  0  0  0  0  0  0
  145.5955  137.7457  153.4972 C   0  0  0  0  0  0  0  0  0  0  0  0
  146.4028  138.8531  153.8814 C   0  0  0  0  0  0  0  0  0  0  0  0
  147.1562  139.2899  152.7986 N   0  0  0  0  0  0  0  0  0  0  0  0
  146.8176  138.4828  151.8305 C   0  0  0  0  0  0  0  0  0  0  0  0
  145.8944  137.5176  152.1654 N   0  0  0  0  0  0  0  0  0  0  0  0
  145.3504  136.4888  151.2920 C   0  0  0  0  0  0  0  0  0  0  0  0
  145.5754  135.0484  151.8231 C   0  0  2  0  0  0  0  0  0  0  0  0
  146.7190  135.0603  152.6615 O   0  0  0  0  0  0  0  0  0  0  0  0
  145.8209  134.0250  150.7164 C   0  0  0  0  0  0  0  0  0  0  0  0
  145.2762  132.7357  151.3111 C   0  0  0  0  0  0  0  0  0  0  0  0
  144.1139  133.1815  151.9862 O   0  0  0  0  0  0  0  0  0  0  0  0
  144.4043  134.4189  152.6305 C   0  0  2  0  0  0  0  0  0  0  0  0
  143.0999  135.2274  152.7083 C   0  0  0  0  0  0  0  0  0  0  0  0
  149.7645  137.6669  159.0213 H   0  0  0  0  0  0  0  0  0  0  0  0
  151.4928  137.7485  158.6967 H   0  0  0  0  0  0  0  0  0  0  0  0
  150.4721  136.7264  157.7063 H   0  0  0  0  0  0  0  0  0  0  0  0
  151.0280  138.7872  156.4733 H   0  0  0  0  0  0  0  0  0  0  0  0
  149.8082  140.3369  158.8003 H   0  0  0  0  0  0  0  0  0  0  0  0
  150.4290  141.0365  157.3069 H   0  0  0  0  0  0  0  0  0  0  0  0
  151.5248  140.2297  158.4186 H   0  0  0  0  0  0  0  0  0  0  0  0
  148.8090  138.0148  155.9006 H   0  0  0  0  0  0  0  0  0  0  0  0
  148.1708  138.6211  157.3892 H   0  0  0  0  0  0  0  0  0  0  0  0
  148.7274  140.9883  156.5997 H   0  0  0  0  0  0  0  0  0  0  0  0
  149.1244  141.5283  152.8520 H   0  0  0  0  0  0  0  0  0  0  0  0
  147.2654  142.9113  153.5702 H   0  0  0  0  0  0  0  0  0  0  0  0
  146.6635  141.3604  153.0334 H   0  0  0  0  0  0  0  0  0  0  0  0
  146.9239  142.3768  155.8785 H   0  0  0  0  0  0  0  0  0  0  0  0
  145.5198  141.7003  155.1094 H   0  0  0  0  0  0  0  0  0  0  0  0
  144.0394  137.0841  156.2267 H   0  0  0  0  0  0  0  0  0  0  0  0
  147.2394  138.5674  150.8396 H   0  0  0  0  0  0  0  0  0  0  0  0
  144.2857  136.6843  151.1582 H   0  0  0  0  0  0  0  0  0  0  0  0
  145.8133  136.6113  150.3126 H   0  0  0  0  0  0  0  0  0  0  0  0
  147.4116  135.5248  152.2173 H   0  0  0  0  0  0  0  0  0  0  0  0
  145.2310  134.2775  149.8343 H   0  0  0  0  0  0  0  0  0  0  0  0
  146.8643  133.9489  150.4068 H   0  0  0  0  0  0  0  0  0  0  0  0
  145.0417  131.9865  150.5549 H   0  0  0  0  0  0  0  0  0  0  0  0
  145.9782  132.3031  152.0256 H   0  0  0  0  0  0  0  0  0  0  0  0
  144.7256  134.1888  153.6482 H   0  0  0  0  0  0  0  0  0  0  0  0
  143.2534  136.1834  153.2091 H   0  0  0  0  0  0  0  0  0  0  0  0
  142.3447  134.6818  153.2740 H   0  0  0  0  0  0  0  0  0  0  0  0
  142.6870  135.4215  151.7182 H   0  0  0  0  0  0  0  0  0  0  0  0
  1  2  1  0  0  0  0
  1 29  1  0  0  0  0
  1 30  1  0  0  0  0
  1 31  1  0  0  0  0
  2  3  1  0  0  0  0
  2  4  1  0  0  0  0
  2 32  1  0  0  0  0
  3 33  1  0  0  0  0
  3 34  1  0  0  0  0
  3 35  1  0  0  0  0
  4  5  1  0  0  0  0
  4 36  1  0  0  0  0
  4 37  1  0  0  0  0
  5 11  1  0  0  0  0
  5  6  1  0  0  0  0
  5 38  1  0  0  0  0
  6  7  2  0  0  0  0
  6  8  1  0  0  0  0
  8  9  1  0  0  0  0
  8 39  1  0  0  0  0
  9 10  1  0  0  0  0
  9 40  1  0  0  0  0
  9 41  1  0  0  0  0
 10 11  1  0  0  0  0
 10 42  1  0  0  0  0
 10 43  1  0  0  0  0
 11 12  1  0  0  0  0
 12 17  1  0  0  0  0
 12 13  2  0  0  0  0
 13 14  1  0  0  0  0
 14 15  2  0  0  0  0
 14 44  1  0  0  0  0
 15 16  1  0  0  0  0
 16 20  1  0  0  0  0
 16 17  2  0  0  0  0
 17 18  1  0  0  0  0
 18 19  2  0  0  0  0
 19 20  1  0  0  0  0
 19 45  1  0  0  0  0
 20 21  1  0  0  0  0
 21 22  1  0  0  0  0
 21 46  1  0  0  0  0
 21 47  1  0  0  0  0
 22 27  1  0  0  0  0
 22 23  1  0  0  0  0
 22 24  1  0  0  0  0
 23 48  1  0  0  0  0
 24 25  1  0  0  0  0
 24 49  1  0  0  0  0
 24 50  1  0  0  0  0
 25 26  1  0  0  0  0
 25 51  1  0  0  0  0
 25 52  1  0  0  0  0
 26 27  1  0  0  0  0
 27 28  1  0  0  0  0
 27 53  1  0  0  0  0
 28 54  1  0  0  0  0
 28 55  1  0  0  0  0
 28 56  1  0  0  0  0
M  END
> <s_m_source_file>
AV-unprocessed.smi

> <i_m_source_file_index>
171

> <i_lp_mmshare_version>
43012

> <i_f3d_flags>
0

> <s_epik_input>
W0NIM11bQ0hdKFtDSDNdKVtDSDJdW0NAQEhdMUMoPU8pW05IXVtDSDJdW0NIMl1OMWMobltjSF1uMiljKGMyMyluW2NIXW4zW0NIMl1bQ0BAXTQoW09IXSlbQ0gyXVtDSDJdT1tDQEhdNFtDSDNd

> <s_epik_cmdline>
J2VwaWtfcHl0aG9uJywgJy1waCcsICc3LjAnLCAnLXRuJywgJzgnLCAnLW1hJywgJzIwMCcsICctbWV0YWxfYmluZGluZycsICctaW1hZScsICc8aW5maWxlLm1hZT4nLCAnLW9tYWUnLCAnPG91dGZpbGUubWFlPic=

> <r_lp_tautomer_probability>
1

> <r_epik_Ionization_Penalty>
0.000670584

> <r_epik_Ionization_Penalty_Charging>
0

> <r_epik_Ionization_Penalty_Neutral>
0.000670584

> <r_epik_State_Penalty>
0.000304767

> <r_epik_Charging_Adjusted_Penalty>
0.000304767

> <i_epik_Tot_Q>
0

> <i_epik_Tot_abs_Q>
0

> <r_epik_Metal_State_Penalty>
-0

> <b_epik_Metal_Only>
0

> <s_lp_Force_Field>
OPLS_2005

> <r_lp_Energy>
45.2633

> <b_lp_Chiralities_Consistent>
1

> <s_lp_Variant>
AV-unprocessed.smi:171-8

> <Gold.Version>
5.8.1

> <Gold.Id.Protein>
6NUR|6NUR_protein|mol2

> <Gold.PLP.Fitness>
38.7039

> <Gold.PLP.PLP>
-33.2437

> <Gold.PLP.part.hbond>
-3.0000

> <Gold.PLP.part.metal>
0.0000

> <Gold.PLP.part.buried>
-4.4513

> <Gold.PLP.part.nonpolar>
-27.8212

> <Gold.PLP.part.repulsive>
2.5754

> <Gold.PLP.ligand.clash>
0.0000

> <Gold.PLP.ligand.torsion>
1.1415

> <Gold.PLP.Chemscore.Hbond>
2.2122

> <Gold.PLP.Chemscore.CHOScore>
0.2410

> <Gold.PLP.Chemscore.Metal>
0.0000

> <Gold.Chemscore.Hbonds>
donor molecule, donor type, donor heavy atom, donor atom, acceptor molecule, acceptor atom, score
      L1  H     8    39       P1  7957  0.19
      L1  H    23    48       P1  7948  1.00
      P1  H  7989  7998       L1     7  1.00
      L1  C    19    45       P1  7957  0.23

> <Gold.PLP.Chemscore.Internal.Correction>
0.3837

> <Gold.Rescore>
     Score         DG    S(hbond)    S(metal)    S(lipo)     H(rot)  DE(clash)    DE(int)     intcor
      7.89     -14.64       2.64        0.00      60.12       2.61       0.63       6.13       ----

> <Gold.Chemscore.Fitness>
7.8907

> <Gold.Chemscore.DG>
-14.6449

> <Gold.Chemscore.ZeroCoef>
-5.4800

> <Gold.Chemscore.Hbond>
2.6365

> <Gold.Chemscore.Metal>
0.0000

> <Gold.Chemscore.Lipo>
60.1182

> <Gold.Chemscore.Internal_Hbond>
0.0000

> <Gold.Chemscore.DEClash>
0.6251

> <Gold.Chemscore.DEInternal>
6.1291

> <Gold.Chemscore.Rot>
2.6074

> <Gold.Chemscore.Internal.Correction>
   9.000000E+99

> <Gold.Chemscore.Hbonds>
donor molecule, donor type, donor heavy atom, donor atom, acceptor molecule, acceptor atom, score
      L1  H     8    39       P1  7957  0.18
      L1  H    23    48       P1  7948  1.00
      P1  H  7989  7998       L1     7  0.99

> <Gold.Chemscore.Hbond.Weighted>
-8.8059

> <Gold.Chemscore.Metal.Weighted>
-0.0000

> <Gold.Chemscore.Lipo.Weighted>
-7.0338

> <Gold.Chemscore.Internal_Hbond.Weighted>
0.0000

> <Gold.Chemscore.DEClash.Weighted>
0.6251

> <Gold.Chemscore.DEInternal.Weighted>
6.1291

> <Gold.Chemscore.Rot.Weighted>
6.6748

> <Gold.Chemscore.Internal.Correction.Weighted>
   9.000000E+99

> <Gold.Protein.RotatedTorsions>
[ 6907 6896 6895 6894 ] final -100.59 input  -60.11 | X-H torsion
[ 7974 7965 7964 7962 ] final -143.50 input  175.53 | X-H torsion
[ 8008 7997 7996 7995 ] final -128.06 input   59.86 | X-H torsion
[ 10167 10162 10161 10158 ] final -178.34 input  -65.29 | X-H torsion
[ 10718 10713 10712 10709 ] final -115.06 input   66.30 | X-H torsion
[ 10763 10752 10751 10750 ] final   68.41 input  -60.55 | X-H torsion
[ 11005 11000 10999 10996 ] final  -83.79 input  -57.11 | X-H torsion

> <Gold.Protein.ActiveResidues>
 VAL166  LYS551  ARG553  GLY616  TRP617  ASP618  TYR619  PRO620  LYS621  CYS622 
 ASP623  PHE694  ASN695  SER759  ASP760  ASP761  ALA762  ILE779  LEU786  VAL792 
 PHE793  MET794  SER795  GLU796  ALA797  LYS798  CYS799  TRP800  GLU811  SER814 

> <Gold.Protein.RotatedAtoms>
  150.7122  134.0864  159.3915 H   0  0  0  0  0  0  0  0  0  0  0  0  # atno 6907 bound_to 6896
  151.8849  135.0437  160.0501 H   0  0  0  0  0  0  0  0  0  0  0  0  # atno 6908 bound_to 6896
  152.2538  133.5203  159.5378 H   0  0  0  0  0  0  0  0  0  0  0  0  # atno 6909 bound_to 6896
  144.8365  140.5827  143.5480 H   0  0  0  0  0  0  0  0  0  0  0  0  # atno 7974 bound_to 7965
  155.2564  140.0434  157.2992 H   0  0  0  0  0  0  0  0  0  0  0  0  # atno 8008 bound_to 7997
  154.5737  140.2381  155.8123 H   0  0  0  0  0  0  0  0  0  0  0  0  # atno 8009 bound_to 7997
  156.2142  140.2990  155.9809 H   0  0  0  0  0  0  0  0  0  0  0  0  # atno 8010 bound_to 7997
  139.5437  144.2294  152.0946 H   0  0  0  0  0  0  0  0  0  0  0  0  # atno 10167 bound_to 10162
  156.0871  130.6060  150.8856 H   0  0  0  0  0  0  0  0  0  0  0  0  # atno 10718 bound_to 10713
  153.0234  135.5248  154.7130 H   0  0  0  0  0  0  0  0  0  0  0  0  # atno 10763 bound_to 10752
  154.6207  135.2888  155.0331 H   0  0  0  0  0  0  0  0  0  0  0  0  # atno 10764 bound_to 10752
  154.1319  135.6591  153.4976 H   0  0  0  0  0  0  0  0  0  0  0  0  # atno 10765 bound_to 10752
  141.1655  133.7312  156.8772 H   0  0  0  0  0  0  0  0  0  0  0  0  # atno 11005 bound_to 11000
  145.4784  139.1497  143.3775 LP  0  0  0  0  0  0  0  0  0  0  0  0  # atno 17320 bound_to 7965
  146.2663  140.4919  142.8833 LP  0  0  0  0  0  0  0  0  0  0  0  0  # atno 17321 bound_to 7965
  140.1776  144.4875  150.6545 LP  0  0  0  0  0  0  0  0  0  0  0  0  # atno 17342 bound_to 10162
  140.6677  143.2274  151.5703 LP  0  0  0  0  0  0  0  0  0  0  0  0  # atno 17343 bound_to 10162
  157.6008  131.0941  150.8963 LP  0  0  0  0  0  0  0  0  0  0  0  0  # atno 17370 bound_to 10713
  156.9120  130.5284  149.5280 LP  0  0  0  0  0  0  0  0  0  0  0  0  # atno 17371 bound_to 10713
  140.1740  134.9080  157.2868 LP  0  0  0  0  0  0  0  0  0  0  0  0  # atno 17394 bound_to 11000
  140.2470  134.3728  155.7457 LP  0  0  0  0  0  0  0  0  0  0  0  0  # atno 17395 bound_to 11000

$$$$
