#       Name:                AV-unprocessed.smi:1954
#       Creating user name   scv26
#       Creation time:       Fri Mar 27 10:05:24 2020


#       File generated by GOLD software.
#

@<TRIPOS>MOLECULE
AV-unprocessed.smi:1954
    50    52     1
SMALL
NO_CHARGES


@<TRIPOS>ATOM
      1 ****        -0.6064   2.2216  -1.2784 O.2            1 S1                 0.0000
      2 ****        -1.0038   1.0569  -1.2534 C.2            1 S1                 0.0000
      3 ****        -0.1846  -0.0045  -1.2621 N.am           1 S1                 0.0000
      4 ****         1.2766   0.0500  -1.3174 C.3            1 S1                 0.0000
      5 ****         1.9622  -0.1178   0.0768 C.3            1 S1                 0.0000
      6 ****         1.3173  -1.2741   0.8042 N.4            1 S1                 1.0000
      7 ****         1.6270  -2.6112   0.2233 C.3            1 S1                 0.0000
      8 ****         0.7873  -3.7089   0.8922 C.3            1 S1                 0.0000
      9 ****         1.0557  -3.7129   2.2859 O.3            1 S1                 0.0000
     10 ****         0.6714  -2.4877   2.8913 C.3            1 S1                 0.0000
     11 ****         1.4679  -1.3172   2.2863 C.3            1 S1                 0.0000
     12 ****         3.4872  -0.3083  -0.1090 C.3            1 S1                 0.0000
     13 ****         4.1026   1.0281  -0.5498 C.3            1 S1                 0.0000
     14 ****         3.0932   2.3650   0.1366 S.3            1 S1                 0.0000
     15 ****         1.8869   1.2238   0.8553 C.3            1 S1                 0.0000
     16 ****        -2.2928   0.6758  -1.2267 N.am           1 S1                 0.0000
     17 ****        -3.4527   1.4951  -1.2499 C.ar           1 S1                 0.0000
     18 ****        -3.4606   2.7564  -0.6000 C.ar           1 S1                 0.0000
     19 ****        -4.6339   3.5350  -0.6189 C.ar           1 S1                 0.0000
     20 ****        -5.7721   3.0319  -1.2732 C.ar           1 S1                 0.0000
     21 ****        -5.6842   1.7635  -1.8748 C.ar           1 S1                 0.0000
     22 ****        -4.5617   1.0134  -1.8574 N.ar           1 S1                 0.0000
     23 ****        -0.6048  -0.9225  -1.2622 H              1 S1                 0.0000
     24 ****         1.5930  -0.7464  -1.9902 H              1 S1                 0.0000
     25 ****         1.5969   0.9643  -1.8181 H              1 S1                 0.0000
     26 ****         1.4299  -2.6288  -0.8472 H              1 S1                 0.0000
     27 ****         2.6839  -2.8439   0.3581 H              1 S1                 0.0000
     28 ****        -0.2776  -3.5581   0.7069 H              1 S1                 0.0000
     29 ****         1.0479  -4.6840   0.4805 H              1 S1                 0.0000
     30 ****        -0.4014  -2.3310   2.7664 H              1 S1                 0.0000
     31 ****         0.8578  -2.5518   3.9635 H              1 S1                 0.0000
     32 ****         2.5217  -1.4006   2.5543 H              1 S1                 0.0000
     33 ****         1.0764  -0.4119   2.7470 H              1 S1                 0.0000
     34 ****         3.9410  -0.6007   0.8386 H              1 S1                 0.0000
     35 ****         3.7276  -1.0934  -0.8267 H              1 S1                 0.0000
     36 ****         5.1401   1.1211  -0.2278 H              1 S1                 0.0000
     37 ****         4.0875   1.1142  -1.6366 H              1 S1                 0.0000
     38 ****         0.8899   1.6607   0.8872 H              1 S1                 0.0000
     39 ****         2.2276   1.1224   1.8836 H              1 S1                 0.0000
     40 ****        -2.4665  -0.3145  -1.3144 H              1 S1                 0.0000
     41 ****        -2.5936   3.1341  -0.0796 H              1 S1                 0.0000
     42 ****        -4.6605   4.4994  -0.1337 H              1 S1                 0.0000
     43 ****        -6.6899   3.6001  -1.3076 H              1 S1                 0.0000
     44 ****        -6.5378   1.3377  -2.3809 H              1 S1                 0.0000
     45 ****         0.3270  -1.1384   0.6588 H              1 S1                 0.0000
     46 ****         0.3744   2.4147  -1.3069 LP             1 S1                 0.0000
     47 ****        -1.2643   2.9746  -1.2702 LP             1 S1                 0.0000
     48 ****         2.0357  -3.8527   2.4280 LP             1 S1                 0.0000
     49 ****         0.5470  -4.4605   2.7130 LP             1 S1                 0.0000
     50 ****        -4.5500   0.1113  -2.2889 LP             1 S1                 0.0000
@<TRIPOS>BOND
    1    1    2 2     
    2    2    3 am    
    3    2   16 am    
    4    3    4 1     
    5    3   23 1     
    6    4    5 1     
    7    4   24 1     
    8    4   25 1     
    9    5   15 1     
   10    5    6 1     
   11    5   12 1     
   12    6   11 1     
   13    6    7 1     
   14    6   45 1     
   15    7    8 1     
   16    7   26 1     
   17    7   27 1     
   18    8    9 1     
   19    8   28 1     
   20    8   29 1     
   21    9   10 1     
   22   10   11 1     
   23   10   30 1     
   24   10   31 1     
   25   11   32 1     
   26   11   33 1     
   27   12   13 1     
   28   12   34 1     
   29   12   35 1     
   30   13   14 1     
   31   13   36 1     
   32   13   37 1     
   33   14   15 1     
   34   15   38 1     
   35   15   39 1     
   36   16   17 1     
   37   16   40 1     
   38   17   22 ar    
   39   17   18 ar    
   40   18   19 ar    
   41   18   41 1     
   42   19   20 ar    
   43   19   42 1     
   44   20   21 ar    
   45   20   43 1     
   46   21   22 ar    
   47   21   44 1     
   48    1   46 1     
   49    1   47 1     
   50    9   48 1     
   51    9   49 1     
   52   22   50 1     
@<TRIPOS>SUBSTRUCTURE
      1 S1             1
@<TRIPOS>SET
LONE_PAIRS      STATIC     ATOMS    <user>   **** ""
5 46 47 48 49 50
DONOR_HYDROGENS      STATIC     ATOMS    <user>   **** ""
3 23 45 40
ATOM$BLUE        STATIC     ATOMS    COLORGROUP SYSTEM
5 46 47 48 49 50
ATOM$RED        STATIC     ATOMS    COLORGROUP SYSTEM
3 23 45 40
