AV-unprocessed.smi:1419|AV-procd|sdf|5777|dock7
  -GOLD-   22720 5423D 1   1.00000     0.00000
 Structure written by MMmdl.
 42 43  0  0  0  0  0  0  0  0  2 V2000
  153.8357  140.2881  160.3474 C   0  0  0  0  0  0  0  0  0  0  0  0
  152.9175  141.1170  159.4351 C   0  0  1  0  0  0  0  0  0  0  0  0
  153.4314  142.5556  159.2085 C   0  0  0  0  0  0  0  0  0  0  0  0
  152.3510  143.5152  158.9653 N   0  0  0  0  0  0  0  0  0  0  0  0
  152.0732  144.6586  159.6699 C   0  0  0  0  0  0  0  0  0  0  0  0
  150.9788  145.2290  159.0724 C   0  0  0  0  0  0  0  0  0  0  0  0
  150.6370  144.4117  158.0282 N   0  3  0  0  0  0  0  0  0  0  0  0
  151.4742  143.3714  157.9634 C   0  0  0  0  0  0  0  0  0  0  0  0
  152.7657  140.4301  158.1562 N   0  0  0  0  0  0  0  0  0  0  0  0
  152.2966  139.1809  157.9915 C   0  0  0  0  0  0  0  0  0  0  0  0
  151.9600  138.4776  158.9451 O   0  0  0  0  0  0  0  0  0  0  0  0
  152.2341  138.7657  156.7023 N   0  0  0  0  0  0  0  0  0  0  0  0
  152.1601  139.6141  155.5048 C   0  0  0  0  0  0  0  0  0  0  0  0
  150.7471  139.5005  154.8954 C   0  0  2  0  0  0  0  0  0  0  0  0
  149.6482  140.1786  155.7336 C   0  0  0  0  0  0  0  0  0  0  0  0
  150.4395  138.1254  154.6438 O   0  0  0  0  0  0  0  0  0  0  0  0
  150.5857  137.2408  155.7583 C   0  0  1  0  0  0  0  0  0  0  0  0
  150.2814  135.8185  155.2761 C   0  0  0  0  0  0  0  0  0  0  0  0
  152.0101  137.3668  156.3335 C   0  0  0  0  0  0  0  0  0  0  0  0
  153.9025  140.7196  161.3461 H   0  0  0  0  0  0  0  0  0  0  0  0
  154.8463  140.2264  159.9423 H   0  0  0  0  0  0  0  0  0  0  0  0
  153.4604  139.2702  160.4602 H   0  0  0  0  0  0  0  0  0  0  0  0
  151.9383  141.1653  159.9157 H   0  0  0  0  0  0  0  0  0  0  0  0
  153.9988  142.9012  160.0739 H   0  0  0  0  0  0  0  0  0  0  0  0
  154.1062  142.5994  158.3522 H   0  0  0  0  0  0  0  0  0  0  0  0
  152.6582  144.9716  160.5228 H   0  0  0  0  0  0  0  0  0  0  0  0
  150.4324  146.1316  159.3053 H   0  0  0  0  0  0  0  0  0  0  0  0
  151.4471  142.5716  157.2445 H   0  0  0  0  0  0  0  0  0  0  0  0
  153.0314  140.9441  157.3286 H   0  0  0  0  0  0  0  0  0  0  0  0
  152.4074  140.6608  155.6816 H   0  0  0  0  0  0  0  0  0  0  0  0
  152.8989  139.2643  154.7822 H   0  0  0  0  0  0  0  0  0  0  0  0
  150.7604  139.9952  153.9238 H   0  0  0  0  0  0  0  0  0  0  0  0
  149.8524  141.2431  155.8492 H   0  0  0  0  0  0  0  0  0  0  0  0
  149.5636  139.7538  156.7333 H   0  0  0  0  0  0  0  0  0  0  0  0
  148.6767  140.0802  155.2488 H   0  0  0  0  0  0  0  0  0  0  0  0
  149.8573  137.5012  156.5269 H   0  0  0  0  0  0  0  0  0  0  0  0
  150.3662  135.1003  156.0919 H   0  0  0  0  0  0  0  0  0  0  0  0
  150.9700  135.5128  154.4878 H   0  0  0  0  0  0  0  0  0  0  0  0
  149.2686  135.7509  154.8783 H   0  0  0  0  0  0  0  0  0  0  0  0
  152.7493  137.0635  155.5906 H   0  0  0  0  0  0  0  0  0  0  0  0
  152.1363  136.6852  157.1758 H   0  0  0  0  0  0  0  0  0  0  0  0
  149.8637  144.5699  157.3941 H   0  0  0  0  0  0  0  0  0  0  0  0
  1  2  1  0  0  0  0
  1 20  1  0  0  0  0
  1 21  1  0  0  0  0
  1 22  1  0  0  0  0
  2  3  1  0  0  0  0
  2  9  1  0  0  0  0
  2 23  1  0  0  0  0
  3  4  1  0  0  0  0
  3 24  1  0  0  0  0
  3 25  1  0  0  0  0
  4  8  1  0  0  0  0
  4  5  1  0  0  0  0
  5  6  2  0  0  0  0
  5 26  1  0  0  0  0
  6  7  1  0  0  0  0
  6 27  1  0  0  0  0
  7  8  2  0  0  0  0
  7 42  1  0  0  0  0
  8 28  1  0  0  0  0
  9 10  1  0  0  0  0
  9 29  1  0  0  0  0
 10 11  2  0  0  0  0
 10 12  1  0  0  0  0
 12 19  1  0  0  0  0
 12 13  1  0  0  0  0
 13 14  1  0  0  0  0
 13 30  1  0  0  0  0
 13 31  1  0  0  0  0
 14 15  1  0  0  0  0
 14 16  1  0  0  0  0
 14 32  1  0  0  0  0
 15 33  1  0  0  0  0
 15 34  1  0  0  0  0
 15 35  1  0  0  0  0
 16 17  1  0  0  0  0
 17 18  1  0  0  0  0
 17 19  1  0  0  0  0
 17 36  1  0  0  0  0
 18 37  1  0  0  0  0
 18 38  1  0  0  0  0
 18 39  1  0  0  0  0
 19 40  1  0  0  0  0
 19 41  1  0  0  0  0
M  CHG  1   7   1
M  END
> <s_m_source_file>
AV-unprocessed.smi

> <i_m_source_file_index>
1419

> <i_lp_mmshare_version>
43012

> <i_f3d_flags>
0

> <s_epik_input>
W2NIXTFuW2NIXVtjSF1uMVtDSDJdW0NAQEhdKFtDSDNdKVtOSF1DKD1PKU4yW0NIMl1bQ0BASF0oW0NIM10pT1tDQEBIXShbQ0gzXSlbQ0gyXTI=

> <s_epik_cmdline>
J2VwaWtfcHl0aG9uJywgJy1waCcsICc3LjAnLCAnLXRuJywgJzgnLCAnLW1hJywgJzIwMCcsICctbWV0YWxfYmluZGluZycsICctaW1hZScsICc8aW5maWxlLm1hZT4nLCAnLW9tYWUnLCAnPG91dGZpbGUubWFlPic=

> <r_lp_tautomer_probability>
1

> <r_epik_Ionization_Penalty>
0.253607

> <r_epik_Ionization_Penalty_Charging>
0

> <r_epik_Ionization_Penalty_Neutral>
0.253607

> <r_epik_State_Penalty>
0.245018

> <r_epik_Charging_Adjusted_Penalty>
0.245018

> <i_epik_Tot_Q>
1

> <i_epik_Tot_abs_Q>
1

> <r_epik_Metal_State_Penalty>
0.535379

> <b_epik_Metal_Only>
0

> <s_lp_Force_Field>
OPLS_2005

> <r_lp_Energy>
32.5002

> <b_lp_Chiralities_Consistent>
1

> <s_lp_Variant>
AV-unprocessed.smi:1419-4

> <Gold.Version>
5.8.1

> <Gold.Id.Protein>
6NUR|6NUR_protein|mol2

> <Gold.PLP.Fitness>
42.7839

> <Gold.PLP.PLP>
-37.7284

> <Gold.PLP.part.hbond>
-1.1216

> <Gold.PLP.part.metal>
0.0000

> <Gold.PLP.part.buried>
-4.1721

> <Gold.PLP.part.nonpolar>
-32.4925

> <Gold.PLP.part.repulsive>
0.6083

> <Gold.PLP.ligand.clash>
0.0000

> <Gold.PLP.ligand.torsion>
0.4956

> <Gold.PLP.Chemscore.Hbond>
2.0000

> <Gold.PLP.Chemscore.CHOScore>
0.0000

> <Gold.PLP.Chemscore.Metal>
0.0000

> <Gold.Chemscore.Hbonds>
donor molecule, donor type, donor heavy atom, donor atom, acceptor molecule, acceptor atom, score
      L1  H     7    42       P1  8028  1.70

> <Gold.PLP.Chemscore.Internal.Correction>
0.0466

> <Gold.Rescore>
     Score         DG    S(hbond)    S(metal)    S(lipo)     H(rot)  DE(clash)    DE(int)     intcor
     13.44     -14.85       0.98        0.00      87.82       1.63       0.05       1.37       ----

> <Gold.Chemscore.Fitness>
13.4398

> <Gold.Chemscore.DG>
-14.8534

> <Gold.Chemscore.ZeroCoef>
-5.4800

> <Gold.Chemscore.Hbond>
0.9772

> <Gold.Chemscore.Metal>
0.0000

> <Gold.Chemscore.Lipo>
87.8223

> <Gold.Chemscore.Internal_Hbond>
0.0000

> <Gold.Chemscore.DEClash>
0.0485

> <Gold.Chemscore.DEInternal>
1.3650

> <Gold.Chemscore.Rot>
1.6273

> <Gold.Chemscore.Internal.Correction>
   9.000000E+99

> <Gold.Chemscore.Hbonds>
donor molecule, donor type, donor heavy atom, donor atom, acceptor molecule, acceptor atom, score
      L1  H     7    42       P1  8028  0.14

> <Gold.Chemscore.Hbond.Weighted>
-3.2640

> <Gold.Chemscore.Metal.Weighted>
-0.0000

> <Gold.Chemscore.Lipo.Weighted>
-10.2752

> <Gold.Chemscore.Internal_Hbond.Weighted>
0.0000

> <Gold.Chemscore.DEClash.Weighted>
0.0485

> <Gold.Chemscore.DEInternal.Weighted>
1.3650

> <Gold.Chemscore.Rot.Weighted>
4.1658

> <Gold.Chemscore.Internal.Correction.Weighted>
   9.000000E+99

> <Gold.Protein.RotatedTorsions>
[ 6907 6896 6895 6894 ] final -129.45 input  -60.11 | X-H torsion
[ 7974 7965 7964 7962 ] final -130.32 input  175.53 | X-H torsion
[ 8008 7997 7996 7995 ] final -102.14 input   59.86 | X-H torsion
[ 10167 10162 10161 10158 ] final  -61.56 input  -65.29 | X-H torsion
[ 10718 10713 10712 10709 ] final  129.30 input   66.30 | X-H torsion
[ 10763 10752 10751 10750 ] final  159.88 input  -60.55 | X-H torsion
[ 11005 11000 10999 10996 ] final -105.12 input  -57.11 | X-H torsion

> <Gold.Protein.ActiveResidues>
 VAL166  LYS551  ARG553  GLY616  TRP617  ASP618  TYR619  PRO620  LYS621  CYS622 
 ASP623  PHE694  ASN695  SER759  ASP760  ASP761  ALA762  ILE779  LEU786  VAL792 
 PHE793  MET794  SER795  GLU796  ALA797  LYS798  CYS799  TRP800  GLU811  SER814 

> <Gold.Protein.RotatedAtoms>
  150.9289  133.6790  159.2814 H   0  0  0  0  0  0  0  0  0  0  0  0  # atno 6907 bound_to 6896
  151.4219  135.0997  159.9626 H   0  0  0  0  0  0  0  0  0  0  0  0  # atno 6908 bound_to 6896
  152.5016  133.8739  159.7367 H   0  0  0  0  0  0  0  0  0  0  0  0  # atno 6909 bound_to 6896
  144.9486  140.7319  143.4802 H   0  0  0  0  0  0  0  0  0  0  0  0  # atno 7974 bound_to 7965
  154.8524  140.0430  157.1613 H   0  0  0  0  0  0  0  0  0  0  0  0  # atno 8008 bound_to 7997
  154.8928  140.2989  155.5341 H   0  0  0  0  0  0  0  0  0  0  0  0  # atno 8009 bound_to 7997
  156.2996  140.2390  156.3946 H   0  0  0  0  0  0  0  0  0  0  0  0  # atno 8010 bound_to 7997
  140.5998  143.2359  151.5954 H   0  0  0  0  0  0  0  0  0  0  0  0  # atno 10167 bound_to 10162
  157.5167  131.1097  150.9214 H   0  0  0  0  0  0  0  0  0  0  0  0  # atno 10718 bound_to 10713
  154.2386  135.2775  155.2862 H   0  0  0  0  0  0  0  0  0  0  0  0  # atno 10763 bound_to 10752
  154.5564  135.5660  153.6971 H   0  0  0  0  0  0  0  0  0  0  0  0  # atno 10764 bound_to 10752
  153.0004  135.6287  154.2530 H   0  0  0  0  0  0  0  0  0  0  0  0  # atno 10765 bound_to 10752
  141.1068  133.8781  157.1695 H   0  0  0  0  0  0  0  0  0  0  0  0  # atno 11005 bound_to 11000
  145.2879  139.1894  143.4756 LP  0  0  0  0  0  0  0  0  0  0  0  0  # atno 17320 bound_to 7965
  146.3312  140.2851  142.8612 LP  0  0  0  0  0  0  0  0  0  0  0  0  # atno 17321 bound_to 7965
  139.5283  144.2992  152.1088 LP  0  0  0  0  0  0  0  0  0  0  0  0  # atno 17342 bound_to 10162
  140.2171  144.4504  150.6359 LP  0  0  0  0  0  0  0  0  0  0  0  0  # atno 17343 bound_to 10162
  156.9838  130.5537  149.5298 LP  0  0  0  0  0  0  0  0  0  0  0  0  # atno 17370 bound_to 10713
  156.0325  130.5415  150.8570 LP  0  0  0  0  0  0  0  0  0  0  0  0  # atno 17371 bound_to 10713
  139.9943  135.0053  157.0046 LP  0  0  0  0  0  0  0  0  0  0  0  0  # atno 17394 bound_to 11000
  140.4880  134.1222  155.7228 LP  0  0  0  0  0  0  0  0  0  0  0  0  # atno 17395 bound_to 11000

$$$$
