AV-unprocessed.smi:2892|AV-procd|sdf|11119|dock5
  -GOLD-   2272015593D 1   1.00000     0.00000
 Structure written by MMmdl.
 42 42  0  0  0  0  0  0  0  0  2 V2000
  154.9556  138.8050  162.1568 C   0  0  0  0  0  0  0  0  0  0  0  0
  154.3651  138.1422  160.9032 C   0  0  0  0  0  0  0  0  0  0  0  0
  155.0025  138.6098  159.5673 C   0  0  1  0  0  0  0  0  0  0  0  0
  156.4392  138.0546  159.4378 C   0  0  0  0  0  0  0  0  0  0  0  0
  154.1415  138.2250  158.3234 C   0  0  2  0  0  0  0  0  0  0  0  0
  152.7917  138.7667  158.4830 N   0  0  0  0  0  0  0  0  0  0  0  0
  151.7606  138.5857  157.6408 C   0  0  0  0  0  0  0  0  0  0  0  0
  151.8568  137.9922  156.5667 O   0  0  0  0  0  0  0  0  0  0  0  0
  150.4133  139.1740  158.0708 C   0  0  0  0  0  0  0  0  0  0  0  0
  150.4978  140.6748  158.1802 C   0  0  0  0  0  0  0  0  0  0  0  0
  149.7345  141.6491  157.4754 C   0  0  0  0  0  0  0  0  0  0  0  0
  150.2414  142.8401  157.9082 C   0  0  0  0  0  0  0  0  0  0  0  0
  151.2277  142.5581  158.8316 N   0  0  0  0  0  0  0  0  0  0  0  0
  152.0997  143.4773  159.5469 C   0  0  0  0  0  0  0  0  0  0  0  0
  152.7761  144.4676  158.5861 C   0  0  0  0  0  0  0  0  0  0  0  0
  153.1226  142.7012  160.3897 C   0  0  0  0  0  0  0  0  0  0  0  0
  151.3823  141.2271  158.9983 N   0  0  0  0  0  0  0  0  0  0  0  0
  154.0158  136.6940  158.1982 C   0  0  0  0  0  0  0  0  0  0  0  0
  154.3613  136.1844  157.1099 O   0  0  0  0  0  0  0  0  0  0  0  0
  153.5834  136.0610  159.1883 O   0  5  0  0  0  0  0  0  0  0  0  0
  154.3881  138.5190  163.0425 H   0  0  0  0  0  0  0  0  0  0  0  0
  154.9218  139.8921  162.0807 H   0  0  0  0  0  0  0  0  0  0  0  0
  155.9895  138.5079  162.3281 H   0  0  0  0  0  0  0  0  0  0  0  0
  154.4447  137.0582  160.9907 H   0  0  0  0  0  0  0  0  0  0  0  0
  153.2980  138.3613  160.9127 H   0  0  0  0  0  0  0  0  0  0  0  0
  155.0792  139.6982  159.6017 H   0  0  0  0  0  0  0  0  0  0  0  0
  156.4379  136.9647  159.4050 H   0  0  0  0  0  0  0  0  0  0  0  0
  157.0700  138.3614  160.2707 H   0  0  0  0  0  0  0  0  0  0  0  0
  156.9370  138.4106  158.5361 H   0  0  0  0  0  0  0  0  0  0  0  0
  154.6043  138.6307  157.4213 H   0  0  0  0  0  0  0  0  0  0  0  0
  152.6102  139.2599  159.3447 H   0  0  0  0  0  0  0  0  0  0  0  0
  149.6562  138.8862  157.3409 H   0  0  0  0  0  0  0  0  0  0  0  0
  150.1106  138.7362  159.0232 H   0  0  0  0  0  0  0  0  0  0  0  0
  148.9531  141.4950  156.7465 H   0  0  0  0  0  0  0  0  0  0  0  0
  149.9892  143.8534  157.6330 H   0  0  0  0  0  0  0  0  0  0  0  0
  151.4792  144.0593  160.2311 H   0  0  0  0  0  0  0  0  0  0  0  0
  153.3691  145.1987  159.1358 H   0  0  0  0  0  0  0  0  0  0  0  0
  152.0359  145.0160  158.0028 H   0  0  0  0  0  0  0  0  0  0  0  0
  153.4429  143.9599  157.8885 H   0  0  0  0  0  0  0  0  0  0  0  0
  153.7452  143.3792  160.9737 H   0  0  0  0  0  0  0  0  0  0  0  0
  153.7816  142.1005  159.7622 H   0  0  0  0  0  0  0  0  0  0  0  0
  152.6242  142.0274  161.0877 H   0  0  0  0  0  0  0  0  0  0  0  0
  1  2  1  0  0  0  0
  1 21  1  0  0  0  0
  1 22  1  0  0  0  0
  1 23  1  0  0  0  0
  2  3  1  0  0  0  0
  2 24  1  0  0  0  0
  2 25  1  0  0  0  0
  3  4  1  0  0  0  0
  3  5  1  0  0  0  0
  3 26  1  0  0  0  0
  4 27  1  0  0  0  0
  4 28  1  0  0  0  0
  4 29  1  0  0  0  0
  5  6  1  0  0  0  0
  5 18  1  0  0  0  0
  5 30  1  0  0  0  0
  6  7  1  0  0  0  0
  6 31  1  0  0  0  0
  7  8  2  0  0  0  0
  7  9  1  0  0  0  0
  9 10  1  0  0  0  0
  9 32  1  0  0  0  0
  9 33  1  0  0  0  0
 10 17  2  0  0  0  0
 10 11  1  0  0  0  0
 11 12  2  0  0  0  0
 11 34  1  0  0  0  0
 12 13  1  0  0  0  0
 12 35  1  0  0  0  0
 13 14  1  0  0  0  0
 13 17  1  0  0  0  0
 14 15  1  0  0  0  0
 14 16  1  0  0  0  0
 14 36  1  0  0  0  0
 15 37  1  0  0  0  0
 15 38  1  0  0  0  0
 15 39  1  0  0  0  0
 16 40  1  0  0  0  0
 16 41  1  0  0  0  0
 16 42  1  0  0  0  0
 18 19  2  0  0  0  0
 18 20  1  0  0  0  0
M  CHG  1  20  -1
M  END
> <s_m_source_file>
AV-unprocessed.smi

> <i_m_source_file_index>
2892

> <i_lp_mmshare_version>
43012

> <i_f3d_flags>
0

> <s_epik_input>
W0NIM11bQ0gyXVtDQEhdKFtDSDNdKVtDQEBIXShDKD1PKVtPSF0pW05IXUMoPU8pW0NIMl1jMVtjSF1bY0hdbihuMSlbQ0hdKFtDSDNdKVtDSDNd

> <s_epik_cmdline>
J2VwaWtfcHl0aG9uJywgJy1waCcsICc3LjAnLCAnLXRuJywgJzgnLCAnLW1hJywgJzIwMCcsICctbWV0YWxfYmluZGluZycsICctaW1hZScsICc8aW5maWxlLm1hZT4nLCAnLW9tYWUnLCAnPG91dGZpbGUubWFlPic=

> <r_lp_tautomer_probability>
1

> <r_epik_Ionization_Penalty>
0.000286846

> <r_epik_Ionization_Penalty_Charging>
0.000224481

> <r_epik_Ionization_Penalty_Neutral>
6.23655e-05

> <r_epik_State_Penalty>
-0

> <r_epik_Charging_Adjusted_Penalty>
0.000224481

> <i_epik_Tot_Q>
-1

> <i_epik_Tot_abs_Q>
1

> <r_epik_Metal_State_Penalty>
-0

> <b_epik_Metal_Only>
0

> <s_lp_Force_Field>
OPLS_2005

> <r_lp_Energy>
14.4899

> <b_lp_Chiralities_Consistent>
1

> <s_lp_Variant>
AV-unprocessed.smi:2892-2

> <Gold.Version>
5.8.1

> <Gold.Id.Protein>
6NUR|6NUR_protein|mol2

> <Gold.PLP.Fitness>
43.2424

> <Gold.PLP.PLP>
-28.5907

> <Gold.PLP.part.hbond>
-2.0000

> <Gold.PLP.part.metal>
0.0000

> <Gold.PLP.part.buried>
-3.7275

> <Gold.PLP.part.nonpolar>
-22.5322

> <Gold.PLP.part.repulsive>
0.0780

> <Gold.PLP.ligand.clash>
0.0000

> <Gold.PLP.ligand.torsion>
0.2486

> <Gold.PLP.Chemscore.Hbond>
4.0000

> <Gold.PLP.Chemscore.CHOScore>
1.0000

> <Gold.PLP.Chemscore.Metal>
0.0000

> <Gold.Chemscore.Hbonds>
donor molecule, donor type, donor heavy atom, donor atom, acceptor molecule, acceptor atom, score
      P1  H  6896  6907       L1    20  2.00
      P1  H 10752 10765       L1    19  2.00
      L1  C    12    35       P1  8028  1.00

> <Gold.PLP.Chemscore.Internal.Correction>
0.1490

> <Gold.Rescore>
     Score         DG    S(hbond)    S(metal)    S(lipo)     H(rot)  DE(clash)    DE(int)     intcor
     13.14     -15.06       1.97        0.00      77.92       2.39       0.01       1.91       ----

> <Gold.Chemscore.Fitness>
13.1385

> <Gold.Chemscore.DG>
-15.0577

> <Gold.Chemscore.ZeroCoef>
-5.4800

> <Gold.Chemscore.Hbond>
1.9672

> <Gold.Chemscore.Metal>
0.0000

> <Gold.Chemscore.Lipo>
77.9190

> <Gold.Chemscore.Internal_Hbond>
0.0000

> <Gold.Chemscore.DEClash>
0.0089

> <Gold.Chemscore.DEInternal>
1.9103

> <Gold.Chemscore.Rot>
2.3865

> <Gold.Chemscore.Internal.Correction>
   9.000000E+99

> <Gold.Chemscore.Hbonds>
donor molecule, donor type, donor heavy atom, donor atom, acceptor molecule, acceptor atom, score
      P1  H  6896  6907       L1    20  0.93
      P1  H 10752 10765       L1    19  0.96

> <Gold.Chemscore.Hbond.Weighted>
-6.5706

> <Gold.Chemscore.Metal.Weighted>
-0.0000

> <Gold.Chemscore.Lipo.Weighted>
-9.1165

> <Gold.Chemscore.Internal_Hbond.Weighted>
0.0000

> <Gold.Chemscore.DEClash.Weighted>
0.0089

> <Gold.Chemscore.DEInternal.Weighted>
1.9103

> <Gold.Chemscore.Rot.Weighted>
6.1093

> <Gold.Chemscore.Internal.Correction.Weighted>
   9.000000E+99

> <Gold.Protein.RotatedTorsions>
[ 6907 6896 6895 6894 ] final   46.04 input  -60.11 | X-H torsion
[ 7974 7965 7964 7962 ] final    2.78 input  175.53 | X-H torsion
[ 8008 7997 7996 7995 ] final  130.57 input   59.86 | X-H torsion
[ 10167 10162 10161 10158 ] final  149.01 input  -65.29 | X-H torsion
[ 10718 10713 10712 10709 ] final -162.00 input   66.30 | X-H torsion
[ 10763 10752 10751 10750 ] final  -79.12 input  -60.55 | X-H torsion
[ 11005 11000 10999 10996 ] final   34.01 input  -57.11 | X-H torsion

> <Gold.Protein.ActiveResidues>
 VAL166  LYS551  ARG553  GLY616  TRP617  ASP618  TYR619  PRO620  LYS621  CYS622 
 ASP623  PHE694  ASN695  SER759  ASP760  ASP761  ALA762  ILE779  LEU786  VAL792 
 PHE793  MET794  SER795  GLU796  ALA797  LYS798  CYS799  TRP800  GLU811  SER814 

> <Gold.Protein.RotatedAtoms>
  152.2517  134.8125  160.0444 H   0  0  0  0  0  0  0  0  0  0  0  0  # atno 6907 bound_to 6896
  151.8803  133.3489  159.3772 H   0  0  0  0  0  0  0  0  0  0  0  0  # atno 6908 bound_to 6896
  150.7086  134.4951  159.5579 H   0  0  0  0  0  0  0  0  0  0  0  0  # atno 6909 bound_to 6896
  146.2444  140.0784  142.8358 H   0  0  0  0  0  0  0  0  0  0  0  0  # atno 7974 bound_to 7965
  156.2956  140.2593  156.2783 H   0  0  0  0  0  0  0  0  0  0  0  0  # atno 8008 bound_to 7997
  154.9627  140.0392  157.2216 H   0  0  0  0  0  0  0  0  0  0  0  0  # atno 8009 bound_to 7997
  154.7932  140.2815  155.5981 H   0  0  0  0  0  0  0  0  0  0  0  0  # atno 8010 bound_to 7997
  139.4867  144.5635  151.7188 H   0  0  0  0  0  0  0  0  0  0  0  0  # atno 10167 bound_to 10162
  156.6041  130.8823  151.2921 H   0  0  0  0  0  0  0  0  0  0  0  0  # atno 10718 bound_to 10713
  154.5346  135.5706  153.6788 H   0  0  0  0  0  0  0  0  0  0  0  0  # atno 10763 bound_to 10752
  152.9948  135.6213  154.2583 H   0  0  0  0  0  0  0  0  0  0  0  0  # atno 10764 bound_to 10752
  154.2511  135.2859  155.2796 H   0  0  0  0  0  0  0  0  0  0  0  0  # atno 10765 bound_to 10752
  140.2572  134.3234  155.7870 H   0  0  0  0  0  0  0  0  0  0  0  0  # atno 11005 bound_to 11000
  145.0755  140.9185  143.4857 LP  0  0  0  0  0  0  0  0  0  0  0  0  # atno 17320 bound_to 7965
  145.0926  139.2879  143.5727 LP  0  0  0  0  0  0  0  0  0  0  0  0  # atno 17321 bound_to 7965
  140.5209  144.0881  150.6022 LP  0  0  0  0  0  0  0  0  0  0  0  0  # atno 17342 bound_to 10162
  140.3838  143.2788  152.0139 LP  0  0  0  0  0  0  0  0  0  0  0  0  # atno 17343 bound_to 10162
  157.7271  130.9639  150.1687 LP  0  0  0  0  0  0  0  0  0  0  0  0  # atno 17370 bound_to 10713
  156.2444  130.3694  149.8301 LP  0  0  0  0  0  0  0  0  0  0  0  0  # atno 17371 bound_to 10713
  141.2195  133.7388  156.9130 LP  0  0  0  0  0  0  0  0  0  0  0  0  # atno 17394 bound_to 11000
  140.1500  134.9236  157.2580 LP  0  0  0  0  0  0  0  0  0  0  0  0  # atno 17395 bound_to 11000

$$$$
