#       Name:                AV-unprocessed.smi:2324
#       Creating user name   scv26
#       Creation time:       Fri Mar 27 12:51:40 2020


#       File generated by GOLD software.
#

@<TRIPOS>MOLECULE
AV-unprocessed.smi:2324
    43    45     1
SMALL
NO_CHARGES


@<TRIPOS>ATOM
      1 ****        -1.3304   2.1275  -0.5911 O.2            1 S1                 0.0000
      2 ****        -1.7202   1.0587  -0.1239 C.2            1 S1                 0.0000
      3 ****        -3.0370   0.7662  -0.0661 N.am           1 S1                 0.0000
      4 ****        -4.1890   1.5036  -0.4680 C.ar           1 S1                 0.0000
      5 ****        -5.4185   0.8525  -0.2299 C.ar           1 S1                 0.0000
      6 ****        -6.6061   1.5078  -0.5972 C.ar           1 S1                 0.0000
      7 ****        -6.4844   2.7794  -1.1825 C.ar           1 S1                 0.0000
      8 ****        -5.2874   3.3675  -1.3931 N.ar           1 S1                 0.0000
      9 ****        -4.1625   2.7366  -1.0406 N.ar           1 S1                 0.0000
     10 ****        -0.8789   0.1247   0.3499 N.am           1 S1                 0.0000
     11 ****         0.5760   0.2331   0.3817 C.3            1 S1                 0.0000
     12 ****         1.1458  -0.7123   1.4473 C.3            1 S1                 0.0000
     13 ****         2.6816  -0.6975   1.4187 C.3            1 S1                 0.0000
     14 ****         3.1602  -1.0365   0.1186 O.3            1 S1                 0.0000
     15 ****         2.7216  -0.1795  -0.9373 C.3            1 S1                 0.0000
     16 ****         3.3691   1.1968  -0.8596 C.3            1 S1                 0.0000
     17 ****         3.6261   1.9984  -2.1140 C.3            1 S1                 0.0000
     18 ****         4.7840   1.4105  -1.3434 C.3            1 S1                 0.0000
     19 ****         1.1820  -0.1261  -0.9862 C.3            1 S1                 0.0000
     20 ****        -3.2424  -0.1379   0.3336 H              1 S1                 0.0000
     21 ****        -5.4545  -0.1276   0.2233 H              1 S1                 0.0000
     22 ****        -7.5726   1.0533  -0.4371 H              1 S1                 0.0000
     23 ****        -7.3592   3.3340  -1.4878 H              1 S1                 0.0000
     24 ****        -1.2799  -0.7278   0.7153 H              1 S1                 0.0000
     25 ****         0.8494   1.2560   0.6461 H              1 S1                 0.0000
     26 ****         0.7886  -0.4271   2.4375 H              1 S1                 0.0000
     27 ****         0.7936  -1.7294   1.2693 H              1 S1                 0.0000
     28 ****         3.0666   0.2738   1.7297 H              1 S1                 0.0000
     29 ****         3.0715  -1.4253   2.1303 H              1 S1                 0.0000
     30 ****         3.0647  -0.6428  -1.8631 H              1 S1                 0.0000
     31 ****         3.0774   1.7831   0.0087 H              1 S1                 0.0000
     32 ****         3.3736   1.5417  -3.0689 H              1 S1                 0.0000
     33 ****         3.4781   3.0748  -2.0587 H              1 S1                 0.0000
     34 ****         5.4103   2.0948  -0.7747 H              1 S1                 0.0000
     35 ****         5.3025   0.5624  -1.7861 H              1 S1                 0.0000
     36 ****         0.8097  -1.1035  -1.2967 H              1 S1                 0.0000
     37 ****         0.8563   0.5812  -1.7499 H              1 S1                 0.0000
     38 ****        -1.9920   2.7940  -0.9347 LP             1 S1                 0.0000
     39 ****        -0.3518   2.3302  -0.6273 LP             1 S1                 0.0000
     40 ****        -5.2422   4.2742  -1.8125 LP             1 S1                 0.0000
     41 ****        -3.2816   3.1817  -1.2016 LP             1 S1                 0.0000
     42 ****         2.8545  -1.9653  -0.0904 LP             1 S1                 0.0000
     43 ****         4.1597  -1.0117   0.1414 LP             1 S1                 0.0000
@<TRIPOS>BOND
    1    1    2 2     
    2    2    3 am    
    3    2   10 am    
    4    3    4 1     
    5    3   20 1     
    6    4    9 ar    
    7    4    5 ar    
    8    5    6 ar    
    9    5   21 1     
   10    6    7 ar    
   11    6   22 1     
   12    7    8 ar    
   13    7   23 1     
   14    8    9 ar    
   15   10   11 1     
   16   10   24 1     
   17   11   19 1     
   18   11   12 1     
   19   11   25 1     
   20   12   13 1     
   21   12   26 1     
   22   12   27 1     
   23   13   14 1     
   24   13   28 1     
   25   13   29 1     
   26   14   15 1     
   27   15   16 1     
   28   15   19 1     
   29   15   30 1     
   30   16   18 1     
   31   16   17 1     
   32   16   31 1     
   33   17   18 1     
   34   17   32 1     
   35   17   33 1     
   36   18   34 1     
   37   18   35 1     
   38   19   36 1     
   39   19   37 1     
   40    1   38 1     
   41    1   39 1     
   42    8   40 1     
   43    9   41 1     
   44   14   42 1     
   45   14   43 1     
@<TRIPOS>SUBSTRUCTURE
      1 S1             1
@<TRIPOS>SET
LONE_PAIRS      STATIC     ATOMS    <user>   **** ""
6 38 39 40 41 42 43
DONOR_HYDROGENS      STATIC     ATOMS    <user>   **** ""
2 20 24
ATOM$BLUE        STATIC     ATOMS    COLORGROUP SYSTEM
6 38 39 40 41 42 43
ATOM$RED        STATIC     ATOMS    COLORGROUP SYSTEM
2 20 24
