AV-unprocessed.smi:3275|AV-procd|sdf|12531|dock8
  -GOLD-   2272018443D 1   1.00000     0.00000
 Structure written by MMmdl.
 35 36  0  0  0  0  0  0  0  0  2 V2000
  151.9074  137.3665  154.0200 O   0  0  0  0  0  0  0  0  0  0  0  0
  151.2198  138.4340  154.6357 C   0  0  0  0  0  0  0  0  0  0  0  0
  152.0194  138.9459  155.8382 C   0  0  0  0  0  0  0  0  0  0  0  0
  151.3299  138.5894  157.0273 O   0  0  0  0  0  0  0  0  0  0  0  0
  151.9402  139.0533  158.2246 C   0  0  1  0  0  0  0  0  0  0  0  0
  153.4357  138.6752  158.2745 C   0  0  0  0  0  0  0  0  0  0  0  0
  154.1132  139.3268  159.4912 C   0  0  0  0  0  0  0  0  0  0  0  0
  153.8847  140.8474  159.5046 C   0  0  0  0  0  0  0  0  0  0  0  0
  152.4593  141.1535  159.4171 N   0  0  0  0  0  0  0  0  0  0  0  0
  152.1397  142.4803  159.7575 C   0  0  0  0  0  0  0  0  0  0  0  0
  151.4495  143.3289  158.8557 C   0  0  0  0  0  0  0  0  0  0  0  0
  151.1583  144.6562  159.2295 C   0  0  0  0  0  0  0  0  0  0  0  0
  151.5376  145.1118  160.4416 N   0  3  0  0  0  0  0  0  0  0  0  0
  152.1950  144.3440  161.3358 C   0  0  0  0  0  0  0  0  0  0  0  0
  152.5145  143.0072  161.0212 C   0  0  0  0  0  0  0  0  0  0  0  0
  153.3312  142.0422  162.2016 Cl  0  0  0  0  0  0  0  0  0  0  0  0
  151.7791  140.5838  158.2559 C   0  0  0  0  0  0  0  0  0  0  0  0
  151.4626  137.1468  153.2158 H   0  0  0  0  0  0  0  0  0  0  0  0
  151.0718  139.2312  153.9069 H   0  0  0  0  0  0  0  0  0  0  0  0
  150.2344  138.0899  154.9501 H   0  0  0  0  0  0  0  0  0  0  0  0
  153.0168  138.5035  155.8372 H   0  0  0  0  0  0  0  0  0  0  0  0
  152.1367  140.0275  155.7704 H   0  0  0  0  0  0  0  0  0  0  0  0
  151.4237  138.6367  159.0916 H   0  0  0  0  0  0  0  0  0  0  0  0
  153.5649  137.5945  158.3250 H   0  0  0  0  0  0  0  0  0  0  0  0
  153.9295  139.0074  157.3605 H   0  0  0  0  0  0  0  0  0  0  0  0
  153.7123  138.8911  160.4073 H   0  0  0  0  0  0  0  0  0  0  0  0
  155.1815  139.1097  159.4865 H   0  0  0  0  0  0  0  0  0  0  0  0
  154.3190  141.2764  160.4081 H   0  0  0  0  0  0  0  0  0  0  0  0
  154.3977  141.3083  158.6593 H   0  0  0  0  0  0  0  0  0  0  0  0
  151.1495  142.9816  157.8782 H   0  0  0  0  0  0  0  0  0  0  0  0
  150.6399  145.3626  158.5975 H   0  0  0  0  0  0  0  0  0  0  0  0
  152.4405  144.8173  162.2752 H   0  0  0  0  0  0  0  0  0  0  0  0
  152.1973  141.0107  157.3435 H   0  0  0  0  0  0  0  0  0  0  0  0
  150.7201  140.8444  158.2808 H   0  0  0  0  0  0  0  0  0  0  0  0
  151.3171  146.0759  160.6932 H   0  0  0  0  0  0  0  0  0  0  0  0
  1  2  1  0  0  0  0
  1 18  1  0  0  0  0
  2  3  1  0  0  0  0
  2 19  1  0  0  0  0
  2 20  1  0  0  0  0
  3  4  1  0  0  0  0
  3 21  1  0  0  0  0
  3 22  1  0  0  0  0
  4  5  1  0  0  0  0
  5 17  1  0  0  0  0
  5  6  1  0  0  0  0
  5 23  1  0  0  0  0
  6  7  1  0  0  0  0
  6 24  1  0  0  0  0
  6 25  1  0  0  0  0
  7  8  1  0  0  0  0
  7 26  1  0  0  0  0
  7 27  1  0  0  0  0
  8  9  1  0  0  0  0
  8 28  1  0  0  0  0
  8 29  1  0  0  0  0
  9 10  1  0  0  0  0
  9 17  1  0  0  0  0
 10 15  1  0  0  0  0
 10 11  2  0  0  0  0
 11 12  1  0  0  0  0
 11 30  1  0  0  0  0
 12 13  2  0  0  0  0
 12 31  1  0  0  0  0
 13 14  1  0  0  0  0
 13 35  1  0  0  0  0
 14 15  2  0  0  0  0
 14 32  1  0  0  0  0
 15 16  1  0  0  0  0
 17 33  1  0  0  0  0
 17 34  1  0  0  0  0
M  CHG  1  13   1
M  END
> <s_m_source_file>
AV-unprocessed.smi

> <i_m_source_file_index>
3275

> <i_lp_mmshare_version>
43012

> <i_f3d_flags>
0

> <s_epik_input>
W09IXVtDSDJdW0NIMl1PW0NAQEhdMVtDSDJdW0NIMl1bQ0gyXU4oW0NIMl0xKWMyW2NIXVtjSF1uW2NIXWMyQ2w=

> <s_epik_cmdline>
J2VwaWtfcHl0aG9uJywgJy1waCcsICc3LjAnLCAnLXRuJywgJzgnLCAnLW1hJywgJzIwMCcsICctbWV0YWxfYmluZGluZycsICctaW1hZScsICc8aW5maWxlLm1hZT4nLCAnLW9tYWUnLCAnPG91dGZpbGUubWFlPic=

> <r_lp_tautomer_probability>
1

> <r_epik_Ionization_Penalty>
0.0778579

> <r_epik_Ionization_Penalty_Charging>
0.0778578

> <r_epik_Ionization_Penalty_Neutral>
8.80348e-08

> <r_epik_State_Penalty>
0.0687871

> <r_epik_Charging_Adjusted_Penalty>
0.146645

> <i_epik_Tot_Q>
1

> <i_epik_Tot_abs_Q>
1

> <r_epik_Metal_State_Penalty>
2.85646

> <b_epik_Metal_Only>
0

> <s_lp_Force_Field>
OPLS_2005

> <r_lp_Energy>
26.1135

> <b_lp_Chiralities_Consistent>
1

> <s_lp_Variant>
AV-unprocessed.smi:3275-2

> <Gold.Version>
5.8.1

> <Gold.Id.Protein>
6NUR|6NUR_protein|mol2

> <Gold.PLP.Fitness>
41.8503

> <Gold.PLP.PLP>
-37.2116

> <Gold.PLP.part.hbond>
-2.0447

> <Gold.PLP.part.metal>
0.0000

> <Gold.PLP.part.buried>
-5.8217

> <Gold.PLP.part.nonpolar>
-29.7773

> <Gold.PLP.part.repulsive>
0.1395

> <Gold.PLP.ligand.clash>
0.0000

> <Gold.PLP.ligand.torsion>
0.5813

> <Gold.PLP.Chemscore.Hbond>
1.8288

> <Gold.PLP.Chemscore.CHOScore>
0.0000

> <Gold.PLP.Chemscore.Metal>
0.0000

> <Gold.Chemscore.Hbonds>
donor molecule, donor type, donor heavy atom, donor atom, acceptor molecule, acceptor atom, score
      L1  H     1    18       P1  7949  0.83
      P1  H 10752 10765       L1     1  0.96

> <Gold.PLP.Chemscore.Internal.Correction>
0.3149

> <Gold.Rescore>
     Score         DG    S(hbond)    S(metal)    S(lipo)     H(rot)  DE(clash)    DE(int)     intcor
     16.60     -18.14       1.60        0.00     109.44       2.14       0.01       1.53       ----

> <Gold.Chemscore.Fitness>
16.5978

> <Gold.Chemscore.DG>
-18.1393

> <Gold.Chemscore.ZeroCoef>
-5.4800

> <Gold.Chemscore.Hbond>
1.5969

> <Gold.Chemscore.Metal>
0.0000

> <Gold.Chemscore.Lipo>
109.4355

> <Gold.Chemscore.Internal_Hbond>
0.0000

> <Gold.Chemscore.DEClash>
0.0108

> <Gold.Chemscore.DEInternal>
1.5307

> <Gold.Chemscore.Rot>
2.1400

> <Gold.Chemscore.Internal.Correction>
   9.000000E+99

> <Gold.Chemscore.Hbonds>
donor molecule, donor type, donor heavy atom, donor atom, acceptor molecule, acceptor atom, score
      L1  H     1    18       P1  7949  0.68
      P1  H 10752 10765       L1     1  0.22

> <Gold.Chemscore.Hbond.Weighted>
-5.3337

> <Gold.Chemscore.Metal.Weighted>
-0.0000

> <Gold.Chemscore.Lipo.Weighted>
-12.8040

> <Gold.Chemscore.Internal_Hbond.Weighted>
0.0000

> <Gold.Chemscore.DEClash.Weighted>
0.0108

> <Gold.Chemscore.DEInternal.Weighted>
1.5307

> <Gold.Chemscore.Rot.Weighted>
5.4783

> <Gold.Chemscore.Internal.Correction.Weighted>
   9.000000E+99

> <Gold.Protein.RotatedTorsions>
[ 6907 6896 6895 6894 ] final -105.87 input  -60.11 | X-H torsion
[ 7974 7965 7964 7962 ] final  -87.93 input  175.53 | X-H torsion
[ 8008 7997 7996 7995 ] final  -33.75 input   59.86 | X-H torsion
[ 10167 10162 10161 10158 ] final  -33.67 input  -65.29 | X-H torsion
[ 10718 10713 10712 10709 ] final   68.66 input   66.30 | X-H torsion
[ 10763 10752 10751 10750 ] final  162.93 input  -60.55 | X-H torsion
[ 11005 11000 10999 10996 ] final  131.38 input  -57.11 | X-H torsion

> <Gold.Protein.ActiveResidues>
 VAL166  LYS551  ARG553  GLY616  TRP617  ASP618  TYR619  PRO620  LYS621  CYS622 
 ASP623  PHE694  ASN695  SER759  ASP760  ASP761  ALA762  ILE779  LEU786  VAL792 
 PHE793  MET794  SER795  GLU796  ALA797  LYS798  CYS799  TRP800  GLU811  SER814 

> <Gold.Protein.RotatedAtoms>
  150.7359  134.0062  159.3654 H   0  0  0  0  0  0  0  0  0  0  0  0  # atno 6907 bound_to 6896
  151.8019  135.0704  160.0411 H   0  0  0  0  0  0  0  0  0  0  0  0  # atno 6908 bound_to 6896
  152.3135  133.5741  159.5732 H   0  0  0  0  0  0  0  0  0  0  0  0  # atno 6909 bound_to 6896
  145.4600  140.9561  143.1975 H   0  0  0  0  0  0  0  0  0  0  0  0  # atno 7974 bound_to 7965
  154.4140  140.1702  156.1939 H   0  0  0  0  0  0  0  0  0  0  0  0  # atno 8008 bound_to 7997
  155.9580  140.3395  155.6442 H   0  0  0  0  0  0  0  0  0  0  0  0  # atno 8009 bound_to 7997
  155.6785  140.0720  157.2484 H   0  0  0  0  0  0  0  0  0  0  0  0  # atno 8010 bound_to 7997
  140.7200  143.3603  151.1976 H   0  0  0  0  0  0  0  0  0  0  0  0  # atno 10167 bound_to 10162
  157.6302  130.9385  150.0407 H   0  0  0  0  0  0  0  0  0  0  0  0  # atno 10718 bound_to 10713
  154.2859  135.2762  155.2676 H   0  0  0  0  0  0  0  0  0  0  0  0  # atno 10763 bound_to 10752
  154.5177  135.5765  153.6659 H   0  0  0  0  0  0  0  0  0  0  0  0  # atno 10764 bound_to 10752
  152.9922  135.6196  154.3021 H   0  0  0  0  0  0  0  0  0  0  0  0  # atno 10765 bound_to 10752
  139.9727  134.9572  156.9431 H   0  0  0  0  0  0  0  0  0  0  0  0  # atno 11005 bound_to 11000
  144.8009  139.6143  143.7072 LP  0  0  0  0  0  0  0  0  0  0  0  0  # atno 17320 bound_to 7965
  146.2456  139.6092  142.9462 LP  0  0  0  0  0  0  0  0  0  0  0  0  # atno 17321 bound_to 7965
  139.7154  143.9309  152.2964 LP  0  0  0  0  0  0  0  0  0  0  0  0  # atno 17342 bound_to 10162
  139.9048  144.6891  150.8626 LP  0  0  0  0  0  0  0  0  0  0  0  0  # atno 17343 bound_to 10162
  156.1500  130.3642  149.9453 LP  0  0  0  0  0  0  0  0  0  0  0  0  # atno 17370 bound_to 10713
  156.7474  130.9102  151.3635 LP  0  0  0  0  0  0  0  0  0  0  0  0  # atno 17371 bound_to 10713
  140.5259  134.0861  155.7303 LP  0  0  0  0  0  0  0  0  0  0  0  0  # atno 17394 bound_to 11000
  141.1406  133.9145  157.2334 LP  0  0  0  0  0  0  0  0  0  0  0  0  # atno 17395 bound_to 11000

$$$$
