AV-unprocessed.smi:36|AV-procd|sdf|288|dock3
  -GOLD-   2262016 73D 1   1.00000     0.00000
 Structure written by MMmdl.
 64 67  0  0  0  0  0  0  0  0  1 V2000
  145.1490  134.0159  162.9437 C   0  0  0  0  0  0  0  0  0  0  0  0
  146.0084  134.3081  161.7026 C   0  0  0  0  0  0  0  0  0  0  0  0
  147.2012  133.3389  161.6518 C   0  0  0  0  0  0  0  0  0  0  0  0
  145.1599  134.1514  160.4294 C   0  0  0  0  0  0  0  0  0  0  0  0
  146.6635  136.1003  161.7927 Si  0  0  0  0  0  0  0  0  0  0  0  0
  145.2429  137.3318  162.0750 C   0  0  0  0  0  0  0  0  0  0  0  0
  147.9597  136.2923  163.1682 C   0  0  0  0  0  0  0  0  0  0  0  0
  147.4063  136.4551  160.3149 O   0  0  0  0  0  0  0  0  0  0  0  0
  148.3526  135.6085  159.6984 C   0  0  0  0  0  0  0  0  0  0  0  0
  147.7198  134.9788  158.4414 C   0  0  1  0  0  0  0  0  0  0  0  0
  147.5005  135.9948  157.4643 O   0  0  0  0  0  0  0  0  0  0  0  0
  148.5845  136.0852  156.5821 C   0  0  1  0  0  0  0  0  0  0  0  0
  149.2720  137.3987  156.7956 N   0  0  0  0  0  0  0  0  0  0  0  0
  149.1458  138.5260  156.0674 C   0  0  0  0  0  0  0  0  0  0  0  0
  149.8935  139.5515  156.4664 N   0  0  0  0  0  0  0  0  0  0  0  0
  150.5825  139.0200  157.5509 C   0  0  0  0  0  0  0  0  0  0  0  0
  151.5883  139.6386  158.4411 C   0  0  0  0  0  0  0  0  0  0  0  0
  151.9073  140.8783  158.2215 N   0  0  0  0  0  0  0  0  0  0  0  0
  152.8514  141.5079  159.0222 C   0  0  0  0  0  0  0  0  0  0  0  0
  153.9315  141.0743  159.4323 O   0  0  0  0  0  0  0  0  0  0  0  0
  152.4495  142.8866  159.4336 C   0  0  0  0  0  0  0  0  0  0  0  0
  152.0909  143.8405  158.4578 C   0  0  0  0  0  0  0  0  0  0  0  0
  151.7040  145.1379  158.8471 C   0  0  0  0  0  0  0  0  0  0  0  0
  151.6725  145.4844  160.2118 C   0  0  0  0  0  0  0  0  0  0  0  0
  152.0278  144.5334  161.1881 C   0  0  0  0  0  0  0  0  0  0  0  0
  152.4148  143.2355  160.8005 C   0  0  0  0  0  0  0  0  0  0  0  0
  152.0173  138.7055  159.3939 N   0  0  0  0  0  0  0  0  0  0  0  0
  151.5759  137.3778  159.5031 C   0  0  0  0  0  0  0  0  0  0  0  0
  150.6899  136.8185  158.7232 N   0  0  0  0  0  0  0  0  0  0  0  0
  150.2265  137.7051  157.7612 C   0  0  0  0  0  0  0  0  0  0  0  0
  149.5299  134.9205  156.9057 C   0  0  0  0  0  0  0  0  0  0  0  0
  148.6195  133.9944  157.6856 C   0  0  1  0  0  0  0  0  0  0  0  0
  149.3432  133.1130  158.5202 O   0  0  0  0  0  0  0  0  0  0  0  0
  144.7592  132.9976  162.9245 H   0  0  0  0  0  0  0  0  0  0  0  0
  144.2960  134.6922  163.0043 H   0  0  0  0  0  0  0  0  0  0  0  0
  145.7256  134.1296  163.8621 H   0  0  0  0  0  0  0  0  0  0  0  0
  147.8188  133.4204  162.5465 H   0  0  0  0  0  0  0  0  0  0  0  0
  147.8399  133.5424  160.7915 H   0  0  0  0  0  0  0  0  0  0  0  0
  146.8676  132.3035  161.5768 H   0  0  0  0  0  0  0  0  0  0  0  0
  144.7703  133.1374  160.3341 H   0  0  0  0  0  0  0  0  0  0  0  0
  145.7463  134.3634  159.5348 H   0  0  0  0  0  0  0  0  0  0  0  0
  144.3075  134.8313  160.4318 H   0  0  0  0  0  0  0  0  0  0  0  0
  144.7290  137.1405  163.0165 H   0  0  0  0  0  0  0  0  0  0  0  0
  144.4975  137.2753  161.2829 H   0  0  0  0  0  0  0  0  0  0  0  0
  145.6034  138.3595  162.1076 H   0  0  0  0  0  0  0  0  0  0  0  0
  147.5435  136.0561  164.1472 H   0  0  0  0  0  0  0  0  0  0  0  0
  148.3418  137.3117  163.2158 H   0  0  0  0  0  0  0  0  0  0  0  0
  148.8134  135.6337  163.0097 H   0  0  0  0  0  0  0  0  0  0  0  0
  149.2516  136.1744  159.4569 H   0  0  0  0  0  0  0  0  0  0  0  0
  148.6396  134.8356  160.4115 H   0  0  0  0  0  0  0  0  0  0  0  0
  146.7731  134.5090  158.7100 H   0  0  0  0  0  0  0  0  0  0  0  0
  148.2434  136.1097  155.5466 H   0  0  0  0  0  0  0  0  0  0  0  0
  148.4831  138.6040  155.2186 H   0  0  0  0  0  0  0  0  0  0  0  0
  152.1110  143.5812  157.4091 H   0  0  0  0  0  0  0  0  0  0  0  0
  151.4310  145.8671  158.0987 H   0  0  0  0  0  0  0  0  0  0  0  0
  151.3755  146.4791  160.5098 H   0  0  0  0  0  0  0  0  0  0  0  0
  152.0030  144.7989  162.2347 H   0  0  0  0  0  0  0  0  0  0  0  0
  152.6846  142.5109  161.5553 H   0  0  0  0  0  0  0  0  0  0  0  0
  152.0423  136.8213  160.3173 H   0  0  0  0  0  0  0  0  0  0  0  0
  149.9316  134.4738  155.9959 H   0  0  0  0  0  0  0  0  0  0  0  0
  150.3589  135.2697  157.5240 H   0  0  0  0  0  0  0  0  0  0  0  0
  148.0149  133.4104  156.9902 H   0  0  0  0  0  0  0  0  0  0  0  0
  149.1278  132.2255  158.2774 H   0  0  0  0  0  0  0  0  0  0  0  0
  152.7073  139.0179  160.0616 H   0  0  0  0  0  0  0  0  0  0  0  0
  1  2  1  0  0  0  0
  1 34  1  0  0  0  0
  1 35  1  0  0  0  0
  1 36  1  0  0  0  0
  2  3  1  0  0  0  0
  2  4  1  0  0  0  0
  2  5  1  0  0  0  0
  3 37  1  0  0  0  0
  3 38  1  0  0  0  0
  3 39  1  0  0  0  0
  4 40  1  0  0  0  0
  4 41  1  0  0  0  0
  4 42  1  0  0  0  0
  5  6  1  0  0  0  0
  5  7  1  0  0  0  0
  5  8  1  0  0  0  0
  6 43  1  0  0  0  0
  6 44  1  0  0  0  0
  6 45  1  0  0  0  0
  7 46  1  0  0  0  0
  7 47  1  0  0  0  0
  7 48  1  0  0  0  0
  8  9  1  0  0  0  0
  9 10  1  0  0  0  0
  9 49  1  0  0  0  0
  9 50  1  0  0  0  0
 10 32  1  0  0  0  0
 10 11  1  0  0  0  0
 10 51  1  0  0  0  0
 11 12  1  0  0  0  0
 12 13  1  0  0  0  0
 12 31  1  0  0  0  0
 12 52  1  0  0  0  0
 13 30  1  0  0  0  0
 13 14  1  0  0  0  0
 14 15  2  0  0  0  0
 14 53  1  0  0  0  0
 15 16  1  0  0  0  0
 16 30  2  0  0  0  0
 16 17  1  0  0  0  0
 17 18  2  0  0  0  0
 17 27  1  0  0  0  0
 18 19  1  0  0  0  0
 19 20  2  0  0  0  0
 19 21  1  0  0  0  0
 21 26  1  0  0  0  0
 21 22  2  0  0  0  0
 22 23  1  0  0  0  0
 22 54  1  0  0  0  0
 23 24  2  0  0  0  0
 23 55  1  0  0  0  0
 24 25  1  0  0  0  0
 24 56  1  0  0  0  0
 25 26  2  0  0  0  0
 25 57  1  0  0  0  0
 26 58  1  0  0  0  0
 27 28  1  0  0  0  0
 27 64  1  0  0  0  0
 28 29  2  0  0  0  0
 28 59  1  0  0  0  0
 29 30  1  0  0  0  0
 31 32  1  0  0  0  0
 31 60  1  0  0  0  0
 31 61  1  0  0  0  0
 32 33  1  0  0  0  0
 32 62  1  0  0  0  0
 33 63  1  0  0  0  0
M  END
> <s_m_source_file>
AV-unprocessed.smi

> <i_m_source_file_index>
36

> <i_lp_mmshare_version>
43012

> <i_f3d_flags>
0

> <s_epik_input>
W0NIM11DKFtDSDNdKShbQ0gzXSlbU2ldKFtDSDNdKShbQ0gzXSlPW0NIMl1bQ0BASF0xT1tDQEhdKFtDSDJdW0NASF0xW09IXSluKFtjSF1uMiljKGMyMyluW2NIXW5jM1tOSF1DKD1PKWM0W2NIXVtjSF1bY0hdW2NIXVtjSF00

> <s_epik_cmdline>
J2VwaWtfcHl0aG9uJywgJy1waCcsICc3LjAnLCAnLXRuJywgJzgnLCAnLW1hJywgJzIwMCcsICctbWV0YWxfYmluZGluZycsICctaW1hZScsICc8aW5maWxlLm1hZT4nLCAnLW9tYWUnLCAnPG91dGZpbGUubWFlPic=

> <r_epik_Ionization_Penalty>
0.0850405

> <r_epik_Ionization_Penalty_Charging>
0.0850403

> <r_epik_Ionization_Penalty_Neutral>
1.47497e-07

> <r_epik_State_Penalty>
2.6133

> <r_epik_Charging_Adjusted_Penalty>
2.69834

> <i_epik_Tot_Q>
0

> <i_epik_Tot_abs_Q>
0

> <r_epik_Metal_State_Penalty>
2.92945

> <b_epik_Metal_Only>
0

> <s_epik_Chemistry_Notes>
This compound contains an acetal/aminal-like group ( X-CH(R)-Y where X, Y are N, S, or O) that may be acid/base labile, releasing an aldehyde.

> <s_lp_Force_Field>
OPLS_2005

> <r_lp_Energy>
49.0467

> <b_lp_Chiralities_Consistent>
1

> <s_lp_Variant>
AV-unprocessed.smi:36-10

> <Gold.Version>
5.8.1

> <Gold.Id.Protein>
6NUR|6NUR_protein|mol2

> <Gold.PLP.Fitness>
51.5840

> <Gold.PLP.PLP>
-53.3163

> <Gold.PLP.part.hbond>
-1.7240

> <Gold.PLP.part.metal>
0.0000

> <Gold.PLP.part.buried>
-7.1505

> <Gold.PLP.part.nonpolar>
-43.4361

> <Gold.PLP.part.repulsive>
0.1197

> <Gold.PLP.ligand.clash>
0.0000

> <Gold.PLP.ligand.torsion>
2.6161

> <Gold.PLP.Chemscore.Hbond>
1.0000

> <Gold.PLP.Chemscore.CHOScore>
0.0000

> <Gold.PLP.Chemscore.Metal>
0.0000

> <Gold.Chemscore.Hbonds>
donor molecule, donor type, donor heavy atom, donor atom, acceptor molecule, acceptor atom, score
      P1  H  6896  6907       L1    33  1.00

> <Gold.PLP.Chemscore.Internal.Correction>
0.4999

> <Gold.Rescore>
     Score         DG    S(hbond)    S(metal)    S(lipo)     H(rot)  DE(clash)    DE(int)     intcor
     11.75     -16.67       0.96        0.00     127.48       2.70       0.02       4.90       ----

> <Gold.Chemscore.Fitness>
11.7532

> <Gold.Chemscore.DG>
-16.6712

> <Gold.Chemscore.ZeroCoef>
-5.4800

> <Gold.Chemscore.Hbond>
0.9576

> <Gold.Chemscore.Metal>
0.0000

> <Gold.Chemscore.Lipo>
127.4805

> <Gold.Chemscore.Internal_Hbond>
0.0000

> <Gold.Chemscore.DEClash>
0.0210

> <Gold.Chemscore.DEInternal>
4.8970

> <Gold.Chemscore.Rot>
2.7041

> <Gold.Chemscore.Internal.Correction>
   9.000000E+99

> <Gold.Chemscore.Hbonds>
donor molecule, donor type, donor heavy atom, donor atom, acceptor molecule, acceptor atom, score
      P1  H  6896  6907       L1    33  0.93

> <Gold.Chemscore.Hbond.Weighted>
-3.1985

> <Gold.Chemscore.Metal.Weighted>
-0.0000

> <Gold.Chemscore.Lipo.Weighted>
-14.9152

> <Gold.Chemscore.Internal_Hbond.Weighted>
0.0000

> <Gold.Chemscore.DEClash.Weighted>
0.0210

> <Gold.Chemscore.DEInternal.Weighted>
4.8970

> <Gold.Chemscore.Rot.Weighted>
6.9225

> <Gold.Chemscore.Internal.Correction.Weighted>
   9.000000E+99

> <Gold.Protein.RotatedTorsions>
[ 6907 6896 6895 6894 ] final -120.62 input  -60.11 | X-H torsion
[ 7974 7965 7964 7962 ] final  -98.24 input  175.53 | X-H torsion
[ 8008 7997 7996 7995 ] final    8.78 input   59.86 | X-H torsion
[ 10167 10162 10161 10158 ] final   72.32 input  -65.29 | X-H torsion
[ 10718 10713 10712 10709 ] final  129.38 input   66.30 | X-H torsion
[ 10763 10752 10751 10750 ] final  -18.53 input  -60.55 | X-H torsion
[ 11005 11000 10999 10996 ] final   88.82 input  -57.11 | X-H torsion

> <Gold.Protein.ActiveResidues>
 VAL166  LYS551  ARG553  GLY616  TRP617  ASP618  TYR619  PRO620  LYS621  CYS622 
 ASP623  PHE694  ASN695  SER759  ASP760  ASP761  ALA762  ILE779  LEU786  VAL792 
 PHE793  MET794  SER795  GLU796  ALA797  LYS798  CYS799  TRP800  GLU811  SER814 

> <Gold.Protein.RotatedAtoms>
  150.8410  133.7937  159.3060 H   0  0  0  0  0  0  0  0  0  0  0  0  # atno 6907 bound_to 6896
  151.5638  135.1063  159.9988 H   0  0  0  0  0  0  0  0  0  0  0  0  # atno 6908 bound_to 6896
  152.4473  133.7519  159.6755 H   0  0  0  0  0  0  0  0  0  0  0  0  # atno 6909 bound_to 6896
  145.3232  140.9426  143.2703 H   0  0  0  0  0  0  0  0  0  0  0  0  # atno 7974 bound_to 7965
  154.7713  140.2802  155.6135 H   0  0  0  0  0  0  0  0  0  0  0  0  # atno 8008 bound_to 7997
  156.2934  140.2641  156.2444 H   0  0  0  0  0  0  0  0  0  0  0  0  # atno 8009 bound_to 7997
  154.9896  140.0374  157.2303 H   0  0  0  0  0  0  0  0  0  0  0  0  # atno 8010 bound_to 7997
  140.0365  144.5424  150.7467 H   0  0  0  0  0  0  0  0  0  0  0  0  # atno 10167 bound_to 10162
  157.5159  131.1097  150.9225 H   0  0  0  0  0  0  0  0  0  0  0  0  # atno 10718 bound_to 10713
  153.5907  135.7002  153.5424 H   0  0  0  0  0  0  0  0  0  0  0  0  # atno 10763 bound_to 10752
  153.3180  135.4082  155.1393 H   0  0  0  0  0  0  0  0  0  0  0  0  # atno 10764 bound_to 10752
  154.8601  135.3688  154.5439 H   0  0  0  0  0  0  0  0  0  0  0  0  # atno 10765 bound_to 10752
  139.8888  134.8512  156.3055 H   0  0  0  0  0  0  0  0  0  0  0  0  # atno 11005 bound_to 11000
  144.8922  139.4759  143.6672 LP  0  0  0  0  0  0  0  0  0  0  0  0  # atno 17320 bound_to 7965
  146.3074  139.7627  142.9046 LP  0  0  0  0  0  0  0  0  0  0  0  0  # atno 17321 bound_to 7965
  140.7279  143.2656  151.4056 LP  0  0  0  0  0  0  0  0  0  0  0  0  # atno 17342 bound_to 10162
  139.6042  144.1233  152.2230 LP  0  0  0  0  0  0  0  0  0  0  0  0  # atno 17343 bound_to 10162
  156.9850  130.5541  149.5299 LP  0  0  0  0  0  0  0  0  0  0  0  0  # atno 17370 bound_to 10713
  156.0320  130.5411  150.8559 LP  0  0  0  0  0  0  0  0  0  0  0  0  # atno 17371 bound_to 10713
  140.9885  133.7223  156.0778 LP  0  0  0  0  0  0  0  0  0  0  0  0  # atno 17394 bound_to 11000
  140.7656  134.3890  157.5517 LP  0  0  0  0  0  0  0  0  0  0  0  0  # atno 17395 bound_to 11000

$$$$
