AV-unprocessed.smi:1596|AV-procd|sdf|6417|dock10
  -GOLD-   22720 7 53D 1   1.00000     0.00000
 Structure written by MMmdl.
 49 50  0  0  0  0  0  0  0  0  2 V2000
  151.4825  141.8122  159.5093 C   0  0  0  0  0  0  0  0  0  0  0  0
  152.0918  141.7086  158.1030 C   0  0  0  0  0  0  0  0  0  0  0  0
  151.2078  142.2171  157.0511 N   0  0  0  0  0  0  0  0  0  0  0  0
  150.8653  143.6394  157.0267 C   0  0  0  0  0  0  0  0  0  0  0  0
  151.6116  144.4626  158.0874 C   0  0  0  0  0  0  0  0  0  0  0  0
  150.5520  141.3113  156.1813 C   0  0  0  0  0  0  0  0  0  0  0  0
  151.0300  140.0061  155.9016 C   0  0  0  0  0  0  0  0  0  0  0  0
  150.3156  139.1658  155.0230 C   0  0  0  0  0  0  0  0  0  0  0  0
  149.1195  139.6216  154.4320 C   0  0  0  0  0  0  0  0  0  0  0  0
  148.4405  138.7467  153.5411 N   0  0  0  0  0  0  0  0  0  0  0  0
  147.1164  138.5654  153.3966 C   0  0  0  0  0  0  0  0  0  0  0  0
  146.2464  139.1168  154.0705 O   0  0  0  0  0  0  0  0  0  0  0  0
  146.8500  137.6822  152.4236 N   0  0  0  0  0  0  0  0  0  0  0  0
  145.5149  137.2507  152.0193 C   0  0  2  0  0  0  0  0  0  0  0  0
  144.6485  137.0168  153.2703 C   0  0  0  0  0  0  0  0  0  0  0  0
  143.2419  136.5149  152.8993 C   0  0  0  0  0  0  0  0  0  0  0  0
  143.2866  135.2561  152.0127 C   0  0  2  0  0  0  0  0  0  0  0  0
  143.7414  134.1492  152.7660 O   0  0  0  0  0  0  0  0  0  0  0  0
  144.1883  135.4631  150.7814 C   0  0  0  0  0  0  0  0  0  0  0  0
  145.5901  135.9701  151.1627 C   0  0  0  0  0  0  0  0  0  0  0  0
  148.6861  140.9340  154.7320 C   0  0  0  0  0  0  0  0  0  0  0  0
  149.4035  141.7048  155.5774 N   0  3  0  0  0  0  0  0  0  0  0  0
  152.1624  141.3933  160.2511 H   0  0  0  0  0  0  0  0  0  0  0  0
  150.5416  141.2664  159.5815 H   0  0  0  0  0  0  0  0  0  0  0  0
  151.2929  142.8467  159.7917 H   0  0  0  0  0  0  0  0  0  0  0  0
  153.0266  142.2693  158.0806 H   0  0  0  0  0  0  0  0  0  0  0  0
  152.3719  140.6764  157.8908 H   0  0  0  0  0  0  0  0  0  0  0  0
  151.1038  144.0394  156.0408 H   0  0  0  0  0  0  0  0  0  0  0  0
  149.7882  143.7676  157.1306 H   0  0  0  0  0  0  0  0  0  0  0  0
  151.2959  145.5052  158.0526 H   0  0  0  0  0  0  0  0  0  0  0  0
  152.6882  144.4456  157.9249 H   0  0  0  0  0  0  0  0  0  0  0  0
  151.4192  144.0948  159.0953 H   0  0  0  0  0  0  0  0  0  0  0  0
  151.9404  139.6283  156.3407 H   0  0  0  0  0  0  0  0  0  0  0  0
  150.6863  138.1736  154.8106 H   0  0  0  0  0  0  0  0  0  0  0  0
  149.0330  138.1604  152.9714 H   0  0  0  0  0  0  0  0  0  0  0  0
  147.6264  137.2752  151.9230 H   0  0  0  0  0  0  0  0  0  0  0  0
  145.0517  138.0442  151.4294 H   0  0  0  0  0  0  0  0  0  0  0  0
  145.1318  136.2903  153.9252 H   0  0  0  0  0  0  0  0  0  0  0  0
  144.5655  137.9399  153.8450 H   0  0  0  0  0  0  0  0  0  0  0  0
  142.6624  136.3206  153.8026 H   0  0  0  0  0  0  0  0  0  0  0  0
  142.7146  137.3064  152.3654 H   0  0  0  0  0  0  0  0  0  0  0  0
  142.2757  135.0195  151.6792 H   0  0  0  0  0  0  0  0  0  0  0  0
  144.5210  133.8070  152.3556 H   0  0  0  0  0  0  0  0  0  0  0  0
  144.2670  134.5382  150.2089 H   0  0  0  0  0  0  0  0  0  0  0  0
  143.7200  136.1913  150.1178 H   0  0  0  0  0  0  0  0  0  0  0  0
  146.1650  136.1562  150.2550 H   0  0  0  0  0  0  0  0  0  0  0  0
  146.1239  135.1907  151.7083 H   0  0  0  0  0  0  0  0  0  0  0  0
  147.8055  141.4080  154.3254 H   0  0  0  0  0  0  0  0  0  0  0  0
  149.0591  142.6455  155.7706 H   0  0  0  0  0  0  0  0  0  0  0  0
  1  2  1  0  0  0  0
  1 23  1  0  0  0  0
  1 24  1  0  0  0  0
  1 25  1  0  0  0  0
  2  3  1  0  0  0  0
  2 26  1  0  0  0  0
  2 27  1  0  0  0  0
  3  4  1  0  0  0  0
  3  6  1  0  0  0  0
  4  5  1  0  0  0  0
  4 28  1  0  0  0  0
  4 29  1  0  0  0  0
  5 30  1  0  0  0  0
  5 31  1  0  0  0  0
  5 32  1  0  0  0  0
  6 22  1  0  0  0  0
  6  7  2  0  0  0  0
  7  8  1  0  0  0  0
  7 33  1  0  0  0  0
  8  9  2  0  0  0  0
  8 34  1  0  0  0  0
  9 10  1  0  0  0  0
  9 21  1  0  0  0  0
 10 11  1  0  0  0  0
 10 35  1  0  0  0  0
 11 12  2  0  0  0  0
 11 13  1  0  0  0  0
 13 14  1  0  0  0  0
 13 36  1  0  0  0  0
 14 20  1  0  0  0  0
 14 15  1  0  0  0  0
 14 37  1  0  0  0  0
 15 16  1  0  0  0  0
 15 38  1  0  0  0  0
 15 39  1  0  0  0  0
 16 17  1  0  0  0  0
 16 40  1  0  0  0  0
 16 41  1  0  0  0  0
 17 18  1  0  0  0  0
 17 19  1  0  0  0  0
 17 42  1  0  0  0  0
 18 43  1  0  0  0  0
 19 20  1  0  0  0  0
 19 44  1  0  0  0  0
 19 45  1  0  0  0  0
 20 46  1  0  0  0  0
 20 47  1  0  0  0  0
 21 22  2  0  0  0  0
 21 48  1  0  0  0  0
 22 49  1  0  0  0  0
M  CHG  1  22   1
M  END
> <s_m_source_file>
AV-unprocessed.smi

> <i_m_source_file_index>
1596

> <i_lp_mmshare_version>
43012

> <i_f3d_flags>
0

> <s_epik_input>
W0NIM11bQ0gyXU4oW0NIMl1bQ0gzXSljMVtjSF1bY0hdYyhbY0hdbjEpW05IXUMoPU8pW05IXVtDQEBIXTJbQ0gyXVtDSDJdW0NAQEhdKFtPSF0pW0NIMl1bQ0gyXTI=

> <s_epik_cmdline>
J2VwaWtfcHl0aG9uJywgJy1waCcsICc3LjAnLCAnLXRuJywgJzgnLCAnLW1hJywgJzIwMCcsICctbWV0YWxfYmluZGluZycsICctaW1hZScsICc8aW5maWxlLm1hZT4nLCAnLW9tYWUnLCAnPG91dGZpbGUubWFlPic=

> <r_lp_tautomer_probability>
0.999994

> <r_epik_Ionization_Penalty>
0.224167

> <r_epik_Ionization_Penalty_Charging>
0.224146

> <r_epik_Ionization_Penalty_Neutral>
2.1696e-05

> <r_epik_State_Penalty>
0.0144855

> <r_epik_Charging_Adjusted_Penalty>
0.238631

> <i_epik_Tot_Q>
1

> <i_epik_Tot_abs_Q>
1

> <r_epik_Metal_State_Penalty>
0.0446449

> <b_epik_Metal_Only>
0

> <s_lp_Force_Field>
OPLS_2005

> <r_lp_Energy>
23.6459

> <b_lp_Chiralities_Consistent>
1

> <s_lp_Variant>
AV-unprocessed.smi:1596-2

> <Gold.Version>
5.8.1

> <Gold.Id.Protein>
6NUR|6NUR_protein|mol2

> <Gold.PLP.Fitness>
48.2065

> <Gold.PLP.PLP>
-39.0462

> <Gold.PLP.part.hbond>
-4.1850

> <Gold.PLP.part.metal>
0.0000

> <Gold.PLP.part.buried>
-2.7110

> <Gold.PLP.part.nonpolar>
-33.3543

> <Gold.PLP.part.repulsive>
0.4094

> <Gold.PLP.ligand.clash>
0.0000

> <Gold.PLP.ligand.torsion>
0.8101

> <Gold.PLP.Chemscore.Hbond>
3.5563

> <Gold.PLP.Chemscore.CHOScore>
0.0000

> <Gold.PLP.Chemscore.Metal>
0.0000

> <Gold.Chemscore.Hbonds>
donor molecule, donor type, donor heavy atom, donor atom, acceptor molecule, acceptor atom, score
      L1  H    10    35       P1  7948  0.48
      L1  H    13    36       P1  7948  1.00
      L1  H    22    49       P1  8028  1.76

> <Gold.PLP.Chemscore.Internal.Correction>
0.1115

> <Gold.Rescore>
     Score         DG    S(hbond)    S(metal)    S(lipo)     H(rot)  DE(clash)    DE(int)     intcor
     15.92     -18.79       2.13        0.00      93.12       1.83       0.67       2.19       ----

> <Gold.Chemscore.Fitness>
15.9233

> <Gold.Chemscore.DG>
-18.7882

> <Gold.Chemscore.ZeroCoef>
-5.4800

> <Gold.Chemscore.Hbond>
2.1264

> <Gold.Chemscore.Metal>
0.0000

> <Gold.Chemscore.Lipo>
93.1209

> <Gold.Chemscore.Internal_Hbond>
0.0000

> <Gold.Chemscore.DEClash>
0.6700

> <Gold.Chemscore.DEInternal>
2.1949

> <Gold.Chemscore.Rot>
1.8317

> <Gold.Chemscore.Internal.Correction>
   9.000000E+99

> <Gold.Chemscore.Hbonds>
donor molecule, donor type, donor heavy atom, donor atom, acceptor molecule, acceptor atom, score
      L1  H    10    35       P1  7948  0.47
      L1  H    13    36       P1  7948  0.96
      L1  H    22    49       P1  8028  0.85

> <Gold.Chemscore.Hbond.Weighted>
-7.1022

> <Gold.Chemscore.Metal.Weighted>
-0.0000

> <Gold.Chemscore.Lipo.Weighted>
-10.8951

> <Gold.Chemscore.Internal_Hbond.Weighted>
0.0000

> <Gold.Chemscore.DEClash.Weighted>
0.6700

> <Gold.Chemscore.DEInternal.Weighted>
2.1949

> <Gold.Chemscore.Rot.Weighted>
4.6892

> <Gold.Chemscore.Internal.Correction.Weighted>
   9.000000E+99

> <Gold.Protein.RotatedTorsions>
[ 6907 6896 6895 6894 ] final  -74.00 input  -60.11 | X-H torsion
[ 7974 7965 7964 7962 ] final   51.95 input  175.53 | X-H torsion
[ 8008 7997 7996 7995 ] final  -35.14 input   59.86 | X-H torsion
[ 10167 10162 10161 10158 ] final  -89.37 input  -65.29 | X-H torsion
[ 10718 10713 10712 10709 ] final  -78.08 input   66.30 | X-H torsion
[ 10763 10752 10751 10750 ] final  156.23 input  -60.55 | X-H torsion
[ 11005 11000 10999 10996 ] final  -51.53 input  -57.11 | X-H torsion

> <Gold.Protein.ActiveResidues>
 VAL166  LYS551  ARG553  GLY616  TRP617  ASP618  TYR619  PRO620  LYS621  CYS622 
 ASP623  PHE694  ASN695  SER759  ASP760  ASP761  ALA762  ILE779  LEU786  VAL792 
 PHE793  MET794  SER795  GLU796  ALA797  LYS798  CYS799  TRP800  GLU811  SER814 

> <Gold.Protein.RotatedAtoms>
  150.7109  134.4934  159.5526 H   0  0  0  0  0  0  0  0  0  0  0  0  # atno 6907 bound_to 6896
  152.2547  134.8094  160.0449 H   0  0  0  0  0  0  0  0  0  0  0  0  # atno 6908 bound_to 6896
  151.8829  133.3464  159.3809 H   0  0  0  0  0  0  0  0  0  0  0  0  # atno 6909 bound_to 6896
  145.9863  139.4293  143.0101 H   0  0  0  0  0  0  0  0  0  0  0  0  # atno 7974 bound_to 7965
  154.4103  140.1665  156.2164 H   0  0  0  0  0  0  0  0  0  0  0  0  # atno 8008 bound_to 7997
  155.9401  140.3408  155.6297 H   0  0  0  0  0  0  0  0  0  0  0  0  # atno 8009 bound_to 7997
  155.7000  140.0744  157.2405 H   0  0  0  0  0  0  0  0  0  0  0  0  # atno 8010 bound_to 7997
  140.3655  143.2820  151.9564 H   0  0  0  0  0  0  0  0  0  0  0  0  # atno 10167 bound_to 10162
  156.0127  130.4508  150.3442 H   0  0  0  0  0  0  0  0  0  0  0  0  # atno 10718 bound_to 10713
  154.1810  135.2799  155.3052 H   0  0  0  0  0  0  0  0  0  0  0  0  # atno 10763 bound_to 10752
  154.6002  135.5532  153.7370 H   0  0  0  0  0  0  0  0  0  0  0  0  # atno 10764 bound_to 10752
  153.0138  135.6390  154.1949 H   0  0  0  0  0  0  0  0  0  0  0  0  # atno 10765 bound_to 10752
  141.0876  133.6639  156.3890 H   0  0  0  0  0  0  0  0  0  0  0  0  # atno 11005 bound_to 11000
  145.7696  140.9902  143.1156 LP  0  0  0  0  0  0  0  0  0  0  0  0  # atno 17320 bound_to 7965
  144.6875  139.9431  143.7475 LP  0  0  0  0  0  0  0  0  0  0  0  0  # atno 17321 bound_to 7965
  139.4809  144.5954  151.7698 LP  0  0  0  0  0  0  0  0  0  0  0  0  # atno 17342 bound_to 10162
  140.5085  144.1061  150.5989 LP  0  0  0  0  0  0  0  0  0  0  0  0  # atno 17343 bound_to 10162
  157.1536  131.0327  151.2873 LP  0  0  0  0  0  0  0  0  0  0  0  0  # atno 17370 bound_to 10713
  157.4371  130.7523  149.7038 LP  0  0  0  0  0  0  0  0  0  0  0  0  # atno 17371 bound_to 10713
  140.5328  134.6196  157.5355 LP  0  0  0  0  0  0  0  0  0  0  0  0  # atno 17394 bound_to 11000
  139.9696  134.7315  156.0068 LP  0  0  0  0  0  0  0  0  0  0  0  0  # atno 17395 bound_to 11000

$$$$
