AV-unprocessed.smi:2759|AV-procd|sdf|10627|dock8
  -GOLD-   2272015 73D 1   1.00000     0.00000
 Structure written by MMmdl.
 43 44  0  0  0  0  0  0  0  0  1 V2000
  148.3290  139.6899  153.5715 C   0  0  0  0  0  0  0  0  0  0  0  0
  149.6135  140.0478  154.3421 C   0  0  0  0  0  0  0  0  0  0  0  0
  150.1313  141.4108  153.8425 C   0  0  0  0  0  0  0  0  0  0  0  0
  150.7026  138.9461  154.2417 C   0  0  1  0  0  0  0  0  0  0  0  0
  150.8744  138.6047  152.8780 O   0  0  0  0  0  0  0  0  0  0  0  0
  152.0851  139.3691  154.7862 C   0  0  0  0  0  0  0  0  0  0  0  0
  152.1363  139.4219  156.2788 C   0  0  0  0  0  0  0  0  0  0  0  0
  153.2220  139.3921  157.0477 N   0  0  0  0  0  0  0  0  0  0  0  0
  152.6645  139.4260  158.2903 C   0  0  0  0  0  0  0  0  0  0  0  0
  153.4800  139.4280  159.5459 C   0  0  0  0  0  0  0  0  0  0  0  0
  153.7964  140.8515  160.0204 C   0  0  0  0  0  0  0  0  0  0  0  0
  154.7865  141.0782  160.7176 O   0  0  0  0  0  0  0  0  0  0  0  0
  152.9359  141.8072  159.6362 N   0  0  0  0  0  0  0  0  0  0  0  0
  153.0520  143.2254  159.9670 C   0  0  0  0  0  0  0  0  0  0  0  0
  151.8578  143.6901  160.8229 C   0  0  0  0  0  0  0  0  0  0  0  0
  151.3452  144.9762  160.1724 C   0  0  0  0  0  0  0  0  0  0  0  0
  151.6824  144.8114  158.6941 C   0  0  0  0  0  0  0  0  0  0  0  0
  153.0358  144.1003  158.6978 C   0  0  0  0  0  0  0  0  0  0  0  0
  151.3365  139.4381  158.3282 N   0  0  0  0  0  0  0  0  0  0  0  0
  150.9734  139.4302  156.9738 O   0  0  0  0  0  0  0  0  0  0  0  0
  148.5434  139.4653  152.5262 H   0  0  0  0  0  0  0  0  0  0  0  0
  147.6180  140.5164  153.5915 H   0  0  0  0  0  0  0  0  0  0  0  0
  147.8158  138.8318  154.0033 H   0  0  0  0  0  0  0  0  0  0  0  0
  149.3428  140.1657  155.3927 H   0  0  0  0  0  0  0  0  0  0  0  0
  150.4507  141.3548  152.8014 H   0  0  0  0  0  0  0  0  0  0  0  0
  150.9771  141.7655  154.4316 H   0  0  0  0  0  0  0  0  0  0  0  0
  149.3562  142.1748  153.9098 H   0  0  0  0  0  0  0  0  0  0  0  0
  150.3573  138.0617  154.7793 H   0  0  0  0  0  0  0  0  0  0  0  0
  150.8791  139.3995  152.3661 H   0  0  0  0  0  0  0  0  0  0  0  0
  152.8647  138.6985  154.4221 H   0  0  0  0  0  0  0  0  0  0  0  0
  152.3518  140.3641  154.4348 H   0  0  0  0  0  0  0  0  0  0  0  0
  152.9425  138.8826  160.3232 H   0  0  0  0  0  0  0  0  0  0  0  0
  154.4164  138.8963  159.3746 H   0  0  0  0  0  0  0  0  0  0  0  0
  152.1478  141.5359  159.0663 H   0  0  0  0  0  0  0  0  0  0  0  0
  153.9784  143.4017  160.5171 H   0  0  0  0  0  0  0  0  0  0  0  0
  151.0607  142.9449  160.8116 H   0  0  0  0  0  0  0  0  0  0  0  0
  152.1360  143.8461  161.8658 H   0  0  0  0  0  0  0  0  0  0  0  0
  150.2814  145.1405  160.3463 H   0  0  0  0  0  0  0  0  0  0  0  0
  151.8853  145.8332  160.5770 H   0  0  0  0  0  0  0  0  0  0  0  0
  150.9346  144.1782  158.2147 H   0  0  0  0  0  0  0  0  0  0  0  0
  151.7083  145.7616  158.1597 H   0  0  0  0  0  0  0  0  0  0  0  0
  153.8316  144.8433  158.7654 H   0  0  0  0  0  0  0  0  0  0  0  0
  153.2033  143.5379  157.7781 H   0  0  0  0  0  0  0  0  0  0  0  0
  1  2  1  0  0  0  0
  1 21  1  0  0  0  0
  1 22  1  0  0  0  0
  1 23  1  0  0  0  0
  2  3  1  0  0  0  0
  2  4  1  0  0  0  0
  2 24  1  0  0  0  0
  3 25  1  0  0  0  0
  3 26  1  0  0  0  0
  3 27  1  0  0  0  0
  4  5  1  0  0  0  0
  4  6  1  0  0  0  0
  4 28  1  0  0  0  0
  5 29  1  0  0  0  0
  6  7  1  0  0  0  0
  6 30  1  0  0  0  0
  6 31  1  0  0  0  0
  7 20  1  0  0  0  0
  7  8  2  0  0  0  0
  8  9  1  0  0  0  0
  9 10  1  0  0  0  0
  9 19  2  0  0  0  0
 10 11  1  0  0  0  0
 10 32  1  0  0  0  0
 10 33  1  0  0  0  0
 11 12  2  0  0  0  0
 11 13  1  0  0  0  0
 13 14  1  0  0  0  0
 13 34  1  0  0  0  0
 14 18  1  0  0  0  0
 14 15  1  0  0  0  0
 14 35  1  0  0  0  0
 15 16  1  0  0  0  0
 15 36  1  0  0  0  0
 15 37  1  0  0  0  0
 16 17  1  0  0  0  0
 16 38  1  0  0  0  0
 16 39  1  0  0  0  0
 17 18  1  0  0  0  0
 17 40  1  0  0  0  0
 17 41  1  0  0  0  0
 18 42  1  0  0  0  0
 18 43  1  0  0  0  0
 19 20  1  0  0  0  0
M  END
> <s_m_source_file>
AV-unprocessed.smi

> <i_m_source_file_index>
2759

> <i_lp_mmshare_version>
43012

> <i_f3d_flags>
0

> <s_epik_input>
W0NIM11bQ0hdKFtDSDNdKVtDQEhdKFtPSF0pW0NIMl1jMW5jKG5vMSlbQ0gyXUMoPU8pW05IXVtDSF0yW0NIMl1bQ0gyXVtDSDJdW0NIMl0y

> <s_epik_cmdline>
J2VwaWtfcHl0aG9uJywgJy1waCcsICc3LjAnLCAnLXRuJywgJzgnLCAnLW1hJywgJzIwMCcsICctbWV0YWxfYmluZGluZycsICctaW1hZScsICc8aW5maWxlLm1hZT4nLCAnLW9tYWUnLCAnPG91dGZpbGUubWFlPic=

> <r_lp_tautomer_probability>
1

> <r_epik_Ionization_Penalty>
1.20032e-07

> <r_epik_Ionization_Penalty_Charging>
0

> <r_epik_Ionization_Penalty_Neutral>
1.20032e-07

> <r_epik_State_Penalty>
-0

> <r_epik_Charging_Adjusted_Penalty>
0

> <i_epik_Tot_Q>
0

> <i_epik_Tot_abs_Q>
0

> <r_epik_Metal_State_Penalty>
-0

> <b_epik_Metal_Only>
0

> <s_lp_Force_Field>
OPLS_2005

> <r_lp_Energy>
21.2868

> <b_lp_Chiralities_Consistent>
1

> <s_lp_Variant>
AV-unprocessed.smi:2759-2

> <Gold.Version>
5.8.1

> <Gold.Id.Protein>
6NUR|6NUR_protein|mol2

> <Gold.PLP.Fitness>
47.0260

> <Gold.PLP.PLP>
-43.6255

> <Gold.PLP.part.hbond>
-3.5464

> <Gold.PLP.part.metal>
0.0000

> <Gold.PLP.part.buried>
-5.1700

> <Gold.PLP.part.nonpolar>
-35.1226

> <Gold.PLP.part.repulsive>
0.0762

> <Gold.PLP.ligand.clash>
0.0482

> <Gold.PLP.ligand.torsion>
1.2170

> <Gold.PLP.Chemscore.Hbond>
1.9440

> <Gold.PLP.Chemscore.CHOScore>
0.0000

> <Gold.PLP.Chemscore.Metal>
0.0000

> <Gold.Chemscore.Hbonds>
donor molecule, donor type, donor heavy atom, donor atom, acceptor molecule, acceptor atom, score
      L1  H     5    29       P1  7957  0.40
      P1  H  7997  8008       L1     8  0.68

> <Gold.PLP.Chemscore.Internal.Correction>
0.0507

> <Gold.Rescore>
     Score         DG    S(hbond)    S(metal)    S(lipo)     H(rot)  DE(clash)    DE(int)     intcor
     14.96     -16.21       1.79        0.00      98.75       2.65       0.12       1.13       ----

> <Gold.Chemscore.Fitness>
14.9585

> <Gold.Chemscore.DG>
-16.2084

> <Gold.Chemscore.ZeroCoef>
-5.4800

> <Gold.Chemscore.Hbond>
1.7874

> <Gold.Chemscore.Metal>
0.0000

> <Gold.Chemscore.Lipo>
98.7469

> <Gold.Chemscore.Internal_Hbond>
0.0000

> <Gold.Chemscore.DEClash>
0.1183

> <Gold.Chemscore.DEInternal>
1.1316

> <Gold.Chemscore.Rot>
2.6543

> <Gold.Chemscore.Internal.Correction>
   9.000000E+99

> <Gold.Chemscore.Hbonds>
donor molecule, donor type, donor heavy atom, donor atom, acceptor molecule, acceptor atom, score
      L1  H     5    29       P1  7957  0.03
      P1  H  7997  8008       L1     8  0.65

> <Gold.Chemscore.Hbond.Weighted>
-5.9700

> <Gold.Chemscore.Metal.Weighted>
-0.0000

> <Gold.Chemscore.Lipo.Weighted>
-11.5534

> <Gold.Chemscore.Internal_Hbond.Weighted>
0.0000

> <Gold.Chemscore.DEClash.Weighted>
0.1183

> <Gold.Chemscore.DEInternal.Weighted>
1.1316

> <Gold.Chemscore.Rot.Weighted>
6.7950

> <Gold.Chemscore.Internal.Correction.Weighted>
   9.000000E+99

> <Gold.Protein.RotatedTorsions>
[ 6907 6896 6895 6894 ] final   89.72 input  -60.11 | X-H torsion
[ 7974 7965 7964 7962 ] final -143.55 input  175.53 | X-H torsion
[ 8008 7997 7996 7995 ] final  -60.82 input   59.86 | X-H torsion
[ 10167 10162 10161 10158 ] final   83.73 input  -65.29 | X-H torsion
[ 10718 10713 10712 10709 ] final  134.86 input   66.30 | X-H torsion
[ 10763 10752 10751 10750 ] final -164.99 input  -60.55 | X-H torsion
[ 11005 11000 10999 10996 ] final   -7.65 input  -57.11 | X-H torsion

> <Gold.Protein.ActiveResidues>
 VAL166  LYS551  ARG553  GLY616  TRP617  ASP618  TYR619  PRO620  LYS621  CYS622 
 ASP623  PHE694  ASN695  SER759  ASP760  ASP761  ALA762  ILE779  LEU786  VAL792 
 PHE793  MET794  SER795  GLU796  ALA797  LYS798  CYS799  TRP800  GLU811  SER814 

> <Gold.Protein.RotatedAtoms>
  152.5439  134.1923  159.8678 H   0  0  0  0  0  0  0  0  0  0  0  0  # atno 6907 bound_to 6896
  151.1917  133.4656  159.2602 H   0  0  0  0  0  0  0  0  0  0  0  0  # atno 6908 bound_to 6896
  151.1076  135.0020  159.8534 H   0  0  0  0  0  0  0  0  0  0  0  0  # atno 6909 bound_to 6896
  144.8361  140.5820  143.5483 H   0  0  0  0  0  0  0  0  0  0  0  0  # atno 7974 bound_to 7965
  154.4417  140.1031  156.6333 H   0  0  0  0  0  0  0  0  0  0  0  0  # atno 8008 bound_to 7997
  155.5581  140.3487  155.4466 H   0  0  0  0  0  0  0  0  0  0  0  0  # atno 8009 bound_to 7997
  156.0480  140.1297  157.0071 H   0  0  0  0  0  0  0  0  0  0  0  0  # atno 8010 bound_to 7997
  139.9154  144.6246  150.8494 H   0  0  0  0  0  0  0  0  0  0  0  0  # atno 10167 bound_to 10162
  157.4630  131.1075  150.9897 H   0  0  0  0  0  0  0  0  0  0  0  0  # atno 10718 bound_to 10713
  154.6975  135.2982  154.9390 H   0  0  0  0  0  0  0  0  0  0  0  0  # atno 10763 bound_to 10752
  154.0333  135.6667  153.4787 H   0  0  0  0  0  0  0  0  0  0  0  0  # atno 10764 bound_to 10752
  153.0656  135.5090  154.8100 H   0  0  0  0  0  0  0  0  0  0  0  0  # atno 10765 bound_to 10752
  140.7150  133.8876  155.8778 H   0  0  0  0  0  0  0  0  0  0  0  0  # atno 11005 bound_to 11000
  145.4791  139.1497  143.3771 LP  0  0  0  0  0  0  0  0  0  0  0  0  # atno 17320 bound_to 7965
  146.2660  140.4927  142.8834 LP  0  0  0  0  0  0  0  0  0  0  0  0  # atno 17321 bound_to 7965
  140.7675  143.3335  151.2359 LP  0  0  0  0  0  0  0  0  0  0  0  0  # atno 17342 bound_to 10162
  139.6907  143.9698  152.2857 LP  0  0  0  0  0  0  0  0  0  0  0  0  # atno 17343 bound_to 10162
  157.0688  130.5855  149.5399 LP  0  0  0  0  0  0  0  0  0  0  0  0  # atno 17370 bound_to 10713
  156.0037  130.5121  150.7755 LP  0  0  0  0  0  0  0  0  0  0  0  0  # atno 17371 bound_to 10713
  141.0052  134.1096  157.4277 LP  0  0  0  0  0  0  0  0  0  0  0  0  # atno 17394 bound_to 11000
  139.8862  135.0079  156.6483 LP  0  0  0  0  0  0  0  0  0  0  0  0  # atno 17395 bound_to 11000

$$$$
