AV-unprocessed.smi:743|AV-procd|sdf|3564|dock3
  -GOLD-   22720 0563D 1   1.00000     0.00000
 Structure written by MMmdl.
 28 29  0  0  0  0  0  0  0  0  1 V2000
  141.9220  137.6228  154.7771 C   0  0  0  0  0  0  0  0  0  0  0  0
  142.5160  136.6509  153.8846 N   0  0  0  0  0  0  0  0  0  0  0  0
  143.1360  136.8618  152.6726 C   0  0  0  0  0  0  0  0  0  0  0  0
  143.5337  135.6437  152.1913 C   0  0  0  0  0  0  0  0  0  0  0  0
  144.2547  135.3014  150.9014 C   0  0  2  0  0  0  0  0  0  0  0  0
  143.6730  134.1053  150.2856 N   0  0  0  0  0  0  0  0  0  0  0  0
  144.1458  132.8473  150.3712 C   0  0  0  0  0  0  0  0  0  0  0  0
  143.5170  131.8956  149.9143 O   0  0  0  0  0  0  0  0  0  0  0  0
  145.5246  132.6023  151.0084 C   0  0  0  0  0  0  0  0  0  0  0  0
  146.0733  133.7954  151.8111 C   0  0  0  0  0  0  0  0  0  0  0  0
  145.7807  135.1170  151.0897 C   0  0  2  0  0  0  0  0  0  0  0  0
  146.3959  136.2339  151.7842 N   0  0  0  0  0  0  0  0  0  0  0  0
  143.1050  134.7417  153.2083 C   0  0  0  0  0  0  0  0  0  0  0  0
  142.4982  135.3449  154.2170 N   0  0  0  0  0  0  0  0  0  0  0  0
  146.2447  135.0698  150.1035 H   0  0  0  0  0  0  0  0  0  0  0  0
  141.9996  138.6218  154.3472 H   0  0  0  0  0  0  0  0  0  0  0  0
  142.4399  137.6085  155.7366 H   0  0  0  0  0  0  0  0  0  0  0  0
  140.8692  137.3858  154.9333 H   0  0  0  0  0  0  0  0  0  0  0  0
  143.2381  137.8517  152.2528 H   0  0  0  0  0  0  0  0  0  0  0  0
  144.1060  136.1105  150.1855 H   0  0  0  0  0  0  0  0  0  0  0  0
  142.7860  134.2321  149.8202 H   0  0  0  0  0  0  0  0  0  0  0  0
  145.4823  131.7150  151.6405 H   0  0  0  0  0  0  0  0  0  0  0  0
  146.2150  132.3707  150.1968 H   0  0  0  0  0  0  0  0  0  0  0  0
  145.6350  133.8016  152.8101 H   0  0  0  0  0  0  0  0  0  0  0  0
  147.1479  133.6718  151.9508 H   0  0  0  0  0  0  0  0  0  0  0  0
  147.3997  136.1214  151.7894 H   0  0  0  0  0  0  0  0  0  0  0  0
  146.2030  137.0923  151.2882 H   0  0  0  0  0  0  0  0  0  0  0  0
  143.2162  133.6679  153.2398 H   0  0  0  0  0  0  0  0  0  0  0  0
  1  2  1  0  0  0  0
  1 16  1  0  0  0  0
  1 17  1  0  0  0  0
  1 18  1  0  0  0  0
  2 14  1  0  0  0  0
  2  3  1  0  0  0  0
  3  4  2  0  0  0  0
  3 19  1  0  0  0  0
  4  5  1  0  0  0  0
  4 13  1  0  0  0  0
  5 11  1  0  0  0  0
  5  6  1  0  0  0  0
  5 20  1  0  0  0  0
  6  7  1  0  0  0  0
  6 21  1  0  0  0  0
  7  8  2  0  0  0  0
  7  9  1  0  0  0  0
  9 10  1  0  0  0  0
  9 22  1  0  0  0  0
  9 23  1  0  0  0  0
 10 11  1  0  0  0  0
 10 24  1  0  0  0  0
 10 25  1  0  0  0  0
 11 15  1  0  0  0  0
 11 12  1  0  0  0  0
 12 26  1  0  0  0  0
 12 27  1  0  0  0  0
 13 14  2  0  0  0  0
 13 28  1  0  0  0  0
M  END
> <s_m_source_file>
AV-unprocessed.smi

> <i_m_source_file_index>
743

> <i_lp_mmshare_version>
43012

> <i_f3d_flags>
0

> <s_epik_input>
W0NIM11uMVtjSF1jKFtjSF1uMSlbQ0BASF0yW05IXUMoPU8pW0NIMl1bQ0gyXVtDQEBIXTJbTkgyXQ==

> <s_epik_cmdline>
J2VwaWtfcHl0aG9uJywgJy1waCcsICc3LjAnLCAnLXRuJywgJzgnLCAnLW1hJywgJzIwMCcsICctbWV0YWxfYmluZGluZycsICctaW1hZScsICc8aW5maWxlLm1hZT4nLCAnLW9tYWUnLCAnPG91dGZpbGUubWFlPic=

> <r_lp_tautomer_probability>
1

> <r_epik_Ionization_Penalty>
2.50279

> <r_epik_Ionization_Penalty_Charging>
0

> <r_epik_Ionization_Penalty_Neutral>
2.50279

> <r_epik_State_Penalty>
2.66754

> <r_epik_Charging_Adjusted_Penalty>
2.66754

> <i_epik_Tot_Q>
0

> <i_epik_Tot_abs_Q>
0

> <r_epik_Metal_State_Penalty>
2.66721

> <b_epik_Metal_Only>
0

> <s_lp_Force_Field>
OPLS_2005

> <r_lp_Energy>
9.07017

> <b_lp_Chiralities_Consistent>
1

> <s_lp_Variant>
AV-unprocessed.smi:743-5

> <Gold.Version>
5.8.1

> <Gold.Id.Protein>
6NUR|6NUR_protein|mol2

> <Gold.PLP.Fitness>
40.7003

> <Gold.PLP.PLP>
-25.0414

> <Gold.PLP.part.hbond>
-2.9238

> <Gold.PLP.part.metal>
0.0000

> <Gold.PLP.part.buried>
-7.1017

> <Gold.PLP.part.nonpolar>
-17.0705

> <Gold.PLP.part.repulsive>
0.3212

> <Gold.PLP.ligand.clash>
0.0000

> <Gold.PLP.ligand.torsion>
0.5510

> <Gold.PLP.Chemscore.Hbond>
2.7800

> <Gold.PLP.Chemscore.CHOScore>
2.8010

> <Gold.PLP.Chemscore.Metal>
0.0000

> <Gold.Chemscore.Hbonds>
donor molecule, donor type, donor heavy atom, donor atom, acceptor molecule, acceptor atom, score
      L1  H     6    21       P1 10186  1.00
      L1  H    12    26       P1  7948  0.99
      P1  H 10785 10796       L1     8  0.75
      L1  C     3    19       P1 10171  0.81
      L1  C     3    19       P1 10175  0.79
      L1  C    13    28       P1 10957  1.00

> <Gold.PLP.Chemscore.Internal.Correction>
0.0178

> <Gold.Rescore>
     Score         DG    S(hbond)    S(metal)    S(lipo)     H(rot)  DE(clash)    DE(int)     intcor
     17.13     -17.58       2.92        0.00      41.90       1.00       0.05       0.41       ----

> <Gold.Chemscore.Fitness>
17.1305

> <Gold.Chemscore.DG>
-17.5816

> <Gold.Chemscore.ZeroCoef>
-5.4800

> <Gold.Chemscore.Hbond>
2.9219

> <Gold.Chemscore.Metal>
0.0000

> <Gold.Chemscore.Lipo>
41.9007

> <Gold.Chemscore.Internal_Hbond>
0.0000

> <Gold.Chemscore.DEClash>
0.0460

> <Gold.Chemscore.DEInternal>
0.4051

> <Gold.Chemscore.Rot>
1.0000

> <Gold.Chemscore.Internal.Correction>
   9.000000E+99

> <Gold.Chemscore.Hbonds>
donor molecule, donor type, donor heavy atom, donor atom, acceptor molecule, acceptor atom, score
      L1  H     6    21       P1 10186  0.99
      L1  H    12    26       P1  7948  0.93
      P1  H 10785 10796       L1     8  0.71

> <Gold.Chemscore.Hbond.Weighted>
-9.7592

> <Gold.Chemscore.Metal.Weighted>
-0.0000

> <Gold.Chemscore.Lipo.Weighted>
-4.9024

> <Gold.Chemscore.Internal_Hbond.Weighted>
0.0000

> <Gold.Chemscore.DEClash.Weighted>
0.0460

> <Gold.Chemscore.DEInternal.Weighted>
0.4051

> <Gold.Chemscore.Rot.Weighted>
2.5600

> <Gold.Chemscore.Internal.Correction.Weighted>
   9.000000E+99

> <Gold.Protein.RotatedTorsions>
[ 6907 6896 6895 6894 ] final -153.95 input  -60.11 | X-H torsion
[ 7974 7965 7964 7962 ] final   93.14 input  175.53 | X-H torsion
[ 8008 7997 7996 7995 ] final  -68.00 input   59.86 | X-H torsion
[ 10167 10162 10161 10158 ] final  -86.64 input  -65.29 | X-H torsion
[ 10718 10713 10712 10709 ] final -113.41 input   66.30 | X-H torsion
[ 10763 10752 10751 10750 ] final  129.28 input  -60.55 | X-H torsion
[ 11005 11000 10999 10996 ] final   -0.33 input  -57.11 | X-H torsion

> <Gold.Protein.ActiveResidues>
 VAL166  LYS551  ARG553  GLY616  TRP617  ASP618  TYR619  PRO620  LYS621  CYS622 
 ASP623  PHE694  ASN695  SER759  ASP760  ASP761  ALA762  ILE779  LEU786  VAL792 
 PHE793  MET794  SER795  GLU796  ALA797  LYS798  CYS799  TRP800  GLU811  SER814 

> <Gold.Protein.RotatedAtoms>
  151.2502  133.4354  159.2610 H   0  0  0  0  0  0  0  0  0  0  0  0  # atno 6907 bound_to 6896
  151.0624  134.9746  159.8277 H   0  0  0  0  0  0  0  0  0  0  0  0  # atno 6908 bound_to 6896
  152.5400  134.2451  159.8930 H   0  0  0  0  0  0  0  0  0  0  0  0  # atno 6909 bound_to 6896
  145.4830  139.2278  143.2872 H   0  0  0  0  0  0  0  0  0  0  0  0  # atno 7974 bound_to 7965
  154.4838  140.0881  156.7439 H   0  0  0  0  0  0  0  0  0  0  0  0  # atno 8008 bound_to 7997
  155.4403  140.3453  155.4271 H   0  0  0  0  0  0  0  0  0  0  0  0  # atno 8009 bound_to 7997
  156.1231  140.1480  156.9164 H   0  0  0  0  0  0  0  0  0  0  0  0  # atno 8010 bound_to 7997
  140.3922  143.2699  151.9250 H   0  0  0  0  0  0  0  0  0  0  0  0  # atno 10167 bound_to 10162
  156.0765  130.5971  150.8638 H   0  0  0  0  0  0  0  0  0  0  0  0  # atno 10718 bound_to 10713
  153.7393  135.3226  155.3301 H   0  0  0  0  0  0  0  0  0  0  0  0  # atno 10763 bound_to 10752
  154.8300  135.4541  154.1043 H   0  0  0  0  0  0  0  0  0  0  0  0  # atno 10764 bound_to 10752
  153.2213  135.6948  153.8078 H   0  0  0  0  0  0  0  0  0  0  0  0  # atno 10765 bound_to 10752
  140.6351  133.9540  155.8295 H   0  0  0  0  0  0  0  0  0  0  0  0  # atno 11005 bound_to 11000
  146.2330  140.5618  142.8967 LP  0  0  0  0  0  0  0  0  0  0  0  0  # atno 17320 bound_to 7965
  144.7878  140.5971  143.6562 LP  0  0  0  0  0  0  0  0  0  0  0  0  # atno 17321 bound_to 7965
  139.4788  144.5716  151.8079 LP  0  0  0  0  0  0  0  0  0  0  0  0  # atno 17342 bound_to 10162
  140.4828  144.1425  150.5935 LP  0  0  0  0  0  0  0  0  0  0  0  0  # atno 17343 bound_to 10162
  157.5862  131.0945  150.9192 LP  0  0  0  0  0  0  0  0  0  0  0  0  # atno 17370 bound_to 10713
  156.9377  130.5373  149.5280 LP  0  0  0  0  0  0  0  0  0  0  0  0  # atno 17371 bound_to 10713
  141.0647  134.0294  157.3610 LP  0  0  0  0  0  0  0  0  0  0  0  0  # atno 17394 bound_to 11000
  139.9101  135.0188  156.7656 LP  0  0  0  0  0  0  0  0  0  0  0  0  # atno 17395 bound_to 11000

$$$$
