#       Name:                AV-unprocessed.smi:2139
#       Creating user name   scv26
#       Creation time:       Fri Mar 27 11:47:48 2020


#       File generated by GOLD software.
#

@<TRIPOS>MOLECULE
AV-unprocessed.smi:2139
    46    47     1
SMALL
NO_CHARGES


@<TRIPOS>ATOM
      1 ****        -2.9175  -1.5168   3.4058 C.3            1 S1                 0.0000
      2 ****        -3.2426  -1.8480   1.9420 C.3            1 S1                 0.0000
      3 ****        -2.6613  -0.8377   0.9350 C.3            1 S1                 0.0000
      4 ****        -3.0903  -1.1617  -0.5049 C.3            1 S1                 0.0000
      5 ****        -1.2035  -0.8151   1.0256 N.am           1 S1                 0.0000
      6 ****        -0.4248   0.2473   0.7645 C.2            1 S1                 0.0000
      7 ****        -0.8632   1.3427   0.4121 O.2            1 S1                 0.0000
      8 ****         1.0558  -0.0033   0.8843 C.ar           1 S1                 0.0000
      9 ****         1.5500  -0.7092   2.0057 C.ar           1 S1                 0.0000
     10 ****         2.9348  -0.9061   2.1481 C.ar           1 S1                 0.0000
     11 ****         3.7856  -0.3798   1.1615 C.ar           1 S1                 0.0000
     12 ****         3.3358   0.2974   0.0863 N.ar           1 S1                 0.0000
     13 ****         2.0014   0.4896  -0.0641 C.ar           1 S1                 0.0000
     14 ****         1.5912   1.1643  -1.2320 N.3            1 S1                 0.0000
     15 ****         1.0672   0.2866  -2.2713 C.3            1 S1                 0.0000
     16 ****         0.3784   1.1240  -3.3618 C.3            1 S1                 0.0000
     17 ****         1.2937   2.0891  -3.8736 O.3            1 S1                 0.0000
     18 ****         1.7453   2.9890  -2.8647 C.3            1 S1                 0.0000
     19 ****         2.4698   2.2043  -1.7573 C.3            1 S1                 0.0000
     20 ****        -3.3938  -2.2308   4.0779 H              1 S1                 0.0000
     21 ****        -3.2744  -0.5216   3.6724 H              1 S1                 0.0000
     22 ****        -1.8447  -1.5512   3.5970 H              1 S1                 0.0000
     23 ****        -2.8818  -2.8511   1.7109 H              1 S1                 0.0000
     24 ****        -4.3266  -1.8827   1.8267 H              1 S1                 0.0000
     25 ****        -3.0516   0.1490   1.1921 H              1 S1                 0.0000
     26 ****        -4.1765  -1.1612  -0.5993 H              1 S1                 0.0000
     27 ****        -2.7296  -2.1428  -0.8154 H              1 S1                 0.0000
     28 ****        -2.7007  -0.4256  -1.2092 H              1 S1                 0.0000
     29 ****        -0.7520  -1.6773   1.2941 H              1 S1                 0.0000
     30 ****         0.8797  -1.0912   2.7624 H              1 S1                 0.0000
     31 ****         3.3352  -1.4407   2.9967 H              1 S1                 0.0000
     32 ****         4.8555  -0.5066   1.2364 H              1 S1                 0.0000
     33 ****         1.8894  -0.2858  -2.7026 H              1 S1                 0.0000
     34 ****         0.3621  -0.4335  -1.8558 H              1 S1                 0.0000
     35 ****         0.0463   0.4805  -4.1762 H              1 S1                 0.0000
     36 ****        -0.5088   1.6212  -2.9655 H              1 S1                 0.0000
     37 ****         2.4215   3.7165  -3.3138 H              1 S1                 0.0000
     38 ****         0.9010   3.5470  -2.4568 H              1 S1                 0.0000
     39 ****         2.7686   2.8791  -0.9542 H              1 S1                 0.0000
     40 ****         3.3773   1.7520  -2.1597 H              1 S1                 0.0000
     41 ****        -1.8486   1.4765   0.3066 LP             1 S1                 0.0000
     42 ****        -0.2339   2.0985   0.2314 LP             1 S1                 0.0000
     43 ****         3.9780   0.6538  -0.5923 LP             1 S1                 0.0000
     44 ****         0.8209   1.6955  -0.8791 LP             1 S1                 0.0000
     45 ****         0.8396   2.6138  -4.5937 LP             1 S1                 0.0000
     46 ****         2.0843   1.6118  -4.2571 LP             1 S1                 0.0000
@<TRIPOS>BOND
    1    1    2 1     
    2    1   20 1     
    3    1   21 1     
    4    1   22 1     
    5    2    3 1     
    6    2   23 1     
    7    2   24 1     
    8    3    4 1     
    9    3    5 1     
   10    3   25 1     
   11    4   26 1     
   12    4   27 1     
   13    4   28 1     
   14    5    6 am    
   15    5   29 1     
   16    6    7 2     
   17    6    8 1     
   18    8   13 ar    
   19    8    9 ar    
   20    9   10 ar    
   21    9   30 1     
   22   10   11 ar    
   23   10   31 1     
   24   11   12 ar    
   25   11   32 1     
   26   12   13 ar    
   27   13   14 1     
   28   14   19 1     
   29   14   15 1     
   30   15   16 1     
   31   15   33 1     
   32   15   34 1     
   33   16   17 1     
   34   16   35 1     
   35   16   36 1     
   36   17   18 1     
   37   18   19 1     
   38   18   37 1     
   39   18   38 1     
   40   19   39 1     
   41   19   40 1     
   42    7   41 1     
   43    7   42 1     
   44   12   43 1     
   45   14   44 1     
   46   17   45 1     
   47   17   46 1     
@<TRIPOS>SUBSTRUCTURE
      1 S1             1
@<TRIPOS>SET
LONE_PAIRS      STATIC     ATOMS    <user>   **** ""
6 41 42 43 44 45 46
DONOR_HYDROGENS      STATIC     ATOMS    <user>   **** ""
1 29
ATOM$BLUE        STATIC     ATOMS    COLORGROUP SYSTEM
6 41 42 43 44 45 46
ATOM$RED        STATIC     ATOMS    COLORGROUP SYSTEM
1 29
