#       Name:                AV-unprocessed.smi:1865
#       Creating user name   scv26
#       Creation time:       Fri Mar 27 09:27:10 2020


#       File generated by GOLD software.
#

@<TRIPOS>MOLECULE
AV-unprocessed.smi:1865
    43    44     1
SMALL
NO_CHARGES


@<TRIPOS>ATOM
      1 ****        -0.7387   1.3547  -0.2732 O.2            1 S1                 0.0000
      2 ****        -0.1990   0.3282  -0.6871 C.2            1 S1                 0.0000
      3 ****         1.3280   0.2105  -0.7193 C.3            1 S1                 0.0000
      4 ****         2.0098   0.8962   0.4802 C.3            1 S1                 0.0000
      5 ****         3.5385   0.7176   0.4873 C.3            1 S1                 0.0000
      6 ****         4.2153   1.3031   1.7281 C.3            1 S1                 0.0000
      7 ****         5.6891   1.4342   1.3371 C.3            1 S1                 0.0000
      8 ****         5.7073   1.6223  -0.1870 C.3            1 S1                 0.0000
      9 ****         4.2641   1.4183  -0.6672 C.3            1 S1                 0.0000
     10 ****        -0.8862  -0.7328  -1.1372 N.am           1 S1                 0.0000
     11 ****        -2.3399  -0.8210  -1.2098 C.3            1 S1                 0.0000
     12 ****        -2.9607  -1.1331   0.1617 C.3            1 S1                 0.0000
     13 ****        -4.4693  -1.2621   0.0867 C.ar           1 S1                 0.0000
     14 ****        -5.0816  -2.5192  -0.0943 C.ar           1 S1                 0.0000
     15 ****        -6.4865  -2.5855  -0.1633 C.ar           1 S1                 0.0000
     16 ****        -7.2208  -1.3882  -0.0487 C.ar           1 S1                 0.0000
     17 ****        -6.6450  -0.1787   0.1237 N.ar           1 S1                 0.0000
     18 ****        -5.2973  -0.1240   0.1892 C.ar           1 S1                 0.0000
     19 ****         1.6086  -0.8437  -0.7438 H              1 S1                 0.0000
     20 ****         1.6801   0.6499  -1.6530 H              1 S1                 0.0000
     21 ****         1.7692   1.9604   0.4902 H              1 S1                 0.0000
     22 ****         1.6033   0.4839   1.4052 H              1 S1                 0.0000
     23 ****         3.7742  -0.3474   0.4483 H              1 S1                 0.0000
     24 ****         3.8065   2.2912   1.9449 H              1 S1                 0.0000
     25 ****         4.0734   0.6844   2.6147 H              1 S1                 0.0000
     26 ****         6.1778   2.2558   1.8617 H              1 S1                 0.0000
     27 ****         6.2208   0.5179   1.5970 H              1 S1                 0.0000
     28 ****         6.0699   2.6129  -0.4637 H              1 S1                 0.0000
     29 ****         6.3739   0.8918  -0.6466 H              1 S1                 0.0000
     30 ****         4.2160   0.8483  -1.5955 H              1 S1                 0.0000
     31 ****         3.8075   2.3908  -0.8569 H              1 S1                 0.0000
     32 ****        -0.3637  -1.5343  -1.4603 H              1 S1                 0.0000
     33 ****        -2.7499   0.1061  -1.6149 H              1 S1                 0.0000
     34 ****        -2.5940  -1.6088  -1.9197 H              1 S1                 0.0000
     35 ****        -2.5423  -2.0581   0.5609 H              1 S1                 0.0000
     36 ****        -2.7127  -0.3487   0.8784 H              1 S1                 0.0000
     37 ****        -4.4873  -3.4170  -0.1805 H              1 S1                 0.0000
     38 ****        -6.9898  -3.5310  -0.3010 H              1 S1                 0.0000
     39 ****        -8.2996  -1.4022  -0.0974 H              1 S1                 0.0000
     40 ****        -4.8672   0.8574   0.3253 H              1 S1                 0.0000
     41 ****        -0.1795   2.1200   0.0454 LP             1 S1                 0.0000
     42 ****        -1.7363   1.4230  -0.2557 LP             1 S1                 0.0000
     43 ****        -7.1992   0.6501   0.2004 LP             1 S1                 0.0000
@<TRIPOS>BOND
    1    1    2 2     
    2    2    3 1     
    3    2   10 am    
    4    3    4 1     
    5    3   19 1     
    6    3   20 1     
    7    4    5 1     
    8    4   21 1     
    9    4   22 1     
   10    5    9 1     
   11    5    6 1     
   12    5   23 1     
   13    6    7 1     
   14    6   24 1     
   15    6   25 1     
   16    7    8 1     
   17    7   26 1     
   18    7   27 1     
   19    8    9 1     
   20    8   28 1     
   21    8   29 1     
   22    9   30 1     
   23    9   31 1     
   24   10   11 1     
   25   10   32 1     
   26   11   12 1     
   27   11   33 1     
   28   11   34 1     
   29   12   13 1     
   30   12   35 1     
   31   12   36 1     
   32   13   18 ar    
   33   13   14 ar    
   34   14   15 ar    
   35   14   37 1     
   36   15   16 ar    
   37   15   38 1     
   38   16   17 ar    
   39   16   39 1     
   40   17   18 ar    
   41   18   40 1     
   42    1   41 1     
   43    1   42 1     
   44   17   43 1     
@<TRIPOS>SUBSTRUCTURE
      1 S1             1
@<TRIPOS>SET
LONE_PAIRS      STATIC     ATOMS    <user>   **** ""
3 41 42 43
DONOR_HYDROGENS      STATIC     ATOMS    <user>   **** ""
1 32
ATOM$BLUE        STATIC     ATOMS    COLORGROUP SYSTEM
3 41 42 43
ATOM$RED        STATIC     ATOMS    COLORGROUP SYSTEM
1 32
