AV-unprocessed.smi:72|AV-procd|sdf|693|dock2
  -GOLD-   2262017 03D 1   1.00000     0.00000
 Structure written by MMmdl.
 29 30  0  0  0  0  0  0  0  0  1 V2000
  154.1688  138.4403  154.3819 N   0  0  0  0  0  0  0  0  0  0  0  0
  152.8880  138.5091  154.4548 C   0  0  0  0  0  0  0  0  0  0  0  0
  151.9936  137.5577  153.9421 N   0  0  0  0  0  0  0  0  0  0  0  0
  150.7198  137.7579  154.0898 C   0  0  0  0  0  0  0  0  0  0  0  0
  150.1929  138.9343  154.7689 N   0  0  0  0  0  0  0  0  0  0  0  0
  148.7038  139.1727  154.9476 C   0  0  2  0  0  0  0  0  0  0  0  0
  147.9817  138.0807  154.4519 O   0  0  0  0  0  0  0  0  0  0  0  0
  147.3109  138.4399  153.2465 C   0  0  1  0  0  0  0  0  0  0  0  0
  146.0983  137.5216  153.0330 C   0  0  0  0  0  0  0  0  0  0  0  0
  146.4950  136.3470  152.3581 O   0  0  0  0  0  0  0  0  0  0  0  0
  146.9395  139.8958  153.5234 C   0  0  2  0  0  0  0  0  0  0  0  0
  146.5839  140.6121  152.3554 O   0  0  0  0  0  0  0  0  0  0  0  0
  148.1901  140.4341  154.2122 C   0  0  2  0  0  0  0  0  0  0  0  0
  149.1211  140.9742  153.2857 O   0  0  0  0  0  0  0  0  0  0  0  0
  151.0846  139.9052  155.2863 C   0  0  0  0  0  0  0  0  0  0  0  0
  150.6902  140.9238  155.8541 O   0  0  0  0  0  0  0  0  0  0  0  0
  152.3979  139.6471  155.1078 N   0  0  0  0  0  0  0  0  0  0  0  0
  148.5415  139.2082  156.0263 H   0  0  0  0  0  0  0  0  0  0  0  0
  147.9992  138.3908  152.4005 H   0  0  0  0  0  0  0  0  0  0  0  0
  146.1048  139.9302  154.2254 H   0  0  0  0  0  0  0  0  0  0  0  0
  147.9423  141.2065  154.9411 H   0  0  0  0  0  0  0  0  0  0  0  0
  154.4423  137.5959  153.8998 H   0  0  0  0  0  0  0  0  0  0  0  0
  149.9735  137.0582  153.7141 H   0  0  0  0  0  0  0  0  0  0  0  0
  145.6165  137.2731  153.9791 H   0  0  0  0  0  0  0  0  0  0  0  0
  145.3541  138.0202  152.4114 H   0  0  0  0  0  0  0  0  0  0  0  0
  145.7651  136.0340  151.8459 H   0  0  0  0  0  0  0  0  0  0  0  0
  145.6421  140.6101  152.2779 H   0  0  0  0  0  0  0  0  0  0  0  0
  149.2829  140.3294  152.6142 H   0  0  0  0  0  0  0  0  0  0  0  0
  153.0609  140.3199  155.4641 H   0  0  0  0  0  0  0  0  0  0  0  0
  1  2  2  0  0  0  0
  1 22  1  0  0  0  0
  2 17  1  0  0  0  0
  2  3  1  0  0  0  0
  3  4  2  0  0  0  0
  4  5  1  0  0  0  0
  4 23  1  0  0  0  0
  5  6  1  0  0  0  0
  5 15  1  0  0  0  0
  6 18  1  0  0  0  0
  6 13  1  0  0  0  0
  6  7  1  0  0  0  0
  7  8  1  0  0  0  0
  8 19  1  0  0  0  0
  8  9  1  0  0  0  0
  8 11  1  0  0  0  0
  9 10  1  0  0  0  0
  9 24  1  0  0  0  0
  9 25  1  0  0  0  0
 10 26  1  0  0  0  0
 11 20  1  0  0  0  0
 11 12  1  0  0  0  0
 11 13  1  0  0  0  0
 12 27  1  0  0  0  0
 13 21  1  0  0  0  0
 13 14  1  0  0  0  0
 14 28  1  0  0  0  0
 15 16  2  0  0  0  0
 15 17  1  0  0  0  0
 17 29  1  0  0  0  0
M  END
> <s_m_source_file>
AV-unprocessed.smi

> <i_m_source_file_index>
72

> <i_lp_mmshare_version>
43012

> <i_f3d_flags>
0

> <s_epik_input>
W05IMl1jMW5bY0hdbihjKD1PKW4xKVtDQEBIXTJPW0NASF0oW0NIMl1bT0hdKVtDQEBIXShbT0hdKVtDQEhdMltPSF0=

> <s_epik_cmdline>
J2VwaWtfcHl0aG9uJywgJy1waCcsICc3LjAnLCAnLXRuJywgJzgnLCAnLW1hJywgJzIwMCcsICctbWV0YWxfYmluZGluZycsICctaW1hZScsICc8aW5maWxlLm1hZT4nLCAnLW9tYWUnLCAnPG91dGZpbGUubWFlPic=

> <r_lp_tautomer_probability>
7.17554e-07

> <r_epik_Ionization_Penalty>
0.0066451

> <r_epik_Ionization_Penalty_Charging>
0.00663793

> <r_epik_Ionization_Penalty_Neutral>
7.17052e-06

> <r_epik_State_Penalty>
0.419231

> <r_epik_Charging_Adjusted_Penalty>
0.425868

> <i_epik_Tot_Q>
0

> <i_epik_Tot_abs_Q>
0

> <r_epik_Metal_State_Penalty>
1.44144

> <b_epik_Metal_Only>
0

> <s_epik_Chemistry_Notes>
This compound contains an acetal/aminal-like group ( X-CH(R)-Y where X, Y are N, S, or O) that may be acid/base labile, releasing an aldehyde.

> <s_lp_Force_Field>
OPLS_2005

> <r_lp_Energy>
47.3952

> <b_lp_Chiralities_Consistent>
1

> <s_lp_Variant>
AV-unprocessed.smi:72-31

> <Gold.Version>
5.8.1

> <Gold.Id.Protein>
6NUR|6NUR_protein|mol2

> <Gold.PLP.Fitness>
42.3376

> <Gold.PLP.PLP>
-27.3119

> <Gold.PLP.part.hbond>
-7.2643

> <Gold.PLP.part.metal>
0.0000

> <Gold.PLP.part.buried>
-5.2948

> <Gold.PLP.part.nonpolar>
-17.4773

> <Gold.PLP.part.repulsive>
0.8958

> <Gold.PLP.ligand.clash>
0.0000

> <Gold.PLP.ligand.torsion>
0.2727

> <Gold.PLP.Chemscore.Hbond>
4.1648

> <Gold.PLP.Chemscore.CHOScore>
1.0009

> <Gold.PLP.Chemscore.Metal>
0.0000

> <Gold.Chemscore.Hbonds>
donor molecule, donor type, donor heavy atom, donor atom, acceptor molecule, acceptor atom, score
      L1  H    12    27       P1 10175  0.95
      L1  H    14    28       P1  7957  0.91
      P1  H  7997  8008       L1     1  0.40
      P1  H  8011  8017       L1    14  0.75
      P1  H 10752 10765       L1     3  0.76
      L1  C     4    23       P1  7948  1.00

> <Gold.PLP.Chemscore.Internal.Correction>
0.0740

> <Gold.Rescore>
     Score         DG    S(hbond)    S(metal)    S(lipo)     H(rot)  DE(clash)    DE(int)     intcor
      5.70      -6.46       2.75        0.00      18.63       4.06       0.32       0.44       ----

> <Gold.Chemscore.Fitness>
5.6973

> <Gold.Chemscore.DG>
-6.4555

> <Gold.Chemscore.ZeroCoef>
-5.4800

> <Gold.Chemscore.Hbond>
2.7512

> <Gold.Chemscore.Metal>
0.0000

> <Gold.Chemscore.Lipo>
18.6325

> <Gold.Chemscore.Internal_Hbond>
0.0000

> <Gold.Chemscore.DEClash>
0.3170

> <Gold.Chemscore.DEInternal>
0.4412

> <Gold.Chemscore.Rot>
4.0600

> <Gold.Chemscore.Internal.Correction>
   9.000000E+99

> <Gold.Chemscore.Hbonds>
donor molecule, donor type, donor heavy atom, donor atom, acceptor molecule, acceptor atom, score
      L1  H    12    27       P1 10175  0.21
      L1  H    14    28       P1  7957  0.83
      P1  H  7997  8008       L1     1  0.11
      P1  H  8011  8017       L1    14  0.09
      P1  H 10752 10765       L1     3  0.36

> <Gold.Chemscore.Hbond.Weighted>
-9.1891

> <Gold.Chemscore.Metal.Weighted>
-0.0000

> <Gold.Chemscore.Lipo.Weighted>
-2.1800

> <Gold.Chemscore.Internal_Hbond.Weighted>
0.0000

> <Gold.Chemscore.DEClash.Weighted>
0.3170

> <Gold.Chemscore.DEInternal.Weighted>
0.4412

> <Gold.Chemscore.Rot.Weighted>
10.3936

> <Gold.Chemscore.Internal.Correction.Weighted>
   9.000000E+99

> <Gold.Protein.RotatedTorsions>
[ 6907 6896 6895 6894 ] final   76.55 input  -60.11 | X-H torsion
[ 7974 7965 7964 7962 ] final  -40.23 input  175.53 | X-H torsion
[ 8008 7997 7996 7995 ] final    6.11 input   59.86 | X-H torsion
[ 10167 10162 10161 10158 ] final   -6.80 input  -65.29 | X-H torsion
[ 10718 10713 10712 10709 ] final  -26.55 input   66.30 | X-H torsion
[ 10763 10752 10751 10750 ] final  151.03 input  -60.55 | X-H torsion
[ 11005 11000 10999 10996 ] final  -69.77 input  -57.11 | X-H torsion

> <Gold.Protein.ActiveResidues>
 VAL166  LYS551  ARG553  GLY616  TRP617  ASP618  TYR619  PRO620  LYS621  CYS622 
 ASP623  PHE694  ASN695  SER759  ASP760  ASP761  ALA762  ILE779  LEU786  VAL792 
 PHE793  MET794  SER795  GLU796  ALA797  LYS798  CYS799  TRP800  GLU811  SER814 

> <Gold.Protein.RotatedAtoms>
  152.5078  134.3951  159.9397 H   0  0  0  0  0  0  0  0  0  0  0  0  # atno 6907 bound_to 6896
  151.3913  133.3782  159.2729 H   0  0  0  0  0  0  0  0  0  0  0  0  # atno 6908 bound_to 6896
  150.9431  134.8859  159.7683 H   0  0  0  0  0  0  0  0  0  0  0  0  # atno 6909 bound_to 6896
  146.0323  140.6715  142.9126 H   0  0  0  0  0  0  0  0  0  0  0  0  # atno 7974 bound_to 7965
  154.7369  140.2741  155.6407 H   0  0  0  0  0  0  0  0  0  0  0  0  # atno 8008 bound_to 7997
  156.2864  140.2705  156.2011 H   0  0  0  0  0  0  0  0  0  0  0  0  # atno 8009 bound_to 7997
  155.0309  140.0371  157.2463 H   0  0  0  0  0  0  0  0  0  0  0  0  # atno 8010 bound_to 7997
  140.7009  143.6152  150.8665 H   0  0  0  0  0  0  0  0  0  0  0  0  # atno 10167 bound_to 10162
  156.4498  130.4481  149.6997 H   0  0  0  0  0  0  0  0  0  0  0  0  # atno 10718 bound_to 10713
  154.0972  135.2848  155.3259 H   0  0  0  0  0  0  0  0  0  0  0  0  # atno 10763 bound_to 10752
  154.6580  135.5345  153.7986 H   0  0  0  0  0  0  0  0  0  0  0  0  # atno 10764 bound_to 10752
  153.0392  135.6526  154.1137 H   0  0  0  0  0  0  0  0  0  0  0  0  # atno 10765 bound_to 10752
  141.1561  133.6773  156.6650 H   0  0  0  0  0  0  0  0  0  0  0  0  # atno 11005 bound_to 11000
  144.7036  140.3758  143.7136 LP  0  0  0  0  0  0  0  0  0  0  0  0  # atno 17320 bound_to 7965
  145.7020  139.1663  143.2587 LP  0  0  0  0  0  0  0  0  0  0  0  0  # atno 17321 bound_to 7965
  139.9874  143.5884  152.2922 LP  0  0  0  0  0  0  0  0  0  0  0  0  # atno 17342 bound_to 10162
  139.6527  144.7661  151.2116 LP  0  0  0  0  0  0  0  0  0  0  0  0  # atno 17343 bound_to 10162
  156.3828  130.7588  151.2582 LP  0  0  0  0  0  0  0  0  0  0  0  0  # atno 17370 bound_to 10713
  157.7503  131.0290  150.4076 LP  0  0  0  0  0  0  0  0  0  0  0  0  # atno 17371 bound_to 10713
  140.3218  134.8001  157.4258 LP  0  0  0  0  0  0  0  0  0  0  0  0  # atno 17394 bound_to 11000
  140.1090  134.5370  155.8283 LP  0  0  0  0  0  0  0  0  0  0  0  0  # atno 17395 bound_to 11000

$$$$
