AV-unprocessed.smi:101|AV-procd|sdf|925|dock9
  -GOLD-   2262017433D 1   1.00000     0.00000
 Structure written by MMmdl.
 44 46  0  0  0  0  0  0  0  0  1 V2000
  144.9811  137.9375  157.7469 C   0  0  0  0  0  0  0  0  0  0  0  0
  145.1750  137.8405  156.2426 C   0  0  0  0  0  0  0  0  0  0  0  0
  146.1344  138.5427  155.5871 C   0  0  0  0  0  0  0  0  0  0  0  0
  146.3386  138.4724  154.2140 N   0  0  0  0  0  0  0  0  0  0  0  0
  147.4266  139.2623  153.5084 C   0  0  2  0  0  0  0  0  0  0  0  0
  148.6194  139.1617  154.2310 O   0  0  0  0  0  0  0  0  0  0  0  0
  148.9025  140.4011  154.8718 C   0  0  1  0  0  0  0  0  0  0  0  0
  150.3992  140.4847  155.1859 C   0  0  0  0  0  0  0  0  0  0  0  0
  150.5757  141.3974  156.2564 O   0  0  0  0  0  0  0  0  0  0  0  0
  151.1220  140.9889  157.4163 C   0  0  0  0  0  0  0  0  0  0  0  0
  151.2502  139.8041  157.7311 O   0  0  0  0  0  0  0  0  0  0  0  0
  151.5531  142.1248  158.2816 C   0  0  0  0  0  0  0  0  0  0  0  0
  151.3429  143.4519  157.8400 C   0  0  0  0  0  0  0  0  0  0  0  0
  151.7431  144.5439  158.6346 C   0  0  0  0  0  0  0  0  0  0  0  0
  152.3571  144.3222  159.8809 C   0  0  0  0  0  0  0  0  0  0  0  0
  152.5707  143.0067  160.3322 C   0  0  0  0  0  0  0  0  0  0  0  0
  152.1721  141.9133  159.5389 C   0  0  0  0  0  0  0  0  0  0  0  0
  148.4153  141.4034  153.8304 C   0  0  2  0  0  0  0  0  0  0  0  0
  148.2692  142.7168  154.3388 O   0  0  0  0  0  0  0  0  0  0  0  0
  147.1022  140.7719  153.3749 C   0  0  2  0  0  0  0  0  0  0  0  0
  146.0068  141.1885  154.1777 O   0  0  0  0  0  0  0  0  0  0  0  0
  145.5139  137.6332  153.4375 C   0  0  0  0  0  0  0  0  0  0  0  0
  145.6319  137.5306  152.2170 O   0  0  0  0  0  0  0  0  0  0  0  0
  144.5296  136.9119  154.1098 N   0  0  0  0  0  0  0  0  0  0  0  0
  144.2901  136.9512  155.4852 C   0  0  0  0  0  0  0  0  0  0  0  0
  143.3876  136.2666  155.9642 O   0  0  0  0  0  0  0  0  0  0  0  0
  143.9379  136.3098  153.5561 H   0  0  0  0  0  0  0  0  0  0  0  0
  145.6934  138.6254  158.2040 H   0  0  0  0  0  0  0  0  0  0  0  0
  145.1162  136.9603  158.2118 H   0  0  0  0  0  0  0  0  0  0  0  0
  143.9770  138.2929  157.9805 H   0  0  0  0  0  0  0  0  0  0  0  0
  146.7653  139.1853  156.1813 H   0  0  0  0  0  0  0  0  0  0  0  0
  147.5833  138.7647  152.5495 H   0  0  0  0  0  0  0  0  0  0  0  0
  148.3099  140.4985  155.7835 H   0  0  0  0  0  0  0  0  0  0  0  0
  150.7948  139.5003  155.4403 H   0  0  0  0  0  0  0  0  0  0  0  0
  150.9467  140.8491  154.3159 H   0  0  0  0  0  0  0  0  0  0  0  0
  150.8740  143.6470  156.8863 H   0  0  0  0  0  0  0  0  0  0  0  0
  151.5788  145.5531  158.2860 H   0  0  0  0  0  0  0  0  0  0  0  0
  152.6642  145.1597  160.4898 H   0  0  0  0  0  0  0  0  0  0  0  0
  153.0421  142.8346  161.2887 H   0  0  0  0  0  0  0  0  0  0  0  0
  152.3518  140.9169  159.9157 H   0  0  0  0  0  0  0  0  0  0  0  0
  149.1139  141.4248  152.9926 H   0  0  0  0  0  0  0  0  0  0  0  0
  148.5765  142.7311  155.2321 H   0  0  0  0  0  0  0  0  0  0  0  0
  146.8806  141.0108  152.3343 H   0  0  0  0  0  0  0  0  0  0  0  0
  145.2061  140.9720  153.7250 H   0  0  0  0  0  0  0  0  0  0  0  0
  1  2  1  0  0  0  0
  1 28  1  0  0  0  0
  1 29  1  0  0  0  0
  1 30  1  0  0  0  0
  2 25  1  0  0  0  0
  2  3  2  0  0  0  0
  3  4  1  0  0  0  0
  3 31  1  0  0  0  0
  4  5  1  0  0  0  0
  4 22  1  0  0  0  0
  5 20  1  0  0  0  0
  5  6  1  0  0  0  0
  5 32  1  0  0  0  0
  6  7  1  0  0  0  0
  7  8  1  0  0  0  0
  7 18  1  0  0  0  0
  7 33  1  0  0  0  0
  8  9  1  0  0  0  0
  8 34  1  0  0  0  0
  8 35  1  0  0  0  0
  9 10  1  0  0  0  0
 10 11  2  0  0  0  0
 10 12  1  0  0  0  0
 12 17  1  0  0  0  0
 12 13  2  0  0  0  0
 13 14  1  0  0  0  0
 13 36  1  0  0  0  0
 14 15  2  0  0  0  0
 14 37  1  0  0  0  0
 15 16  1  0  0  0  0
 15 38  1  0  0  0  0
 16 17  2  0  0  0  0
 16 39  1  0  0  0  0
 17 40  1  0  0  0  0
 18 19  1  0  0  0  0
 18 20  1  0  0  0  0
 18 41  1  0  0  0  0
 19 42  1  0  0  0  0
 20 21  1  0  0  0  0
 20 43  1  0  0  0  0
 21 44  1  0  0  0  0
 22 23  2  0  0  0  0
 22 24  1  0  0  0  0
 24 27  1  0  0  0  0
 24 25  1  0  0  0  0
 25 26  2  0  0  0  0
M  END
> <s_m_source_file>
AV-unprocessed.smi

> <i_m_source_file_index>
101

> <i_lp_mmshare_version>
43012

> <i_f3d_flags>
0

> <s_epik_input>
Tz1jMVtuSF1jKD1PKW4oW2NIXWMxW0NIM10pW0NAQEhdMk9bQ0BIXShbQ0BASF0oW09IXSlbQ0BIXTJbT0hdKVtDSDJdT0MoPU8pYzNbY0hdW2NIXVtjSF1bY0hdW2NIXTM=

> <s_epik_cmdline>
J2VwaWtfcHl0aG9uJywgJy1waCcsICc3LjAnLCAnLXRuJywgJzgnLCAnLW1hJywgJzIwMCcsICctbWV0YWxfYmluZGluZycsICctaW1hZScsICc8aW5maWxlLm1hZT4nLCAnLW9tYWUnLCAnPG91dGZpbGUubWFlPic=

> <r_lp_tautomer_probability>
0.999537

> <r_epik_Ionization_Penalty>
0.00263537

> <r_epik_Ionization_Penalty_Charging>
0.00263428

> <r_epik_Ionization_Penalty_Neutral>
1.09111e-06

> <r_epik_State_Penalty>
0.00183335

> <r_epik_Charging_Adjusted_Penalty>
0.00446763

> <i_epik_Tot_Q>
0

> <i_epik_Tot_abs_Q>
0

> <r_epik_Metal_State_Penalty>
1.00528

> <b_epik_Metal_Only>
0

> <s_epik_Chemistry_Notes>
This compound has an ester and may undergo hydrolysis at high or low pH. This compound contains an acetal/aminal-like group ( X-CH(R)-Y where X, Y are N, S, or O) that may be acid/base labile, releasing an aldehyde.

> <s_lp_Force_Field>
OPLS_2005

> <r_lp_Energy>
40.9352

> <b_lp_Chiralities_Consistent>
1

> <s_lp_Variant>
AV-unprocessed.smi:101-13

> <Gold.Version>
5.8.1

> <Gold.Id.Protein>
6NUR|6NUR_protein|mol2

> <Gold.PLP.Fitness>
43.4876

> <Gold.PLP.PLP>
-39.2837

> <Gold.PLP.part.hbond>
-3.6759

> <Gold.PLP.part.metal>
0.0000

> <Gold.PLP.part.buried>
-2.7859

> <Gold.PLP.part.nonpolar>
-32.9216

> <Gold.PLP.part.repulsive>
0.4907

> <Gold.PLP.ligand.clash>
0.0000

> <Gold.PLP.ligand.torsion>
1.2312

> <Gold.PLP.Chemscore.Hbond>
2.1830

> <Gold.PLP.Chemscore.CHOScore>
0.0000

> <Gold.PLP.Chemscore.Metal>
0.0000

> <Gold.Chemscore.Hbonds>
donor molecule, donor type, donor heavy atom, donor atom, acceptor molecule, acceptor atom, score
      L1  H    19    42       P1  8028  0.08
      L1  H    21    44       P1 10175  1.00
      P1  H  8022  8030       L1    19  0.60

> <Gold.PLP.Chemscore.Internal.Correction>
0.1172

> <Gold.Rescore>
     Score         DG    S(hbond)    S(metal)    S(lipo)     H(rot)  DE(clash)    DE(int)     intcor
     10.51     -12.97       1.33        0.00      98.52       3.32       0.21       2.25       ----

> <Gold.Chemscore.Fitness>
10.5133

> <Gold.Chemscore.DG>
-12.9719

> <Gold.Chemscore.ZeroCoef>
-5.4800

> <Gold.Chemscore.Hbond>
1.3343

> <Gold.Chemscore.Metal>
0.0000

> <Gold.Chemscore.Lipo>
98.5241

> <Gold.Chemscore.Internal_Hbond>
0.0000

> <Gold.Chemscore.DEClash>
0.2077

> <Gold.Chemscore.DEInternal>
2.2509

> <Gold.Chemscore.Rot>
3.3172

> <Gold.Chemscore.Internal.Correction>
   9.000000E+99

> <Gold.Chemscore.Hbonds>
donor molecule, donor type, donor heavy atom, donor atom, acceptor molecule, acceptor atom, score
      L1  H    19    42       P1  8028  0.10
      L1  H    21    44       P1 10175  0.74
      P1  H  8022  8030       L1    19  0.30

> <Gold.Chemscore.Hbond.Weighted>
-4.4566

> <Gold.Chemscore.Metal.Weighted>
-0.0000

> <Gold.Chemscore.Lipo.Weighted>
-11.5273

> <Gold.Chemscore.Internal_Hbond.Weighted>
0.0000

> <Gold.Chemscore.DEClash.Weighted>
0.2077

> <Gold.Chemscore.DEInternal.Weighted>
2.2509

> <Gold.Chemscore.Rot.Weighted>
8.4920

> <Gold.Chemscore.Internal.Correction.Weighted>
   9.000000E+99

> <Gold.Protein.RotatedTorsions>
[ 6907 6896 6895 6894 ] final   15.24 input  -60.11 | X-H torsion
[ 7974 7965 7964 7962 ] final  149.85 input  175.53 | X-H torsion
[ 8008 7997 7996 7995 ] final  144.15 input   59.86 | X-H torsion
[ 10167 10162 10161 10158 ] final  165.94 input  -65.29 | X-H torsion
[ 10718 10713 10712 10709 ] final -105.88 input   66.30 | X-H torsion
[ 10763 10752 10751 10750 ] final  103.38 input  -60.55 | X-H torsion
[ 11005 11000 10999 10996 ] final   59.63 input  -57.11 | X-H torsion

> <Gold.Protein.ActiveResidues>
 VAL166  LYS551  ARG553  GLY616  TRP617  ASP618  TYR619  PRO620  LYS621  CYS622 
 ASP623  PHE694  ASN695  SER759  ASP760  ASP761  ALA762  ILE779  LEU786  VAL792 
 PHE793  MET794  SER795  GLU796  ALA797  LYS798  CYS799  TRP800  GLU811  SER814 

> <Gold.Protein.RotatedAtoms>
  151.8149  135.0669  160.0417 H   0  0  0  0  0  0  0  0  0  0  0  0  # atno 6907 bound_to 6896
  152.2993  133.5635  159.5616 H   0  0  0  0  0  0  0  0  0  0  0  0  # atno 6908 bound_to 6896
  150.7266  134.0230  159.3750 H   0  0  0  0  0  0  0  0  0  0  0  0  # atno 6909 bound_to 6896
  144.8407  139.6333  143.6017 H   0  0  0  0  0  0  0  0  0  0  0  0  # atno 7974 bound_to 7965
  156.2914  140.2243  156.5006 H   0  0  0  0  0  0  0  0  0  0  0  0  # atno 8008 bound_to 7997
  154.7693  140.0468  157.1059 H   0  0  0  0  0  0  0  0  0  0  0  0  # atno 8009 bound_to 7997
  154.9894  140.3088  155.4916 H   0  0  0  0  0  0  0  0  0  0  0  0  # atno 8010 bound_to 7997
  139.4915  144.4080  151.9333 H   0  0  0  0  0  0  0  0  0  0  0  0  # atno 10167 bound_to 10162
  156.0365  130.5585  150.7602 H   0  0  0  0  0  0  0  0  0  0  0  0  # atno 10718 bound_to 10713
  153.3520  135.3978  155.1653 H   0  0  0  0  0  0  0  0  0  0  0  0  # atno 10763 bound_to 10752
  154.8664  135.3659  154.5210 H   0  0  0  0  0  0  0  0  0  0  0  0  # atno 10764 bound_to 10752
  153.5662  135.7080  153.5585 H   0  0  0  0  0  0  0  0  0  0  0  0  # atno 10765 bound_to 10752
  140.0290  134.6040  155.9533 H   0  0  0  0  0  0  0  0  0  0  0  0  # atno 11005 bound_to 11000
  146.2700  139.6612  142.9302 LP  0  0  0  0  0  0  0  0  0  0  0  0  # atno 17320 bound_to 7965
  145.4699  141.0436  143.2704 LP  0  0  0  0  0  0  0  0  0  0  0  0  # atno 17321 bound_to 7965
  140.3521  144.3077  150.5947 LP  0  0  0  0  0  0  0  0  0  0  0  0  # atno 17342 bound_to 10162
  140.5476  143.2212  151.7980 LP  0  0  0  0  0  0  0  0  0  0  0  0  # atno 17343 bound_to 10162
  157.5123  131.0926  151.0182 LP  0  0  0  0  0  0  0  0  0  0  0  0  # atno 17370 bound_to 10713
  157.0535  130.5796  149.5374 LP  0  0  0  0  0  0  0  0  0  0  0  0  # atno 17371 bound_to 10713
  141.1820  133.6548  156.5059 LP  0  0  0  0  0  0  0  0  0  0  0  0  # atno 17394 bound_to 11000
  140.4257  134.7147  157.4915 LP  0  0  0  0  0  0  0  0  0  0  0  0  # atno 17395 bound_to 11000

$$$$
