#       Name:                AV-unprocessed.smi:110
#       Creating user name   scv26
#       Creation time:       Thu Mar 26 18:16:37 2020


#       File generated by GOLD software.
#

@<TRIPOS>MOLECULE
AV-unprocessed.smi:110
    57    61     1
SMALL
NO_CHARGES


@<TRIPOS>ATOM
      1 ****        -4.1771   0.5149   3.4319 O.3            1 S1                 0.0000
      2 ****        -3.5823  -0.5059   2.6596 C.3            1 S1                 0.0000
      3 ****        -2.5505  -1.2723   3.5017 C.3            1 S1                 0.0000
      4 ****        -1.3226  -0.5435   3.5677 O.3            1 S1                 0.0000
      5 ****        -0.2125  -1.3627   3.3352 C.3            1 S1                 0.0000
      6 ****         0.3491  -1.0551   1.9704 N.pl3          1 S1                 0.0000
      7 ****         1.2786  -1.7883   1.2633 C.2            1 S1                 0.0000
      8 ****         1.6306  -1.2928   0.1099 N.2            1 S1                 0.0000
      9 ****         0.9280  -0.0983   0.0192 C.ar           1 S1                 0.0000
     10 ****         0.8570   0.9429  -0.9541 C.ar           1 S1                 0.0000
     11 ****         1.5256   0.9191  -2.1382 N.pl3          1 S1                 0.0000
     12 ****         1.7376  -0.3642  -2.8263 C.3            1 S1                 0.0000
     13 ****         2.0361  -0.0684  -4.3058 C.3            1 S1                 0.0000
     14 ****         2.0958   1.4226  -4.2882 C.ar           1 S1                 0.0000
     15 ****         2.4161   2.2679  -5.3646 C.ar           1 S1                 0.0000
     16 ****         2.4303   3.6596  -5.1364 C.ar           1 S1                 0.0000
     17 ****         2.1359   4.1741  -3.8532 C.ar           1 S1                 0.0000
     18 ****         1.8190   3.3051  -2.7856 C.ar           1 S1                 0.0000
     19 ****         1.7896   1.9128  -3.0210 C.ar           1 S1                 0.0000
     20 ****         0.0505   1.9980  -0.6721 N.ar           1 S1                 0.0000
     21 ****        -0.6256   2.0470   0.4771 C.ar           1 S1                 0.0000
     22 ****        -0.6504   1.1537   1.4654 N.ar           1 S1                 0.0000
     23 ****         0.1402   0.0744   1.1955 C.ar           1 S1                 0.0000
     24 ****        -0.7323  -2.8059   3.3872 C.3            1 S1                 0.0000
     25 ****        -0.6430  -3.3281   4.6999 O.3            1 S1                 0.0000
     26 ****        -2.1605  -2.6231   2.8998 C.3            1 S1                 0.0000
     27 ****        -3.0142  -3.6803   3.2938 O.3            1 S1                 0.0000
     28 ****        -2.9127  -1.4234   4.5204 H              1 S1                 0.0000
     29 ****         0.6141  -1.1499   4.0141 H              1 S1                 0.0000
     30 ****        -0.1673  -3.4707   2.7355 H              1 S1                 0.0000
     31 ****        -2.1578  -2.5554   1.8105 H              1 S1                 0.0000
     32 ****        -4.8035   0.9731   2.8928 H              1 S1                 0.0000
     33 ****        -4.3791  -1.1799   2.3427 H              1 S1                 0.0000
     34 ****        -3.1343  -0.0912   1.7568 H              1 S1                 0.0000
     35 ****         1.6979  -2.7148   1.6273 H              1 S1                 0.0000
     36 ****         2.5891  -0.8731  -2.3734 H              1 S1                 0.0000
     37 ****         0.8668  -1.0138  -2.7274 H              1 S1                 0.0000
     38 ****         2.9815  -0.5017  -4.6336 H              1 S1                 0.0000
     39 ****         1.2331  -0.4083  -4.9604 H              1 S1                 0.0000
     40 ****         2.6483   1.8632  -6.3387 H              1 S1                 0.0000
     41 ****         2.6735   4.3339  -5.9444 H              1 S1                 0.0000
     42 ****         2.1580   5.2408  -3.6858 H              1 S1                 0.0000
     43 ****         1.6148   3.7158  -1.8085 H              1 S1                 0.0000
     44 ****        -1.2353   2.9260   0.6251 H              1 S1                 0.0000
     45 ****        -1.1615  -2.7835   5.2728 H              1 S1                 0.0000
     46 ****        -2.6725  -4.4885   2.9428 H              1 S1                 0.0000
     47 ****        -3.4740   1.1520   3.7475 LP             1 S1                 0.0000
     48 ****        -4.6416   0.1133   4.2212 LP             1 S1                 0.0000
     49 ****        -1.2379  -0.1357   4.4768 LP             1 S1                 0.0000
     50 ****        -1.3396   0.1803   2.8779 LP             1 S1                 0.0000
     51 ****         2.2633  -1.6843  -0.5583 LP             1 S1                 0.0000
     52 ****        -0.0376   2.7447  -1.3313 LP             1 S1                 0.0000
     53 ****        -1.1842   1.2611   2.3042 LP             1 S1                 0.0000
     54 ****         0.3105  -3.3238   5.0011 LP             1 S1                 0.0000
     55 ****        -0.9933  -4.2647   4.7156 LP             1 S1                 0.0000
     56 ****        -3.9351  -3.5207   2.9380 LP             1 S1                 0.0000
     57 ****        -3.0471  -3.7333   4.2918 LP             1 S1                 0.0000
@<TRIPOS>BOND
    1    1    2 1     
    2    1   32 1     
    3    2    3 1     
    4    2   33 1     
    5    2   34 1     
    6    3   28 1     
    7    3   26 1     
    8    3    4 1     
    9    4    5 1     
   10    5   29 1     
   11    5    6 1     
   12    5   24 1     
   13    6   23 1     
   14    6    7 1     
   15    7    8 2     
   16    7   35 1     
   17    8    9 1     
   18    9   23 ar    
   19    9   10 ar    
   20   10   11 1     
   21   10   20 ar    
   22   11   19 1     
   23   11   12 1     
   24   12   13 1     
   25   12   36 1     
   26   12   37 1     
   27   13   14 1     
   28   13   38 1     
   29   13   39 1     
   30   14   19 ar    
   31   14   15 ar    
   32   15   16 ar    
   33   15   40 1     
   34   16   17 ar    
   35   16   41 1     
   36   17   18 ar    
   37   17   42 1     
   38   18   19 ar    
   39   18   43 1     
   40   20   21 ar    
   41   21   22 ar    
   42   21   44 1     
   43   22   23 ar    
   44   24   30 1     
   45   24   25 1     
   46   24   26 1     
   47   25   45 1     
   48   26   31 1     
   49   26   27 1     
   50   27   46 1     
   51    1   47 1     
   52    1   48 1     
   53    4   49 1     
   54    4   50 1     
   55    8   51 1     
   56   20   52 1     
   57   22   53 1     
   58   25   54 1     
   59   25   55 1     
   60   27   56 1     
   61   27   57 1     
@<TRIPOS>SUBSTRUCTURE
      1 S1             1
@<TRIPOS>SET
LONE_PAIRS      STATIC     ATOMS    <user>   **** ""
11 47 48 49 50 51 52 53 54 55 56 57
DONOR_HYDROGENS      STATIC     ATOMS    <user>   **** ""
3 32 45 46
ATOM$BLUE        STATIC     ATOMS    COLORGROUP SYSTEM
11 47 48 49 50 51 52 53 54 55 56 57
ATOM$RED        STATIC     ATOMS    COLORGROUP SYSTEM
3 32 45 46
