#       Name:                AV-unprocessed.smi:3149
#       Creating user name   scv26
#       Creation time:       Fri Mar 27 17:41:05 2020


#       File generated by GOLD software.
#

@<TRIPOS>MOLECULE
AV-unprocessed.smi:3149
    41    42     1
SMALL
NO_CHARGES


@<TRIPOS>ATOM
      1 ****        -1.3078  -0.5792   2.2052 C.3            1 S1                 0.0000
      2 ****        -0.8369  -0.1332   0.8035 C.3            1 S1                 0.0000
      3 ****         0.6158  -0.2621   0.7216 N.3            1 S1                 0.0000
      4 ****         1.3341   0.8532   1.3503 C.3            1 S1                 0.0000
      5 ****         2.8431   0.7406   1.1195 C.2            1 S1                 0.0000
      6 ****         3.5149  -0.0368   1.7975 O.2            1 S1                 0.0000
      7 ****         3.3999   1.4717   0.0666 N.am           1 S1                 0.0000
      8 ****         4.6206   1.0314  -0.5913 C.3            1 S1                 0.0000
      9 ****         4.0703   1.7317  -1.8382 C.3            1 S1                 0.0000
     10 ****         2.6856   1.6827  -1.1838 C.3            1 S1                 0.0000
     11 ****        -1.4616  -0.9704  -0.3466 C.3            1 S1                 0.0000
     12 ****        -1.1245  -0.4053  -1.7409 C.3            1 S1                 0.0000
     13 ****        -2.9057  -1.1133  -0.2029 N.pl3          1 S1                 0.0000
     14 ****        -3.6320  -2.2694  -0.0032 C.2            1 S1                 0.0000
     15 ****        -4.9488  -1.9168   0.0760 C.2            1 S1                 0.0000
     16 ****        -4.9311  -0.5041  -0.0905 C.2            1 S1                 0.0000
     17 ****        -3.7090  -0.0260  -0.2577 N.2            1 S1                 0.0000
     18 ****        -2.3847  -0.4602   2.3239 H              1 S1                 0.0000
     19 ****        -0.8472   0.0082   2.9987 H              1 S1                 0.0000
     20 ****        -1.0699  -1.6277   2.3872 H              1 S1                 0.0000
     21 ****        -1.1203   0.9101   0.6536 H              1 S1                 0.0000
     22 ****         0.9025  -1.1540   1.0995 H              1 S1                 0.0000
     23 ****         0.9703   1.8057   0.9622 H              1 S1                 0.0000
     24 ****         1.1535   0.8592   2.4248 H              1 S1                 0.0000
     25 ****         5.5292   1.4743  -0.1825 H              1 S1                 0.0000
     26 ****         4.6910  -0.0526  -0.7029 H              1 S1                 0.0000
     27 ****         4.4517   2.7461  -1.9684 H              1 S1                 0.0000
     28 ****         4.1538   1.1465  -2.7544 H              1 S1                 0.0000
     29 ****         2.0935   0.8227  -1.5018 H              1 S1                 0.0000
     30 ****         2.1285   2.6189  -1.2269 H              1 S1                 0.0000
     31 ****        -1.0478  -1.9792  -0.2937 H              1 S1                 0.0000
     32 ****        -0.0516  -0.4248  -1.9317 H              1 S1                 0.0000
     33 ****        -1.4595   0.6270  -1.8467 H              1 S1                 0.0000
     34 ****        -1.6021  -0.9920  -2.5264 H              1 S1                 0.0000
     35 ****        -3.1565  -3.2366   0.0668 H              1 S1                 0.0000
     36 ****        -5.7958  -2.5688   0.2295 H              1 S1                 0.0000
     37 ****        -5.7641   0.1835  -0.0947 H              1 S1                 0.0000
     38 ****         0.8653  -0.2228  -0.2460 LP             1 S1                 0.0000
     39 ****         3.0749  -0.5959   2.5002 LP             1 S1                 0.0000
     40 ****         4.5006  -0.1093   1.6455 LP             1 S1                 0.0000
     41 ****        -3.4390   0.9271  -0.3943 LP             1 S1                 0.0000
@<TRIPOS>BOND
    1    1    2 1     
    2    1   18 1     
    3    1   19 1     
    4    1   20 1     
    5    2    3 1     
    6    2   11 1     
    7    2   21 1     
    8    3    4 1     
    9    3   22 1     
   10    4    5 1     
   11    4   23 1     
   12    4   24 1     
   13    5    6 2     
   14    5    7 am    
   15    7   10 1     
   16    7    8 1     
   17    8    9 1     
   18    8   25 1     
   19    8   26 1     
   20    9   10 1     
   21    9   27 1     
   22    9   28 1     
   23   10   29 1     
   24   10   30 1     
   25   11   12 1     
   26   11   13 1     
   27   11   31 1     
   28   12   32 1     
   29   12   33 1     
   30   12   34 1     
   31   13   17 1     
   32   13   14 1     
   33   14   15 2     
   34   14   35 1     
   35   15   16 1     
   36   15   36 1     
   37   16   17 2     
   38   16   37 1     
   39    3   38 1     
   40    6   39 1     
   41    6   40 1     
   42   17   41 1     
@<TRIPOS>SUBSTRUCTURE
      1 S1             1
@<TRIPOS>SET
LONE_PAIRS      STATIC     ATOMS    <user>   **** ""
4 38 39 40 41
DONOR_HYDROGENS      STATIC     ATOMS    <user>   **** ""
1 22
ATOM$BLUE        STATIC     ATOMS    COLORGROUP SYSTEM
4 38 39 40 41
ATOM$RED        STATIC     ATOMS    COLORGROUP SYSTEM
1 22
