AV-unprocessed.smi:3348|AV-procd|sdf|12920|dock5
  -GOLD-   2272019343D 1   1.00000     0.00000
 Structure written by MMmdl.
 47 48  0  0  0  0  0  0  0  0  2 V2000
  144.0213  135.8705  151.8745 C   0  0  0  0  0  0  0  0  0  0  0  0
  145.5447  135.6983  151.8144 C   0  0  1  0  0  0  0  0  0  0  0  0
  145.9499  134.7205  150.6931 C   0  0  0  0  0  0  0  0  0  0  0  0
  145.3574  133.4049  150.8595 N   0  0  0  0  0  0  0  0  0  0  0  0
  145.9933  132.1961  151.0499 C   0  0  0  0  0  0  0  0  0  0  0  0
  145.0244  131.2386  151.1436 C   0  0  0  0  0  0  0  0  0  0  0  0
  143.8114  131.9682  150.9987 C   0  0  0  0  0  0  0  0  0  0  0  0
  144.0139  133.2647  150.8272 N   0  0  0  0  0  0  0  0  0  0  0  0
  146.1835  137.0183  151.6147 N   0  3  0  0  0  0  0  0  0  0  0  0
  146.1244  137.9197  152.7835 C   0  0  0  0  0  0  0  0  0  0  0  0
  147.1660  139.0349  152.6642 C   0  0  0  0  0  0  0  0  0  0  0  0
  146.8304  140.0683  153.5771 O   0  0  0  0  0  0  0  0  0  0  0  0
  147.7404  141.1630  153.5851 C   0  0  2  0  0  0  0  0  0  0  0  0
  149.0293  140.6967  154.2873 C   0  0  0  0  0  0  0  0  0  0  0  0
  148.7962  140.3980  155.7779 C   0  0  0  0  0  0  0  0  0  0  0  0
  148.1801  141.6065  156.4980 C   0  0  0  0  0  0  0  0  0  0  0  0
  146.8841  142.0644  155.8103 C   0  0  0  0  0  0  0  0  0  0  0  0
  147.1138  142.3734  154.3175 C   0  0  2  0  0  0  0  0  0  0  0  0
  145.8312  142.8778  153.6383 C   0  0  0  0  0  0  0  0  0  0  0  0
  143.5248  134.9161  152.0519 H   0  0  0  0  0  0  0  0  0  0  0  0
  143.6294  136.2804  150.9428 H   0  0  0  0  0  0  0  0  0  0  0  0
  143.7341  136.5447  152.6822 H   0  0  0  0  0  0  0  0  0  0  0  0
  145.8646  135.2799  152.7707 H   0  0  0  0  0  0  0  0  0  0  0  0
  145.6321  135.1102  149.7250 H   0  0  0  0  0  0  0  0  0  0  0  0
  147.0352  134.6172  150.6430 H   0  0  0  0  0  0  0  0  0  0  0  0
  147.0695  132.1184  151.1012 H   0  0  0  0  0  0  0  0  0  0  0  0
  145.1609  130.1781  151.2944 H   0  0  0  0  0  0  0  0  0  0  0  0
  142.7973  131.5968  151.0122 H   0  0  0  0  0  0  0  0  0  0  0  0
  147.1534  136.8644  151.3772 H   0  0  0  0  0  0  0  0  0  0  0  0
  145.1231  138.3425  152.8737 H   0  0  0  0  0  0  0  0  0  0  0  0
  146.3159  137.3427  153.6891 H   0  0  0  0  0  0  0  0  0  0  0  0
  148.1554  138.6443  152.9062 H   0  0  0  0  0  0  0  0  0  0  0  0
  147.2030  139.4105  151.6407 H   0  0  0  0  0  0  0  0  0  0  0  0
  148.0022  141.4580  152.5668 H   0  0  0  0  0  0  0  0  0  0  0  0
  149.4269  139.8125  153.7881 H   0  0  0  0  0  0  0  0  0  0  0  0
  149.7920  141.4705  154.1916 H   0  0  0  0  0  0  0  0  0  0  0  0
  148.1368  139.5354  155.8819 H   0  0  0  0  0  0  0  0  0  0  0  0
  149.7384  140.1240  156.2529 H   0  0  0  0  0  0  0  0  0  0  0  0
  147.9788  141.3552  157.5397 H   0  0  0  0  0  0  0  0  0  0  0  0
  148.8972  142.4281  156.5113 H   0  0  0  0  0  0  0  0  0  0  0  0
  146.1213  141.2919  155.9170 H   0  0  0  0  0  0  0  0  0  0  0  0
  146.4983  142.9491  156.3181 H   0  0  0  0  0  0  0  0  0  0  0  0
  147.8367  143.1891  154.2643 H   0  0  0  0  0  0  0  0  0  0  0  0
  145.0372  142.1319  153.6781 H   0  0  0  0  0  0  0  0  0  0  0  0
  146.0109  143.1227  152.5913 H   0  0  0  0  0  0  0  0  0  0  0  0
  145.4600  143.7792  154.1265 H   0  0  0  0  0  0  0  0  0  0  0  0
  145.7331  137.4809  150.8377 H   0  0  0  0  0  0  0  0  0  0  0  0
  1  2  1  0  0  0  0
  1 20  1  0  0  0  0
  1 21  1  0  0  0  0
  1 22  1  0  0  0  0
  2  3  1  0  0  0  0
  2  9  1  0  0  0  0
  2 23  1  0  0  0  0
  3  4  1  0  0  0  0
  3 24  1  0  0  0  0
  3 25  1  0  0  0  0
  4  8  1  0  0  0  0
  4  5  1  0  0  0  0
  5  6  2  0  0  0  0
  5 26  1  0  0  0  0
  6  7  1  0  0  0  0
  6 27  1  0  0  0  0
  7  8  2  0  0  0  0
  7 28  1  0  0  0  0
  9 10  1  0  0  0  0
  9 29  1  0  0  0  0
  9 47  1  0  0  0  0
 10 11  1  0  0  0  0
 10 30  1  0  0  0  0
 10 31  1  0  0  0  0
 11 12  1  0  0  0  0
 11 32  1  0  0  0  0
 11 33  1  0  0  0  0
 12 13  1  0  0  0  0
 13 18  1  0  0  0  0
 13 14  1  0  0  0  0
 13 34  1  0  0  0  0
 14 15  1  0  0  0  0
 14 35  1  0  0  0  0
 14 36  1  0  0  0  0
 15 16  1  0  0  0  0
 15 37  1  0  0  0  0
 15 38  1  0  0  0  0
 16 17  1  0  0  0  0
 16 39  1  0  0  0  0
 16 40  1  0  0  0  0
 17 18  1  0  0  0  0
 17 41  1  0  0  0  0
 17 42  1  0  0  0  0
 18 19  1  0  0  0  0
 18 43  1  0  0  0  0
 19 44  1  0  0  0  0
 19 45  1  0  0  0  0
 19 46  1  0  0  0  0
M  CHG  1   9   1
M  END
> <s_m_source_file>
AV-unprocessed.smi

> <i_m_source_file_index>
3348

> <i_lp_mmshare_version>
43012

> <i_f3d_flags>
0

> <s_epik_input>
bjFbY0hdW2NIXVtjSF1uMVtDSDJdW0NAQEhdKFtDSDNdKVtOSF1bQ0gyXVtDSDJdT1tDQEBIXTJbQ0gyXVtDSDJdW0NIMl1bQ0gyXVtDQEhdMltDSDNd

> <s_epik_cmdline>
J2VwaWtfcHl0aG9uJywgJy1waCcsICc3LjAnLCAnLXRuJywgJzgnLCAnLW1hJywgJzIwMCcsICctbWV0YWxfYmluZGluZycsICctaW1hZScsICc8aW5maWxlLm1hZT4nLCAnLW9tYWUnLCAnPG91dGZpbGUubWFlPic=

> <r_lp_tautomer_probability>
1

> <r_epik_Ionization_Penalty>
0.00925088

> <r_epik_Ionization_Penalty_Charging>
0.00924645

> <r_epik_Ionization_Penalty_Neutral>
4.42413e-06

> <r_epik_State_Penalty>
0.0070118

> <r_epik_Charging_Adjusted_Penalty>
0.0162583

> <i_epik_Tot_Q>
1

> <i_epik_Tot_abs_Q>
1

> <r_epik_Metal_State_Penalty>
0.00701222

> <b_epik_Metal_Only>
0

> <s_lp_Force_Field>
OPLS_2005

> <r_lp_Energy>
18.0188

> <b_lp_Chiralities_Consistent>
1

> <s_lp_Variant>
AV-unprocessed.smi:3348-6

> <Gold.Version>
5.8.1

> <Gold.Id.Protein>
6NUR|6NUR_protein|mol2

> <Gold.PLP.Fitness>
49.4002

> <Gold.PLP.PLP>
-37.1779

> <Gold.PLP.part.hbond>
-1.3740

> <Gold.PLP.part.metal>
0.0000

> <Gold.PLP.part.buried>
-3.6094

> <Gold.PLP.part.nonpolar>
-32.8316

> <Gold.PLP.part.repulsive>
0.4290

> <Gold.PLP.ligand.clash>
0.0000

> <Gold.PLP.ligand.torsion>
0.3250

> <Gold.PLP.Chemscore.Hbond>
2.3563

> <Gold.PLP.Chemscore.CHOScore>
1.9055

> <Gold.PLP.Chemscore.Metal>
0.0000

> <Gold.Chemscore.Hbonds>
donor molecule, donor type, donor heavy atom, donor atom, acceptor molecule, acceptor atom, score
      L1  H     9    29       P1  7948  2.00
      L1  H     9    47       P1 10171  0.10
      L1  C     5    26       P1 10747  1.00
      L1  C     7    28       P1 10952  0.41

> <Gold.PLP.Chemscore.Internal.Correction>
0.0870

> <Gold.Rescore>
     Score         DG    S(hbond)    S(metal)    S(lipo)     H(rot)  DE(clash)    DE(int)     intcor
     14.37     -16.04       1.22        0.00      95.06       1.82       0.10       1.57       ----

> <Gold.Chemscore.Fitness>
14.3675

> <Gold.Chemscore.DG>
-16.0434

> <Gold.Chemscore.ZeroCoef>
-5.4800

> <Gold.Chemscore.Hbond>
1.2250

> <Gold.Chemscore.Metal>
0.0000

> <Gold.Chemscore.Lipo>
95.0579

> <Gold.Chemscore.Internal_Hbond>
0.0000

> <Gold.Chemscore.DEClash>
0.1013

> <Gold.Chemscore.DEInternal>
1.5746

> <Gold.Chemscore.Rot>
1.8163

> <Gold.Chemscore.Internal.Correction>
   9.000000E+99

> <Gold.Chemscore.Hbonds>
donor molecule, donor type, donor heavy atom, donor atom, acceptor molecule, acceptor atom, score
      L1  H     9    29       P1  7948  0.96
      L1  H     9    47       P1 10171  0.12

> <Gold.Chemscore.Hbond.Weighted>
-4.0914

> <Gold.Chemscore.Metal.Weighted>
-0.0000

> <Gold.Chemscore.Lipo.Weighted>
-11.1218

> <Gold.Chemscore.Internal_Hbond.Weighted>
0.0000

> <Gold.Chemscore.DEClash.Weighted>
0.1013

> <Gold.Chemscore.DEInternal.Weighted>
1.5746

> <Gold.Chemscore.Rot.Weighted>
4.6497

> <Gold.Chemscore.Internal.Correction.Weighted>
   9.000000E+99

> <Gold.Protein.RotatedTorsions>
[ 6907 6896 6895 6894 ] final   55.66 input  -60.11 | X-H torsion
[ 7974 7965 7964 7962 ] final  178.39 input  175.53 | X-H torsion
[ 8008 7997 7996 7995 ] final   18.74 input   59.86 | X-H torsion
[ 10167 10162 10161 10158 ] final   66.79 input  -65.29 | X-H torsion
[ 10718 10713 10712 10709 ] final  162.43 input   66.30 | X-H torsion
[ 10763 10752 10751 10750 ] final  137.36 input  -60.55 | X-H torsion
[ 11005 11000 10999 10996 ] final  -73.61 input  -57.11 | X-H torsion

> <Gold.Protein.ActiveResidues>
 VAL166  LYS551  ARG553  GLY616  TRP617  ASP618  TYR619  PRO620  LYS621  CYS622 
 ASP623  PHE694  ASN695  SER759  ASP760  ASP761  ALA762  ILE779  LEU786  VAL792 
 PHE793  MET794  SER795  GLU796  ALA797  LYS798  CYS799  TRP800  GLU811  SER814 

> <Gold.Protein.RotatedAtoms>
  152.3560  134.6939  160.0221 H   0  0  0  0  0  0  0  0  0  0  0  0  # atno 6907 bound_to 6896
  151.7278  133.3311  159.3340 H   0  0  0  0  0  0  0  0  0  0  0  0  # atno 6908 bound_to 6896
  150.7572  134.6324  159.6238 H   0  0  0  0  0  0  0  0  0  0  0  0  # atno 6909 bound_to 6896
  144.7157  140.0391  143.6437 H   0  0  0  0  0  0  0  0  0  0  0  0  # atno 7974 bound_to 7965
  154.9105  140.3013  155.5269 H   0  0  0  0  0  0  0  0  0  0  0  0  # atno 8008 bound_to 7997
  156.3015  140.2390  156.4079 H   0  0  0  0  0  0  0  0  0  0  0  0  # atno 8009 bound_to 7997
  154.8430  140.0413  157.1543 H   0  0  0  0  0  0  0  0  0  0  0  0  # atno 8010 bound_to 7997
  140.0966  144.4941  150.7064 H   0  0  0  0  0  0  0  0  0  0  0  0  # atno 10167 bound_to 10162
  157.1226  131.0496  151.2408 H   0  0  0  0  0  0  0  0  0  0  0  0  # atno 10718 bound_to 10713
  153.8718  135.3055  155.3442 H   0  0  0  0  0  0  0  0  0  0  0  0  # atno 10763 bound_to 10752
  154.7802  135.4839  153.9831 H   0  0  0  0  0  0  0  0  0  0  0  0  # atno 10764 bound_to 10752
  153.1402  135.6822  153.9136 H   0  0  0  0  0  0  0  0  0  0  0  0  # atno 10765 bound_to 10752
  141.1625  133.6884  156.7238 H   0  0  0  0  0  0  0  0  0  0  0  0  # atno 11005 bound_to 11000
  146.0039  139.3113  143.0911 LP  0  0  0  0  0  0  0  0  0  0  0  0  # atno 17320 bound_to 7965
  145.8761  140.9391  143.0625 LP  0  0  0  0  0  0  0  0  0  0  0  0  # atno 17321 bound_to 7965
  140.7000  143.2429  151.4891 LP  0  0  0  0  0  0  0  0  0  0  0  0  # atno 17342 bound_to 10162
  139.5695  144.1963  152.1815 LP  0  0  0  0  0  0  0  0  0  0  0  0  # atno 17343 bound_to 10162
  157.4463  130.7572  149.7112 LP  0  0  0  0  0  0  0  0  0  0  0  0  # atno 17370 bound_to 10713
  155.9825  130.4009  150.3413 LP  0  0  0  0  0  0  0  0  0  0  0  0  # atno 17371 bound_to 10713
  140.2796  134.8327  157.3921 LP  0  0  0  0  0  0  0  0  0  0  0  0  # atno 17394 bound_to 11000
  140.1445  134.4929  155.8006 LP  0  0  0  0  0  0  0  0  0  0  0  0  # atno 17395 bound_to 11000

$$$$
