#       Name:                AV-unprocessed.smi:2768
#       Creating user name   scv26
#       Creation time:       Fri Mar 27 15:10:21 2020


#       File generated by GOLD software.
#

@<TRIPOS>MOLECULE
AV-unprocessed.smi:2768
    40    41     1
SMALL
NO_CHARGES


@<TRIPOS>ATOM
      1 ****         0.3120   2.5216   1.3549 O.2            1 S1                 0.0000
      2 ****         0.8279   1.4115   1.1814 C.2            1 S1                 0.0000
      3 ****         0.2393   0.1908   1.0217 N.pl3          1 S1                -1.0000
      4 ****        -1.2084  -0.0380   1.0293 C.3            1 S1                 0.0000
      5 ****        -1.7553  -0.1219  -0.4186 C.3            1 S1                 0.0000
      6 ****        -3.2619  -0.4803  -0.4809 C.3            1 S1                 0.0000
      7 ****        -3.5943  -1.7925   0.2606 C.3            1 S1                 0.0000
      8 ****        -3.0600  -1.7263   1.7089 C.3            1 S1                 0.0000
      9 ****        -1.5564  -1.3479   1.7940 C.3            1 S1                 0.0000
     10 ****        -0.7869  -2.4334   1.3090 O.3            1 S1                 0.0000
     11 ****         2.3674   1.3211   1.1102 C.3            1 S1                 0.0000
     12 ****         2.8948   2.3766   1.7369 F              1 S1                 0.0000
     13 ****         2.7878   0.2275   1.7552 F              1 S1                 0.0000
     14 ****         2.8388   1.2955  -0.3431 C.ar           1 S1                 0.0000
     15 ****         3.0800   0.0711  -1.0077 C.ar           1 S1                 0.0000
     16 ****         3.5007   0.1012  -2.3508 C.ar           1 S1                 0.0000
     17 ****         3.6680   1.3484  -2.9816 C.ar           1 S1                 0.0000
     18 ****         3.4012   2.5145  -2.2379 C.ar           1 S1                 0.0000
     19 ****         2.9953   2.4967  -0.9508 N.ar           1 S1                 0.0000
     20 ****        -1.7408   0.7721   1.5306 H              1 S1                 0.0000
     21 ****        -1.2885  -1.2194   2.8436 H              1 S1                 0.0000
     22 ****        -1.5903   0.8276  -0.9290 H              1 S1                 0.0000
     23 ****        -1.1926  -0.8678  -0.9821 H              1 S1                 0.0000
     24 ****        -3.8583   0.3334  -0.0630 H              1 S1                 0.0000
     25 ****        -3.5698  -0.5675  -1.5232 H              1 S1                 0.0000
     26 ****        -4.6702  -1.9684   0.2602 H              1 S1                 0.0000
     27 ****        -3.1392  -2.6347  -0.2618 H              1 S1                 0.0000
     28 ****        -3.6517  -1.0000   2.2694 H              1 S1                 0.0000
     29 ****        -3.2288  -2.6832   2.2044 H              1 S1                 0.0000
     30 ****         0.1098  -2.1377   1.2518 H              1 S1                 0.0000
     31 ****         2.9337  -0.8723  -0.5025 H              1 S1                 0.0000
     32 ****         3.6899  -0.8162  -2.8882 H              1 S1                 0.0000
     33 ****         3.9900   1.4102  -4.0105 H              1 S1                 0.0000
     34 ****         3.5178   3.4886  -2.6895 H              1 S1                 0.0000
     35 ****        -0.6834   2.6097   1.3943 LP             1 S1                 0.0000
     36 ****         0.8900   3.3313   1.4558 LP             1 S1                 0.0000
     37 ****         0.8358  -0.6010   0.8906 LP             1 S1                 0.0000
     38 ****        -1.1150  -2.7091   0.4054 LP             1 S1                 0.0000
     39 ****        -0.8527  -3.2080   1.9381 LP             1 S1                 0.0000
     40 ****         2.8146   3.3480  -0.4582 LP             1 S1                 0.0000
@<TRIPOS>BOND
    1    1    2 2     
    2    2    3 1     
    3    2   11 1     
    4    3    4 1     
    5    4   20 1     
    6    4    9 1     
    7    4    5 1     
    8    5    6 1     
    9    5   22 1     
   10    5   23 1     
   11    6    7 1     
   12    6   24 1     
   13    6   25 1     
   14    7    8 1     
   15    7   26 1     
   16    7   27 1     
   17    8    9 1     
   18    8   28 1     
   19    8   29 1     
   20    9   21 1     
   21    9   10 1     
   22   10   30 1     
   23   11   12 1     
   24   11   13 1     
   25   11   14 1     
   26   14   19 ar    
   27   14   15 ar    
   28   15   16 ar    
   29   15   31 1     
   30   16   17 ar    
   31   16   32 1     
   32   17   18 ar    
   33   17   33 1     
   34   18   19 ar    
   35   18   34 1     
   36    1   35 1     
   37    1   36 1     
   38    3   37 1     
   39   10   38 1     
   40   10   39 1     
   41   19   40 1     
@<TRIPOS>SUBSTRUCTURE
      1 S1             1
@<TRIPOS>SET
LONE_PAIRS      STATIC     ATOMS    <user>   **** ""
6 35 36 37 38 39 40
DONOR_HYDROGENS      STATIC     ATOMS    <user>   **** ""
1 30
ATOM$BLUE        STATIC     ATOMS    COLORGROUP SYSTEM
6 35 36 37 38 39 40
ATOM$RED        STATIC     ATOMS    COLORGROUP SYSTEM
1 30
