AV-unprocessed.smi:2848|AV-procd|sdf|10956|dock10
  -GOLD-   2272015413D 1   1.00000     0.00000
 Structure written by MMmdl.
 26 27  0  0  0  0  0  0  0  0  1 V2000
  153.2358  141.3666  160.7130 Cl  0  0  0  0  0  0  0  0  0  0  0  0
  152.3394  142.7371  160.1578 C   0  0  0  0  0  0  0  0  0  0  0  0
  152.2504  143.8880  160.9675 C   0  0  0  0  0  0  0  0  0  0  0  0
  151.5727  144.9989  160.6101 N   0  0  0  0  0  0  0  0  0  0  0  0
  150.9504  144.9964  159.4129 C   0  0  0  0  0  0  0  0  0  0  0  0
  150.9755  143.9006  158.5272 C   0  0  0  0  0  0  0  0  0  0  0  0
  151.6874  142.7368  158.9029 C   0  0  0  0  0  0  0  0  0  0  0  0
  151.7638  141.5999  158.0839 N   0  0  0  0  0  0  0  0  0  0  0  0
  151.0599  141.5509  156.8110 C   0  0  0  0  0  0  0  0  0  0  0  0
  151.3698  140.3017  156.0094 C   0  0  0  0  0  0  0  0  0  0  0  0
  150.5415  139.7692  155.0874 C   0  0  0  0  0  0  0  0  0  0  0  0
  150.8686  138.6870  154.3103 O   0  0  0  0  0  0  0  0  0  0  0  0
  152.2510  138.3482  154.3295 C   0  0  0  0  0  0  0  0  0  0  0  0
  152.8092  138.4440  155.7586 C   0  0  0  0  0  0  0  0  0  0  0  0
  152.5910  139.7419  156.3041 O   0  0  0  0  0  0  0  0  0  0  0  0
  152.7379  143.9179  161.9309 H   0  0  0  0  0  0  0  0  0  0  0  0
  150.4140  145.8965  159.1519 H   0  0  0  0  0  0  0  0  0  0  0  0
  150.4516  143.9711  157.5860 H   0  0  0  0  0  0  0  0  0  0  0  0
  152.5274  140.9541  158.2270 H   0  0  0  0  0  0  0  0  0  0  0  0
  149.9847  141.5801  156.9890 H   0  0  0  0  0  0  0  0  0  0  0  0
  151.3205  142.4296  156.2198 H   0  0  0  0  0  0  0  0  0  0  0  0
  149.5728  140.1736  154.8334 H   0  0  0  0  0  0  0  0  0  0  0  0
  152.3778  137.3393  153.9367 H   0  0  0  0  0  0  0  0  0  0  0  0
  152.7936  139.0217  153.6645 H   0  0  0  0  0  0  0  0  0  0  0  0
  152.3312  137.7041  156.4018 H   0  0  0  0  0  0  0  0  0  0  0  0
  153.8780  138.2299  155.7655 H   0  0  0  0  0  0  0  0  0  0  0  0
  1  2  1  0  0  0  0
  2  7  1  0  0  0  0
  2  3  2  0  0  0  0
  3  4  1  0  0  0  0
  3 16  1  0  0  0  0
  4  5  2  0  0  0  0
  5  6  1  0  0  0  0
  5 17  1  0  0  0  0
  6  7  2  0  0  0  0
  6 18  1  0  0  0  0
  7  8  1  0  0  0  0
  8  9  1  0  0  0  0
  8 19  1  0  0  0  0
  9 10  1  0  0  0  0
  9 20  1  0  0  0  0
  9 21  1  0  0  0  0
 10 15  1  0  0  0  0
 10 11  2  0  0  0  0
 11 12  1  0  0  0  0
 11 22  1  0  0  0  0
 12 13  1  0  0  0  0
 13 14  1  0  0  0  0
 13 23  1  0  0  0  0
 13 24  1  0  0  0  0
 14 15  1  0  0  0  0
 14 25  1  0  0  0  0
 14 26  1  0  0  0  0
M  END
> <s_m_source_file>
AV-unprocessed.smi

> <i_m_source_file_index>
2848

> <i_lp_mmshare_version>
43012

> <i_f3d_flags>
0

> <s_epik_input>
Q2xjMVtjSF1uW2NIXVtjSF1jMVtOSF1bQ0gyXUMyPVtDSF1PW0NIMl1bQ0gyXU8y

> <s_epik_cmdline>
J2VwaWtfcHl0aG9uJywgJy1waCcsICc3LjAnLCAnLXRuJywgJzgnLCAnLW1hJywgJzIwMCcsICctbWV0YWxfYmluZGluZycsICctaW1hZScsICc8aW5maWxlLm1hZT4nLCAnLW9tYWUnLCAnPG91dGZpbGUubWFlPic=

> <r_lp_tautomer_probability>
0.999999

> <r_epik_Ionization_Penalty>
1.20444

> <r_epik_Ionization_Penalty_Charging>
0

> <r_epik_Ionization_Penalty_Neutral>
1.20444

> <r_epik_State_Penalty>
1.27033

> <r_epik_Charging_Adjusted_Penalty>
1.27033

> <i_epik_Tot_Q>
0

> <i_epik_Tot_abs_Q>
0

> <r_epik_Metal_State_Penalty>
0.00444713

> <b_epik_Metal_Only>
0

> <s_lp_Force_Field>
OPLS_2005

> <r_lp_Energy>
2.57385

> <b_lp_Chiralities_Consistent>
1

> <s_lp_Variant>
AV-unprocessed.smi:2848-2

> <Gold.Version>
5.8.1

> <Gold.Id.Protein>
6NUR|6NUR_protein|mol2

> <Gold.PLP.Fitness>
38.0767

> <Gold.PLP.PLP>
-35.8169

> <Gold.PLP.part.hbond>
-1.0000

> <Gold.PLP.part.metal>
0.0000

> <Gold.PLP.part.buried>
-5.7771

> <Gold.PLP.part.nonpolar>
-29.6809

> <Gold.PLP.part.repulsive>
0.4255

> <Gold.PLP.ligand.clash>
0.0000

> <Gold.PLP.ligand.torsion>
0.3701

> <Gold.PLP.Chemscore.Hbond>
1.0000

> <Gold.PLP.Chemscore.CHOScore>
0.0000

> <Gold.PLP.Chemscore.Metal>
0.0000

> <Gold.Chemscore.Hbonds>
donor molecule, donor type, donor heavy atom, donor atom, acceptor molecule, acceptor atom, score
      P1  H  7997  8008       L1    15  0.70

> <Gold.PLP.Chemscore.Internal.Correction>
0.0000

> <Gold.Rescore>
     Score         DG    S(hbond)    S(metal)    S(lipo)     H(rot)  DE(clash)    DE(int)     intcor
     16.70     -16.89       0.85        0.00      99.26       1.19       0.12       0.07       ----

> <Gold.Chemscore.Fitness>
16.7017

> <Gold.Chemscore.DG>
-16.8882

> <Gold.Chemscore.ZeroCoef>
-5.4800

> <Gold.Chemscore.Hbond>
0.8533

> <Gold.Chemscore.Metal>
0.0000

> <Gold.Chemscore.Lipo>
99.2647

> <Gold.Chemscore.Internal_Hbond>
0.0000

> <Gold.Chemscore.DEClash>
0.1166

> <Gold.Chemscore.DEInternal>
0.0700

> <Gold.Chemscore.Rot>
1.1937

> <Gold.Chemscore.Internal.Correction>
   9.000000E+99

> <Gold.Chemscore.Hbonds>
donor molecule, donor type, donor heavy atom, donor atom, acceptor molecule, acceptor atom, score
      P1  H  7997  8008       L1    15  0.07

> <Gold.Chemscore.Hbond.Weighted>
-2.8500

> <Gold.Chemscore.Metal.Weighted>
-0.0000

> <Gold.Chemscore.Lipo.Weighted>
-11.6140

> <Gold.Chemscore.Internal_Hbond.Weighted>
0.0000

> <Gold.Chemscore.DEClash.Weighted>
0.1166

> <Gold.Chemscore.DEInternal.Weighted>
0.0700

> <Gold.Chemscore.Rot.Weighted>
3.0558

> <Gold.Chemscore.Internal.Correction.Weighted>
   9.000000E+99

> <Gold.Protein.RotatedTorsions>
[ 6907 6896 6895 6894 ] final   -6.13 input  -60.11 | X-H torsion
[ 7974 7965 7964 7962 ] final  150.74 input  175.53 | X-H torsion
[ 8008 7997 7996 7995 ] final  -46.34 input   59.86 | X-H torsion
[ 10167 10162 10161 10158 ] final   16.72 input  -65.29 | X-H torsion
[ 10718 10713 10712 10709 ] final  -23.53 input   66.30 | X-H torsion
[ 10763 10752 10751 10750 ] final -101.02 input  -60.55 | X-H torsion
[ 11005 11000 10999 10996 ] final -129.61 input  -57.11 | X-H torsion

> <Gold.Protein.ActiveResidues>
 VAL166  LYS551  ARG553  GLY616  TRP617  ASP618  TYR619  PRO620  LYS621  CYS622 
 ASP623  PHE694  ASN695  SER759  ASP760  ASP761  ALA762  ILE779  LEU786  VAL792 
 PHE793  MET794  SER795  GLU796  ALA797  LYS798  CYS799  TRP800  GLU811  SER814 

> <Gold.Protein.RotatedAtoms>
  151.4705  135.1045  159.9749 H   0  0  0  0  0  0  0  0  0  0  0  0  # atno 6907 bound_to 6896
  152.4818  133.8270  159.7094 H   0  0  0  0  0  0  0  0  0  0  0  0  # atno 6908 bound_to 6896
  150.8896  133.7200  159.2935 H   0  0  0  0  0  0  0  0  0  0  0  0  # atno 6909 bound_to 6896
  144.8342  139.6447  143.6045 H   0  0  0  0  0  0  0  0  0  0  0  0  # atno 7974 bound_to 7965
  154.4007  140.1374  156.3995 H   0  0  0  0  0  0  0  0  0  0  0  0  # atno 8008 bound_to 7997
  155.7838  140.3480  155.5291 H   0  0  0  0  0  0  0  0  0  0  0  0  # atno 8009 bound_to 7997
  155.8647  140.0962  157.1580 H   0  0  0  0  0  0  0  0  0  0  0  0  # atno 8010 bound_to 7997
  140.5777  143.9040  150.6764 H   0  0  0  0  0  0  0  0  0  0  0  0  # atno 10167 bound_to 10162
  156.4897  130.4564  149.6762 H   0  0  0  0  0  0  0  0  0  0  0  0  # atno 10718 bound_to 10713
  154.7625  135.4913  153.9491 H   0  0  0  0  0  0  0  0  0  0  0  0  # atno 10763 bound_to 10752
  153.1268  135.6744  153.9251 H   0  0  0  0  0  0  0  0  0  0  0  0  # atno 10764 bound_to 10752
  153.8966  135.3114  155.3427 H   0  0  0  0  0  0  0  0  0  0  0  0  # atno 10765 bound_to 10752
  140.9416  134.1185  157.4145 H   0  0  0  0  0  0  0  0  0  0  0  0  # atno 11005 bound_to 11000
  146.2642  139.6482  142.9340 LP  0  0  0  0  0  0  0  0  0  0  0  0  # atno 17320 bound_to 7965
  145.4830  141.0438  143.2635 LP  0  0  0  0  0  0  0  0  0  0  0  0  # atno 17321 bound_to 7965
  140.2531  143.3578  152.1388 LP  0  0  0  0  0  0  0  0  0  0  0  0  # atno 17342 bound_to 10162
  139.5152  144.6959  151.5630 LP  0  0  0  0  0  0  0  0  0  0  0  0  # atno 17343 bound_to 10162
  156.3438  130.7396  151.2345 LP  0  0  0  0  0  0  0  0  0  0  0  0  # atno 17370 bound_to 10713
  157.7475  131.0396  150.4558 LP  0  0  0  0  0  0  0  0  0  0  0  0  # atno 17371 bound_to 10713
  139.8822  135.0038  156.6212 LP  0  0  0  0  0  0  0  0  0  0  0  0  # atno 17394 bound_to 11000
  140.7726  133.8726  155.8503 LP  0  0  0  0  0  0  0  0  0  0  0  0  # atno 17395 bound_to 11000

$$$$
