AV-unprocessed.smi:2552|AV-procd|sdf|10016|dock1
  -GOLD-   2272014 63D 1   1.00000     0.00000
 Structure written by MMmdl.
 34 36  0  0  0  0  0  0  0  0  1 V2000
  147.9722  136.7163  158.6200 C   0  0  0  0  0  0  0  0  0  0  0  0
  148.8936  137.0214  157.5279 N   0  0  0  0  0  0  0  0  0  0  0  0
  149.1329  135.9587  156.6485 N   0  0  0  0  0  0  0  0  0  0  0  0
  149.9261  136.0909  155.6314 C   0  0  0  0  0  0  0  0  0  0  0  0
  150.5702  137.3840  155.4214 C   0  0  0  0  0  0  0  0  0  0  0  0
  151.4718  137.9197  154.4609 C   0  0  0  0  0  0  0  0  0  0  0  0
  151.7717  139.1925  154.7130 N   0  0  0  0  0  0  0  0  0  0  0  0
  151.0837  139.5180  155.8383 N   0  0  0  0  0  0  0  0  0  0  0  0
  151.1938  140.8565  156.3972 C   0  0  0  0  0  0  0  0  0  0  0  0
  151.5203  140.8499  157.9044 C   0  0  1  0  0  0  0  0  0  0  0  0
  152.6585  140.0448  158.1496 O   0  0  0  0  0  0  0  0  0  0  0  0
  151.6868  142.2676  158.4351 C   0  0  0  0  0  0  0  0  0  0  0  0
  151.4283  143.3782  157.6001 C   0  0  0  0  0  0  0  0  0  0  0  0
  151.5734  144.6894  158.0928 C   0  0  0  0  0  0  0  0  0  0  0  0
  151.9739  144.9003  159.4256 C   0  0  0  0  0  0  0  0  0  0  0  0
  152.2262  143.7991  160.2653 C   0  0  0  0  0  0  0  0  0  0  0  0
  152.0819  142.4864  159.7748 C   0  0  0  0  0  0  0  0  0  0  0  0
  152.3221  141.4392  160.6002 F   0  0  0  0  0  0  0  0  0  0  0  0
  150.3553  138.4257  156.2619 C   0  0  0  0  0  0  0  0  0  0  0  0
  149.4473  138.2669  157.4221 C   0  0  0  0  0  0  0  0  0  0  0  0
  149.2270  139.1907  158.2055 O   0  0  0  0  0  0  0  0  0  0  0  0
  147.1066  137.3795  158.5888 H   0  0  0  0  0  0  0  0  0  0  0  0
  148.4648  136.8422  159.5851 H   0  0  0  0  0  0  0  0  0  0  0  0
  147.6027  135.6907  158.5687 H   0  0  0  0  0  0  0  0  0  0  0  0
  150.1112  135.2622  154.9482 H   0  0  0  0  0  0  0  0  0  0  0  0
  151.9124  137.4366  153.6013 H   0  0  0  0  0  0  0  0  0  0  0  0
  151.9584  141.4077  155.8470 H   0  0  0  0  0  0  0  0  0  0  0  0
  150.2531  141.3779  156.2166 H   0  0  0  0  0  0  0  0  0  0  0  0
  150.6989  140.3756  158.4417 H   0  0  0  0  0  0  0  0  0  0  0  0
  152.3679  139.1674  158.3457 H   0  0  0  0  0  0  0  0  0  0  0  0
  151.1143  143.2292  156.5773 H   0  0  0  0  0  0  0  0  0  0  0  0
  151.3751  145.5330  157.4482 H   0  0  0  0  0  0  0  0  0  0  0  0
  152.0848  145.9057  159.8044 H   0  0  0  0  0  0  0  0  0  0  0  0
  152.5293  143.9606  161.2892 H   0  0  0  0  0  0  0  0  0  0  0  0
  1  2  1  0  0  0  0
  1 22  1  0  0  0  0
  1 23  1  0  0  0  0
  1 24  1  0  0  0  0
  2 20  1  0  0  0  0
  2  3  1  0  0  0  0
  3  4  2  0  0  0  0
  4  5  1  0  0  0  0
  4 25  1  0  0  0  0
  5 19  2  0  0  0  0
  5  6  1  0  0  0  0
  6  7  2  0  0  0  0
  6 26  1  0  0  0  0
  7  8  1  0  0  0  0
  8  9  1  0  0  0  0
  8 19  1  0  0  0  0
  9 10  1  0  0  0  0
  9 27  1  0  0  0  0
  9 28  1  0  0  0  0
 10 11  1  0  0  0  0
 10 12  1  0  0  0  0
 10 29  1  0  0  0  0
 11 30  1  0  0  0  0
 12 17  1  0  0  0  0
 12 13  2  0  0  0  0
 13 14  1  0  0  0  0
 13 31  1  0  0  0  0
 14 15  2  0  0  0  0
 14 32  1  0  0  0  0
 15 16  1  0  0  0  0
 15 33  1  0  0  0  0
 16 17  2  0  0  0  0
 16 34  1  0  0  0  0
 17 18  1  0  0  0  0
 19 20  1  0  0  0  0
 20 21  2  0  0  0  0
M  END
> <s_m_source_file>
AV-unprocessed.smi

> <i_m_source_file_index>
2552

> <i_lp_mmshare_version>
43012

> <i_f3d_flags>
0

> <s_epik_input>
W2NIXTFubihbQ0gzXSljKD1PKWMoYzEyKW4obltjSF0yKVtDSDJdW0NASF0oW09IXSljM1tjSF1bY0hdW2NIXVtjSF1jM0Y=

> <s_epik_cmdline>
J2VwaWtfcHl0aG9uJywgJy1waCcsICc3LjAnLCAnLXRuJywgJzgnLCAnLW1hJywgJzIwMCcsICctbWV0YWxfYmluZGluZycsICctaW1hZScsICc8aW5maWxlLm1hZT4nLCAnLW9tYWUnLCAnPG91dGZpbGUubWFlPic=

> <r_lp_tautomer_probability>
1

> <r_epik_Ionization_Penalty>
6.28011e-06

> <r_epik_Ionization_Penalty_Charging>
1.65421e-10

> <r_epik_Ionization_Penalty_Neutral>
6.27995e-06

> <r_epik_State_Penalty>
-0

> <r_epik_Charging_Adjusted_Penalty>
1.65421e-10

> <i_epik_Tot_Q>
0

> <i_epik_Tot_abs_Q>
0

> <r_epik_Metal_State_Penalty>
-0

> <b_epik_Metal_Only>
0

> <s_lp_Force_Field>
OPLS_2005

> <r_lp_Energy>
28.1215

> <b_lp_Chiralities_Consistent>
1

> <s_lp_Variant>
AV-unprocessed.smi:2552-2

> <Gold.Version>
5.8.1

> <Gold.Id.Protein>
6NUR|6NUR_protein|mol2

> <Gold.PLP.Fitness>
50.6059

> <Gold.PLP.PLP>
-42.0058

> <Gold.PLP.part.hbond>
-2.0000

> <Gold.PLP.part.metal>
0.0000

> <Gold.PLP.part.buried>
-4.3364

> <Gold.PLP.part.nonpolar>
-35.2654

> <Gold.PLP.part.repulsive>
0.0838

> <Gold.PLP.ligand.clash>
0.0000

> <Gold.PLP.ligand.torsion>
0.1977

> <Gold.PLP.Chemscore.Hbond>
2.0000

> <Gold.PLP.Chemscore.CHOScore>
0.9888

> <Gold.PLP.Chemscore.Metal>
0.0000

> <Gold.Chemscore.Hbonds>
donor molecule, donor type, donor heavy atom, donor atom, acceptor molecule, acceptor atom, score
      P1  H  7989  7998       L1     7  0.93
      P1  H  7997  8008       L1    11  0.54
      L1  C     6    26       P1  7949  0.67

> <Gold.PLP.Chemscore.Internal.Correction>
0.0291

> <Gold.Rescore>
     Score         DG    S(hbond)    S(metal)    S(lipo)     H(rot)  DE(clash)    DE(int)     intcor
     16.31     -19.00       1.93        0.00     104.73       2.02       0.18       2.51       ----

> <Gold.Chemscore.Fitness>
16.3102

> <Gold.Chemscore.DG>
-19.0008

> <Gold.Chemscore.ZeroCoef>
-5.4800

> <Gold.Chemscore.Hbond>
1.9263

> <Gold.Chemscore.Metal>
0.0000

> <Gold.Chemscore.Lipo>
104.7300

> <Gold.Chemscore.Internal_Hbond>
0.0000

> <Gold.Chemscore.DEClash>
0.1795

> <Gold.Chemscore.DEInternal>
2.5111

> <Gold.Chemscore.Rot>
2.0181

> <Gold.Chemscore.Internal.Correction>
   9.000000E+99

> <Gold.Chemscore.Hbonds>
donor molecule, donor type, donor heavy atom, donor atom, acceptor molecule, acceptor atom, score
      P1  H  7989  7998       L1     7  0.47
      P1  H  7997  8008       L1    11  0.43

> <Gold.Chemscore.Hbond.Weighted>
-6.4337

> <Gold.Chemscore.Metal.Weighted>
-0.0000

> <Gold.Chemscore.Lipo.Weighted>
-12.2534

> <Gold.Chemscore.Internal_Hbond.Weighted>
0.0000

> <Gold.Chemscore.DEClash.Weighted>
0.1795

> <Gold.Chemscore.DEInternal.Weighted>
2.5111

> <Gold.Chemscore.Rot.Weighted>
5.1663

> <Gold.Chemscore.Internal.Correction.Weighted>
   9.000000E+99

> <Gold.Protein.RotatedTorsions>
[ 6907 6896 6895 6894 ] final -124.39 input  -60.11 | X-H torsion
[ 7974 7965 7964 7962 ] final  -17.50 input  175.53 | X-H torsion
[ 8008 7997 7996 7995 ] final  -79.44 input   59.86 | X-H torsion
[ 10167 10162 10161 10158 ] final  -69.28 input  -65.29 | X-H torsion
[ 10718 10713 10712 10709 ] final  -13.10 input   66.30 | X-H torsion
[ 10763 10752 10751 10750 ] final  -70.73 input  -60.55 | X-H torsion
[ 11005 11000 10999 10996 ] final -115.65 input  -57.11 | X-H torsion

> <Gold.Protein.ActiveResidues>
 VAL166  LYS551  ARG553  GLY616  TRP617  ASP618  TYR619  PRO620  LYS621  CYS622 
 ASP623  PHE694  ASN695  SER759  ASP760  ASP761  ALA762  ILE779  LEU786  VAL792 
 PHE793  MET794  SER795  GLU796  ALA797  LYS798  CYS799  TRP800  GLU811  SER814 

> <Gold.Protein.RotatedAtoms>
  150.8763  133.7434  159.2945 H   0  0  0  0  0  0  0  0  0  0  0  0  # atno 6907 bound_to 6896
  151.5030  135.1061  159.9843 H   0  0  0  0  0  0  0  0  0  0  0  0  # atno 6908 bound_to 6896
  152.4730  133.8027  159.7017 H   0  0  0  0  0  0  0  0  0  0  0  0  # atno 6909 bound_to 6896
  146.1938  140.3789  142.8448 H   0  0  0  0  0  0  0  0  0  0  0  0  # atno 7974 bound_to 7965
  154.5785  140.0678  156.9070 H   0  0  0  0  0  0  0  0  0  0  0  0  # atno 8008 bound_to 7997
  155.2505  140.3351  155.4264 H   0  0  0  0  0  0  0  0  0  0  0  0  # atno 8009 bound_to 7997
  156.2172  140.1783  156.7546 H   0  0  0  0  0  0  0  0  0  0  0  0  # atno 8010 bound_to 7997
  140.5442  143.2313  151.7032 H   0  0  0  0  0  0  0  0  0  0  0  0  # atno 10167 bound_to 10162
  156.6351  130.4912  149.6115 H   0  0  0  0  0  0  0  0  0  0  0  0  # atno 10718 bound_to 10713
  154.4218  135.5984  153.6015 H   0  0  0  0  0  0  0  0  0  0  0  0  # atno 10763 bound_to 10752
  152.9794  135.5954  154.3945 H   0  0  0  0  0  0  0  0  0  0  0  0  # atno 10764 bound_to 10752
  154.3772  135.2841  155.2211 H   0  0  0  0  0  0  0  0  0  0  0  0  # atno 10765 bound_to 10752
  141.0473  133.9742  157.2895 H   0  0  0  0  0  0  0  0  0  0  0  0  # atno 11005 bound_to 11000
  144.8538  140.7041  143.6151 LP  0  0  0  0  0  0  0  0  0  0  0  0  # atno 17320 bound_to 7965
  145.3710  139.1658  143.4332 LP  0  0  0  0  0  0  0  0  0  0  0  0  # atno 17321 bound_to 7965
  139.5001  144.3920  152.0269 LP  0  0  0  0  0  0  0  0  0  0  0  0  # atno 17342 bound_to 10162
  140.3032  144.3623  150.6054 LP  0  0  0  0  0  0  0  0  0  0  0  0  # atno 17343 bound_to 10162
  156.2203  130.6733  151.1362 LP  0  0  0  0  0  0  0  0  0  0  0  0  # atno 17370 bound_to 10713
  157.7188  131.0694  150.6220 LP  0  0  0  0  0  0  0  0  0  0  0  0  # atno 17371 bound_to 10713
  139.9322  135.0199  156.8439 LP  0  0  0  0  0  0  0  0  0  0  0  0  # atno 17394 bound_to 11000
  140.6121  134.0072  155.7581 LP  0  0  0  0  0  0  0  0  0  0  0  0  # atno 17395 bound_to 11000

$$$$
