AV-unprocessed.smi:2058|AV-procd|sdf|8347|dock2
  -GOLD-   2272011 13D 1   1.00000     0.00000
 Structure written by MMmdl.
 43 44  0  0  0  0  0  0  0  0  2 V2000
  146.4291  138.3197  150.4295 C   0  0  0  0  0  0  0  0  0  0  0  0
  146.2967  138.2101  151.9596 C   0  0  1  0  0  0  0  0  0  0  0  0
  145.7097  136.8600  152.4218 C   0  0  0  0  0  0  0  0  0  0  0  0
  144.5003  136.5931  151.7442 O   0  0  0  0  0  0  0  0  0  0  0  0
  147.5608  138.5156  152.6323 N   0  0  0  0  0  0  0  0  0  0  0  0
  147.7868  139.4912  153.5264 C   0  0  0  0  0  0  0  0  0  0  0  0
  146.9291  140.2906  153.9002 O   0  0  0  0  0  0  0  0  0  0  0  0
  149.0574  139.4607  153.9634 N   0  0  0  0  0  0  0  0  0  0  0  0
  149.6852  140.3139  154.9104 C   0  0  0  0  0  0  0  0  0  0  0  0
  150.6350  139.7413  155.7837 C   0  0  0  0  0  0  0  0  0  0  0  0
  151.2931  140.5518  156.7310 C   0  0  0  0  0  0  0  0  0  0  0  0
  150.9974  141.9327  156.7845 C   0  0  0  0  0  0  0  0  0  0  0  0
  151.5983  142.8145  157.6923 N   0  0  0  0  0  0  0  0  0  0  0  0
  150.6431  143.7327  158.3075 C   0  0  0  0  0  0  0  0  0  0  0  0
  151.3707  144.7989  159.1447 C   0  0  0  0  0  0  0  0  0  0  0  0
  152.3031  144.1446  160.1768 C   0  0  0  0  0  0  0  0  0  0  0  0
  153.2640  143.1673  159.4811 C   0  0  0  0  0  0  0  0  0  0  0  0
  152.4879  142.1423  158.6361 C   0  0  0  0  0  0  0  0  0  0  0  0
  150.0933  142.4474  155.9228 N   0  3  0  0  0  0  0  0  0  0  0  0
  149.4395  141.7060  155.0022 C   0  0  0  0  0  0  0  0  0  0  0  0
  145.4589  138.2090  149.9449 H   0  0  0  0  0  0  0  0  0  0  0  0
  147.0869  137.5515  150.0224 H   0  0  0  0  0  0  0  0  0  0  0  0
  146.8306  139.2910  150.1392 H   0  0  0  0  0  0  0  0  0  0  0  0
  145.6166  138.9974  152.2881 H   0  0  0  0  0  0  0  0  0  0  0  0
  146.4091  136.0407  152.2532 H   0  0  0  0  0  0  0  0  0  0  0  0
  145.4909  136.8835  153.4900 H   0  0  0  0  0  0  0  0  0  0  0  0
  144.2991  137.3309  151.1888 H   0  0  0  0  0  0  0  0  0  0  0  0
  148.3370  137.9143  152.3977 H   0  0  0  0  0  0  0  0  0  0  0  0
  149.6243  138.6987  153.6215 H   0  0  0  0  0  0  0  0  0  0  0  0
  150.8557  138.6848  155.7355 H   0  0  0  0  0  0  0  0  0  0  0  0
  152.0147  140.1147  157.4057 H   0  0  0  0  0  0  0  0  0  0  0  0
  150.0448  144.2149  157.5332 H   0  0  0  0  0  0  0  0  0  0  0  0
  149.9544  143.1730  158.9417 H   0  0  0  0  0  0  0  0  0  0  0  0
  151.9522  145.4455  158.4860 H   0  0  0  0  0  0  0  0  0  0  0  0
  150.6452  145.4398  159.6465 H   0  0  0  0  0  0  0  0  0  0  0  0
  152.8650  144.9081  160.7158 H   0  0  0  0  0  0  0  0  0  0  0  0
  151.7102  143.6097  160.9196 H   0  0  0  0  0  0  0  0  0  0  0  0
  153.9502  143.7238  158.8411 H   0  0  0  0  0  0  0  0  0  0  0  0
  153.8783  142.6537  160.2212 H   0  0  0  0  0  0  0  0  0  0  0  0
  151.9039  141.4931  159.2902 H   0  0  0  0  0  0  0  0  0  0  0  0
  153.1870  141.5046  158.0932 H   0  0  0  0  0  0  0  0  0  0  0  0
  148.7590  142.2610  154.3741 H   0  0  0  0  0  0  0  0  0  0  0  0
  149.8950  143.4474  155.9676 H   0  0  0  0  0  0  0  0  0  0  0  0
  1  2  1  0  0  0  0
  1 21  1  0  0  0  0
  1 22  1  0  0  0  0
  1 23  1  0  0  0  0
  2  3  1  0  0  0  0
  2  5  1  0  0  0  0
  2 24  1  0  0  0  0
  3  4  1  0  0  0  0
  3 25  1  0  0  0  0
  3 26  1  0  0  0  0
  4 27  1  0  0  0  0
  5  6  1  0  0  0  0
  5 28  1  0  0  0  0
  6  7  2  0  0  0  0
  6  8  1  0  0  0  0
  8  9  1  0  0  0  0
  8 29  1  0  0  0  0
  9 20  1  0  0  0  0
  9 10  2  0  0  0  0
 10 11  1  0  0  0  0
 10 30  1  0  0  0  0
 11 12  2  0  0  0  0
 11 31  1  0  0  0  0
 12 13  1  0  0  0  0
 12 19  1  0  0  0  0
 13 18  1  0  0  0  0
 13 14  1  0  0  0  0
 14 15  1  0  0  0  0
 14 32  1  0  0  0  0
 14 33  1  0  0  0  0
 15 16  1  0  0  0  0
 15 34  1  0  0  0  0
 15 35  1  0  0  0  0
 16 17  1  0  0  0  0
 16 36  1  0  0  0  0
 16 37  1  0  0  0  0
 17 18  1  0  0  0  0
 17 38  1  0  0  0  0
 17 39  1  0  0  0  0
 18 40  1  0  0  0  0
 18 41  1  0  0  0  0
 19 20  2  0  0  0  0
 19 43  1  0  0  0  0
 20 42  1  0  0  0  0
M  CHG  1  19   1
M  END
> <s_m_source_file>
AV-unprocessed.smi

> <i_m_source_file_index>
2058

> <i_lp_mmshare_version>
43012

> <i_f3d_flags>
0

> <s_epik_input>
W09IXVtDSDJdW0NAQEhdKFtDSDNdKVtOSF1DKD1PKVtOSF1jMVtjSF1bY0hdYyhuW2NIXTEpTjJbQ0gyXVtDSDJdW0NIMl1bQ0gyXVtDSDJdMg==

> <s_epik_cmdline>
J2VwaWtfcHl0aG9uJywgJy1waCcsICc3LjAnLCAnLXRuJywgJzgnLCAnLW1hJywgJzIwMCcsICctbWV0YWxfYmluZGluZycsICctaW1hZScsICc8aW5maWxlLm1hZT4nLCAnLW9tYWUnLCAnPG91dGZpbGUubWFlPic=

> <r_lp_tautomer_probability>
0.999994

> <r_epik_Ionization_Penalty>
1.11069

> <r_epik_Ionization_Penalty_Charging>
1.11067

> <r_epik_Ionization_Penalty_Neutral>
2.03008e-05

> <r_epik_State_Penalty>
1.16863

> <r_epik_Charging_Adjusted_Penalty>
2.27929

> <i_epik_Tot_Q>
1

> <i_epik_Tot_abs_Q>
1

> <r_epik_Metal_State_Penalty>
1.25471

> <b_epik_Metal_Only>
0

> <s_lp_Force_Field>
OPLS_2005

> <r_lp_Energy>
26.1115

> <b_lp_Chiralities_Consistent>
1

> <s_lp_Variant>
AV-unprocessed.smi:2058-4

> <Gold.Version>
5.8.1

> <Gold.Id.Protein>
6NUR|6NUR_protein|mol2

> <Gold.PLP.Fitness>
48.7661

> <Gold.PLP.PLP>
-37.6694

> <Gold.PLP.part.hbond>
-5.0000

> <Gold.PLP.part.metal>
0.0000

> <Gold.PLP.part.buried>
3.9458

> <Gold.PLP.part.nonpolar>
-37.7858

> <Gold.PLP.part.repulsive>
0.4979

> <Gold.PLP.ligand.clash>
0.0000

> <Gold.PLP.ligand.torsion>
0.5480

> <Gold.PLP.Chemscore.Hbond>
4.0000

> <Gold.PLP.Chemscore.CHOScore>
0.0000

> <Gold.PLP.Chemscore.Metal>
0.0000

> <Gold.Chemscore.Hbonds>
donor molecule, donor type, donor heavy atom, donor atom, acceptor molecule, acceptor atom, score
      L1  H     4    27       P1 10171  1.00
      L1  H     5    28       P1  7948  0.99
      L1  H    19    43       P1  8028  2.00

> <Gold.PLP.Chemscore.Internal.Correction>
0.1927

> <Gold.Rescore>
     Score         DG    S(hbond)    S(metal)    S(lipo)     H(rot)  DE(clash)    DE(int)     intcor
     19.16     -22.62       2.94        0.00     108.03       2.08       2.39       1.07       ----

> <Gold.Chemscore.Fitness>
19.1601

> <Gold.Chemscore.DG>
-22.6223

> <Gold.Chemscore.ZeroCoef>
-5.4800

> <Gold.Chemscore.Hbond>
2.9398

> <Gold.Chemscore.Metal>
0.0000

> <Gold.Chemscore.Lipo>
108.0330

> <Gold.Chemscore.Internal_Hbond>
0.0000

> <Gold.Chemscore.DEClash>
2.3872

> <Gold.Chemscore.DEInternal>
1.0750

> <Gold.Chemscore.Rot>
2.0767

> <Gold.Chemscore.Internal.Correction>
   9.000000E+99

> <Gold.Chemscore.Hbonds>
donor molecule, donor type, donor heavy atom, donor atom, acceptor molecule, acceptor atom, score
      L1  H     4    27       P1 10171  1.00
      L1  H     5    28       P1  7948  0.94
      L1  H    19    43       P1  8028  0.94

> <Gold.Chemscore.Hbond.Weighted>
-9.8189

> <Gold.Chemscore.Metal.Weighted>
-0.0000

> <Gold.Chemscore.Lipo.Weighted>
-12.6399

> <Gold.Chemscore.Internal_Hbond.Weighted>
0.0000

> <Gold.Chemscore.DEClash.Weighted>
2.3872

> <Gold.Chemscore.DEInternal.Weighted>
1.0750

> <Gold.Chemscore.Rot.Weighted>
5.3164

> <Gold.Chemscore.Internal.Correction.Weighted>
   9.000000E+99

> <Gold.Protein.RotatedTorsions>
[ 6907 6896 6895 6894 ] final  144.79 input  -60.11 | X-H torsion
[ 7974 7965 7964 7962 ] final  -93.77 input  175.53 | X-H torsion
[ 8008 7997 7996 7995 ] final -173.53 input   59.86 | X-H torsion
[ 10167 10162 10161 10158 ] final -150.16 input  -65.29 | X-H torsion
[ 10718 10713 10712 10709 ] final -103.80 input   66.30 | X-H torsion
[ 10763 10752 10751 10750 ] final  -54.58 input  -60.55 | X-H torsion
[ 11005 11000 10999 10996 ] final  -10.72 input  -57.11 | X-H torsion

> <Gold.Protein.ActiveResidues>
 VAL166  LYS551  ARG553  GLY616  TRP617  ASP618  TYR619  PRO620  LYS621  CYS622 
 ASP623  PHE694  ASN695  SER759  ASP760  ASP761  ALA762  ILE779  LEU786  VAL792 
 PHE793  MET794  SER795  GLU796  ALA797  LYS798  CYS799  TRP800  GLU811  SER814 

> <Gold.Protein.RotatedAtoms>
  152.1892  133.4761  159.4998 H   0  0  0  0  0  0  0  0  0  0  0  0  # atno 6907 bound_to 6896
  150.6948  134.1735  159.4230 H   0  0  0  0  0  0  0  0  0  0  0  0  # atno 6908 bound_to 6896
  151.9649  135.0105  160.0600 H   0  0  0  0  0  0  0  0  0  0  0  0  # atno 6909 bound_to 6896
  145.3822  140.9519  143.2387 H   0  0  0  0  0  0  0  0  0  0  0  0  # atno 7974 bound_to 7965
  155.9586  140.1140  157.0915 H   0  0  0  0  0  0  0  0  0  0  0  0  # atno 8008 bound_to 7997
  154.4126  140.1186  156.5215 H   0  0  0  0  0  0  0  0  0  0  0  0  # atno 8009 bound_to 7997
  155.6749  140.3473  155.4835 H   0  0  0  0  0  0  0  0  0  0  0  0  # atno 8010 bound_to 7997
  139.7379  143.8708  152.2554 H   0  0  0  0  0  0  0  0  0  0  0  0  # atno 10167 bound_to 10162
  156.0279  130.5484  150.7305 H   0  0  0  0  0  0  0  0  0  0  0  0  # atno 10718 bound_to 10713
  154.1771  135.6449  153.5024 H   0  0  0  0  0  0  0  0  0  0  0  0  # atno 10763 bound_to 10752
  153.0069  135.5397  154.6552 H   0  0  0  0  0  0  0  0  0  0  0  0  # atno 10764 bound_to 10752
  154.5907  135.2934  155.0611 H   0  0  0  0  0  0  0  0  0  0  0  0  # atno 10765 bound_to 10752
  140.7477  133.8618  155.9019 H   0  0  0  0  0  0  0  0  0  0  0  0  # atno 11005 bound_to 11000
  144.8500  139.5337  143.6861 LP  0  0  0  0  0  0  0  0  0  0  0  0  # atno 17320 bound_to 7965
  146.2837  139.6945  142.9211 LP  0  0  0  0  0  0  0  0  0  0  0  0  # atno 17321 bound_to 7965
  139.8650  144.7098  150.9055 LP  0  0  0  0  0  0  0  0  0  0  0  0  # atno 17342 bound_to 10162
  140.7781  143.3786  151.1518 LP  0  0  0  0  0  0  0  0  0  0  0  0  # atno 17343 bound_to 10162
  157.4899  131.0910  151.0439 LP  0  0  0  0  0  0  0  0  0  0  0  0  # atno 17370 bound_to 10713
  157.0849  130.5918  149.5428 LP  0  0  0  0  0  0  0  0  0  0  0  0  # atno 17371 bound_to 10713
  140.9779  134.1444  157.4520 LP  0  0  0  0  0  0  0  0  0  0  0  0  # atno 17394 bound_to 11000
  139.8793  135.0001  156.5990 LP  0  0  0  0  0  0  0  0  0  0  0  0  # atno 17395 bound_to 11000

$$$$
