AV-unprocessed.smi:2385|AV-procd|sdf|9466|dock1
  -GOLD-   2272013 93D 1   1.00000     0.00000
 Structure written by MMmdl.
 50 52  0  0  0  0  0  0  0  0  2 V2000
  153.8369  141.7063  160.6737 C   0  0  0  0  0  0  0  0  0  0  0  0
  152.8352  141.9412  159.5624 C   0  0  0  0  0  0  0  0  0  0  0  0
  152.2217  143.1958  159.3842 C   0  0  0  0  0  0  0  0  0  0  0  0
  151.2982  143.3565  158.3331 C   0  0  0  0  0  0  0  0  0  0  0  0
  151.0096  142.2618  157.4872 C   0  0  0  0  0  0  0  0  0  0  0  0
  150.0673  142.5287  156.4582 N   0  0  0  0  0  0  0  0  0  0  0  0
  149.6060  141.6873  155.5160 C   0  0  0  0  0  0  0  0  0  0  0  0
  149.9211  140.5026  155.4009 O   0  0  0  0  0  0  0  0  0  0  0  0
  148.7419  142.3029  154.6951 N   0  0  0  0  0  0  0  0  0  0  0  0
  148.0460  141.6720  153.5733 C   0  0  2  0  0  0  0  0  0  0  0  0
  146.9594  142.5883  152.9777 C   0  0  0  0  0  0  0  0  0  0  0  0
  145.7611  142.7548  153.9283 C   0  0  0  0  0  0  0  0  0  0  0  0
  145.1791  141.4391  154.3027 N   0  3  2  0  0  0  0  0  0  0  0  0
  143.9366  141.5829  155.1076 C   0  0  0  0  0  0  0  0  0  0  0  0
  144.1450  142.4004  156.3998 C   0  0  1  0  0  0  0  0  0  0  0  0
  144.2072  143.9161  156.2271 C   0  0  0  0  0  0  0  0  0  0  0  0
  143.4938  144.4778  157.4617 C   0  0  0  0  0  0  0  0  0  0  0  0
  143.1802  143.3493  158.2645 O   0  0  0  0  0  0  0  0  0  0  0  0
  142.9944  142.2490  157.3931 C   0  0  0  0  0  0  0  0  0  0  0  0
  146.1963  140.5585  154.9370 C   0  0  0  0  0  0  0  0  0  0  0  0
  147.4096  140.3429  154.0133 C   0  0  0  0  0  0  0  0  0  0  0  0
  151.6065  141.0571  157.6667 N   0  0  0  0  0  0  0  0  0  0  0  0
  152.4912  140.9038  158.6743 C   0  0  0  0  0  0  0  0  0  0  0  0
  154.0078  142.6144  161.2524 H   0  0  0  0  0  0  0  0  0  0  0  0
  154.7915  141.3815  160.2589 H   0  0  0  0  0  0  0  0  0  0  0  0
  153.4745  140.9325  161.3511 H   0  0  0  0  0  0  0  0  0  0  0  0
  152.4521  144.0240  160.0386 H   0  0  0  0  0  0  0  0  0  0  0  0
  150.8187  144.3131  158.1829 H   0  0  0  0  0  0  0  0  0  0  0  0
  149.7071  143.4711  156.4362 H   0  0  0  0  0  0  0  0  0  0  0  0
  148.5369  143.2757  154.8701 H   0  0  0  0  0  0  0  0  0  0  0  0
  148.7864  141.4543  152.8012 H   0  0  0  0  0  0  0  0  0  0  0  0
  147.3732  143.5646  152.7232 H   0  0  0  0  0  0  0  0  0  0  0  0
  146.6090  142.1599  152.0376 H   0  0  0  0  0  0  0  0  0  0  0  0
  146.0612  143.2927  154.8290 H   0  0  0  0  0  0  0  0  0  0  0  0
  145.0051  143.3654  153.4331 H   0  0  0  0  0  0  0  0  0  0  0  0
  143.1244  141.9871  154.5013 H   0  0  0  0  0  0  0  0  0  0  0  0
  143.6075  140.5886  155.4129 H   0  0  0  0  0  0  0  0  0  0  0  0
  145.0540  142.0653  156.9024 H   0  0  0  0  0  0  0  0  0  0  0  0
  145.2382  144.2660  156.1674 H   0  0  0  0  0  0  0  0  0  0  0  0
  143.6892  144.2417  155.3240 H   0  0  0  0  0  0  0  0  0  0  0  0
  144.1115  145.1855  158.0151 H   0  0  0  0  0  0  0  0  0  0  0  0
  142.5712  144.9841  157.1747 H   0  0  0  0  0  0  0  0  0  0  0  0
  142.0255  142.3330  156.8978 H   0  0  0  0  0  0  0  0  0  0  0  0
  143.0252  141.3022  157.9330 H   0  0  0  0  0  0  0  0  0  0  0  0
  146.5156  140.9936  155.8853 H   0  0  0  0  0  0  0  0  0  0  0  0
  145.7658  139.5873  155.1700 H   0  0  0  0  0  0  0  0  0  0  0  0
  147.0881  139.7910  153.1288 H   0  0  0  0  0  0  0  0  0  0  0  0
  148.1507  139.7141  154.5082 H   0  0  0  0  0  0  0  0  0  0  0  0
  152.9371  139.9250  158.7731 H   0  0  0  0  0  0  0  0  0  0  0  0
  144.9065  141.0006  153.4346 H   0  0  0  0  0  0  0  0  0  0  0  0
  1  2  1  0  0  0  0
  1 24  1  0  0  0  0
  1 25  1  0  0  0  0
  1 26  1  0  0  0  0
  2 23  1  0  0  0  0
  2  3  2  0  0  0  0
  3  4  1  0  0  0  0
  3 27  1  0  0  0  0
  4  5  2  0  0  0  0
  4 28  1  0  0  0  0
  5  6  1  0  0  0  0
  5 22  1  0  0  0  0
  6  7  1  0  0  0  0
  6 29  1  0  0  0  0
  7  8  2  0  0  0  0
  7  9  1  0  0  0  0
  9 10  1  0  0  0  0
  9 30  1  0  0  0  0
 10 21  1  0  0  0  0
 10 11  1  0  0  0  0
 10 31  1  0  0  0  0
 11 12  1  0  0  0  0
 11 32  1  0  0  0  0
 11 33  1  0  0  0  0
 12 13  1  0  0  0  0
 12 34  1  0  0  0  0
 12 35  1  0  0  0  0
 13 14  1  0  0  0  0
 13 20  1  0  0  0  0
 13 50  1  0  0  0  0
 14 15  1  0  0  0  0
 14 36  1  0  0  0  0
 14 37  1  0  0  0  0
 15 19  1  0  0  0  0
 15 16  1  0  0  0  0
 15 38  1  0  0  0  0
 16 17  1  0  0  0  0
 16 39  1  0  0  0  0
 16 40  1  0  0  0  0
 17 18  1  0  0  0  0
 17 41  1  0  0  0  0
 17 42  1  0  0  0  0
 18 19  1  0  0  0  0
 19 43  1  0  0  0  0
 19 44  1  0  0  0  0
 20 21  1  0  0  0  0
 20 45  1  0  0  0  0
 20 46  1  0  0  0  0
 21 47  1  0  0  0  0
 21 48  1  0  0  0  0
 22 23  2  0  0  0  0
 23 49  1  0  0  0  0
M  CHG  1  13   1
M  END
> <s_m_source_file>
AV-unprocessed.smi

> <i_m_source_file_index>
2385

> <i_lp_mmshare_version>
43012

> <i_f3d_flags>
0

> <s_epik_input>
W0NIM11jMVtjSF1bY0hdYyhuW2NIXTEpW05IXUMoPU8pW05IXVtDSF0yW0NIMl1bQ0gyXU4oW0NIMl1bQ0gyXTIpW0NIMl1bQ0BASF0zW0NIMl1bQ0gyXU9bQ0gyXTM=

> <s_epik_cmdline>
J2VwaWtfcHl0aG9uJywgJy1waCcsICc3LjAnLCAnLXRuJywgJzgnLCAnLW1hJywgJzIwMCcsICctbWV0YWxfYmluZGluZycsICctaW1hZScsICc8aW5maWxlLm1hZT4nLCAnLW9tYWUnLCAnPG91dGZpbGUubWFlPic=

> <r_epik_Ionization_Penalty>
0.00752367

> <r_epik_Ionization_Penalty_Charging>
0.00747775

> <r_epik_Ionization_Penalty_Neutral>
4.59207e-05

> <r_epik_State_Penalty>
0.00558817

> <r_epik_Charging_Adjusted_Penalty>
0.0130659

> <i_epik_Tot_Q>
1

> <i_epik_Tot_abs_Q>
1

> <r_epik_Metal_State_Penalty>
-0

> <b_epik_Metal_Only>
0

> <s_lp_Force_Field>
OPLS_2005

> <r_lp_Energy>
36.5339

> <b_lp_Chiralities_Consistent>
1

> <s_lp_Variant>
AV-unprocessed.smi:2385-4

> <Gold.Version>
5.8.1

> <Gold.Id.Protein>
6NUR|6NUR_protein|mol2

> <Gold.PLP.Fitness>
48.6774

> <Gold.PLP.PLP>
-37.0969

> <Gold.PLP.part.hbond>
-3.0000

> <Gold.PLP.part.metal>
0.0000

> <Gold.PLP.part.buried>
-6.6771

> <Gold.PLP.part.nonpolar>
-28.2419

> <Gold.PLP.part.repulsive>
0.3459

> <Gold.PLP.ligand.clash>
0.0000

> <Gold.PLP.ligand.torsion>
0.2577

> <Gold.PLP.Chemscore.Hbond>
4.0000

> <Gold.PLP.Chemscore.CHOScore>
0.0000

> <Gold.PLP.Chemscore.Metal>
0.0000

> <Gold.Chemscore.Hbonds>
donor molecule, donor type, donor heavy atom, donor atom, acceptor molecule, acceptor atom, score
      L1  H     6    29       P1  8028  1.00
      L1  H     9    30       P1  8028  1.00
      L1  H    13    50       P1 10175  1.86

> <Gold.PLP.Chemscore.Internal.Correction>
0.0959

> <Gold.Rescore>
     Score         DG    S(hbond)    S(metal)    S(lipo)     H(rot)  DE(clash)    DE(int)     intcor
     17.59     -21.61       2.91        0.00      85.65       1.41       1.18       2.84       ----

> <Gold.Chemscore.Fitness>
17.5915

> <Gold.Chemscore.DG>
-21.6097

> <Gold.Chemscore.ZeroCoef>
-5.4800

> <Gold.Chemscore.Hbond>
2.9063

> <Gold.Chemscore.Metal>
0.0000

> <Gold.Chemscore.Lipo>
85.6495

> <Gold.Chemscore.Internal_Hbond>
0.0000

> <Gold.Chemscore.DEClash>
1.1829

> <Gold.Chemscore.DEInternal>
2.8353

> <Gold.Chemscore.Rot>
1.4056

> <Gold.Chemscore.Internal.Correction>
   9.000000E+99

> <Gold.Chemscore.Hbonds>
donor molecule, donor type, donor heavy atom, donor atom, acceptor molecule, acceptor atom, score
      L1  H     6    29       P1  8028  0.96
      L1  H     9    30       P1  8028  0.96
      L1  H    13    50       P1 10175  0.55

> <Gold.Chemscore.Hbond.Weighted>
-9.7069

> <Gold.Chemscore.Metal.Weighted>
-0.0000

> <Gold.Chemscore.Lipo.Weighted>
-10.0210

> <Gold.Chemscore.Internal_Hbond.Weighted>
0.0000

> <Gold.Chemscore.DEClash.Weighted>
1.1829

> <Gold.Chemscore.DEInternal.Weighted>
2.8353

> <Gold.Chemscore.Rot.Weighted>
3.5982

> <Gold.Chemscore.Internal.Correction.Weighted>
   9.000000E+99

> <Gold.Protein.RotatedTorsions>
[ 6907 6896 6895 6894 ] final  172.46 input  -60.11 | X-H torsion
[ 7974 7965 7964 7962 ] final  148.42 input  175.53 | X-H torsion
[ 8008 7997 7996 7995 ] final   -9.37 input   59.86 | X-H torsion
[ 10167 10162 10161 10158 ] final -120.16 input  -65.29 | X-H torsion
[ 10718 10713 10712 10709 ] final  -29.17 input   66.30 | X-H torsion
[ 10763 10752 10751 10750 ] final  119.92 input  -60.55 | X-H torsion
[ 11005 11000 10999 10996 ] final    4.23 input  -57.11 | X-H torsion

> <Gold.Protein.ActiveResidues>
 VAL166  LYS551  ARG553  GLY616  TRP617  ASP618  TYR619  PRO620  LYS621  CYS622 
 ASP623  PHE694  ASN695  SER759  ASP760  ASP761  ALA762  ILE779  LEU786  VAL792 
 PHE793  MET794  SER795  GLU796  ALA797  LYS798  CYS799  TRP800  GLU811  SER814 

> <Gold.Protein.RotatedAtoms>
  151.7839  133.3352  159.3479 H   0  0  0  0  0  0  0  0  0  0  0  0  # atno 6907 bound_to 6896
  150.7416  134.5905  159.5994 H   0  0  0  0  0  0  0  0  0  0  0  0  # atno 6908 bound_to 6896
  152.3257  134.7325  160.0354 H   0  0  0  0  0  0  0  0  0  0  0  0  # atno 6909 bound_to 6896
  144.8515  139.6151  143.5971 H   0  0  0  0  0  0  0  0  0  0  0  0  # atno 7974 bound_to 7965
  154.5653  140.2357  155.8273 H   0  0  0  0  0  0  0  0  0  0  0  0  # atno 8008 bound_to 7997
  156.2063  140.3038  155.9593 H   0  0  0  0  0  0  0  0  0  0  0  0  # atno 8009 bound_to 7997
  155.2812  140.0422  157.3006 H   0  0  0  0  0  0  0  0  0  0  0  0  # atno 8010 bound_to 7997
  140.0388  143.5174  152.2140 H   0  0  0  0  0  0  0  0  0  0  0  0  # atno 10167 bound_to 10162
  156.4159  130.4417  149.7219 H   0  0  0  0  0  0  0  0  0  0  0  0  # atno 10718 bound_to 10713
  153.5905  135.3466  155.2909 H   0  0  0  0  0  0  0  0  0  0  0  0  # atno 10763 bound_to 10752
  154.8653  135.4203  154.2521 H   0  0  0  0  0  0  0  0  0  0  0  0  # atno 10764 bound_to 10752
  153.3327  135.7045  153.7004 H   0  0  0  0  0  0  0  0  0  0  0  0  # atno 10765 bound_to 10752
  140.5842  133.9984  155.8061 H   0  0  0  0  0  0  0  0  0  0  0  0  # atno 11005 bound_to 11000
  146.2789  139.6825  142.9243 LP  0  0  0  0  0  0  0  0  0  0  0  0  # atno 17320 bound_to 7965
  145.4489  141.0427  143.2815 LP  0  0  0  0  0  0  0  0  0  0  0  0  # atno 17321 bound_to 7965
  139.6027  144.7587  151.3133 LP  0  0  0  0  0  0  0  0  0  0  0  0  # atno 17342 bound_to 10162
  140.7269  143.6977  150.7870 LP  0  0  0  0  0  0  0  0  0  0  0  0  # atno 17343 bound_to 10162
  156.4179  130.7754  151.2770 LP  0  0  0  0  0  0  0  0  0  0  0  0  # atno 17370 bound_to 10713
  157.7508  131.0192  150.3656 LP  0  0  0  0  0  0  0  0  0  0  0  0  # atno 17371 bound_to 10713
  141.0976  133.9818  157.3133 LP  0  0  0  0  0  0  0  0  0  0  0  0  # atno 17394 bound_to 11000
  139.9303  135.0200  156.8377 LP  0  0  0  0  0  0  0  0  0  0  0  0  # atno 17395 bound_to 11000

$$$$
