#       Name:                AV-unprocessed.smi:1244
#       Creating user name   scv26
#       Creation time:       Fri Mar 27 04:33:55 2020


#       File generated by GOLD software.
#

@<TRIPOS>MOLECULE
AV-unprocessed.smi:1244
    61    63     1
SMALL
NO_CHARGES


@<TRIPOS>ATOM
      1 ****        -5.4110   4.6668   0.3490 C.3            1 S1                 0.0000
      2 ****        -3.9380   4.5093  -0.0440 C.3            1 S1                 0.0000
      3 ****        -3.4946   3.0354  -0.0408 C.3            1 S1                 0.0000
      4 ****        -2.0942   2.9129  -0.5083 N.4            1 S1                 1.0000
      5 ****        -1.5899   1.5193  -0.4232 C.3            1 S1                 0.0000
      6 ****        -0.0509   1.4480  -0.4399 C.3            1 S1                 0.0000
      7 ****         0.4248   0.0752  -0.3135 N.am           1 S1                 0.0000
      8 ****         0.5300  -0.5976   0.8412 C.2            1 S1                 0.0000
      9 ****         0.2151  -0.1240   1.9326 O.2            1 S1                 0.0000
     10 ****         1.0328  -1.8282   0.6443 N.am           1 S1                 0.0000
     11 ****         1.3469  -2.8201   1.6175 C.ar           1 S1                 0.0000
     12 ****         0.6093  -2.9317   2.8248 C.ar           1 S1                 0.0000
     13 ****         0.9606  -3.9071   3.7767 C.ar           1 S1                 0.0000
     14 ****         2.0429  -4.7614   3.5071 C.ar           1 S1                 0.0000
     15 ****         2.7114  -4.6453   2.3414 N.pl3          1 S1                 1.0000
     16 ****         2.4120  -3.7377   1.3785 C.ar           1 S1                 0.0000
     17 ****         3.1930  -3.7461   0.1999 N.3            1 S1                 0.0000
     18 ****         4.4021  -4.5579   0.1192 C.3            1 S1                 0.0000
     19 ****         4.7570  -4.5939  -1.3650 C.3            1 S1                 0.0000
     20 ****         3.3845  -4.5992  -2.0312 C.3            1 S1                 0.0000
     21 ****         2.5236  -3.7419  -1.0971 C.3            1 S1                 0.0000
     22 ****        -1.9488   3.5172  -1.8560 C.3            1 S1                 0.0000
     23 ****        -2.4444   4.9768  -1.8682 C.3            1 S1                 0.0000
     24 ****        -1.4884   5.9574  -1.1650 C.3            1 S1                 0.0000
     25 ****        -3.7730   5.0515  -1.3516 O.3            1 S1                 0.0000
     26 ****        -5.5943   4.2775   1.3508 H              1 S1                 0.0000
     27 ****        -6.0641   4.1336  -0.3426 H              1 S1                 0.0000
     28 ****        -5.7055   5.7166   0.3427 H              1 S1                 0.0000
     29 ****        -3.3375   5.0749   0.6688 H              1 S1                 0.0000
     30 ****        -3.5837   2.6319   0.9688 H              1 S1                 0.0000
     31 ****        -4.1462   2.4399  -0.6829 H              1 S1                 0.0000
     32 ****        -1.9448   1.0755   0.5083 H              1 S1                 0.0000
     33 ****        -2.0150   0.9212  -1.2308 H              1 S1                 0.0000
     34 ****         0.3461   1.8381  -1.3761 H              1 S1                 0.0000
     35 ****         0.3693   2.0649   0.3564 H              1 S1                 0.0000
     36 ****         0.7097  -0.3876  -1.1647 H              1 S1                 0.0000
     37 ****         1.3255  -2.0394  -0.2984 H              1 S1                 0.0000
     38 ****        -0.2291  -2.2861   3.0367 H              1 S1                 0.0000
     39 ****         0.4079  -3.9964   4.7007 H              1 S1                 0.0000
     40 ****         2.3869  -5.5350   4.1783 H              1 S1                 0.0000
     41 ****         5.2084  -4.1319   0.7173 H              1 S1                 0.0000
     42 ****         4.2077  -5.5711   0.4738 H              1 S1                 0.0000
     43 ****         5.3013  -3.6897  -1.6415 H              1 S1                 0.0000
     44 ****         5.3684  -5.4551  -1.6358 H              1 S1                 0.0000
     45 ****         3.4052  -4.2220  -3.0540 H              1 S1                 0.0000
     46 ****         2.9955  -5.6180  -2.0575 H              1 S1                 0.0000
     47 ****         1.5038  -4.1246  -1.0364 H              1 S1                 0.0000
     48 ****         2.4827  -2.7168  -1.4664 H              1 S1                 0.0000
     49 ****        -0.9122   3.4849  -2.1892 H              1 S1                 0.0000
     50 ****        -2.5267   2.9303  -2.5721 H              1 S1                 0.0000
     51 ****        -2.5086   5.2950  -2.9091 H              1 S1                 0.0000
     52 ****        -0.5193   5.9766  -1.6642 H              1 S1                 0.0000
     53 ****        -1.3094   5.6896  -0.1240 H              1 S1                 0.0000
     54 ****        -1.8881   6.9715  -1.1859 H              1 S1                 0.0000
     55 ****        -1.5342   3.4629   0.1276 H              1 S1                 0.0000
     56 ****         3.4854  -5.2874   2.1704 H              1 S1                 0.0000
     57 ****        -0.1404   0.8089   1.9890 LP             1 S1                 0.0000
     58 ****         0.3148  -0.6722   2.7631 LP             1 S1                 0.0000
     59 ****         3.5028  -2.8141   0.3878 LP             1 S1                 0.0000
     60 ****        -4.0427   6.0140  -1.3254 LP             1 S1                 0.0000
     61 ****        -4.3769   4.5529  -1.9734 LP             1 S1                 0.0000
@<TRIPOS>BOND
    1    1    2 1     
    2    1   26 1     
    3    1   27 1     
    4    1   28 1     
    5    2   25 1     
    6    2    3 1     
    7    2   29 1     
    8    3    4 1     
    9    3   30 1     
   10    3   31 1     
   11    4    5 1     
   12    4   22 1     
   13    4   55 1     
   14    5    6 1     
   15    5   32 1     
   16    5   33 1     
   17    6    7 1     
   18    6   34 1     
   19    6   35 1     
   20    7    8 am    
   21    7   36 1     
   22    8    9 2     
   23    8   10 am    
   24   10   11 1     
   25   10   37 1     
   26   11   16 ar    
   27   11   12 ar    
   28   12   13 ar    
   29   12   38 1     
   30   13   14 ar    
   31   13   39 1     
   32   14   15 ar    
   33   14   40 1     
   34   15   16 ar    
   35   15   56 1     
   36   16   17 1     
   37   17   21 1     
   38   17   18 1     
   39   18   19 1     
   40   18   41 1     
   41   18   42 1     
   42   19   20 1     
   43   19   43 1     
   44   19   44 1     
   45   20   21 1     
   46   20   45 1     
   47   20   46 1     
   48   21   47 1     
   49   21   48 1     
   50   22   23 1     
   51   22   49 1     
   52   22   50 1     
   53   23   24 1     
   54   23   25 1     
   55   23   51 1     
   56   24   52 1     
   57   24   53 1     
   58   24   54 1     
   59    9   57 1     
   60    9   58 1     
   61   17   59 1     
   62   25   60 1     
   63   25   61 1     
@<TRIPOS>SUBSTRUCTURE
      1 S1             1
@<TRIPOS>SET
LONE_PAIRS      STATIC     ATOMS    <user>   **** ""
5 57 58 59 60 61
DONOR_HYDROGENS      STATIC     ATOMS    <user>   **** ""
4 55 36 37 56
ATOM$BLUE        STATIC     ATOMS    COLORGROUP SYSTEM
5 57 58 59 60 61
ATOM$RED        STATIC     ATOMS    COLORGROUP SYSTEM
4 55 36 37 56
