AV-unprocessed.smi:2005|AV-procd|sdf|8128|dock1
  -GOLD-   2272010363D 1   1.00000     0.00000
 Structure written by MMmdl.
 38 39  0  0  0  0  0  0  0  0  2 V2000
  153.0711  142.7664  161.9257 C   0  0  0  0  0  0  0  0  0  0  0  0
  153.1430  143.1895  160.4510 C   0  0  0  0  0  0  0  0  0  0  0  0
  152.1874  144.3413  160.1065 C   0  0  0  0  0  0  0  0  0  0  0  0
  152.9834  142.0262  159.5226 C   0  0  0  0  0  0  0  0  0  0  0  0
  154.0014  141.2448  159.1481 N   0  0  0  0  0  0  0  0  0  0  0  0
  153.5994  140.2377  158.2836 N   0  0  0  0  0  0  0  0  0  0  0  0
  152.2887  140.2755  158.0056 C   0  0  0  0  0  0  0  0  0  0  0  0
  151.6992  139.3871  157.1885 N   0  5  0  0  0  0  0  0  0  0  0  0
  150.3744  139.4809  156.9314 C   0  0  0  0  0  0  0  0  0  0  0  0
  149.4907  139.7578  157.7459 O   0  0  0  0  0  0  0  0  0  0  0  0
  150.0544  139.2388  155.6516 N   0  0  0  0  0  0  0  0  0  0  0  0
  148.7108  139.2652  155.0793 C   0  0  2  0  0  0  0  0  0  0  0  0
  148.3817  137.8901  154.4706 C   0  0  0  0  0  0  0  0  0  0  0  0
  146.9893  137.8810  153.8153 C   0  0  0  0  0  0  0  0  0  0  0  0
  146.8272  139.0026  152.7717 C   0  0  2  0  0  0  0  0  0  0  0  0
  147.6166  138.7226  151.6323 O   0  0  0  0  0  0  0  0  0  0  0  0
  147.2048  140.3781  153.3534 C   0  0  0  0  0  0  0  0  0  0  0  0
  148.5951  140.3728  154.0129 C   0  0  0  0  0  0  0  0  0  0  0  0
  151.4323  141.5762  158.8323 S   0  0  0  0  0  0  0  0  0  0  0  0
  153.8218  142.0087  162.1523 H   0  0  0  0  0  0  0  0  0  0  0  0
  152.0933  142.3510  162.1724 H   0  0  0  0  0  0  0  0  0  0  0  0
  153.2482  143.6150  162.5870 H   0  0  0  0  0  0  0  0  0  0  0  0
  154.1519  143.5723  160.2917 H   0  0  0  0  0  0  0  0  0  0  0  0
  152.3240  144.6690  159.0753 H   0  0  0  0  0  0  0  0  0  0  0  0
  152.3612  145.2021  160.7526 H   0  0  0  0  0  0  0  0  0  0  0  0
  151.1457  144.0411  160.2261 H   0  0  0  0  0  0  0  0  0  0  0  0
  150.8117  139.0186  155.0214 H   0  0  0  0  0  0  0  0  0  0  0  0
  147.9895  139.4626  155.8748 H   0  0  0  0  0  0  0  0  0  0  0  0
  149.1355  137.6240  153.7279 H   0  0  0  0  0  0  0  0  0  0  0  0
  148.4266  137.1206  155.2422 H   0  0  0  0  0  0  0  0  0  0  0  0
  146.7952  136.9091  153.3600 H   0  0  0  0  0  0  0  0  0  0  0  0
  146.2344  138.0082  154.5922 H   0  0  0  0  0  0  0  0  0  0  0  0
  145.7893  139.0303  152.4382 H   0  0  0  0  0  0  0  0  0  0  0  0
  148.3984  139.2521  151.6712 H   0  0  0  0  0  0  0  0  0  0  0  0
  147.1605  141.1435  152.5778 H   0  0  0  0  0  0  0  0  0  0  0  0
  146.4637  140.6619  154.1016 H   0  0  0  0  0  0  0  0  0  0  0  0
  148.7870  141.3482  154.4611 H   0  0  0  0  0  0  0  0  0  0  0  0
  149.3613  140.2310  153.2492 H   0  0  0  0  0  0  0  0  0  0  0  0
  1  2  1  0  0  0  0
  1 20  1  0  0  0  0
  1 21  1  0  0  0  0
  1 22  1  0  0  0  0
  2  3  1  0  0  0  0
  2  4  1  0  0  0  0
  2 23  1  0  0  0  0
  3 24  1  0  0  0  0
  3 25  1  0  0  0  0
  3 26  1  0  0  0  0
  4 19  1  0  0  0  0
  4  5  2  0  0  0  0
  5  6  1  0  0  0  0
  6  7  2  0  0  0  0
  7  8  1  0  0  0  0
  7 19  1  0  0  0  0
  8  9  1  0  0  0  0
  9 10  2  0  0  0  0
  9 11  1  0  0  0  0
 11 12  1  0  0  0  0
 11 27  1  0  0  0  0
 12 18  1  0  0  0  0
 12 13  1  0  0  0  0
 12 28  1  0  0  0  0
 13 14  1  0  0  0  0
 13 29  1  0  0  0  0
 13 30  1  0  0  0  0
 14 15  1  0  0  0  0
 14 31  1  0  0  0  0
 14 32  1  0  0  0  0
 15 16  1  0  0  0  0
 15 17  1  0  0  0  0
 15 33  1  0  0  0  0
 16 34  1  0  0  0  0
 17 18  1  0  0  0  0
 17 35  1  0  0  0  0
 17 36  1  0  0  0  0
 18 37  1  0  0  0  0
 18 38  1  0  0  0  0
M  CHG  1   8  -1
M  END
> <s_m_source_file>
AV-unprocessed.smi

> <i_m_source_file_index>
2005

> <i_lp_mmshare_version>
43012

> <i_f3d_flags>
0

> <s_epik_input>
W0NIM11bQ0hdKFtDSDNdKWMxbm5jKHMxKVtOSF1DKD1PKVtOSF1bQ0BASF0yW0NIMl1bQ0gyXVtDQEBIXShbT0hdKVtDSDJdW0NIMl0y

> <s_epik_cmdline>
J2VwaWtfcHl0aG9uJywgJy1waCcsICc3LjAnLCAnLXRuJywgJzgnLCAnLW1hJywgJzIwMCcsICctbWV0YWxfYmluZGluZycsICctaW1hZScsICc8aW5maWxlLm1hZT4nLCAnLW9tYWUnLCAnPG91dGZpbGUubWFlPic=

> <r_lp_tautomer_probability>
1

> <r_epik_Ionization_Penalty>
4.58298

> <r_epik_Ionization_Penalty_Charging>
4.41114

> <r_epik_Ionization_Penalty_Neutral>
0.171842

> <r_epik_State_Penalty>
4.41079

> <r_epik_Charging_Adjusted_Penalty>
8.82193

> <i_epik_Tot_Q>
-1

> <i_epik_Tot_abs_Q>
1

> <r_epik_Metal_State_Penalty>
0.7766

> <b_epik_Metal_Only>
1

> <s_lp_Force_Field>
OPLS_2005

> <r_lp_Energy>
2.0831

> <b_lp_Chiralities_Consistent>
1

> <s_lp_Variant>
AV-unprocessed.smi:2005-4

> <Gold.Version>
5.8.1

> <Gold.Id.Protein>
6NUR|6NUR_protein|mol2

> <Gold.PLP.Fitness>
38.9745

> <Gold.PLP.PLP>
-33.2652

> <Gold.PLP.part.hbond>
-3.5462

> <Gold.PLP.part.metal>
0.0000

> <Gold.PLP.part.buried>
-1.8322

> <Gold.PLP.part.nonpolar>
-26.2559

> <Gold.PLP.part.repulsive>
0.0323

> <Gold.PLP.ligand.clash>
0.0000

> <Gold.PLP.ligand.torsion>
1.0336

> <Gold.PLP.Chemscore.Hbond>
2.5481

> <Gold.PLP.Chemscore.CHOScore>
0.0000

> <Gold.PLP.Chemscore.Metal>
0.0000

> <Gold.Chemscore.Hbonds>
donor molecule, donor type, donor heavy atom, donor atom, acceptor molecule, acceptor atom, score
      L1  H    16    34       P1  7957  0.93
      P1  H  7954  7966       L1    16  0.55
      P1  H  7997  8008       L1     6  0.88

> <Gold.PLP.Chemscore.Internal.Correction>
0.1323

> <Gold.Rescore>
     Score         DG    S(hbond)    S(metal)    S(lipo)     H(rot)  DE(clash)    DE(int)     intcor
     14.10     -16.29       1.67        0.00      81.73       1.70       0.02       2.17       ----

> <Gold.Chemscore.Fitness>
14.0952

> <Gold.Chemscore.DG>
-16.2856

> <Gold.Chemscore.ZeroCoef>
-5.4800

> <Gold.Chemscore.Hbond>
1.6728

> <Gold.Chemscore.Metal>
0.0000

> <Gold.Chemscore.Lipo>
81.7299

> <Gold.Chemscore.Internal_Hbond>
0.0000

> <Gold.Chemscore.DEClash>
0.0158

> <Gold.Chemscore.DEInternal>
2.1746

> <Gold.Chemscore.Rot>
1.6968

> <Gold.Chemscore.Internal.Correction>
   9.000000E+99

> <Gold.Chemscore.Hbonds>
donor molecule, donor type, donor heavy atom, donor atom, acceptor molecule, acceptor atom, score
      L1  H    16    34       P1  7957  0.85
      P1  H  7954  7966       L1    16  0.04
      P1  H  7997  8008       L1     6  0.68

> <Gold.Chemscore.Hbond.Weighted>
-5.5870

> <Gold.Chemscore.Metal.Weighted>
-0.0000

> <Gold.Chemscore.Lipo.Weighted>
-9.5624

> <Gold.Chemscore.Internal_Hbond.Weighted>
0.0000

> <Gold.Chemscore.DEClash.Weighted>
0.0158

> <Gold.Chemscore.DEInternal.Weighted>
2.1746

> <Gold.Chemscore.Rot.Weighted>
4.3439

> <Gold.Chemscore.Internal.Correction.Weighted>
   9.000000E+99

> <Gold.Protein.RotatedTorsions>
[ 6907 6896 6895 6894 ] final  133.21 input  -60.11 | X-H torsion
[ 7974 7965 7964 7962 ] final  -21.94 input  175.53 | X-H torsion
[ 8008 7997 7996 7995 ] final  -84.93 input   59.86 | X-H torsion
[ 10167 10162 10161 10158 ] final  110.26 input  -65.29 | X-H torsion
[ 10718 10713 10712 10709 ] final   22.20 input   66.30 | X-H torsion
[ 10763 10752 10751 10750 ] final -166.52 input  -60.55 | X-H torsion
[ 11005 11000 10999 10996 ] final  -52.50 input  -57.11 | X-H torsion

> <Gold.Protein.ActiveResidues>
 VAL166  LYS551  ARG553  GLY616  TRP617  ASP618  TYR619  PRO620  LYS621  CYS622 
 ASP623  PHE694  ASN695  SER759  ASP760  ASP761  ALA762  ILE779  LEU786  VAL792 
 PHE793  MET794  SER795  GLU796  ALA797  LYS798  CYS799  TRP800  GLU811  SER814 

> <Gold.Protein.RotatedAtoms>
  152.3244  133.5888  159.5765 H   0  0  0  0  0  0  0  0  0  0  0  0  # atno 6907 bound_to 6896
  150.7388  133.9963  159.3632 H   0  0  0  0  0  0  0  0  0  0  0  0  # atno 6908 bound_to 6896
  151.7844  135.0753  160.0429 H   0  0  0  0  0  0  0  0  0  0  0  0  # atno 6909 bound_to 6896
  146.1704  140.4410  142.8534 H   0  0  0  0  0  0  0  0  0  0  0  0  # atno 7974 bound_to 7965
  154.6351  140.0598  156.9779 H   0  0  0  0  0  0  0  0  0  0  0  0  # atno 8008 bound_to 7997
  155.1604  140.3282  155.4394 H   0  0  0  0  0  0  0  0  0  0  0  0  # atno 8009 bound_to 7997
  156.2503  140.1932  156.6711 H   0  0  0  0  0  0  0  0  0  0  0  0  # atno 8010 bound_to 7997
  139.6702  144.7125  151.1701 H   0  0  0  0  0  0  0  0  0  0  0  0  # atno 10167 bound_to 10162
  157.1490  130.6666  149.6006 H   0  0  0  0  0  0  0  0  0  0  0  0  # atno 10718 bound_to 10713
  154.6825  135.2957  154.9593 H   0  0  0  0  0  0  0  0  0  0  0  0  # atno 10763 bound_to 10752
  154.0583  135.6635  153.4812 H   0  0  0  0  0  0  0  0  0  0  0  0  # atno 10764 bound_to 10752
  153.0557  135.5146  154.7875 H   0  0  0  0  0  0  0  0  0  0  0  0  # atno 10765 bound_to 10752
  141.0928  133.6630  156.4034 H   0  0  0  0  0  0  0  0  0  0  0  0  # atno 11005 bound_to 11000
  144.8155  140.6460  143.6387 LP  0  0  0  0  0  0  0  0  0  0  0  0  # atno 17320 bound_to 7965
  145.4354  139.1543  143.3999 LP  0  0  0  0  0  0  0  0  0  0  0  0  # atno 17321 bound_to 7965
  140.7615  143.5856  150.8850 LP  0  0  0  0  0  0  0  0  0  0  0  0  # atno 17342 bound_to 10162
  139.9520  143.6261  152.3026 LP  0  0  0  0  0  0  0  0  0  0  0  0  # atno 17343 bound_to 10162
  155.9774  130.4751  150.6590 LP  0  0  0  0  0  0  0  0  0  0  0  0  # atno 17370 bound_to 10713
  157.4237  131.0840  151.1106 LP  0  0  0  0  0  0  0  0  0  0  0  0  # atno 17371 bound_to 10713
  140.5212  134.6302  157.5319 LP  0  0  0  0  0  0  0  0  0  0  0  0  # atno 17394 bound_to 11000
  139.9757  134.7219  155.9954 LP  0  0  0  0  0  0  0  0  0  0  0  0  # atno 17395 bound_to 11000

$$$$
