#       Name:                AV-unprocessed.smi:1268
#       Creating user name   scv26
#       Creation time:       Fri Mar 27 04:45:24 2020


#       File generated by GOLD software.
#

@<TRIPOS>MOLECULE
AV-unprocessed.smi:1268
    45    46     1
SMALL
NO_CHARGES


@<TRIPOS>ATOM
      1 ****        -2.2702   1.2010  -1.2589 O.2            1 S1                 0.0000
      2 ****        -2.7970   1.6279  -0.2283 C.2            1 S1                 0.0000
      3 ****        -2.7985   0.8756   0.8815 N.am           1 S1                 0.0000
      4 ****        -2.2096  -0.4536   1.0100 C.3            1 S1                 0.0000
      5 ****        -0.6719  -0.3917   1.1175 C.3            1 S1                 0.0000
      6 ****        -0.3348  -0.1095   2.4616 O.3            1 S1                 0.0000
      7 ****        -0.0243  -1.7402   0.7469 C.3            1 S1                 0.0000
      8 ****         1.4593  -1.6708   0.7287 N.4            1 S1                 1.0000
      9 ****         2.0032  -1.0397  -0.5044 C.3            1 S1                 0.0000
     10 ****         3.5290  -0.8691  -0.4128 C.3            1 S1                 0.0000
     11 ****         4.2173  -2.2129  -0.1411 C.3            1 S1                 0.0000
     12 ****         3.6173  -2.8643   1.1117 C.3            1 S1                 0.0000
     13 ****         2.0893  -2.9909   0.9906 C.3            1 S1                 0.0000
     14 ****        -3.3971   2.8288  -0.0720 N.pl3          1 S1                -1.0000
     15 ****        -3.4632   3.6862  -1.1037 C.2            1 S1                 0.0000
     16 ****        -4.5606   3.8427  -1.8528 N.2            1 S1                 0.0000
     17 ****        -4.4100   4.7899  -2.8673 C.2            1 S1                 0.0000
     18 ****        -3.1710   5.3733  -2.8866 C.2            1 S1                 0.0000
     19 ****        -2.1509   4.7478  -1.6227 S.3            1 S1                 0.0000
     20 ****        -3.2458   1.2602   1.7009 H              1 S1                 0.0000
     21 ****        -2.6446  -0.9628   1.8709 H              1 S1                 0.0000
     22 ****        -2.5036  -1.0391   0.1371 H              1 S1                 0.0000
     23 ****        -0.2831   0.4012   0.4796 H              1 S1                 0.0000
     24 ****        -0.7380   0.7117   2.7018 H              1 S1                 0.0000
     25 ****        -0.3559  -2.4924   1.4649 H              1 S1                 0.0000
     26 ****        -0.3751  -2.0796  -0.2291 H              1 S1                 0.0000
     27 ****         1.7473  -1.6520  -1.3705 H              1 S1                 0.0000
     28 ****         1.5492  -0.0629  -0.6669 H              1 S1                 0.0000
     29 ****         3.9121  -0.4344  -1.3365 H              1 S1                 0.0000
     30 ****         3.7709  -0.1646   0.3843 H              1 S1                 0.0000
     31 ****         4.0887  -2.8743  -0.9990 H              1 S1                 0.0000
     32 ****         5.2907  -2.0687  -0.0146 H              1 S1                 0.0000
     33 ****         4.0622  -3.8473   1.2694 H              1 S1                 0.0000
     34 ****         3.8667  -2.2674   1.9902 H              1 S1                 0.0000
     35 ****         1.6935  -3.4110   1.9162 H              1 S1                 0.0000
     36 ****         1.8294  -3.6849   0.1897 H              1 S1                 0.0000
     37 ****        -5.2391   4.9872  -3.5304 H              1 S1                 0.0000
     38 ****        -2.7980   6.1288  -3.5612 H              1 S1                 0.0000
     39 ****         1.7181  -1.0770   1.5041 H              1 S1                 0.0000
     40 ****        -1.8456   0.2956  -1.2653 LP             1 S1                 0.0000
     41 ****        -2.2679   1.7603  -2.0878 LP             1 S1                 0.0000
     42 ****         0.6584  -0.0385   2.5536 LP             1 S1                 0.0000
     43 ****        -0.6733  -0.8392   3.0557 LP             1 S1                 0.0000
     44 ****        -3.7920   3.0790   0.8120 LP             1 S1                 0.0000
     45 ****        -5.4063   3.3311  -1.7008 LP             1 S1                 0.0000
@<TRIPOS>BOND
    1    1    2 2     
    2    2    3 am    
    3    2   14 1     
    4    3    4 1     
    5    3   20 1     
    6    4    5 1     
    7    4   21 1     
    8    4   22 1     
    9    5    6 1     
   10    5    7 1     
   11    5   23 1     
   12    6   24 1     
   13    7    8 1     
   14    7   25 1     
   15    7   26 1     
   16    8   13 1     
   17    8    9 1     
   18    8   39 1     
   19    9   10 1     
   20    9   27 1     
   21    9   28 1     
   22   10   11 1     
   23   10   29 1     
   24   10   30 1     
   25   11   12 1     
   26   11   31 1     
   27   11   32 1     
   28   12   13 1     
   29   12   33 1     
   30   12   34 1     
   31   13   35 1     
   32   13   36 1     
   33   14   15 1     
   34   15   19 1     
   35   15   16 2     
   36   16   17 1     
   37   17   18 2     
   38   17   37 1     
   39   18   19 1     
   40   18   38 1     
   41    1   40 1     
   42    1   41 1     
   43    6   42 1     
   44    6   43 1     
   45   14   44 1     
   46   16   45 1     
@<TRIPOS>SUBSTRUCTURE
      1 S1             1
@<TRIPOS>SET
LONE_PAIRS      STATIC     ATOMS    <user>   **** ""
6 40 41 42 43 44 45
DONOR_HYDROGENS      STATIC     ATOMS    <user>   **** ""
3 20 24 39
ATOM$BLUE        STATIC     ATOMS    COLORGROUP SYSTEM
6 40 41 42 43 44 45
ATOM$RED        STATIC     ATOMS    COLORGROUP SYSTEM
3 20 24 39
