AV-unprocessed.smi:1047|AV-procd|sdf|4600|dock3
  -GOLD-   22720 3 93D 1   1.00000     0.00000
 Structure written by MMmdl.
 57 59  0  0  0  0  0  0  0  0  3 V2000
  148.5716  132.5140  162.0794 C   0  0  0  0  0  0  0  0  0  0  0  0
  147.1471  133.0044  161.7847 C   0  0  0  0  0  0  0  0  0  0  0  0
  147.0634  134.4830  161.6894 N   0  3  1  0  0  0  0  0  0  0  0  0
  147.6602  135.1882  162.8506 C   0  0  0  0  0  0  0  0  0  0  0  0
  147.4905  136.7094  162.7005 C   0  0  0  0  0  0  0  0  0  0  0  0
  148.0810  137.1441  161.4821 O   0  0  0  0  0  0  0  0  0  0  0  0
  147.4822  136.5328  160.3444 C   0  0  1  0  0  0  0  0  0  0  0  0
  148.0832  137.1524  159.0712 C   0  0  0  0  0  0  0  0  0  0  0  0
  148.3278  138.5844  159.2231 N   0  0  0  0  0  0  0  0  0  0  0  0
  149.0856  139.1670  158.1204 C   0  0  0  0  0  0  0  0  0  0  0  0
  150.3308  138.3255  157.7921 C   0  0  1  0  0  0  0  0  0  0  0  0
  150.0092  137.4407  156.7367 O   0  0  0  0  0  0  0  0  0  0  0  0
  151.5201  139.2109  157.3719 C   0  0  0  0  0  0  0  0  0  0  0  0
  151.1479  140.6230  157.1987 N   0  0  0  0  0  0  0  0  0  0  0  0
  150.4118  141.2100  156.2161 C   0  0  0  0  0  0  0  0  0  0  0  0
  150.3445  142.5416  156.4924 N   0  3  0  0  0  0  0  0  0  0  0  0
  151.0468  142.8094  157.6691 C   0  0  0  0  0  0  0  0  0  0  0  0
  151.2619  144.0032  158.3472 C   0  0  0  0  0  0  0  0  0  0  0  0
  152.0272  143.9426  159.5336 C   0  0  0  0  0  0  0  0  0  0  0  0
  152.2833  145.2306  160.2977 C   0  0  0  0  0  0  0  0  0  0  0  0
  152.5456  142.7088  160.0051 C   0  0  0  0  0  0  0  0  0  0  0  0
  153.3601  142.6533  161.2864 C   0  0  0  0  0  0  0  0  0  0  0  0
  152.3174  141.5057  159.2993 C   0  0  0  0  0  0  0  0  0  0  0  0
  151.5638  141.5828  158.1299 C   0  0  0  0  0  0  0  0  0  0  0  0
  147.6359  134.9988  160.4235 C   0  0  0  0  0  0  0  0  0  0  0  0
  148.5809  131.4342  162.2296 H   0  0  0  0  0  0  0  0  0  0  0  0
  148.9675  132.9756  162.9844 H   0  0  0  0  0  0  0  0  0  0  0  0
  149.2577  132.7313  161.2613 H   0  0  0  0  0  0  0  0  0  0  0  0
  146.7618  132.5462  160.8726 H   0  0  0  0  0  0  0  0  0  0  0  0
  146.5033  132.6636  162.5969 H   0  0  0  0  0  0  0  0  0  0  0  0
  147.1863  134.8662  163.7774 H   0  0  0  0  0  0  0  0  0  0  0  0
  148.7194  134.9378  162.9291 H   0  0  0  0  0  0  0  0  0  0  0  0
  146.4357  136.9878  162.7271 H   0  0  0  0  0  0  0  0  0  0  0  0
  147.9759  137.2250  163.5292 H   0  0  0  0  0  0  0  0  0  0  0  0
  146.4184  136.7770  160.3509 H   0  0  0  0  0  0  0  0  0  0  0  0
  149.0165  136.6433  158.8276 H   0  0  0  0  0  0  0  0  0  0  0  0
  147.4073  136.9766  158.2335 H   0  0  0  0  0  0  0  0  0  0  0  0
  147.4445  139.0735  159.3281 H   0  0  0  0  0  0  0  0  0  0  0  0
  148.4577  139.2861  157.2362 H   0  0  0  0  0  0  0  0  0  0  0  0
  149.4040  140.1701  158.4075 H   0  0  0  0  0  0  0  0  0  0  0  0
  150.6242  137.7373  158.6631 H   0  0  0  0  0  0  0  0  0  0  0  0
  149.9910  136.5596  157.0773 H   0  0  0  0  0  0  0  0  0  0  0  0
  152.3440  139.1358  158.0819 H   0  0  0  0  0  0  0  0  0  0  0  0
  151.9138  138.8684  156.4139 H   0  0  0  0  0  0  0  0  0  0  0  0
  149.9622  140.7103  155.3700 H   0  0  0  0  0  0  0  0  0  0  0  0
  150.8611  144.9379  157.9835 H   0  0  0  0  0  0  0  0  0  0  0  0
  153.3538  145.4160  160.3896 H   0  0  0  0  0  0  0  0  0  0  0  0
  151.8536  145.1747  161.2983 H   0  0  0  0  0  0  0  0  0  0  0  0
  151.8403  146.0890  159.7917 H   0  0  0  0  0  0  0  0  0  0  0  0
  153.6685  141.6337  161.5196 H   0  0  0  0  0  0  0  0  0  0  0  0
  152.7748  143.0241  162.1284 H   0  0  0  0  0  0  0  0  0  0  0  0
  154.2602  143.2615  161.1953 H   0  0  0  0  0  0  0  0  0  0  0  0
  152.7110  140.5682  159.6622 H   0  0  0  0  0  0  0  0  0  0  0  0
  148.6870  134.7112  160.3666 H   0  0  0  0  0  0  0  0  0  0  0  0
  147.1308  134.5359  159.5746 H   0  0  0  0  0  0  0  0  0  0  0  0
  146.0810  134.7172  161.6725 H   0  0  0  0  0  0  0  0  0  0  0  0
  149.8536  143.2154  155.9188 H   0  0  0  0  0  0  0  0  0  0  0  0
  1  2  1  0  0  0  0
  1 26  1  0  0  0  0
  1 27  1  0  0  0  0
  1 28  1  0  0  0  0
  2  3  1  0  0  0  0
  2 29  1  0  0  0  0
  2 30  1  0  0  0  0
  3 25  1  0  0  0  0
  3  4  1  0  0  0  0
  3 56  1  0  0  0  0
  4  5  1  0  0  0  0
  4 31  1  0  0  0  0
  4 32  1  0  0  0  0
  5  6  1  0  0  0  0
  5 33  1  0  0  0  0
  5 34  1  0  0  0  0
  6  7  1  0  0  0  0
  7  8  1  0  0  0  0
  7 25  1  0  0  0  0
  7 35  1  0  0  0  0
  8  9  1  0  0  0  0
  8 36  1  0  0  0  0
  8 37  1  0  0  0  0
  9 10  1  0  0  0  0
  9 38  1  0  0  0  0
 10 11  1  0  0  0  0
 10 39  1  0  0  0  0
 10 40  1  0  0  0  0
 11 12  1  0  0  0  0
 11 13  1  0  0  0  0
 11 41  1  0  0  0  0
 12 42  1  0  0  0  0
 13 14  1  0  0  0  0
 13 43  1  0  0  0  0
 13 44  1  0  0  0  0
 14 24  1  0  0  0  0
 14 15  1  0  0  0  0
 15 16  2  0  0  0  0
 15 45  1  0  0  0  0
 16 17  1  0  0  0  0
 16 57  1  0  0  0  0
 17 24  2  0  0  0  0
 17 18  1  0  0  0  0
 18 19  2  0  0  0  0
 18 46  1  0  0  0  0
 19 20  1  0  0  0  0
 19 21  1  0  0  0  0
 20 47  1  0  0  0  0
 20 48  1  0  0  0  0
 20 49  1  0  0  0  0
 21 22  1  0  0  0  0
 21 23  2  0  0  0  0
 22 50  1  0  0  0  0
 22 51  1  0  0  0  0
 22 52  1  0  0  0  0
 23 24  1  0  0  0  0
 23 53  1  0  0  0  0
 25 54  1  0  0  0  0
 25 55  1  0  0  0  0
M  CHG  1   3   1
M  CHG  1  16   1
M  END
> <s_m_source_file>
AV-unprocessed.smi

> <i_m_source_file_index>
1047

> <i_lp_mmshare_version>
43012

> <i_f3d_flags>
0

> <s_epik_input>
W0NIM11bQ0gyXU4xW0NIMl1bQ0gyXU9bQ0BIXShbQ0gyXTEpW0NIMl1bTkhdW0NIMl1bQ0BIXShbT0hdKVtDSDJdbihbY0hdbjIpYyhjMjMpW2NIXWMoW0NIM10pYyhbY0hdMylbQ0gzXQ==

> <s_epik_cmdline>
J2VwaWtfcHl0aG9uJywgJy1waCcsICc3LjAnLCAnLXRuJywgJzgnLCAnLW1hJywgJzIwMCcsICctbWV0YWxfYmluZGluZycsICctaW1hZScsICc8aW5maWxlLm1hZT4nLCAnLW9tYWUnLCAnPG91dGZpbGUubWFlPic=

> <r_epik_Ionization_Penalty>
2.03028

> <r_epik_Ionization_Penalty_Charging>
1.21256

> <r_epik_Ionization_Penalty_Neutral>
0.817715

> <r_epik_State_Penalty>
2.54959

> <r_epik_Charging_Adjusted_Penalty>
3.76215

> <i_epik_Tot_Q>
2

> <i_epik_Tot_abs_Q>
2

> <r_epik_Metal_State_Penalty>
6.52811

> <b_epik_Metal_Only>
0

> <s_lp_Force_Field>
OPLS_2005

> <r_lp_Energy>
36.9073

> <b_lp_Chiralities_Consistent>
1

> <s_lp_Variant>
AV-unprocessed.smi:1047-41

> <Gold.Version>
5.8.1

> <Gold.Id.Protein>
6NUR|6NUR_protein|mol2

> <Gold.PLP.Fitness>
59.9604

> <Gold.PLP.PLP>
-51.7134

> <Gold.PLP.part.hbond>
-4.2893

> <Gold.PLP.part.metal>
0.0000

> <Gold.PLP.part.buried>
-6.5740

> <Gold.PLP.part.nonpolar>
-41.3425

> <Gold.PLP.part.repulsive>
0.0923

> <Gold.PLP.ligand.clash>
0.0000

> <Gold.PLP.ligand.torsion>
1.6571

> <Gold.PLP.Chemscore.Hbond>
3.7840

> <Gold.PLP.Chemscore.CHOScore>
0.0000

> <Gold.PLP.Chemscore.Metal>
0.0000

> <Gold.Chemscore.Hbonds>
donor molecule, donor type, donor heavy atom, donor atom, acceptor molecule, acceptor atom, score
      L1  H    16    57       P1  8028  2.00
      P1  H  6931  6943       L1     6  0.98
      P1  H  6934  6947       L1     6  0.22

> <Gold.PLP.Chemscore.Internal.Correction>
0.2093

> <Gold.Rescore>
     Score         DG    S(hbond)    S(metal)    S(lipo)     H(rot)  DE(clash)    DE(int)     intcor
     18.78     -21.16       2.18        0.00     131.02       2.71       0.04       2.33       ----

> <Gold.Chemscore.Fitness>
18.7827

> <Gold.Chemscore.DG>
-21.1582

> <Gold.Chemscore.ZeroCoef>
-5.4800

> <Gold.Chemscore.Hbond>
2.1805

> <Gold.Chemscore.Metal>
0.0000

> <Gold.Chemscore.Lipo>
131.0245

> <Gold.Chemscore.Internal_Hbond>
0.0000

> <Gold.Chemscore.DEClash>
0.0414

> <Gold.Chemscore.DEInternal>
2.3341

> <Gold.Chemscore.Rot>
2.7088

> <Gold.Chemscore.Internal.Correction>
   9.000000E+99

> <Gold.Chemscore.Hbonds>
donor molecule, donor type, donor heavy atom, donor atom, acceptor molecule, acceptor atom, score
      L1  H    16    57       P1  8028  0.98
      P1  H  6931  6943       L1     6  0.41
      P1  H  6934  6947       L1     6  0.01

> <Gold.Chemscore.Hbond.Weighted>
-7.2830

> <Gold.Chemscore.Metal.Weighted>
-0.0000

> <Gold.Chemscore.Lipo.Weighted>
-15.3299

> <Gold.Chemscore.Internal_Hbond.Weighted>
0.0000

> <Gold.Chemscore.DEClash.Weighted>
0.0414

> <Gold.Chemscore.DEInternal.Weighted>
2.3341

> <Gold.Chemscore.Rot.Weighted>
6.9346

> <Gold.Chemscore.Internal.Correction.Weighted>
   9.000000E+99

> <Gold.Protein.RotatedTorsions>
[ 6907 6896 6895 6894 ] final   67.79 input  -60.11 | X-H torsion
[ 7974 7965 7964 7962 ] final  152.77 input  175.53 | X-H torsion
[ 8008 7997 7996 7995 ] final  -63.52 input   59.86 | X-H torsion
[ 10167 10162 10161 10158 ] final  -35.96 input  -65.29 | X-H torsion
[ 10718 10713 10712 10709 ] final  117.59 input   66.30 | X-H torsion
[ 10763 10752 10751 10750 ] final -156.55 input  -60.55 | X-H torsion
[ 11005 11000 10999 10996 ] final   92.04 input  -57.11 | X-H torsion

> <Gold.Protein.ActiveResidues>
 VAL166  LYS551  ARG553  GLY616  TRP617  ASP618  TYR619  PRO620  LYS621  CYS622 
 ASP623  PHE694  ASN695  SER759  ASP760  ASP761  ALA762  ILE779  LEU786  VAL792 
 PHE793  MET794  SER795  GLU796  ALA797  LYS798  CYS799  TRP800  GLU811  SER814 

> <Gold.Protein.RotatedAtoms>
  152.4576  134.5256  159.9795 H   0  0  0  0  0  0  0  0  0  0  0  0  # atno 6907 bound_to 6896
  151.5313  133.3443  159.2926 H   0  0  0  0  0  0  0  0  0  0  0  0  # atno 6908 bound_to 6896
  150.8527  134.7886  159.7084 H   0  0  0  0  0  0  0  0  0  0  0  0  # atno 6909 bound_to 6896
  144.8200  139.6712  143.6105 H   0  0  0  0  0  0  0  0  0  0  0  0  # atno 7974 bound_to 7965
  154.4559  140.0973  156.6755 H   0  0  0  0  0  0  0  0  0  0  0  0  # atno 8008 bound_to 7997
  155.5141  140.3477  155.4375 H   0  0  0  0  0  0  0  0  0  0  0  0  # atno 8009 bound_to 7997
  156.0776  140.1365  156.9741 H   0  0  0  0  0  0  0  0  0  0  0  0  # atno 8010 bound_to 7997
  140.7153  143.3441  151.2293 H   0  0  0  0  0  0  0  0  0  0  0  0  # atno 10167 bound_to 10162
  157.6086  131.1039  150.7637 H   0  0  0  0  0  0  0  0  0  0  0  0  # atno 10718 bound_to 10713
  154.7704  135.3143  154.8200 H   0  0  0  0  0  0  0  0  0  0  0  0  # atno 10763 bound_to 10752
  153.8937  135.6823  153.4763 H   0  0  0  0  0  0  0  0  0  0  0  0  # atno 10764 bound_to 10752
  153.1317  135.4777  154.9294 H   0  0  0  0  0  0  0  0  0  0  0  0  # atno 10765 bound_to 10752
  139.8829  134.8710  156.3515 H   0  0  0  0  0  0  0  0  0  0  0  0  # atno 11005 bound_to 11000
  146.2505  139.6188  142.9430 LP  0  0  0  0  0  0  0  0  0  0  0  0  # atno 17320 bound_to 7965
  145.5128  141.0435  143.2478 LP  0  0  0  0  0  0  0  0  0  0  0  0  # atno 17321 bound_to 7965
  139.6956  143.9618  152.2881 LP  0  0  0  0  0  0  0  0  0  0  0  0  # atno 17342 bound_to 10162
  139.9294  144.6751  150.8379 LP  0  0  0  0  0  0  0  0  0  0  0  0  # atno 17343 bound_to 10162
  156.8019  130.4924  149.5368 LP  0  0  0  0  0  0  0  0  0  0  0  0  # atno 17370 bound_to 10713
  156.1181  130.6090  151.0151 LP  0  0  0  0  0  0  0  0  0  0  0  0  # atno 17371 bound_to 10713
  140.9591  133.7400  156.0376 LP  0  0  0  0  0  0  0  0  0  0  0  0  # atno 17394 bound_to 11000
  140.8012  134.3507  157.5439 LP  0  0  0  0  0  0  0  0  0  0  0  0  # atno 17395 bound_to 11000

$$$$
