#       Name:                AV-unprocessed.smi:1131
#       Creating user name   scv26
#       Creation time:       Fri Mar 27 03:42:15 2020


#       File generated by GOLD software.
#

@<TRIPOS>MOLECULE
AV-unprocessed.smi:1131
    41    42     1
SMALL
NO_CHARGES


@<TRIPOS>ATOM
      1 ****        -0.1742   0.4929   1.8022 O.2            1 S1                 0.0000
      2 ****         0.5470  -0.3745   1.3080 C.2            1 S1                 0.0000
      3 ****         2.0699  -0.1966   1.2803 C.3            1 S1                 0.0000
      4 ****         2.4675   1.1486   0.8368 N.am           1 S1                 0.0000
      5 ****         2.8411   2.0810   1.8206 C.2            1 S1                 0.0000
      6 ****         3.2169   3.3349   1.5043 C.2            1 S1                 0.0000
      7 ****         3.2301   3.7178   0.0978 C.2            1 S1                 0.0000
      8 ****         3.5742   4.8573  -0.2097 O.2            1 S1                 0.0000
      9 ****         2.8550   2.7785  -0.8192 N.pl3          1 S1                -1.0000
     10 ****         2.4736   1.5074  -0.4829 C.2            1 S1                 0.0000
     11 ****         2.1371   0.6755  -1.3268 O.2            1 S1                 0.0000
     12 ****         0.0752  -1.5164   0.7866 N.am           1 S1                 0.0000
     13 ****        -1.3353  -1.8662   0.6659 C.3            1 S1                 0.0000
     14 ****        -2.0206  -1.1061  -0.4867 C.3            1 S1                 0.0000
     15 ****        -3.4593  -1.5155  -0.7247 C.3            1 S1                 0.0000
     16 ****        -3.6921  -0.9969  -2.1382 C.3            1 S1                 0.0000
     17 ****        -2.4591  -1.2109  -2.8147 O.3            1 S1                 0.0000
     18 ****        -1.3980  -1.3303  -1.8692 C.3            1 S1                 0.0000
     19 ****         2.4536  -0.4024   2.2802 H              1 S1                 0.0000
     20 ****         2.5271  -0.9505   0.6363 H              1 S1                 0.0000
     21 ****         2.7980   1.7199   2.8376 H              1 S1                 0.0000
     22 ****         3.4987   4.0401   2.2723 H              1 S1                 0.0000
     23 ****         0.7426  -2.1724   0.4073 H              1 S1                 0.0000
     24 ****        -1.4000  -2.9414   0.4967 H              1 S1                 0.0000
     25 ****        -1.8489  -1.6701   1.6084 H              1 S1                 0.0000
     26 ****        -2.0075  -0.0354  -0.2749 H              1 S1                 0.0000
     27 ****        -3.5591  -2.6018  -0.7038 H              1 S1                 0.0000
     28 ****        -4.1521  -1.0920   0.0031 H              1 S1                 0.0000
     29 ****        -4.5185  -1.4993  -2.6412 H              1 S1                 0.0000
     30 ****        -3.9026   0.0732  -2.1211 H              1 S1                 0.0000
     31 ****        -0.6022  -0.6142  -2.0777 H              1 S1                 0.0000
     32 ****        -0.9772  -2.3329  -1.9534 H              1 S1                 0.0000
     33 ****         0.2324   1.3204   2.1891 LP             1 S1                 0.0000
     34 ****        -1.1665   0.3696   1.8165 LP             1 S1                 0.0000
     35 ****         3.8404   5.5082   0.5012 LP             1 S1                 0.0000
     36 ****         3.5878   5.1332  -1.1708 LP             1 S1                 0.0000
     37 ****         2.8590   3.0320  -1.7865 LP             1 S1                 0.0000
     38 ****         1.8657  -0.2439  -1.0421 LP             1 S1                 0.0000
     39 ****         2.1353   0.9195  -2.2966 LP             1 S1                 0.0000
     40 ****        -2.2761  -0.4378  -3.4220 LP             1 S1                 0.0000
     41 ****        -2.5186  -2.0512  -3.3536 LP             1 S1                 0.0000
@<TRIPOS>BOND
    1    1    2 2     
    2    2    3 1     
    3    2   12 am    
    4    3    4 1     
    5    3   19 1     
    6    3   20 1     
    7    4   10 am    
    8    4    5 1     
    9    5    6 2     
   10    5   21 1     
   11    6    7 1     
   12    6   22 1     
   13    7    8 2     
   14    7    9 1     
   15    9   10 1     
   16   10   11 2     
   17   12   13 1     
   18   12   23 1     
   19   13   14 1     
   20   13   24 1     
   21   13   25 1     
   22   14   18 1     
   23   14   15 1     
   24   14   26 1     
   25   15   16 1     
   26   15   27 1     
   27   15   28 1     
   28   16   17 1     
   29   16   29 1     
   30   16   30 1     
   31   17   18 1     
   32   18   31 1     
   33   18   32 1     
   34    1   33 1     
   35    1   34 1     
   36    8   35 1     
   37    8   36 1     
   38    9   37 1     
   39   11   38 1     
   40   11   39 1     
   41   17   40 1     
   42   17   41 1     
@<TRIPOS>SUBSTRUCTURE
      1 S1             1
@<TRIPOS>SET
LONE_PAIRS      STATIC     ATOMS    <user>   **** ""
9 33 34 35 36 37 38 39 40 41
DONOR_HYDROGENS      STATIC     ATOMS    <user>   **** ""
1 23
ATOM$BLUE        STATIC     ATOMS    COLORGROUP SYSTEM
9 33 34 35 36 37 38 39 40 41
ATOM$RED        STATIC     ATOMS    COLORGROUP SYSTEM
1 23
