AV-unprocessed.smi:3211|AV-procd|sdf|12275|dock3
  -GOLD-   2272018113D 1   1.00000     0.00000
 Structure written by MMmdl.
 34 35  0  0  0  0  0  0  0  0  1 V2000
  152.8292  142.9049  162.0486 C   0  0  0  0  0  0  0  0  0  0  0  0
  153.3973  142.4104  160.7142 C   0  0  0  0  0  0  0  0  0  0  0  0
  152.6091  142.8902  159.5421 C   0  0  0  0  0  0  0  0  0  0  0  0
  151.9907  142.0741  158.6845 N   0  0  0  0  0  0  0  0  0  0  0  0
  151.3109  142.7668  157.6782 C   0  0  0  0  0  0  0  0  0  0  0  0
  150.6105  142.0091  156.5879 C   0  0  0  0  0  0  0  0  0  0  0  0
  150.1628  140.5951  157.0077 C   0  0  0  0  0  0  0  0  0  0  0  0
  149.2731  139.9767  156.0259 N   0  0  0  0  0  0  0  0  0  0  0  0
  149.6332  139.5517  154.8038 C   0  0  0  0  0  0  0  0  0  0  0  0
  150.7898  139.6201  154.3858 O   0  0  0  0  0  0  0  0  0  0  0  0
  148.4942  139.0142  153.9946 C   0  0  1  0  0  0  0  0  0  0  0  0
  147.1268  138.9639  154.6470 C   0  0  0  0  0  0  0  0  0  0  0  0
  147.3806  139.9397  153.5229 C   0  0  1  0  0  0  0  0  0  0  0  0
  147.3494  141.4373  153.7723 C   0  0  0  0  0  0  0  0  0  0  0  0
  151.3907  144.1308  157.8109 C   0  0  0  0  0  0  0  0  0  0  0  0
  152.3498  144.5942  159.1883 S   0  0  0  0  0  0  0  0  0  0  0  0
  153.4277  142.5417  162.8843 H   0  0  0  0  0  0  0  0  0  0  0  0
  151.8066  142.5556  162.1942 H   0  0  0  0  0  0  0  0  0  0  0  0
  152.8218  143.9944  162.0925 H   0  0  0  0  0  0  0  0  0  0  0  0
  154.4282  142.7467  160.6013 H   0  0  0  0  0  0  0  0  0  0  0  0
  153.4215  141.3201  160.7006 H   0  0  0  0  0  0  0  0  0  0  0  0
  149.7398  142.5705  156.2478 H   0  0  0  0  0  0  0  0  0  0  0  0
  151.2645  141.9294  155.7187 H   0  0  0  0  0  0  0  0  0  0  0  0
  151.0361  139.9649  157.1847 H   0  0  0  0  0  0  0  0  0  0  0  0
  149.6335  140.6488  157.9592 H   0  0  0  0  0  0  0  0  0  0  0  0
  148.3029  139.8836  156.2891 H   0  0  0  0  0  0  0  0  0  0  0  0
  148.7417  138.1963  153.3192 H   0  0  0  0  0  0  0  0  0  0  0  0
  146.5108  138.0926  154.4350 H   0  0  0  0  0  0  0  0  0  0  0  0
  147.0143  139.3672  155.6520 H   0  0  0  0  0  0  0  0  0  0  0  0
  146.9715  139.6759  152.5496 H   0  0  0  0  0  0  0  0  0  0  0  0
  147.5240  141.6738  154.8213 H   0  0  0  0  0  0  0  0  0  0  0  0
  146.3730  141.8368  153.4980 H   0  0  0  0  0  0  0  0  0  0  0  0
  148.1082  141.9340  153.1676 H   0  0  0  0  0  0  0  0  0  0  0  0
  150.9587  144.8881  157.1739 H   0  0  0  0  0  0  0  0  0  0  0  0
  1  2  1  0  0  0  0
  1 17  1  0  0  0  0
  1 18  1  0  0  0  0
  1 19  1  0  0  0  0
  2  3  1  0  0  0  0
  2 20  1  0  0  0  0
  2 21  1  0  0  0  0
  3 16  1  0  0  0  0
  3  4  2  0  0  0  0
  4  5  1  0  0  0  0
  5  6  1  0  0  0  0
  5 15  2  0  0  0  0
  6  7  1  0  0  0  0
  6 22  1  0  0  0  0
  6 23  1  0  0  0  0
  7  8  1  0  0  0  0
  7 24  1  0  0  0  0
  7 25  1  0  0  0  0
  8  9  1  0  0  0  0
  8 26  1  0  0  0  0
  9 10  2  0  0  0  0
  9 11  1  0  0  0  0
 11 13  1  0  0  0  0
 11 12  1  0  0  0  0
 11 27  1  0  0  0  0
 12 13  1  0  0  0  0
 12 28  1  0  0  0  0
 12 29  1  0  0  0  0
 13 14  1  0  0  0  0
 13 30  1  0  0  0  0
 14 31  1  0  0  0  0
 14 32  1  0  0  0  0
 14 33  1  0  0  0  0
 15 16  1  0  0  0  0
 15 34  1  0  0  0  0
M  END
> <s_m_source_file>
AV-unprocessed.smi

> <i_m_source_file_index>
3211

> <i_lp_mmshare_version>
43012

> <i_f3d_flags>
0

> <s_epik_input>
W0NIM11bQ0gyXWMxbmMoW2NIXXMxKVtDSDJdW0NIMl1bTkhdQyg9TylbQ0BASF0yW0NIMl1bQ0BIXTJbQ0gzXQ==

> <s_epik_cmdline>
J2VwaWtfcHl0aG9uJywgJy1waCcsICc3LjAnLCAnLXRuJywgJzgnLCAnLW1hJywgJzIwMCcsICctbWV0YWxfYmluZGluZycsICctaW1hZScsICc8aW5maWxlLm1hZT4nLCAnLW9tYWUnLCAnPG91dGZpbGUubWFlPic=

> <r_epik_Ionization_Penalty>
0.00109667

> <r_epik_Ionization_Penalty_Charging>
0

> <r_epik_Ionization_Penalty_Neutral>
0.00109667

> <r_epik_State_Penalty>
0.000719322

> <r_epik_Charging_Adjusted_Penalty>
0.000719322

> <i_epik_Tot_Q>
0

> <i_epik_Tot_abs_Q>
0

> <r_epik_Metal_State_Penalty>
-0

> <b_epik_Metal_Only>
0

> <s_lp_Force_Field>
OPLS_2005

> <r_lp_Energy>
1.4675

> <b_lp_Chiralities_Consistent>
1

> <s_lp_Variant>
AV-unprocessed.smi:3211-2

> <Gold.Version>
5.8.1

> <Gold.Id.Protein>
6NUR|6NUR_protein|mol2

> <Gold.PLP.Fitness>
43.4053

> <Gold.PLP.PLP>
-38.4741

> <Gold.PLP.part.hbond>
-1.0000

> <Gold.PLP.part.metal>
0.0000

> <Gold.PLP.part.buried>
-4.3302

> <Gold.PLP.part.nonpolar>
-33.7875

> <Gold.PLP.part.repulsive>
0.1554

> <Gold.PLP.ligand.clash>
0.1881

> <Gold.PLP.ligand.torsion>
0.4942

> <Gold.PLP.Chemscore.Hbond>
1.0000

> <Gold.PLP.Chemscore.CHOScore>
0.9967

> <Gold.PLP.Chemscore.Metal>
0.0000

> <Gold.Chemscore.Hbonds>
donor molecule, donor type, donor heavy atom, donor atom, acceptor molecule, acceptor atom, score
      P1  H  7989  7998       L1    10  1.00
      L1  C    15    34       P1  8028  1.00

> <Gold.PLP.Chemscore.Internal.Correction>
0.1177

> <Gold.Rescore>
     Score         DG    S(hbond)    S(metal)    S(lipo)     H(rot)  DE(clash)    DE(int)     intcor
     17.26     -17.56       1.00        0.00     107.71       1.51       0.02       0.28       ----

> <Gold.Chemscore.Fitness>
17.2559

> <Gold.Chemscore.DG>
-17.5566

> <Gold.Chemscore.ZeroCoef>
-5.4800

> <Gold.Chemscore.Hbond>
0.9997

> <Gold.Chemscore.Metal>
0.0000

> <Gold.Chemscore.Lipo>
107.7108

> <Gold.Chemscore.Internal_Hbond>
0.0000

> <Gold.Chemscore.DEClash>
0.0241

> <Gold.Chemscore.DEInternal>
0.2766

> <Gold.Chemscore.Rot>
1.5096

> <Gold.Chemscore.Internal.Correction>
   9.000000E+99

> <Gold.Chemscore.Hbonds>
donor molecule, donor type, donor heavy atom, donor atom, acceptor molecule, acceptor atom, score
      P1  H  7989  7998       L1    10  1.00

> <Gold.Chemscore.Hbond.Weighted>
-3.3390

> <Gold.Chemscore.Metal.Weighted>
-0.0000

> <Gold.Chemscore.Lipo.Weighted>
-12.6022

> <Gold.Chemscore.Internal_Hbond.Weighted>
0.0000

> <Gold.Chemscore.DEClash.Weighted>
0.0241

> <Gold.Chemscore.DEInternal.Weighted>
0.2766

> <Gold.Chemscore.Rot.Weighted>
3.8646

> <Gold.Chemscore.Internal.Correction.Weighted>
   9.000000E+99

> <Gold.Protein.RotatedTorsions>
[ 6907 6896 6895 6894 ] final  153.98 input  -60.11 | X-H torsion
[ 7974 7965 7964 7962 ] final  164.53 input  175.53 | X-H torsion
[ 8008 7997 7996 7995 ] final -115.14 input   59.86 | X-H torsion
[ 10167 10162 10161 10158 ] final   -3.89 input  -65.29 | X-H torsion
[ 10718 10713 10712 10709 ] final  157.64 input   66.30 | X-H torsion
[ 10763 10752 10751 10750 ] final   50.56 input  -60.55 | X-H torsion
[ 11005 11000 10999 10996 ] final -124.61 input  -57.11 | X-H torsion

> <Gold.Protein.ActiveResidues>
 VAL166  LYS551  ARG553  GLY616  TRP617  ASP618  TYR619  PRO620  LYS621  CYS622 
 ASP623  PHE694  ASN695  SER759  ASP760  ASP761  ALA762  ILE779  LEU786  VAL792 
 PHE793  MET794  SER795  GLU796  ALA797  LYS798  CYS799  TRP800  GLU811  SER814 

> <Gold.Protein.RotatedAtoms>
  152.0650  133.4080  159.4434 H   0  0  0  0  0  0  0  0  0  0  0  0  # atno 6907 bound_to 6896
  150.6865  134.3157  159.4774 H   0  0  0  0  0  0  0  0  0  0  0  0  # atno 6908 bound_to 6896
  152.0982  134.9359  160.0621 H   0  0  0  0  0  0  0  0  0  0  0  0  # atno 6909 bound_to 6896
  144.7541  139.8339  143.6356 H   0  0  0  0  0  0  0  0  0  0  0  0  # atno 7974 bound_to 7965
  155.0473  140.0392  157.2531 H   0  0  0  0  0  0  0  0  0  0  0  0  # atno 8008 bound_to 7997
  154.7167  140.2703  155.6555 H   0  0  0  0  0  0  0  0  0  0  0  0  # atno 8009 bound_to 7997
  156.2805  140.2711  156.1825 H   0  0  0  0  0  0  0  0  0  0  0  0  # atno 8010 bound_to 7997
  140.6907  143.6487  150.8370 H   0  0  0  0  0  0  0  0  0  0  0  0  # atno 10167 bound_to 10162
  157.1887  131.0649  151.2091 H   0  0  0  0  0  0  0  0  0  0  0  0  # atno 10718 bound_to 10713
  152.9784  135.5875  154.4272 H   0  0  0  0  0  0  0  0  0  0  0  0  # atno 10763 bound_to 10752
  154.3890  135.2767  155.2168 H   0  0  0  0  0  0  0  0  0  0  0  0  # atno 10764 bound_to 10752
  154.4049  135.6095  153.5973 H   0  0  0  0  0  0  0  0  0  0  0  0  # atno 10765 bound_to 10752
  140.9827  134.0650  157.3746 H   0  0  0  0  0  0  0  0  0  0  0  0  # atno 11005 bound_to 11000
  146.1530  139.4619  143.0037 LP  0  0  0  0  0  0  0  0  0  0  0  0  # atno 17320 bound_to 7965
  145.6840  141.0183  143.1591 LP  0  0  0  0  0  0  0  0  0  0  0  0  # atno 17321 bound_to 7965
  140.0199  143.5553  152.2804 LP  0  0  0  0  0  0  0  0  0  0  0  0  # atno 17342 bound_to 10162
  139.6307  144.7644  151.2541 LP  0  0  0  0  0  0  0  0  0  0  0  0  # atno 17343 bound_to 10162
  157.3882  130.7268  149.6678 LP  0  0  0  0  0  0  0  0  0  0  0  0  # atno 17370 bound_to 10713
  155.9714  130.4154  150.4178 LP  0  0  0  0  0  0  0  0  0  0  0  0  # atno 17371 bound_to 10713
  139.8957  135.0142  156.7016 LP  0  0  0  0  0  0  0  0  0  0  0  0  # atno 17394 bound_to 11000
  140.7161  133.9181  155.8116 LP  0  0  0  0  0  0  0  0  0  0  0  0  # atno 17395 bound_to 11000

$$$$
