#       Name:                AV-unprocessed.smi:955
#       Creating user name   scv26
#       Creation time:       Fri Mar 27 02:17:10 2020


#       File generated by GOLD software.
#

@<TRIPOS>MOLECULE
AV-unprocessed.smi:955
    34    34     1
SMALL
NO_CHARGES


@<TRIPOS>ATOM
      1 ****        -2.5859  -0.3100  -1.7502 C.3            1 S1                 0.0000
      2 ****        -2.1422   0.3648  -0.4418 C.3            1 S1                 0.0000
      3 ****        -0.6807   0.3715  -0.4119 N.am           1 S1                 0.0000
      4 ****         0.0727   0.5014   0.6926 C.2            1 S1                 0.0000
      5 ****        -0.4064   0.6226   1.8209 O.2            1 S1                 0.0000
      6 ****         1.5949   0.4934   0.4816 C.3            1 S1                 0.0000
      7 ****         2.3498   1.2815   1.5719 C.3            1 S1                 0.0000
      8 ****         2.0804  -0.8761   0.3522 N.pl3          1 S1                 0.0000
      9 ****         2.3538  -1.5726  -0.8079 C.2            1 S1                 0.0000
     10 ****         2.7467  -2.8304  -0.4502 C.2            1 S1                 0.0000
     11 ****         2.6694  -2.8168   0.9701 C.2            1 S1                 0.0000
     12 ****         2.2622  -1.6520   1.4466 N.2            1 S1                 0.0000
     13 ****        -2.6913   1.8011  -0.4376 C.2            1 S1                 0.0000
     14 ****        -3.8077   2.0167   0.2625 N.am           1 S1                 0.0000
     15 ****        -2.1308   2.6981  -1.0665 O.2            1 S1                 0.0000
     16 ****        -3.6733  -0.3456  -1.8292 H              1 S1                 0.0000
     17 ****        -2.2249  -1.3379  -1.7982 H              1 S1                 0.0000
     18 ****        -2.2052   0.2140  -2.6285 H              1 S1                 0.0000
     19 ****        -2.5335  -0.1941   0.4108 H              1 S1                 0.0000
     20 ****        -0.2087   0.2863  -1.3001 H              1 S1                 0.0000
     21 ****         1.7935   0.9937  -0.4679 H              1 S1                 0.0000
     22 ****         2.0210   2.3208   1.6023 H              1 S1                 0.0000
     23 ****         3.4224   1.2847   1.3764 H              1 S1                 0.0000
     24 ****         2.1975   0.8586   2.5657 H              1 S1                 0.0000
     25 ****         2.2476  -1.1194  -1.7825 H              1 S1                 0.0000
     26 ****         3.0398  -3.6387  -1.1036 H              1 S1                 0.0000
     27 ****         2.8910  -3.6141   1.6641 H              1 S1                 0.0000
     28 ****        -4.2145   2.9402   0.2913 H              1 S1                 0.0000
     29 ****        -4.2459   1.2515   0.7546 H              1 S1                 0.0000
     30 ****        -1.3987   0.6272   1.9449 LP             1 S1                 0.0000
     31 ****         0.1969   0.7163   2.6129 LP             1 S1                 0.0000
     32 ****         2.1200  -1.4002   2.4039 LP             1 S1                 0.0000
     33 ****        -1.3037   2.4987  -1.5920 LP             1 S1                 0.0000
     34 ****        -2.5025   3.6263  -1.0521 LP             1 S1                 0.0000
@<TRIPOS>BOND
    1    1    2 1     
    2    1   16 1     
    3    1   17 1     
    4    1   18 1     
    5    2    3 1     
    6    2   13 1     
    7    2   19 1     
    8    3    4 am    
    9    3   20 1     
   10    4    5 2     
   11    4    6 1     
   12    6    7 1     
   13    6    8 1     
   14    6   21 1     
   15    7   22 1     
   16    7   23 1     
   17    7   24 1     
   18    8   12 1     
   19    8    9 1     
   20    9   10 2     
   21    9   25 1     
   22   10   11 1     
   23   10   26 1     
   24   11   12 2     
   25   11   27 1     
   26   13   14 am    
   27   13   15 2     
   28   14   28 1     
   29   14   29 1     
   30    5   30 1     
   31    5   31 1     
   32   12   32 1     
   33   15   33 1     
   34   15   34 1     
@<TRIPOS>SUBSTRUCTURE
      1 S1             1
@<TRIPOS>SET
LONE_PAIRS      STATIC     ATOMS    <user>   **** ""
5 30 31 32 33 34
DONOR_HYDROGENS      STATIC     ATOMS    <user>   **** ""
3 20 28 29
ATOM$BLUE        STATIC     ATOMS    COLORGROUP SYSTEM
5 30 31 32 33 34
ATOM$RED        STATIC     ATOMS    COLORGROUP SYSTEM
3 20 28 29
