AV-unprocessed.smi:29|AV-procd|sdf|192|dock3
  -GOLD-   2262015463D 1   1.00000     0.00000
 Structure written by MMmdl.
 56 59  0  0  0  0  0  0  0  0  1 V2000
  150.5369  140.1416  156.3249 O   0  0  0  0  0  0  0  0  0  0  0  0
  150.4997  139.2788  157.1999 C   0  0  0  0  0  0  0  0  0  0  0  0
  149.7350  137.9749  156.9069 C   0  0  0  0  0  0  0  0  0  0  0  0
  148.6692  137.6366  157.8805 N   0  0  0  0  0  0  0  0  0  0  0  0
  147.3505  138.0827  157.6198 C   0  0  0  0  0  0  0  0  0  0  0  0
  147.0917  138.7689  156.6303 O   0  0  0  0  0  0  0  0  0  0  0  0
  146.3453  137.6745  158.5928 C   0  0  0  0  0  0  0  0  0  0  0  0
  145.0571  138.0026  158.3963 F   0  0  0  0  0  0  0  0  0  0  0  0
  146.6852  136.9614  159.6856 C   0  0  0  0  0  0  0  0  0  0  0  0
  147.9898  136.5909  159.9685 N   0  0  0  0  0  0  0  0  0  0  0  0
  148.3600  135.7410  161.1754 C   0  0  1  0  0  0  0  0  0  0  0  0
  147.8950  136.3134  162.5217 C   0  0  0  0  0  0  0  0  0  0  0  0
  146.5854  135.5748  162.7836 C   0  0  0  0  0  0  0  0  0  0  0  0
  146.4195  134.6345  161.5850 C   0  0  0  0  0  0  0  0  0  0  0  0
  147.7310  134.5054  161.0535 O   0  0  0  0  0  0  0  0  0  0  0  0
  149.0075  136.8904  159.0350 C   0  0  0  0  0  0  0  0  0  0  0  0
  150.1679  136.5219  159.2284 O   0  0  0  0  0  0  0  0  0  0  0  0
  151.0683  139.3978  158.4154 N   0  0  0  0  0  0  0  0  0  0  0  0
  151.8059  140.4704  158.9958 C   0  0  0  0  0  0  0  0  0  0  0  0
  151.5019  141.8363  158.7722 C   0  0  0  0  0  0  0  0  0  0  0  0
  152.2697  142.8568  159.3708 C   0  0  0  0  0  0  0  0  0  0  0  0
  151.9228  144.3154  159.1099 C   0  0  0  0  0  0  0  0  0  0  0  0
  150.7062  144.4424  158.5789 F   0  0  0  0  0  0  0  0  0  0  0  0
  151.9595  144.9871  160.2600 F   0  0  0  0  0  0  0  0  0  0  0  0
  152.8038  144.8563  158.2679 F   0  0  0  0  0  0  0  0  0  0  0  0
  153.3644  142.5099  160.1882 C   0  0  0  0  0  0  0  0  0  0  0  0
  153.6848  141.1583  160.4052 C   0  0  0  0  0  0  0  0  0  0  0  0
  152.9149  140.1323  159.8118 C   0  0  0  0  0  0  0  0  0  0  0  0
  153.2487  138.7827  160.0201 N   0  0  0  0  0  0  0  0  0  0  0  0
  153.7987  138.1279  158.8406 C   0  0  0  0  0  0  0  0  0  0  0  0
  153.9861  136.6271  159.1159 C   0  0  0  0  0  0  0  0  0  0  0  0
  154.8014  136.4486  160.2708 O   0  0  0  0  0  0  0  0  0  0  0  0
  154.2186  137.0296  161.4342 C   0  0  0  0  0  0  0  0  0  0  0  0
  154.0354  138.5424  161.2227 C   0  0  0  0  0  0  0  0  0  0  0  0
  149.3270  138.0415  155.8970 H   0  0  0  0  0  0  0  0  0  0  0  0
  150.4651  137.1674  156.8356 H   0  0  0  0  0  0  0  0  0  0  0  0
  145.8849  136.6743  160.3488 H   0  0  0  0  0  0  0  0  0  0  0  0
  149.4466  135.6460  161.1397 H   0  0  0  0  0  0  0  0  0  0  0  0
  148.6286  136.0361  163.2795 H   0  0  0  0  0  0  0  0  0  0  0  0
  147.8213  137.4005  162.5203 H   0  0  0  0  0  0  0  0  0  0  0  0
  146.6590  135.0045  163.7102 H   0  0  0  0  0  0  0  0  0  0  0  0
  145.7382  136.2545  162.8780 H   0  0  0  0  0  0  0  0  0  0  0  0
  146.0088  133.6651  161.8679 H   0  0  0  0  0  0  0  0  0  0  0  0
  145.7593  135.0713  160.8344 H   0  0  0  0  0  0  0  0  0  0  0  0
  150.9050  138.6212  159.0400 H   0  0  0  0  0  0  0  0  0  0  0  0
  150.6883  142.1349  158.1317 H   0  0  0  0  0  0  0  0  0  0  0  0
  153.9715  143.2759  160.6471 H   0  0  0  0  0  0  0  0  0  0  0  0
  154.5321  140.9135  161.0287 H   0  0  0  0  0  0  0  0  0  0  0  0
  153.1290  138.2714  157.9914 H   0  0  0  0  0  0  0  0  0  0  0  0
  154.7568  138.5784  158.5784 H   0  0  0  0  0  0  0  0  0  0  0  0
  153.0225  136.1409  159.2626 H   0  0  0  0  0  0  0  0  0  0  0  0
  154.4616  136.1422  158.2634 H   0  0  0  0  0  0  0  0  0  0  0  0
  153.2641  136.5497  161.6524 H   0  0  0  0  0  0  0  0  0  0  0  0
  154.8695  136.8455  162.2889 H   0  0  0  0  0  0  0  0  0  0  0  0
  155.0104  139.0224  161.1322 H   0  0  0  0  0  0  0  0  0  0  0  0
  153.5356  138.9834  162.0861 H   0  0  0  0  0  0  0  0  0  0  0  0
  1  2  2  0  0  0  0
  2  3  1  0  0  0  0
  2 18  1  0  0  0  0
  3  4  1  0  0  0  0
  3 35  1  0  0  0  0
  3 36  1  0  0  0  0
  4 16  1  0  0  0  0
  4  5  1  0  0  0  0
  5  6  2  0  0  0  0
  5  7  1  0  0  0  0
  7  8  1  0  0  0  0
  7  9  2  0  0  0  0
  9 10  1  0  0  0  0
  9 37  1  0  0  0  0
 10 11  1  0  0  0  0
 10 16  1  0  0  0  0
 11 15  1  0  0  0  0
 11 12  1  0  0  0  0
 11 38  1  0  0  0  0
 12 13  1  0  0  0  0
 12 39  1  0  0  0  0
 12 40  1  0  0  0  0
 13 14  1  0  0  0  0
 13 41  1  0  0  0  0
 13 42  1  0  0  0  0
 14 15  1  0  0  0  0
 14 43  1  0  0  0  0
 14 44  1  0  0  0  0
 16 17  2  0  0  0  0
 18 19  1  0  0  0  0
 18 45  1  0  0  0  0
 19 28  1  0  0  0  0
 19 20  2  0  0  0  0
 20 21  1  0  0  0  0
 20 46  1  0  0  0  0
 21 22  1  0  0  0  0
 21 26  2  0  0  0  0
 22 23  1  0  0  0  0
 22 24  1  0  0  0  0
 22 25  1  0  0  0  0
 26 27  1  0  0  0  0
 26 47  1  0  0  0  0
 27 28  2  0  0  0  0
 27 48  1  0  0  0  0
 28 29  1  0  0  0  0
 29 34  1  0  0  0  0
 29 30  1  0  0  0  0
 30 31  1  0  0  0  0
 30 49  1  0  0  0  0
 30 50  1  0  0  0  0
 31 32  1  0  0  0  0
 31 51  1  0  0  0  0
 31 52  1  0  0  0  0
 32 33  1  0  0  0  0
 33 34  1  0  0  0  0
 33 53  1  0  0  0  0
 33 54  1  0  0  0  0
 34 55  1  0  0  0  0
 34 56  1  0  0  0  0
M  END
> <s_m_source_file>
AV-unprocessed.smi

> <i_m_source_file_index>
29

> <i_lp_mmshare_version>
43012

> <i_f3d_flags>
0

> <s_epik_input>
TzFbQ0gyXVtDSDJdW0NIMl1bQ0BIXTFuKGMyPU8pW2NIXWMoRiljKD1PKW4yW0NIMl1DKD1PKVtOSF1jM1tjSF1jKEMoRikoRilGKVtjSF1bY0hdYzNONFtDSDJdW0NIMl1PW0NIMl1bQ0gyXTQ=

> <s_epik_cmdline>
J2VwaWtfcHl0aG9uJywgJy1waCcsICc3LjAnLCAnLXRuJywgJzgnLCAnLW1hJywgJzIwMCcsICctbWV0YWxfYmluZGluZycsICctaW1hZScsICc8aW5maWxlLm1hZT4nLCAnLW9tYWUnLCAnPG91dGZpbGUubWFlPic=

> <r_lp_tautomer_probability>
1

> <r_epik_Ionization_Penalty>
3.5967e-06

> <r_epik_Ionization_Penalty_Charging>
3.88729e-08

> <r_epik_Ionization_Penalty_Neutral>
3.55783e-06

> <r_epik_State_Penalty>
-0

> <r_epik_Charging_Adjusted_Penalty>
3.88729e-08

> <i_epik_Tot_Q>
0

> <i_epik_Tot_abs_Q>
0

> <r_epik_Metal_State_Penalty>
-0

> <b_epik_Metal_Only>
0

> <s_epik_Chemistry_Notes>
This compound contains an acetal/aminal-like group ( X-CH(R)-Y where X, Y are N, S, or O) that may be acid/base labile, releasing an aldehyde.

> <s_lp_Force_Field>
OPLS_2005

> <r_lp_Energy>
46.7793

> <b_lp_Chiralities_Consistent>
1

> <s_lp_Variant>
AV-unprocessed.smi:29-2

> <Gold.Version>
5.8.1

> <Gold.Id.Protein>
6NUR|6NUR_protein|mol2

> <Gold.PLP.Fitness>
56.6330

> <Gold.PLP.PLP>
-56.8318

> <Gold.PLP.part.hbond>
-1.0000

> <Gold.PLP.part.metal>
0.0000

> <Gold.PLP.part.buried>
-9.0660

> <Gold.PLP.part.nonpolar>
-47.0192

> <Gold.PLP.part.repulsive>
0.1277

> <Gold.PLP.ligand.clash>
0.6596

> <Gold.PLP.ligand.torsion>
1.7205

> <Gold.PLP.Chemscore.Hbond>
1.0000

> <Gold.PLP.Chemscore.CHOScore>
0.0000

> <Gold.PLP.Chemscore.Metal>
0.0000

> <Gold.Chemscore.Hbonds>
donor molecule, donor type, donor heavy atom, donor atom, acceptor molecule, acceptor atom, score
      P1  H  6896  6909       L1    17  1.00

> <Gold.PLP.Chemscore.Internal.Correction>
0.9017

> <Gold.Rescore>
     Score         DG    S(hbond)    S(metal)    S(lipo)     H(rot)  DE(clash)    DE(int)     intcor
     14.33     -17.68       1.00        0.00     118.82       1.96       0.03       3.32       ----

> <Gold.Chemscore.Fitness>
14.3324

> <Gold.Chemscore.DG>
-17.6787

> <Gold.Chemscore.ZeroCoef>
-5.4800

> <Gold.Chemscore.Hbond>
0.9953

> <Gold.Chemscore.Metal>
0.0000

> <Gold.Chemscore.Lipo>
118.8229

> <Gold.Chemscore.Internal_Hbond>
0.0000

> <Gold.Chemscore.DEClash>
0.0278

> <Gold.Chemscore.DEInternal>
3.3185

> <Gold.Chemscore.Rot>
1.9641

> <Gold.Chemscore.Internal.Correction>
   9.000000E+99

> <Gold.Chemscore.Hbonds>
donor molecule, donor type, donor heavy atom, donor atom, acceptor molecule, acceptor atom, score
      P1  H  6896  6909       L1    17  0.99

> <Gold.Chemscore.Hbond.Weighted>
-3.3244

> <Gold.Chemscore.Metal.Weighted>
-0.0000

> <Gold.Chemscore.Lipo.Weighted>
-13.9023

> <Gold.Chemscore.Internal_Hbond.Weighted>
0.0000

> <Gold.Chemscore.DEClash.Weighted>
0.0278

> <Gold.Chemscore.DEInternal.Weighted>
3.3185

> <Gold.Chemscore.Rot.Weighted>
5.0280

> <Gold.Chemscore.Internal.Correction.Weighted>
   9.000000E+99

> <Gold.Protein.RotatedTorsions>
[ 6907 6896 6895 6894 ] final   68.57 input  -60.11 | X-H torsion
[ 7974 7965 7964 7962 ] final   95.68 input  175.53 | X-H torsion
[ 8008 7997 7996 7995 ] final   63.43 input   59.86 | X-H torsion
[ 10167 10162 10161 10158 ] final   86.96 input  -65.29 | X-H torsion
[ 10718 10713 10712 10709 ] final -167.65 input   66.30 | X-H torsion
[ 10763 10752 10751 10750 ] final  -55.18 input  -60.55 | X-H torsion
[ 11005 11000 10999 10996 ] final -170.97 input  -57.11 | X-H torsion

> <Gold.Protein.ActiveResidues>
 VAL166  LYS551  ARG553  GLY616  TRP617  ASP618  TYR619  PRO620  LYS621  CYS622 
 ASP623  PHE694  ASN695  SER759  ASP760  ASP761  ALA762  ILE779  LEU786  VAL792 
 PHE793  MET794  SER795  GLU796  ALA797  LYS798  CYS799  TRP800  GLU811  SER814 

> <Gold.Protein.RotatedAtoms>
  152.4629  134.5143  159.9763 H   0  0  0  0  0  0  0  0  0  0  0  0  # atno 6907 bound_to 6896
  151.5188  133.3464  159.2905 H   0  0  0  0  0  0  0  0  0  0  0  0  # atno 6908 bound_to 6896
  150.8600  134.7978  159.7137 H   0  0  0  0  0  0  0  0  0  0  0  0  # atno 6909 bound_to 6896
  145.4490  139.2295  143.3050 H   0  0  0  0  0  0  0  0  0  0  0  0  # atno 7974 bound_to 7965
  155.6301  140.3496  155.4680 H   0  0  0  0  0  0  0  0  0  0  0  0  # atno 8008 bound_to 7997
  156.0010  140.1213  157.0571 H   0  0  0  0  0  0  0  0  0  0  0  0  # atno 8009 bound_to 7997
  154.4249  140.1100  156.5683 H   0  0  0  0  0  0  0  0  0  0  0  0  # atno 8010 bound_to 7997
  139.8822  144.6433  150.8830 H   0  0  0  0  0  0  0  0  0  0  0  0  # atno 10167 bound_to 10162
  156.6855  130.9139  151.3062 H   0  0  0  0  0  0  0  0  0  0  0  0  # atno 10718 bound_to 10713
  154.1867  135.6434  153.5049 H   0  0  0  0  0  0  0  0  0  0  0  0  # atno 10763 bound_to 10752
  153.0045  135.5419  154.6457 H   0  0  0  0  0  0  0  0  0  0  0  0  # atno 10764 bound_to 10752
  154.5836  135.2927  155.0681 H   0  0  0  0  0  0  0  0  0  0  0  0  # atno 10765 bound_to 10752
  140.5135  134.5779  157.5026 H   0  0  0  0  0  0  0  0  0  0  0  0  # atno 11005 bound_to 11000
  146.2515  140.5247  142.8891 LP  0  0  0  0  0  0  0  0  0  0  0  0  # atno 17320 bound_to 7965
  144.8073  140.6323  143.6438 LP  0  0  0  0  0  0  0  0  0  0  0  0  # atno 17321 bound_to 7965
  140.7742  143.3576  151.1890 LP  0  0  0  0  0  0  0  0  0  0  0  0  # atno 17342 bound_to 10162
  139.7185  143.9261  152.2976 LP  0  0  0  0  0  0  0  0  0  0  0  0  # atno 17343 bound_to 10162
  157.7028  130.9351  150.0837 LP  0  0  0  0  0  0  0  0  0  0  0  0  # atno 17370 bound_to 10713
  156.1836  130.3651  149.9003 LP  0  0  0  0  0  0  0  0  0  0  0  0  # atno 17371 bound_to 10713
  139.9645  134.7395  156.0166 LP  0  0  0  0  0  0  0  0  0  0  0  0  # atno 17394 bound_to 11000
  141.1373  133.6572  156.3629 LP  0  0  0  0  0  0  0  0  0  0  0  0  # atno 17395 bound_to 11000

$$$$
