AV-unprocessed.smi:40|AV-procd|sdf|379|dock10
  -GOLD-   2262016233D 1   1.00000     0.00000
 Structure written by MMmdl.
 47 48  0  0  0  0  0  0  0  0  1 V2000
  152.1438  144.4925  160.7530 C   0  0  0  0  0  0  0  0  0  0  0  0
  152.1617  145.0372  159.3204 C   0  0  0  0  0  0  0  0  0  0  0  0
  152.1349  143.9206  158.2677 C   0  0  0  0  0  0  0  0  0  0  0  0
  150.8819  143.0346  158.3719 C   0  0  0  0  0  0  0  0  0  0  0  0
  150.7001  142.1023  157.1656 C   0  0  0  0  0  0  0  0  0  0  0  0
  149.6454  141.1974  157.4437 O   0  0  0  0  0  0  0  0  0  0  0  0
  148.8743  140.7039  156.4620 C   0  0  0  0  0  0  0  0  0  0  0  0
  148.6208  141.3089  155.4205 O   0  0  0  0  0  0  0  0  0  0  0  0
  148.3737  139.3726  156.7808 N   0  0  0  0  0  0  0  0  0  0  0  0
  147.5735  138.5368  156.0681 C   0  0  0  0  0  0  0  0  0  0  0  0
  146.4755  137.9805  156.5553 N   0  0  0  0  0  0  0  0  0  0  0  0
  145.6497  137.1487  155.8507 C   0  0  0  0  0  0  0  0  0  0  0  0
  144.6306  136.6994  156.3692 O   0  0  0  0  0  0  0  0  0  0  0  0
  146.0177  136.8467  154.5168 N   0  0  0  0  0  0  0  0  0  0  0  0
  145.1369  135.9760  153.6432 C   0  0  2  0  0  0  0  0  0  0  0  0
  145.9117  134.9556  153.0945 O   0  0  0  0  0  0  0  0  0  0  0  0
  145.3752  134.6105  151.8242 C   0  0  2  0  0  0  0  0  0  0  0  0
  146.3980  133.8328  150.9829 C   0  0  0  0  0  0  0  0  0  0  0  0
  144.8754  135.9419  151.2400 C   0  0  2  0  0  0  0  0  0  0  0  0
  145.8967  136.6147  150.5252 O   0  0  0  0  0  0  0  0  0  0  0  0
  144.4125  136.7023  152.4840 C   0  0  2  0  0  0  0  0  0  0  0  0
  144.5920  138.1072  152.4130 O   0  0  0  0  0  0  0  0  0  0  0  0
  147.1551  137.4284  153.9788 C   0  0  0  0  0  0  0  0  0  0  0  0
  147.9472  138.2527  154.6985 C   0  0  0  0  0  0  0  0  0  0  0  0
  149.0482  138.7960  154.1504 F   0  0  0  0  0  0  0  0  0  0  0  0
  144.4196  135.5162  154.3243 H   0  0  0  0  0  0  0  0  0  0  0  0
  144.5103  133.9700  152.0055 H   0  0  0  0  0  0  0  0  0  0  0  0
  144.0480  135.7819  150.5479 H   0  0  0  0  0  0  0  0  0  0  0  0
  143.3465  136.5205  152.6260 H   0  0  0  0  0  0  0  0  0  0  0  0
  152.1641  145.3059  161.4783 H   0  0  0  0  0  0  0  0  0  0  0  0
  153.0099  143.8572  160.9425 H   0  0  0  0  0  0  0  0  0  0  0  0
  151.2465  143.9019  160.9391 H   0  0  0  0  0  0  0  0  0  0  0  0
  151.3092  145.7011  159.1737 H   0  0  0  0  0  0  0  0  0  0  0  0
  153.0560  145.6466  159.1840 H   0  0  0  0  0  0  0  0  0  0  0  0
  152.1823  144.3730  157.2766 H   0  0  0  0  0  0  0  0  0  0  0  0
  153.0281  143.3026  158.3657 H   0  0  0  0  0  0  0  0  0  0  0  0
  150.9403  142.4330  159.2794 H   0  0  0  0  0  0  0  0  0  0  0  0
  149.9960  143.6622  158.4763 H   0  0  0  0  0  0  0  0  0  0  0  0
  150.4698  142.6763  156.2670 H   0  0  0  0  0  0  0  0  0  0  0  0
  151.6240  141.5528  156.9797 H   0  0  0  0  0  0  0  0  0  0  0  0
  148.7045  139.0191  157.6670 H   0  0  0  0  0  0  0  0  0  0  0  0
  145.9994  133.6036  149.9944 H   0  0  0  0  0  0  0  0  0  0  0  0
  146.6569  132.8898  151.4647 H   0  0  0  0  0  0  0  0  0  0  0  0
  147.3222  134.3965  150.8524 H   0  0  0  0  0  0  0  0  0  0  0  0
  145.5284  137.3973  150.1446 H   0  0  0  0  0  0  0  0  0  0  0  0
  144.3239  138.4009  151.5560 H   0  0  0  0  0  0  0  0  0  0  0  0
  147.4328  137.2218  152.9551 H   0  0  0  0  0  0  0  0  0  0  0  0
  1  2  1  0  0  0  0
  1 30  1  0  0  0  0
  1 31  1  0  0  0  0
  1 32  1  0  0  0  0
  2  3  1  0  0  0  0
  2 33  1  0  0  0  0
  2 34  1  0  0  0  0
  3  4  1  0  0  0  0
  3 35  1  0  0  0  0
  3 36  1  0  0  0  0
  4  5  1  0  0  0  0
  4 37  1  0  0  0  0
  4 38  1  0  0  0  0
  5  6  1  0  0  0  0
  5 39  1  0  0  0  0
  5 40  1  0  0  0  0
  6  7  1  0  0  0  0
  7  8  2  0  0  0  0
  7  9  1  0  0  0  0
  9 10  1  0  0  0  0
  9 41  1  0  0  0  0
 10 24  1  0  0  0  0
 10 11  2  0  0  0  0
 11 12  1  0  0  0  0
 12 13  2  0  0  0  0
 12 14  1  0  0  0  0
 14 15  1  0  0  0  0
 14 23  1  0  0  0  0
 15 26  1  0  0  0  0
 15 21  1  0  0  0  0
 15 16  1  0  0  0  0
 16 17  1  0  0  0  0
 17 27  1  0  0  0  0
 17 18  1  0  0  0  0
 17 19  1  0  0  0  0
 18 42  1  0  0  0  0
 18 43  1  0  0  0  0
 18 44  1  0  0  0  0
 19 28  1  0  0  0  0
 19 20  1  0  0  0  0
 19 21  1  0  0  0  0
 20 45  1  0  0  0  0
 21 29  1  0  0  0  0
 21 22  1  0  0  0  0
 22 46  1  0  0  0  0
 23 24  2  0  0  0  0
 23 47  1  0  0  0  0
 24 25  1  0  0  0  0
M  END
> <s_m_source_file>
AV-unprocessed.smi

> <i_m_source_file_index>
40

> <i_lp_mmshare_version>
43012

> <i_f3d_flags>
0

> <s_epik_input>
W0NIM11bQ0gyXVtDSDJdW0NIMl1bQ0gyXU9DKD1PKVtOSF1jMW5jKD1PKW4oW2NIXWMxRilbQ0BASF0yT1tDQEhdKFtDSDNdKVtDQEBIXShbT0hdKVtDQEhdMltPSF0=

> <s_epik_cmdline>
J2VwaWtfcHl0aG9uJywgJy1waCcsICc3LjAnLCAnLXRuJywgJzgnLCAnLW1hJywgJzIwMCcsICctbWV0YWxfYmluZGluZycsICctaW1hZScsICc8aW5maWxlLm1hZT4nLCAnLW9tYWUnLCAnPG91dGZpbGUubWFlPic=

> <r_lp_tautomer_probability>
1

> <r_epik_Ionization_Penalty>
2.29506e-06

> <r_epik_Ionization_Penalty_Charging>
8.26867e-09

> <r_epik_Ionization_Penalty_Neutral>
2.2868e-06

> <r_epik_State_Penalty>
-0

> <r_epik_Charging_Adjusted_Penalty>
8.26867e-09

> <i_epik_Tot_Q>
0

> <i_epik_Tot_abs_Q>
0

> <r_epik_Metal_State_Penalty>
-0

> <b_epik_Metal_Only>
0

> <s_epik_Chemistry_Notes>
This compound has an ester and may undergo hydrolysis at high or low pH. This compound contains an acetal/aminal-like group ( X-CH(R)-Y where X, Y are N, S, or O) that may be acid/base labile, releasing an aldehyde.

> <s_lp_Force_Field>
OPLS_2005

> <r_lp_Energy>
38.6632

> <b_lp_Chiralities_Consistent>
1

> <s_lp_Variant>
AV-unprocessed.smi:40-13

> <Gold.Version>
5.8.1

> <Gold.Id.Protein>
6NUR|6NUR_protein|mol2

> <Gold.PLP.Fitness>
40.7900

> <Gold.PLP.PLP>
-34.0735

> <Gold.PLP.part.hbond>
-2.9519

> <Gold.PLP.part.metal>
0.0000

> <Gold.PLP.part.buried>
-4.0250

> <Gold.PLP.part.nonpolar>
-27.3593

> <Gold.PLP.part.repulsive>
0.2947

> <Gold.PLP.ligand.clash>
0.0000

> <Gold.PLP.ligand.torsion>
1.1945

> <Gold.PLP.Chemscore.Hbond>
2.0000

> <Gold.PLP.Chemscore.CHOScore>
1.0000

> <Gold.PLP.Chemscore.Metal>
0.0000

> <Gold.Chemscore.Hbonds>
donor molecule, donor type, donor heavy atom, donor atom, acceptor molecule, acceptor atom, score
      L1  H    20    45       P1 10171  0.93
      L1  H    22    46       P1 10171  1.00
      L1  C    23    47       P1  7948  1.00

> <Gold.PLP.Chemscore.Internal.Correction>
0.1056

> <Gold.Rescore>
     Score         DG    S(hbond)    S(metal)    S(lipo)     H(rot)  DE(clash)    DE(int)     intcor
      8.43     -12.06       1.98        0.00      80.65       3.70       0.06       3.57       ----

> <Gold.Chemscore.Fitness>
8.4263

> <Gold.Chemscore.DG>
-12.0628

> <Gold.Chemscore.ZeroCoef>
-5.4800

> <Gold.Chemscore.Hbond>
1.9785

> <Gold.Chemscore.Metal>
0.0000

> <Gold.Chemscore.Lipo>
80.6469

> <Gold.Chemscore.Internal_Hbond>
0.0000

> <Gold.Chemscore.DEClash>
0.0629

> <Gold.Chemscore.DEInternal>
3.5736

> <Gold.Chemscore.Rot>
3.6957

> <Gold.Chemscore.Internal.Correction>
   9.000000E+99

> <Gold.Chemscore.Hbonds>
donor molecule, donor type, donor heavy atom, donor atom, acceptor molecule, acceptor atom, score
      L1  H    20    45       P1 10171  0.84
      L1  H    22    46       P1 10171  1.00

> <Gold.Chemscore.Hbond.Weighted>
-6.6081

> <Gold.Chemscore.Metal.Weighted>
-0.0000

> <Gold.Chemscore.Lipo.Weighted>
-9.4357

> <Gold.Chemscore.Internal_Hbond.Weighted>
0.0000

> <Gold.Chemscore.DEClash.Weighted>
0.0629

> <Gold.Chemscore.DEInternal.Weighted>
3.5736

> <Gold.Chemscore.Rot.Weighted>
9.4610

> <Gold.Chemscore.Internal.Correction.Weighted>
   9.000000E+99

> <Gold.Protein.RotatedTorsions>
[ 6907 6896 6895 6894 ] final    8.88 input  -60.11 | X-H torsion
[ 7974 7965 7964 7962 ] final -117.47 input  175.53 | X-H torsion
[ 8008 7997 7996 7995 ] final -162.35 input   59.86 | X-H torsion
[ 10167 10162 10161 10158 ] final -110.10 input  -65.29 | X-H torsion
[ 10718 10713 10712 10709 ] final  164.69 input   66.30 | X-H torsion
[ 10763 10752 10751 10750 ] final -153.76 input  -60.55 | X-H torsion
[ 11005 11000 10999 10996 ] final -141.87 input  -57.11 | X-H torsion

> <Gold.Protein.ActiveResidues>
 VAL166  LYS551  ARG553  GLY616  TRP617  ASP618  TYR619  PRO620  LYS621  CYS622 
 ASP623  PHE694  ASN695  SER759  ASP760  ASP761  ALA762  ILE779  LEU786  VAL792 
 PHE793  MET794  SER795  GLU796  ALA797  LYS798  CYS799  TRP800  GLU811  SER814 

> <Gold.Protein.RotatedAtoms>
  151.7132  135.0909  160.0270 H   0  0  0  0  0  0  0  0  0  0  0  0  # atno 6907 bound_to 6896
  152.3649  133.6339  159.6051 H   0  0  0  0  0  0  0  0  0  0  0  0  # atno 6908 bound_to 6896
  150.7630  133.9281  159.3460 H   0  0  0  0  0  0  0  0  0  0  0  0  # atno 6909 bound_to 6896
  145.0848  140.8450  143.4017 H   0  0  0  0  0  0  0  0  0  0  0  0  # atno 7974 bound_to 7965
  155.8055  140.0898  157.1933 H   0  0  0  0  0  0  0  0  0  0  0  0  # atno 8008 bound_to 7997
  154.3981  140.1464  156.3384 H   0  0  0  0  0  0  0  0  0  0  0  0  # atno 8009 bound_to 7997
  155.8418  140.3438  155.5639 H   0  0  0  0  0  0  0  0  0  0  0  0  # atno 8010 bound_to 7997
  140.1481  143.4222  152.1514 H   0  0  0  0  0  0  0  0  0  0  0  0  # atno 10167 bound_to 10162
  157.0908  131.0417  151.2538 H   0  0  0  0  0  0  0  0  0  0  0  0  # atno 10718 bound_to 10713
  154.7906  135.3205  154.7786 H   0  0  0  0  0  0  0  0  0  0  0  0  # atno 10763 bound_to 10752
  153.8476  135.6865  153.4800 H   0  0  0  0  0  0  0  0  0  0  0  0  # atno 10764 bound_to 10752
  153.1574  135.4674  154.9664 H   0  0  0  0  0  0  0  0  0  0  0  0  # atno 10765 bound_to 10752
  140.8281  134.2550  157.4869 H   0  0  0  0  0  0  0  0  0  0  0  0  # atno 11005 bound_to 11000
  145.1135  139.2741  143.5625 LP  0  0  0  0  0  0  0  0  0  0  0  0  # atno 17320 bound_to 7965
  146.3531  140.0738  142.8621 LP  0  0  0  0  0  0  0  0  0  0  0  0  # atno 17321 bound_to 7965
  139.5439  144.7281  151.4645 LP  0  0  0  0  0  0  0  0  0  0  0  0  # atno 17342 bound_to 10162
  140.6719  143.8274  150.7010 LP  0  0  0  0  0  0  0  0  0  0  0  0  # atno 17343 bound_to 10162
  157.4723  130.7716  149.7335 LP  0  0  0  0  0  0  0  0  0  0  0  0  # atno 17370 bound_to 10713
  155.9898  130.3949  150.3054 LP  0  0  0  0  0  0  0  0  0  0  0  0  # atno 17371 bound_to 10713
  139.8706  134.9571  156.4260 LP  0  0  0  0  0  0  0  0  0  0  0  0  # atno 17394 bound_to 11000
  140.9027  133.7768  155.9699 LP  0  0  0  0  0  0  0  0  0  0  0  0  # atno 17395 bound_to 11000

$$$$
