AV-unprocessed.smi:1715|AV-procd|sdf|6915|dock8
  -GOLD-   22720 8123D 1   1.00000     0.00000
 Structure written by MMmdl.
 41 42  0  0  0  0  0  0  0  0  2 V2000
  145.3151  133.7031  150.9203 C   0  0  0  0  0  0  0  0  0  0  0  0
  146.1651  132.5151  151.3832 C   0  0  1  0  0  0  0  0  0  0  0  0
  147.3090  132.9533  152.3151 C   0  0  0  0  0  0  0  0  0  0  0  0
  148.0532  131.7739  152.8140 N   0  3  1  0  0  0  0  0  0  0  0  0
  149.2295  132.1556  153.6340 C   0  0  0  0  0  0  0  0  0  0  0  0
  148.8923  133.2303  154.6862 C   0  0  0  0  0  0  0  0  0  0  0  0
  149.2394  134.5671  154.2182 N   0  0  0  0  0  0  0  0  0  0  0  0
  150.0150  135.4360  154.8819 C   0  0  0  0  0  0  0  0  0  0  0  0
  150.5202  135.1943  155.9784 O   0  0  0  0  0  0  0  0  0  0  0  0
  150.1590  136.5832  154.1988 N   0  0  0  0  0  0  0  0  0  0  0  0
  150.8915  137.7322  154.5906 C   0  0  0  0  0  0  0  0  0  0  0  0
  150.5903  139.0609  154.1853 C   0  0  0  0  0  0  0  0  0  0  0  0
  151.4432  139.9307  154.7070 N   0  0  0  0  0  0  0  0  0  0  0  0
  152.2855  139.1699  155.4422 N   0  0  0  0  0  0  0  0  0  0  0  0
  151.9879  137.8256  155.4012 C   0  0  0  0  0  0  0  0  0  0  0  0
  147.1288  130.8373  153.5001 C   0  0  0  0  0  0  0  0  0  0  0  0
  145.9557  130.4418  152.5818 C   0  0  2  0  0  0  0  0  0  0  0  0
  146.3548  129.4636  151.4625 C   0  0  0  0  0  0  0  0  0  0  0  0
  145.3097  131.6096  152.0753 O   0  0  0  0  0  0  0  0  0  0  0  0
  153.0505  139.5779  155.9607 H   0  0  0  0  0  0  0  0  0  0  0  0
  145.9167  134.4268  150.3701 H   0  0  0  0  0  0  0  0  0  0  0  0
  144.8622  134.2190  151.7677 H   0  0  0  0  0  0  0  0  0  0  0  0
  144.5100  133.3729  150.2635 H   0  0  0  0  0  0  0  0  0  0  0  0
  146.5777  132.0299  150.4984 H   0  0  0  0  0  0  0  0  0  0  0  0
  147.9855  133.6159  151.7737 H   0  0  0  0  0  0  0  0  0  0  0  0
  146.9155  133.5194  153.1614 H   0  0  0  0  0  0  0  0  0  0  0  0
  149.5990  131.2734  154.1590 H   0  0  0  0  0  0  0  0  0  0  0  0
  150.0376  132.4846  152.9789 H   0  0  0  0  0  0  0  0  0  0  0  0
  147.8353  133.2132  154.9525 H   0  0  0  0  0  0  0  0  0  0  0  0
  149.4478  133.0388  155.6045 H   0  0  0  0  0  0  0  0  0  0  0  0
  148.8683  134.8487  153.3223 H   0  0  0  0  0  0  0  0  0  0  0  0
  149.6939  136.6438  153.3050 H   0  0  0  0  0  0  0  0  0  0  0  0
  149.7973  139.4157  153.5435 H   0  0  0  0  0  0  0  0  0  0  0  0
  152.5676  137.0886  155.9367 H   0  0  0  0  0  0  0  0  0  0  0  0
  147.6526  129.9392  153.8250 H   0  0  0  0  0  0  0  0  0  0  0  0
  146.7414  131.3166  154.4006 H   0  0  0  0  0  0  0  0  0  0  0  0
  145.2132  129.9303  153.1951 H   0  0  0  0  0  0  0  0  0  0  0  0
  146.7187  128.5255  151.8820 H   0  0  0  0  0  0  0  0  0  0  0  0
  147.1453  129.8604  150.8261 H   0  0  0  0  0  0  0  0  0  0  0  0
  145.4999  129.2295  150.8279 H   0  0  0  0  0  0  0  0  0  0  0  0
  148.4103  131.2971  151.9980 H   0  0  0  0  0  0  0  0  0  0  0  0
  1  2  1  0  0  0  0
  1 21  1  0  0  0  0
  1 22  1  0  0  0  0
  1 23  1  0  0  0  0
  2 19  1  0  0  0  0
  2  3  1  0  0  0  0
  2 24  1  0  0  0  0
  3  4  1  0  0  0  0
  3 25  1  0  0  0  0
  3 26  1  0  0  0  0
  4  5  1  0  0  0  0
  4 16  1  0  0  0  0
  4 41  1  0  0  0  0
  5  6  1  0  0  0  0
  5 27  1  0  0  0  0
  5 28  1  0  0  0  0
  6  7  1  0  0  0  0
  6 29  1  0  0  0  0
  6 30  1  0  0  0  0
  7  8  1  0  0  0  0
  7 31  1  0  0  0  0
  8  9  2  0  0  0  0
  8 10  1  0  0  0  0
 10 11  1  0  0  0  0
 10 32  1  0  0  0  0
 11 15  2  0  0  0  0
 11 12  1  0  0  0  0
 12 13  2  0  0  0  0
 12 33  1  0  0  0  0
 13 14  1  0  0  0  0
 14 20  1  0  0  0  0
 14 15  1  0  0  0  0
 15 34  1  0  0  0  0
 16 17  1  0  0  0  0
 16 35  1  0  0  0  0
 16 36  1  0  0  0  0
 17 18  1  0  0  0  0
 17 19  1  0  0  0  0
 17 37  1  0  0  0  0
 18 38  1  0  0  0  0
 18 39  1  0  0  0  0
 18 40  1  0  0  0  0
M  CHG  1   4   1
M  END
> <s_m_source_file>
AV-unprocessed.smi

> <i_m_source_file_index>
1715

> <i_lp_mmshare_version>
43012

> <i_f3d_flags>
0

> <s_epik_input>
W0NIM11bQ0BASF0xW0NIMl1OKFtDSDJdW0NASF0oTzEpW0NIM10pW0NIMl1bQ0gyXVtOSF1DKD1PKVtOSF1jMltjSF1uW25IXVtjSF0y

> <s_epik_cmdline>
J2VwaWtfcHl0aG9uJywgJy1waCcsICc3LjAnLCAnLXRuJywgJzgnLCAnLW1hJywgJzIwMCcsICctbWV0YWxfYmluZGluZycsICctaW1hZScsICc8aW5maWxlLm1hZT4nLCAnLW9tYWUnLCAnPG91dGZpbGUubWFlPic=

> <r_lp_tautomer_probability>
0.5

> <r_epik_Ionization_Penalty>
0.646007

> <r_epik_Ionization_Penalty_Charging>
0.645968

> <r_epik_Ionization_Penalty_Neutral>
3.91671e-05

> <r_epik_State_Penalty>
0.664063

> <r_epik_Charging_Adjusted_Penalty>
1.31003

> <i_epik_Tot_Q>
1

> <i_epik_Tot_abs_Q>
1

> <r_epik_Metal_State_Penalty>
0.664064

> <b_epik_Metal_Only>
0

> <s_lp_Force_Field>
OPLS_2005

> <r_lp_Energy>
20.0624

> <b_lp_Chiralities_Consistent>
1

> <s_lp_Variant>
AV-unprocessed.smi:1715-7

> <Gold.Version>
5.8.1

> <Gold.Id.Protein>
6NUR|6NUR_protein|mol2

> <Gold.PLP.Fitness>
46.8201

> <Gold.PLP.PLP>
-33.2096

> <Gold.PLP.part.hbond>
-5.0000

> <Gold.PLP.part.metal>
0.0000

> <Gold.PLP.part.buried>
-4.9092

> <Gold.PLP.part.nonpolar>
-24.0942

> <Gold.PLP.part.repulsive>
0.5326

> <Gold.PLP.ligand.clash>
0.0000

> <Gold.PLP.ligand.torsion>
0.5680

> <Gold.PLP.Chemscore.Hbond>
3.9120

> <Gold.PLP.Chemscore.CHOScore>
0.9982

> <Gold.PLP.Chemscore.Metal>
0.0000

> <Gold.Chemscore.Hbonds>
donor molecule, donor type, donor heavy atom, donor atom, acceptor molecule, acceptor atom, score
      L1  H     4    41       P1 10747  1.00
      L1  H     7    31       P1  7948  0.90
      L1  H    10    32       P1  7948  1.00
      P1  H  7989  7998       L1    13  1.00
      L1  C    12    33       P1  7957  1.00

> <Gold.PLP.Chemscore.Internal.Correction>
0.0157

> <Gold.Rescore>
     Score         DG    S(hbond)    S(metal)    S(lipo)     H(rot)  DE(clash)    DE(int)     intcor
     18.92     -19.77       2.77        0.00      79.42       1.67       0.28       0.57       ----

> <Gold.Chemscore.Fitness>
18.9173

> <Gold.Chemscore.DG>
-19.7692

> <Gold.Chemscore.ZeroCoef>
-5.4800

> <Gold.Chemscore.Hbond>
2.7739

> <Gold.Chemscore.Metal>
0.0000

> <Gold.Chemscore.Lipo>
79.4205

> <Gold.Chemscore.Internal_Hbond>
0.0000

> <Gold.Chemscore.DEClash>
0.2821

> <Gold.Chemscore.DEInternal>
0.5697

> <Gold.Chemscore.Rot>
1.6671

> <Gold.Chemscore.Internal.Correction>
   9.000000E+99

> <Gold.Chemscore.Hbonds>
donor molecule, donor type, donor heavy atom, donor atom, acceptor molecule, acceptor atom, score
      L1  H     4    41       P1 10747  1.00
      L1  H     7    31       P1  7948  0.26
      L1  H    10    32       P1  7948  0.39
      P1  H  7989  7998       L1    13  0.24

> <Gold.Chemscore.Hbond.Weighted>
-9.2647

> <Gold.Chemscore.Metal.Weighted>
-0.0000

> <Gold.Chemscore.Lipo.Weighted>
-9.2922

> <Gold.Chemscore.Internal_Hbond.Weighted>
0.0000

> <Gold.Chemscore.DEClash.Weighted>
0.2821

> <Gold.Chemscore.DEInternal.Weighted>
0.5697

> <Gold.Chemscore.Rot.Weighted>
4.2677

> <Gold.Chemscore.Internal.Correction.Weighted>
   9.000000E+99

> <Gold.Protein.RotatedTorsions>
[ 6907 6896 6895 6894 ] final   59.91 input  -60.11 | X-H torsion
[ 7974 7965 7964 7962 ] final -133.81 input  175.53 | X-H torsion
[ 8008 7997 7996 7995 ] final  131.57 input   59.86 | X-H torsion
[ 10167 10162 10161 10158 ] final   87.34 input  -65.29 | X-H torsion
[ 10718 10713 10712 10709 ] final  -15.07 input   66.30 | X-H torsion
[ 10763 10752 10751 10750 ] final -121.25 input  -60.55 | X-H torsion
[ 11005 11000 10999 10996 ] final  -50.12 input  -57.11 | X-H torsion

> <Gold.Protein.ActiveResidues>
 VAL166  LYS551  ARG553  GLY616  TRP617  ASP618  TYR619  PRO620  LYS621  CYS622 
 ASP623  PHE694  ASN695  SER759  ASP760  ASP761  ALA762  ILE779  LEU786  VAL792 
 PHE793  MET794  SER795  GLU796  ALA797  LYS798  CYS799  TRP800  GLU811  SER814 

> <Gold.Protein.RotatedAtoms>
  152.3957  134.6369  160.0089 H   0  0  0  0  0  0  0  0  0  0  0  0  # atno 6907 bound_to 6896
  151.6590  133.3312  159.3177 H   0  0  0  0  0  0  0  0  0  0  0  0  # atno 6908 bound_to 6896
  150.7865  134.6897  159.6534 H   0  0  0  0  0  0  0  0  0  0  0  0  # atno 6909 bound_to 6896
  144.9160  140.6954  143.4995 H   0  0  0  0  0  0  0  0  0  0  0  0  # atno 7974 bound_to 7965
  156.2972  140.2568  156.2947 H   0  0  0  0  0  0  0  0  0  0  0  0  # atno 8008 bound_to 7997
  154.9475  140.0395  157.2146 H   0  0  0  0  0  0  0  0  0  0  0  0  # atno 8009 bound_to 7997
  154.8067  140.2837  155.5886 H   0  0  0  0  0  0  0  0  0  0  0  0  # atno 8010 bound_to 7997
  139.8784  144.6454  150.8871 H   0  0  0  0  0  0  0  0  0  0  0  0  # atno 10167 bound_to 10162
  156.6069  130.4839  149.6217 H   0  0  0  0  0  0  0  0  0  0  0  0  # atno 10718 bound_to 10713
  154.8664  135.4174  154.2590 H   0  0  0  0  0  0  0  0  0  0  0  0  # atno 10763 bound_to 10752
  153.3521  135.6999  153.6785 H   0  0  0  0  0  0  0  0  0  0  0  0  # atno 10764 bound_to 10752
  153.5721  135.3589  155.2814 H   0  0  0  0  0  0  0  0  0  0  0  0  # atno 10765 bound_to 10752
  141.0798  133.6656  156.3685 H   0  0  0  0  0  0  0  0  0  0  0  0  # atno 11005 bound_to 11000
  145.3375  139.1741  143.4503 LP  0  0  0  0  0  0  0  0  0  0  0  0  # atno 17320 bound_to 7965
  146.3182  140.3413  142.8648 LP  0  0  0  0  0  0  0  0  0  0  0  0  # atno 17321 bound_to 7965
  140.7749  143.3606  151.1836 LP  0  0  0  0  0  0  0  0  0  0  0  0  # atno 17342 bound_to 10162
  139.7219  143.9210  152.2988 LP  0  0  0  0  0  0  0  0  0  0  0  0  # atno 17343 bound_to 10162
  156.2422  130.6858  151.1566 LP  0  0  0  0  0  0  0  0  0  0  0  0  # atno 17370 bound_to 10713
  157.7264  131.0646  150.5909 LP  0  0  0  0  0  0  0  0  0  0  0  0  # atno 17371 bound_to 10713
  140.5494  134.6043  157.5403 LP  0  0  0  0  0  0  0  0  0  0  0  0  # atno 17394 bound_to 11000
  139.9611  134.7450  156.0235 LP  0  0  0  0  0  0  0  0  0  0  0  0  # atno 17395 bound_to 11000

$$$$
