AV-unprocessed.smi:1406|AV-procd|sdf|5723|dock2
  -GOLD-   22720 5353D 1   1.00000     0.00000
 Structure written by MMmdl.
 41 43  0  0  0  0  0  0  0  0  2 V2000
  149.3952  134.2137  154.3835 C   0  0  0  0  0  0  0  0  0  0  0  0
  149.1194  132.9992  153.4741 C   0  0  2  0  0  0  0  0  0  0  0  0
  147.6391  132.8658  153.0791 C   0  0  0  0  0  0  0  0  0  0  0  0
  147.0110  131.8330  153.3135 O   0  0  0  0  0  0  0  0  0  0  0  0
  147.0908  133.9292  152.4710 N   0  0  0  0  0  0  0  0  0  0  0  0
  145.7239  133.9896  151.9676 C   0  0  1  0  0  0  0  0  0  0  0  0
  145.2195  132.6878  151.3522 C   0  0  0  0  0  0  0  0  0  0  0  0
  143.7024  132.8804  151.3992 C   0  0  0  0  0  0  0  0  0  0  0  0
  143.4304  133.6620  152.6274 N   0  3  2  0  0  0  0  0  0  0  0  0
  142.2928  134.6081  152.5242 C   0  0  0  0  0  0  0  0  0  0  0  0
  142.0934  135.3624  153.8523 C   0  0  0  0  0  0  0  0  0  0  0  0
  143.3921  136.0045  154.3858 C   0  0  0  0  0  0  0  0  0  0  0  0
  144.5947  135.7498  153.4637 C   0  0  0  0  0  0  0  0  0  0  0  0
  144.7156  134.2547  153.0942 C   0  0  2  0  0  0  0  0  0  0  0  0
  149.5991  131.7551  154.0648 N   0  0  0  0  0  0  0  0  0  0  0  0
  149.4372  130.4936  153.6594 C   0  0  0  0  0  0  0  0  0  0  0  0
  149.9679  129.5934  154.4747 N   0  0  0  0  0  0  0  0  0  0  0  0
  150.4746  130.4243  155.4334 C   0  0  0  0  0  0  0  0  0  0  0  0
  150.2716  131.7277  155.2426 N   0  0  0  0  0  0  0  0  0  0  0  0
  149.0897  135.1433  153.9021 H   0  0  0  0  0  0  0  0  0  0  0  0
  150.4591  134.2974  154.6065 H   0  0  0  0  0  0  0  0  0  0  0  0
  148.8638  134.1432  155.3337 H   0  0  0  0  0  0  0  0  0  0  0  0
  149.6813  133.1533  152.5516 H   0  0  0  0  0  0  0  0  0  0  0  0
  147.6727  134.7402  152.3185 H   0  0  0  0  0  0  0  0  0  0  0  0
  145.6449  134.7818  151.2196 H   0  0  0  0  0  0  0  0  0  0  0  0
  145.5936  132.5202  150.3416 H   0  0  0  0  0  0  0  0  0  0  0  0
  145.5095  131.8355  151.9690 H   0  0  0  0  0  0  0  0  0  0  0  0
  143.3853  133.4453  150.5209 H   0  0  0  0  0  0  0  0  0  0  0  0
  143.1605  131.9344  151.3999 H   0  0  0  0  0  0  0  0  0  0  0  0
  142.4726  135.3159  151.7133 H   0  0  0  0  0  0  0  0  0  0  0  0
  141.3865  134.0591  152.2663 H   0  0  0  0  0  0  0  0  0  0  0  0
  141.3258  136.1265  153.7261 H   0  0  0  0  0  0  0  0  0  0  0  0
  141.7057  134.6711  154.6016 H   0  0  0  0  0  0  0  0  0  0  0  0
  143.2528  137.0776  154.5210 H   0  0  0  0  0  0  0  0  0  0  0  0
  143.6088  135.6019  155.3761 H   0  0  0  0  0  0  0  0  0  0  0  0
  144.4836  136.3510  152.5601 H   0  0  0  0  0  0  0  0  0  0  0  0
  145.5130  136.0937  153.9412 H   0  0  0  0  0  0  0  0  0  0  0  0
  145.0024  133.6884  153.9820 H   0  0  0  0  0  0  0  0  0  0  0  0
  148.9131  130.2273  152.7533 H   0  0  0  0  0  0  0  0  0  0  0  0
  151.0011  130.0574  156.3021 H   0  0  0  0  0  0  0  0  0  0  0  0
  143.1735  132.9925  153.3387 H   0  0  0  0  0  0  0  0  0  0  0  0
  1  2  1  0  0  0  0
  1 20  1  0  0  0  0
  1 21  1  0  0  0  0
  1 22  1  0  0  0  0
  2  3  1  0  0  0  0
  2 15  1  0  0  0  0
  2 23  1  0  0  0  0
  3  4  2  0  0  0  0
  3  5  1  0  0  0  0
  5  6  1  0  0  0  0
  5 24  1  0  0  0  0
  6 14  1  0  0  0  0
  6  7  1  0  0  0  0
  6 25  1  0  0  0  0
  7  8  1  0  0  0  0
  7 26  1  0  0  0  0
  7 27  1  0  0  0  0
  8  9  1  0  0  0  0
  8 28  1  0  0  0  0
  8 29  1  0  0  0  0
  9 14  1  0  0  0  0
  9 10  1  0  0  0  0
  9 41  1  0  0  0  0
 10 11  1  0  0  0  0
 10 30  1  0  0  0  0
 10 31  1  0  0  0  0
 11 12  1  0  0  0  0
 11 32  1  0  0  0  0
 11 33  1  0  0  0  0
 12 13  1  0  0  0  0
 12 34  1  0  0  0  0
 12 35  1  0  0  0  0
 13 14  1  0  0  0  0
 13 36  1  0  0  0  0
 13 37  1  0  0  0  0
 14 38  1  0  0  0  0
 15 19  1  0  0  0  0
 15 16  1  0  0  0  0
 16 17  2  0  0  0  0
 16 39  1  0  0  0  0
 17 18  1  0  0  0  0
 18 19  2  0  0  0  0
 18 40  1  0  0  0  0
M  CHG  1   9   1
M  END
> <s_m_source_file>
AV-unprocessed.smi

> <i_m_source_file_index>
1406

> <i_lp_mmshare_version>
43012

> <i_f3d_flags>
0

> <s_epik_input>
bjFbY0hdbltjSF1uMVtDQEhdKFtDSDNdKUMoPU8pW05IXVtDQEhdKFtDSDJdW0NIMl0yKVtDQEBIXShOMjMpW0NIMl1bQ0gyXVtDSDJdW0NIMl0z

> <s_epik_cmdline>
J2VwaWtfcHl0aG9uJywgJy1waCcsICc3LjAnLCAnLXRuJywgJzgnLCAnLW1hJywgJzIwMCcsICctbWV0YWxfYmluZGluZycsICctaW1hZScsICc8aW5maWxlLm1hZT4nLCAnLW9tYWUnLCAnPG91dGZpbGUubWFlPic=

> <r_lp_tautomer_probability>
1

> <r_epik_Ionization_Penalty>
0.00197066

> <r_epik_Ionization_Penalty_Charging>
0.00196223

> <r_epik_Ionization_Penalty_Neutral>
8.43107e-06

> <r_epik_State_Penalty>
0.00133866

> <r_epik_Charging_Adjusted_Penalty>
0.00330089

> <i_epik_Tot_Q>
1

> <i_epik_Tot_abs_Q>
1

> <r_epik_Metal_State_Penalty>
-0

> <b_epik_Metal_Only>
0

> <s_lp_Force_Field>
OPLS_2005

> <r_lp_Energy>
45.2549

> <b_lp_Chiralities_Consistent>
1

> <s_lp_Variant>
AV-unprocessed.smi:1406-15

> <Gold.Version>
5.8.1

> <Gold.Id.Protein>
6NUR|6NUR_protein|mol2

> <Gold.PLP.Fitness>
40.1428

> <Gold.PLP.PLP>
-29.1586

> <Gold.PLP.part.hbond>
-2.0000

> <Gold.PLP.part.metal>
0.0000

> <Gold.PLP.part.buried>
-5.4711

> <Gold.PLP.part.nonpolar>
-20.5193

> <Gold.PLP.part.repulsive>
0.1964

> <Gold.PLP.ligand.clash>
0.0000

> <Gold.PLP.ligand.torsion>
0.4870

> <Gold.PLP.Chemscore.Hbond>
3.0000

> <Gold.PLP.Chemscore.CHOScore>
0.9500

> <Gold.PLP.Chemscore.Metal>
0.0000

> <Gold.Chemscore.Hbonds>
donor molecule, donor type, donor heavy atom, donor atom, acceptor molecule, acceptor atom, score
      L1  H     5    24       P1  7948  1.00
      L1  H     9    41       P1 10957  2.00
      L1  C    16    39       P1 10747  0.95

> <Gold.PLP.Chemscore.Internal.Correction>
0.1082

> <Gold.Rescore>
     Score         DG    S(hbond)    S(metal)    S(lipo)     H(rot)  DE(clash)    DE(int)     intcor
      9.90     -12.68       1.96        0.00      46.90       1.89       0.02       2.75       ----

> <Gold.Chemscore.Fitness>
9.9004

> <Gold.Chemscore.DG>
-12.6776

> <Gold.Chemscore.ZeroCoef>
-5.4800

> <Gold.Chemscore.Hbond>
1.9582

> <Gold.Chemscore.Metal>
0.0000

> <Gold.Chemscore.Lipo>
46.8964

> <Gold.Chemscore.Internal_Hbond>
0.0000

> <Gold.Chemscore.DEClash>
0.0234

> <Gold.Chemscore.DEInternal>
2.7538

> <Gold.Chemscore.Rot>
1.8865

> <Gold.Chemscore.Internal.Correction>
   9.000000E+99

> <Gold.Chemscore.Hbonds>
donor molecule, donor type, donor heavy atom, donor atom, acceptor molecule, acceptor atom, score
      L1  H     5    24       P1  7948  0.80
      L1  H     9    41       P1 10957  0.78

> <Gold.Chemscore.Hbond.Weighted>
-6.5403

> <Gold.Chemscore.Metal.Weighted>
-0.0000

> <Gold.Chemscore.Lipo.Weighted>
-5.4869

> <Gold.Chemscore.Internal_Hbond.Weighted>
0.0000

> <Gold.Chemscore.DEClash.Weighted>
0.0234

> <Gold.Chemscore.DEInternal.Weighted>
2.7538

> <Gold.Chemscore.Rot.Weighted>
4.8295

> <Gold.Chemscore.Internal.Correction.Weighted>
   9.000000E+99

> <Gold.Protein.RotatedTorsions>
[ 6907 6896 6895 6894 ] final   47.32 input  -60.11 | X-H torsion
[ 7974 7965 7964 7962 ] final  -76.41 input  175.53 | X-H torsion
[ 8008 7997 7996 7995 ] final  -43.78 input   59.86 | X-H torsion
[ 10167 10162 10161 10158 ] final   65.91 input  -65.29 | X-H torsion
[ 10718 10713 10712 10709 ] final  139.70 input   66.30 | X-H torsion
[ 10763 10752 10751 10750 ] final  146.83 input  -60.55 | X-H torsion
[ 11005 11000 10999 10996 ] final  -78.58 input  -57.11 | X-H torsion

> <Gold.Protein.ActiveResidues>
 VAL166  LYS551  ARG553  GLY616  TRP617  ASP618  TYR619  PRO620  LYS621  CYS622 
 ASP623  PHE694  ASN695  SER759  ASP760  ASP761  ALA762  ILE779  LEU786  VAL792 
 PHE793  MET794  SER795  GLU796  ALA797  LYS798  CYS799  TRP800  GLU811  SER814 

> <Gold.Protein.RotatedAtoms>
  152.2666  134.7977  160.0421 H   0  0  0  0  0  0  0  0  0  0  0  0  # atno 6907 bound_to 6896
  151.8604  133.3451  159.3710 H   0  0  0  0  0  0  0  0  0  0  0  0  # atno 6908 bound_to 6896
  150.7136  134.5139  159.5665 H   0  0  0  0  0  0  0  0  0  0  0  0  # atno 6909 bound_to 6896
  145.6133  140.9381  143.1178 H   0  0  0  0  0  0  0  0  0  0  0  0  # atno 7974 bound_to 7965
  154.3997  140.1439  156.3574 H   0  0  0  0  0  0  0  0  0  0  0  0  # atno 8008 bound_to 7997
  155.8212  140.3469  155.5494 H   0  0  0  0  0  0  0  0  0  0  0  0  # atno 8009 bound_to 7997
  155.8286  140.0908  157.1797 H   0  0  0  0  0  0  0  0  0  0  0  0  # atno 8010 bound_to 7997
  140.1062  144.4859  150.7006 H   0  0  0  0  0  0  0  0  0  0  0  0  # atno 10167 bound_to 10162
  157.4115  131.1028  151.0449 H   0  0  0  0  0  0  0  0  0  0  0  0  # atno 10718 bound_to 10713
  154.0283  135.2900  155.3372 H   0  0  0  0  0  0  0  0  0  0  0  0  # atno 10763 bound_to 10752
  154.7004  135.5191  153.8521 H   0  0  0  0  0  0  0  0  0  0  0  0  # atno 10764 bound_to 10752
  153.0651  135.6628  154.0498 H   0  0  0  0  0  0  0  0  0  0  0  0  # atno 10765 bound_to 10752
  141.1665  133.7069  156.7992 H   0  0  0  0  0  0  0  0  0  0  0  0  # atno 11005 bound_to 11000
  144.7261  139.7872  143.7364 LP  0  0  0  0  0  0  0  0  0  0  0  0  # atno 17320 bound_to 7965
  146.1488  139.4565  143.0062 LP  0  0  0  0  0  0  0  0  0  0  0  0  # atno 17321 bound_to 7965
  140.6951  143.2399  151.5024 LP  0  0  0  0  0  0  0  0  0  0  0  0  # atno 17342 bound_to 10162
  139.5644  144.2078  152.1742 LP  0  0  0  0  0  0  0  0  0  0  0  0  # atno 17343 bound_to 10162
  157.1411  130.6143  149.5555 LP  0  0  0  0  0  0  0  0  0  0  0  0  # atno 17370 bound_to 10713
  155.9852  130.4881  150.7021 LP  0  0  0  0  0  0  0  0  0  0  0  0  # atno 17371 bound_to 10713
  140.2268  134.8715  157.3435 LP  0  0  0  0  0  0  0  0  0  0  0  0  # atno 17394 bound_to 11000
  140.1931  134.4347  155.7704 LP  0  0  0  0  0  0  0  0  0  0  0  0  # atno 17395 bound_to 11000

$$$$
