#       Name:                AV-unprocessed.smi:218
#       Creating user name   scv26
#       Creation time:       Thu Mar 26 20:06:56 2020


#       File generated by GOLD software.
#

@<TRIPOS>MOLECULE
AV-unprocessed.smi:218
    68    71     1
SMALL
NO_CHARGES


@<TRIPOS>ATOM
      1 ****        -4.8364   5.7233  -3.9770 C.3            1 S1                 0.0000
      2 ****        -4.4304   5.5910  -2.5041 C.3            1 S1                 0.0000
      3 ****        -3.3882   6.6543  -2.1166 C.3            1 S1                 0.0000
      4 ****        -3.8875   4.2796  -2.3390 O.3            1 S1                 0.0000
      5 ****        -3.8271   3.7057  -1.0835 C.ar           1 S1                 0.0000
      6 ****        -3.2525   2.4240  -0.9621 C.ar           1 S1                 0.0000
      7 ****        -3.1925   1.8224   0.3109 C.ar           1 S1                 0.0000
      8 ****        -2.5762   0.4515   0.4861 C.3            1 S1                 0.0000
      9 ****        -1.1299   0.5049   0.6420 N.pl3          1 S1                 0.0000
     10 ****        -0.4242  -0.6348   0.8019 C.ar           1 S1                 0.0000
     11 ****        -1.0394  -1.8462   0.7917 N.ar           1 S1                 0.0000
     12 ****        -0.3196  -2.9603   0.9531 C.ar           1 S1                 0.0000
     13 ****         0.9962  -3.0828   1.1376 N.ar           1 S1                 0.0000
     14 ****         1.6215  -1.8698   1.1479 C.ar           1 S1                 0.0000
     15 ****         0.9825  -0.6081   0.9866 C.ar           1 S1                 0.0000
     16 ****         1.9245   0.4097   1.0510 N.2            1 S1                 0.0000
     17 ****         3.0537  -0.2183   1.2388 C.2            1 S1                 0.0000
     18 ****         2.9653  -1.5907   1.3110 N.pl3          1 S1                 0.0000
     19 ****         4.0948  -2.5537   1.5157 C.3            1 S1                 0.0000
     20 ****         3.6297  -3.7262   2.1165 O.3            1 S1                 0.0000
     21 ****         4.2590  -4.8831   1.5538 C.3            1 S1                 0.0000
     22 ****         3.1761  -5.7257   0.8484 C.3            1 S1                 0.0000
     23 ****         2.3981  -6.4041   1.8106 O.3            1 S1                 0.0000
     24 ****         5.3433  -4.3069   0.6245 C.3            1 S1                 0.0000
     25 ****         5.7227  -5.1220  -0.4692 O.3            1 S1                 0.0000
     26 ****         4.7893  -2.9546   0.2110 C.3            1 S1                 0.0000
     27 ****         3.9071  -3.0278  -0.8969 O.3            1 S1                 0.0000
     28 ****        -3.7025   2.5291   1.4181 C.ar           1 S1                 0.0000
     29 ****        -4.2575   3.8046   1.1986 C.ar           1 S1                 0.0000
     30 ****        -4.3239   4.3839  -0.0190 N.ar           1 S1                 0.0000
     31 ****         4.7697  -2.0480   2.2078 H              1 S1                 0.0000
     32 ****         4.7308  -5.4747   2.3396 H              1 S1                 0.0000
     33 ****         6.2388  -4.1331   1.2234 H              1 S1                 0.0000
     34 ****         5.5801  -2.2409  -0.0221 H              1 S1                 0.0000
     35 ****        -5.2769   6.7004  -4.1769 H              1 S1                 0.0000
     36 ****        -5.5735   4.9668  -4.2476 H              1 S1                 0.0000
     37 ****        -3.9772   5.6022  -4.6374 H              1 S1                 0.0000
     38 ****        -5.3350   5.7201  -1.9081 H              1 S1                 0.0000
     39 ****        -3.7788   7.6594  -2.2768 H              1 S1                 0.0000
     40 ****        -2.4813   6.5507  -2.7126 H              1 S1                 0.0000
     41 ****        -3.1036   6.5794  -1.0674 H              1 S1                 0.0000
     42 ****        -2.8654   1.9134  -1.8319 H              1 S1                 0.0000
     43 ****        -3.0197  -0.0304   1.3585 H              1 S1                 0.0000
     44 ****        -2.8277  -0.1599  -0.3817 H              1 S1                 0.0000
     45 ****        -0.7141   1.4252   0.6413 H              1 S1                 0.0000
     46 ****        -0.8763  -3.8857   0.9332 H              1 S1                 0.0000
     47 ****         3.9932   0.3071   1.3294 H              1 S1                 0.0000
     48 ****         2.5385  -5.1205   0.2057 H              1 S1                 0.0000
     49 ****         3.6302  -6.4900   0.2183 H              1 S1                 0.0000
     50 ****         1.9572  -5.7591   2.3430 H              1 S1                 0.0000
     51 ****         6.0659  -5.9359  -0.1324 H              1 S1                 0.0000
     52 ****         4.3788  -3.3980  -1.6274 H              1 S1                 0.0000
     53 ****        -3.6695   2.1070   2.4118 H              1 S1                 0.0000
     54 ****        -4.6588   4.3753   2.0229 H              1 S1                 0.0000
     55 ****        -2.9505   4.3100  -2.6870 LP             1 S1                 0.0000
     56 ****        -4.4352   3.6674  -2.9093 LP             1 S1                 0.0000
     57 ****        -2.0295  -1.9039   0.6636 LP             1 S1                 0.0000
     58 ****         1.4670  -3.9573   1.2542 LP             1 S1                 0.0000
     59 ****         1.7733   1.3950   0.9719 LP             1 S1                 0.0000
     60 ****         2.6415  -3.7932   1.9786 LP             1 S1                 0.0000
     61 ****         3.8280  -3.6913   3.0960 LP             1 S1                 0.0000
     62 ****         2.9889  -6.9705   2.3852 LP             1 S1                 0.0000
     63 ****         1.7236  -6.9834   1.3530 LP             1 S1                 0.0000
     64 ****         6.4250  -4.6573  -1.0084 LP             1 S1                 0.0000
     65 ****         4.9263  -5.3047  -1.0458 LP             1 S1                 0.0000
     66 ****         3.5834  -2.1115  -1.1327 LP             1 S1                 0.0000
     67 ****         3.1258  -3.6090  -0.6693 LP             1 S1                 0.0000
     68 ****        -4.7294   5.2908  -0.1334 LP             1 S1                 0.0000
@<TRIPOS>BOND
    1    1    2 1     
    2    1   35 1     
    3    1   36 1     
    4    1   37 1     
    5    2    3 1     
    6    2    4 1     
    7    2   38 1     
    8    3   39 1     
    9    3   40 1     
   10    3   41 1     
   11    4    5 1     
   12    5   30 ar    
   13    5    6 ar    
   14    6    7 ar    
   15    6   42 1     
   16    7    8 1     
   17    7   28 ar    
   18    8    9 1     
   19    8   43 1     
   20    8   44 1     
   21    9   10 1     
   22    9   45 1     
   23   10   15 ar    
   24   10   11 ar    
   25   11   12 ar    
   26   12   13 ar    
   27   12   46 1     
   28   13   14 ar    
   29   14   18 1     
   30   14   15 ar    
   31   15   16 1     
   32   16   17 2     
   33   17   18 1     
   34   17   47 1     
   35   18   19 1     
   36   19   31 1     
   37   19   26 1     
   38   19   20 1     
   39   20   21 1     
   40   21   32 1     
   41   21   22 1     
   42   21   24 1     
   43   22   23 1     
   44   22   48 1     
   45   22   49 1     
   46   23   50 1     
   47   24   33 1     
   48   24   25 1     
   49   24   26 1     
   50   25   51 1     
   51   26   34 1     
   52   26   27 1     
   53   27   52 1     
   54   28   29 ar    
   55   28   53 1     
   56   29   30 ar    
   57   29   54 1     
   58    4   55 1     
   59    4   56 1     
   60   11   57 1     
   61   13   58 1     
   62   16   59 1     
   63   20   60 1     
   64   20   61 1     
   65   23   62 1     
   66   23   63 1     
   67   25   64 1     
   68   25   65 1     
   69   27   66 1     
   70   27   67 1     
   71   30   68 1     
@<TRIPOS>SUBSTRUCTURE
      1 S1             1
@<TRIPOS>SET
LONE_PAIRS      STATIC     ATOMS    <user>   **** ""
14 55 56 57 58 59 60 61 62 63 64 65 66 67 68
DONOR_HYDROGENS      STATIC     ATOMS    <user>   **** ""
4 45 50 51 52
ATOM$BLUE        STATIC     ATOMS    COLORGROUP SYSTEM
14 55 56 57 58 59 60 61 62 63 64 65 66 67 68
ATOM$RED        STATIC     ATOMS    COLORGROUP SYSTEM
4 45 50 51 52
