AV-unprocessed.smi:1508|AV-procd|sdf|6088|dock1
  -GOLD-   22720 6213D 1   1.00000     0.00000
 Structure written by MMmdl.
 37 38  0  0  0  0  0  0  0  0  3 V2000
  150.7323  140.3441  155.7696 C   0  0  0  0  0  0  0  0  0  0  0  0
  150.7389  141.8404  156.1200 C   0  0  0  0  0  0  0  0  0  0  0  0
  150.1690  142.1844  157.5232 C   0  0  2  0  0  0  0  0  0  0  0  0
  148.6504  141.8779  157.6349 C   0  0  0  0  0  0  0  0  0  0  0  0
  147.8481  142.6522  156.6934 N   0  0  0  0  0  0  0  0  0  0  0  0
  146.5124  142.6084  156.5882 C   0  0  0  0  0  0  0  0  0  0  0  0
  145.8606  141.8825  157.3425 O   0  0  0  0  0  0  0  0  0  0  0  0
  146.0174  143.3999  155.6111 N   0  5  0  0  0  0  0  0  0  0  0  0
  144.7007  143.6615  155.5640 C   0  0  0  0  0  0  0  0  0  0  0  0
  143.8099  143.0095  156.3282 N   0  0  0  0  0  0  0  0  0  0  0  0
  142.5034  143.4332  156.1256 N   0  0  0  0  0  0  0  0  0  0  0  0
  142.4435  144.4052  155.2157 C   0  0  0  0  0  0  0  0  0  0  0  0
  143.9770  144.8922  154.5251 S   0  0  0  0  0  0  0  0  0  0  0  0
  150.4660  143.5914  157.9213 N   0  3  0  0  0  0  0  0  0  0  0  0
  149.8777  144.0200  159.2162 C   0  0  0  0  0  0  0  0  0  0  0  0
  150.8942  144.9471  159.8967 C   0  0  0  0  0  0  0  0  0  0  0  0
  151.9564  145.2105  158.8359 C   0  0  0  0  0  0  0  0  0  0  0  0
  151.8985  143.9567  157.9717 C   0  0  0  0  0  0  0  0  0  0  0  0
  151.1090  140.1869  154.7588 H   0  0  0  0  0  0  0  0  0  0  0  0
  149.7276  139.9240  155.8145 H   0  0  0  0  0  0  0  0  0  0  0  0
  151.3683  139.7710  156.4438 H   0  0  0  0  0  0  0  0  0  0  0  0
  151.7621  142.2087  156.0422 H   0  0  0  0  0  0  0  0  0  0  0  0
  150.1971  142.3883  155.3492 H   0  0  0  0  0  0  0  0  0  0  0  0
  150.6919  141.5477  158.2387 H   0  0  0  0  0  0  0  0  0  0  0  0
  148.4410  140.8210  157.4673 H   0  0  0  0  0  0  0  0  0  0  0  0
  148.2924  142.0936  158.6416 H   0  0  0  0  0  0  0  0  0  0  0  0
  148.3437  143.2636  156.0609 H   0  0  0  0  0  0  0  0  0  0  0  0
  141.4912  144.8401  154.9515 H   0  0  0  0  0  0  0  0  0  0  0  0
  148.9330  144.5319  159.0308 H   0  0  0  0  0  0  0  0  0  0  0  0
  149.6727  143.1684  159.8670 H   0  0  0  0  0  0  0  0  0  0  0  0
  150.4407  145.8666  160.2672 H   0  0  0  0  0  0  0  0  0  0  0  0
  151.3446  144.4345  160.7478 H   0  0  0  0  0  0  0  0  0  0  0  0
  151.6802  146.0830  158.2423 H   0  0  0  0  0  0  0  0  0  0  0  0
  152.9451  145.3891  159.2599 H   0  0  0  0  0  0  0  0  0  0  0  0
  152.4674  143.1554  158.4469 H   0  0  0  0  0  0  0  0  0  0  0  0
  152.3140  144.1294  156.9786 H   0  0  0  0  0  0  0  0  0  0  0  0
  150.0554  144.1883  157.2174 H   0  0  0  0  0  0  0  0  0  0  0  0
  1  2  1  0  0  0  0
  1 19  1  0  0  0  0
  1 20  1  0  0  0  0
  1 21  1  0  0  0  0
  2  3  1  0  0  0  0
  2 22  1  0  0  0  0
  2 23  1  0  0  0  0
  3  4  1  0  0  0  0
  3 14  1  0  0  0  0
  3 24  1  0  0  0  0
  4  5  1  0  0  0  0
  4 25  1  0  0  0  0
  4 26  1  0  0  0  0
  5  6  1  0  0  0  0
  5 27  1  0  0  0  0
  6  7  2  0  0  0  0
  6  8  1  0  0  0  0
  8  9  1  0  0  0  0
  9 13  1  0  0  0  0
  9 10  2  0  0  0  0
 10 11  1  0  0  0  0
 11 12  2  0  0  0  0
 12 13  1  0  0  0  0
 12 28  1  0  0  0  0
 14 18  1  0  0  0  0
 14 15  1  0  0  0  0
 14 37  1  0  0  0  0
 15 16  1  0  0  0  0
 15 29  1  0  0  0  0
 15 30  1  0  0  0  0
 16 17  1  0  0  0  0
 16 31  1  0  0  0  0
 16 32  1  0  0  0  0
 17 18  1  0  0  0  0
 17 33  1  0  0  0  0
 17 34  1  0  0  0  0
 18 35  1  0  0  0  0
 18 36  1  0  0  0  0
M  CHG  1   8  -1
M  CHG  1  14   1
M  END
> <s_m_source_file>
AV-unprocessed.smi

> <i_m_source_file_index>
1508

> <i_lp_mmshare_version>
43012

> <i_f3d_flags>
0

> <s_epik_input>
W0NIMl0xW0NIMl1bQ0gyXVtDSDJdTjFbQ0BIXShbQ0gyXVtDSDNdKVtDSDJdW05IXUMoPU8pW05IXWMybm5bY0hdczI=

> <s_epik_cmdline>
J2VwaWtfcHl0aG9uJywgJy1waCcsICc3LjAnLCAnLXRuJywgJzgnLCAnLW1hJywgJzIwMCcsICctbWV0YWxfYmluZGluZycsICctaW1hZScsICc8aW5maWxlLm1hZT4nLCAnLW9tYWUnLCAnPG91dGZpbGUubWFlPic=

> <r_lp_tautomer_probability>
1

> <r_epik_Ionization_Penalty>
3.98086

> <r_epik_Ionization_Penalty_Charging>
3.94833

> <r_epik_Ionization_Penalty_Neutral>
0.032525

> <r_epik_State_Penalty>
3.94643

> <r_epik_Charging_Adjusted_Penalty>
7.89477

> <i_epik_Tot_Q>
0

> <i_epik_Tot_abs_Q>
2

> <r_epik_Metal_State_Penalty>
0.605555

> <b_epik_Metal_Only>
1

> <s_lp_Force_Field>
OPLS_2005

> <r_lp_Energy>
24.3568

> <b_lp_Chiralities_Consistent>
1

> <s_lp_Variant>
AV-unprocessed.smi:1508-3

> <Gold.Version>
5.8.1

> <Gold.Id.Protein>
6NUR|6NUR_protein|mol2

> <Gold.PLP.Fitness>
38.5738

> <Gold.PLP.PLP>
-29.7902

> <Gold.PLP.part.hbond>
-2.0000

> <Gold.PLP.part.metal>
0.0000

> <Gold.PLP.part.buried>
-5.2819

> <Gold.PLP.part.nonpolar>
-23.4770

> <Gold.PLP.part.repulsive>
0.3312

> <Gold.PLP.ligand.clash>
0.0000

> <Gold.PLP.ligand.torsion>
0.1608

> <Gold.PLP.Chemscore.Hbond>
3.0000

> <Gold.PLP.Chemscore.CHOScore>
0.0000

> <Gold.PLP.Chemscore.Metal>
0.0000

> <Gold.Chemscore.Hbonds>
donor molecule, donor type, donor heavy atom, donor atom, acceptor molecule, acceptor atom, score
      L1  H     5    27       P1  8028  0.99
      L1  H    14    37       P1  8028  2.00

> <Gold.PLP.Chemscore.Internal.Correction>
0.1051

> <Gold.Rescore>
     Score         DG    S(hbond)    S(metal)    S(lipo)     H(rot)  DE(clash)    DE(int)     intcor
     13.68     -15.57       1.79        0.00      75.86       1.86       0.04       1.85       ----

> <Gold.Chemscore.Fitness>
13.6813

> <Gold.Chemscore.DG>
-15.5711

> <Gold.Chemscore.ZeroCoef>
-5.4800

> <Gold.Chemscore.Hbond>
1.7876

> <Gold.Chemscore.Metal>
0.0000

> <Gold.Chemscore.Lipo>
75.8612

> <Gold.Chemscore.Internal_Hbond>
0.0000

> <Gold.Chemscore.DEClash>
0.0402

> <Gold.Chemscore.DEInternal>
1.8495

> <Gold.Chemscore.Rot>
1.8575

> <Gold.Chemscore.Internal.Correction>
   9.000000E+99

> <Gold.Chemscore.Hbonds>
donor molecule, donor type, donor heavy atom, donor atom, acceptor molecule, acceptor atom, score
      L1  H     5    27       P1  8028  0.73
      L1  H    14    37       P1  8028  0.72

> <Gold.Chemscore.Hbond.Weighted>
-5.9704

> <Gold.Chemscore.Metal.Weighted>
-0.0000

> <Gold.Chemscore.Lipo.Weighted>
-8.8758

> <Gold.Chemscore.Internal_Hbond.Weighted>
0.0000

> <Gold.Chemscore.DEClash.Weighted>
0.0402

> <Gold.Chemscore.DEInternal.Weighted>
1.8495

> <Gold.Chemscore.Rot.Weighted>
4.7551

> <Gold.Chemscore.Internal.Correction.Weighted>
   9.000000E+99

> <Gold.Protein.RotatedTorsions>
[ 6907 6896 6895 6894 ] final  -86.39 input  -60.11 | X-H torsion
[ 7974 7965 7964 7962 ] final  147.30 input  175.53 | X-H torsion
[ 8008 7997 7996 7995 ] final   13.36 input   59.86 | X-H torsion
[ 10167 10162 10161 10158 ] final  -11.69 input  -65.29 | X-H torsion
[ 10718 10713 10712 10709 ] final   39.17 input   66.30 | X-H torsion
[ 10763 10752 10751 10750 ] final  -54.90 input  -60.55 | X-H torsion
[ 11005 11000 10999 10996 ] final   89.95 input  -57.11 | X-H torsion

> <Gold.Protein.ActiveResidues>
 VAL166  LYS551  ARG553  GLY616  TRP617  ASP618  TYR619  PRO620  LYS621  CYS622 
 ASP623  PHE694  ASN695  SER759  ASP760  ASP761  ALA762  ILE779  LEU786  VAL792 
 PHE793  MET794  SER795  GLU796  ALA797  LYS798  CYS799  TRP800  GLU811  SER814 

> <Gold.Protein.RotatedAtoms>
  150.6867  134.3058  159.4725 H   0  0  0  0  0  0  0  0  0  0  0  0  # atno 6907 bound_to 6896
  152.0949  134.9379  160.0580 H   0  0  0  0  0  0  0  0  0  0  0  0  # atno 6908 bound_to 6896
  152.0680  133.4058  159.4484 H   0  0  0  0  0  0  0  0  0  0  0  0  # atno 6909 bound_to 6896
  144.8602  139.6011  143.5934 H   0  0  0  0  0  0  0  0  0  0  0  0  # atno 7974 bound_to 7965
  154.8334  140.2903  155.5707 H   0  0  0  0  0  0  0  0  0  0  0  0  # atno 8008 bound_to 7997
  156.3007  140.2527  156.3194 H   0  0  0  0  0  0  0  0  0  0  0  0  # atno 8009 bound_to 7997
  154.9206  140.0386  157.1985 H   0  0  0  0  0  0  0  0  0  0  0  0  # atno 8010 bound_to 7997
  140.7144  143.5613  150.9193 H   0  0  0  0  0  0  0  0  0  0  0  0  # atno 10167 bound_to 10162
  157.3675  130.7683  149.7093 H   0  0  0  0  0  0  0  0  0  0  0  0  # atno 10718 bound_to 10713
  154.1822  135.6441  153.5037 H   0  0  0  0  0  0  0  0  0  0  0  0  # atno 10763 bound_to 10752
  153.0056  135.5408  154.6502 H   0  0  0  0  0  0  0  0  0  0  0  0  # atno 10764 bound_to 10752
  154.5869  135.2930  155.0648 H   0  0  0  0  0  0  0  0  0  0  0  0  # atno 10765 bound_to 10752
  139.8865  134.8583  156.3214 H   0  0  0  0  0  0  0  0  0  0  0  0  # atno 11005 bound_to 11000
  146.2855  139.6992  142.9199 LP  0  0  0  0  0  0  0  0  0  0  0  0  # atno 17320 bound_to 7965
  145.4326  141.0416  143.2902 LP  0  0  0  0  0  0  0  0  0  0  0  0  # atno 17321 bound_to 7965
  139.9338  143.6462  152.3070 LP  0  0  0  0  0  0  0  0  0  0  0  0  # atno 17342 bound_to 10162
  139.6922  144.7645  151.1419 LP  0  0  0  0  0  0  0  0  0  0  0  0  # atno 17343 bound_to 10162
  155.9749  130.4096  150.3889 LP  0  0  0  0  0  0  0  0  0  0  0  0  # atno 17370 bound_to 10713
  157.1976  131.0430  151.2667 LP  0  0  0  0  0  0  0  0  0  0  0  0  # atno 17371 bound_to 10713
  140.9784  133.7283  156.0636 LP  0  0  0  0  0  0  0  0  0  0  0  0  # atno 17394 bound_to 11000
  140.7781  134.3756  157.5493 LP  0  0  0  0  0  0  0  0  0  0  0  0  # atno 17395 bound_to 11000

$$$$
