AV-unprocessed.smi:2154|AV-procd|sdf|8773|dock7
  -GOLD-   2272011553D 1   1.00000     0.00000
 Structure written by MMmdl.
 32 33  0  0  0  0  0  0  0  0  1 V2000
  151.7781  145.4854  160.0432 C   0  0  0  0  0  0  0  0  0  0  0  0
  151.3195  144.4541  159.0350 C   0  0  1  0  0  0  0  0  0  0  0  0
  152.0987  144.2245  157.7604 C   0  0  0  0  0  0  0  0  0  0  0  0
  152.0927  143.1689  158.8406 C   0  0  2  0  0  0  0  0  0  0  0  0
  151.3766  141.8501  158.6178 C   0  0  0  0  0  0  0  0  0  0  0  0
  151.5949  141.2459  157.3100 N   0  0  0  0  0  0  0  0  0  0  0  0
  152.3360  140.1513  157.0808 C   0  0  0  0  0  0  0  0  0  0  0  0
  152.9112  139.5283  157.9745 O   0  0  0  0  0  0  0  0  0  0  0  0
  152.4150  139.6839  155.6204 C   0  0  0  0  0  0  0  0  0  0  0  0
  151.1180  139.2464  155.0837 N   0  0  0  0  0  0  0  0  0  0  0  0
  150.0658  140.1445  154.9756 C   0  0  0  0  0  0  0  0  0  0  0  0
  148.8436  139.8076  154.4999 C   0  0  0  0  0  0  0  0  0  0  0  0
  148.5705  138.4414  154.0669 C   0  0  0  0  0  0  0  0  0  0  0  0
  147.4982  138.0400  153.6204 O   0  0  0  0  0  0  0  0  0  0  0  0
  149.6531  137.5669  154.1941 N   0  0  0  0  0  0  0  0  0  0  0  0
  150.9142  137.9071  154.6853 C   0  0  0  0  0  0  0  0  0  0  0  0
  151.7991  137.0552  154.7598 O   0  0  0  0  0  0  0  0  0  0  0  0
  149.5103  136.6087  153.9095 H   0  0  0  0  0  0  0  0  0  0  0  0
  152.8668  145.5241  160.0909 H   0  0  0  0  0  0  0  0  0  0  0  0
  151.3959  145.2360  161.0329 H   0  0  0  0  0  0  0  0  0  0  0  0
  151.4069  146.4718  159.7648 H   0  0  0  0  0  0  0  0  0  0  0  0
  150.2369  144.3815  158.9496 H   0  0  0  0  0  0  0  0  0  0  0  0
  151.5287  144.0280  156.8544 H   0  0  0  0  0  0  0  0  0  0  0  0
  153.0178  144.7892  157.6179 H   0  0  0  0  0  0  0  0  0  0  0  0
  153.0229  143.0730  159.3978 H   0  0  0  0  0  0  0  0  0  0  0  0
  151.6968  141.1358  159.3772 H   0  0  0  0  0  0  0  0  0  0  0  0
  150.3077  142.0022  158.7753 H   0  0  0  0  0  0  0  0  0  0  0  0
  151.1527  141.6936  156.5206 H   0  0  0  0  0  0  0  0  0  0  0  0
  152.8123  140.5059  155.0231 H   0  0  0  0  0  0  0  0  0  0  0  0
  153.1493  138.8806  155.5290 H   0  0  0  0  0  0  0  0  0  0  0  0
  150.2210  141.1671  155.2888 H   0  0  0  0  0  0  0  0  0  0  0  0
  148.0635  140.5527  154.4405 H   0  0  0  0  0  0  0  0  0  0  0  0
  1  2  1  0  0  0  0
  1 19  1  0  0  0  0
  1 20  1  0  0  0  0
  1 21  1  0  0  0  0
  2  4  1  0  0  0  0
  2  3  1  0  0  0  0
  2 22  1  0  0  0  0
  3  4  1  0  0  0  0
  3 23  1  0  0  0  0
  3 24  1  0  0  0  0
  4  5  1  0  0  0  0
  4 25  1  0  0  0  0
  5  6  1  0  0  0  0
  5 26  1  0  0  0  0
  5 27  1  0  0  0  0
  6  7  1  0  0  0  0
  6 28  1  0  0  0  0
  7  8  2  0  0  0  0
  7  9  1  0  0  0  0
  9 10  1  0  0  0  0
  9 29  1  0  0  0  0
  9 30  1  0  0  0  0
 10 16  1  0  0  0  0
 10 11  1  0  0  0  0
 11 12  2  0  0  0  0
 11 31  1  0  0  0  0
 12 13  1  0  0  0  0
 12 32  1  0  0  0  0
 13 14  2  0  0  0  0
 13 15  1  0  0  0  0
 15 18  1  0  0  0  0
 15 16  1  0  0  0  0
 16 17  2  0  0  0  0
M  END
> <s_m_source_file>
AV-unprocessed.smi

> <i_m_source_file_index>
2154

> <i_lp_mmshare_version>
43012

> <i_f3d_flags>
0

> <s_epik_input>
W0NIM11bQ0BASF0xW0NIMl1bQ0BIXTFbQ0gyXVtOSF1DKD1PKVtDSDJdbjJbY0hdW2NIXWMoPU8pW25IXWMyPU8=

> <s_epik_cmdline>
J2VwaWtfcHl0aG9uJywgJy1waCcsICc3LjAnLCAnLXRuJywgJzgnLCAnLW1hJywgJzIwMCcsICctbWV0YWxfYmluZGluZycsICctaW1hZScsICc8aW5maWxlLm1hZT4nLCAnLW9tYWUnLCAnPG91dGZpbGUubWFlPic=

> <r_lp_tautomer_probability>
0.999537

> <r_epik_Ionization_Penalty>
0.00305319

> <r_epik_Ionization_Penalty_Charging>
0.00305317

> <r_epik_Ionization_Penalty_Neutral>
2.06703e-08

> <r_epik_State_Penalty>
0.00214626

> <r_epik_Charging_Adjusted_Penalty>
0.00519944

> <i_epik_Tot_Q>
0

> <i_epik_Tot_abs_Q>
0

> <r_epik_Metal_State_Penalty>
0.361976

> <b_epik_Metal_Only>
0

> <s_lp_Force_Field>
OPLS_2005

> <r_lp_Energy>
14.6752

> <b_lp_Chiralities_Consistent>
1

> <s_lp_Variant>
AV-unprocessed.smi:2154-4

> <Gold.Version>
5.8.1

> <Gold.Id.Protein>
6NUR|6NUR_protein|mol2

> <Gold.PLP.Fitness>
41.5909

> <Gold.PLP.PLP>
-35.9900

> <Gold.PLP.part.hbond>
-2.8025

> <Gold.PLP.part.metal>
0.0000

> <Gold.PLP.part.buried>
-0.6304

> <Gold.PLP.part.nonpolar>
-32.1581

> <Gold.PLP.part.repulsive>
0.4841

> <Gold.PLP.ligand.clash>
0.0000

> <Gold.PLP.ligand.torsion>
0.5339

> <Gold.PLP.Chemscore.Hbond>
2.0408

> <Gold.PLP.Chemscore.CHOScore>
0.0000

> <Gold.PLP.Chemscore.Metal>
0.0000

> <Gold.Chemscore.Hbonds>
donor molecule, donor type, donor heavy atom, donor atom, acceptor molecule, acceptor atom, score
      L1  H    15    18       P1  7948  0.28
      P1  H  7997  8008       L1     8  0.30
      P1  H 10752 10763       L1    17  1.00

> <Gold.PLP.Chemscore.Internal.Correction>
0.5464

> <Gold.Rescore>
     Score         DG    S(hbond)    S(metal)    S(lipo)     H(rot)  DE(clash)    DE(int)     intcor
     12.82     -14.39       1.59        0.00      74.71       2.01       0.07       1.51       ----

> <Gold.Chemscore.Fitness>
12.8154

> <Gold.Chemscore.DG>
-14.3893

> <Gold.Chemscore.ZeroCoef>
-5.4800

> <Gold.Chemscore.Hbond>
1.5882

> <Gold.Chemscore.Metal>
0.0000

> <Gold.Chemscore.Lipo>
74.7135

> <Gold.Chemscore.Internal_Hbond>
0.0000

> <Gold.Chemscore.DEClash>
0.0665

> <Gold.Chemscore.DEInternal>
1.5074

> <Gold.Chemscore.Rot>
2.0065

> <Gold.Chemscore.Internal.Correction>
   9.000000E+99

> <Gold.Chemscore.Hbonds>
donor molecule, donor type, donor heavy atom, donor atom, acceptor molecule, acceptor atom, score
      L1  H    15    18       P1  7948  0.22
      P1  H 10752 10763       L1    17  0.97

> <Gold.Chemscore.Hbond.Weighted>
-5.3045

> <Gold.Chemscore.Metal.Weighted>
-0.0000

> <Gold.Chemscore.Lipo.Weighted>
-8.7415

> <Gold.Chemscore.Internal_Hbond.Weighted>
0.0000

> <Gold.Chemscore.DEClash.Weighted>
0.0665

> <Gold.Chemscore.DEInternal.Weighted>
1.5074

> <Gold.Chemscore.Rot.Weighted>
5.1366

> <Gold.Chemscore.Internal.Correction.Weighted>
   9.000000E+99

> <Gold.Protein.RotatedTorsions>
[ 6907 6896 6895 6894 ] final  104.75 input  -60.11 | X-H torsion
[ 7974 7965 7964 7962 ] final   36.03 input  175.53 | X-H torsion
[ 8008 7997 7996 7995 ] final  -88.32 input   59.86 | X-H torsion
[ 10167 10162 10161 10158 ] final -164.98 input  -65.29 | X-H torsion
[ 10718 10713 10712 10709 ] final -132.64 input   66.30 | X-H torsion
[ 10763 10752 10751 10750 ] final   54.65 input  -60.55 | X-H torsion
[ 11005 11000 10999 10996 ] final  -59.00 input  -57.11 | X-H torsion

> <Gold.Protein.ActiveResidues>
 VAL166  LYS551  ARG553  GLY616  TRP617  ASP618  TYR619  PRO620  LYS621  CYS622 
 ASP623  PHE694  ASN695  SER759  ASP760  ASP761  ALA762  ILE779  LEU786  VAL792 
 PHE793  MET794  SER795  GLU796  ALA797  LYS798  CYS799  TRP800  GLU811  SER814 

> <Gold.Protein.RotatedAtoms>
  152.5254  133.9630  159.7725 H   0  0  0  0  0  0  0  0  0  0  0  0  # atno 6907 bound_to 6896
  150.9917  133.6135  159.2714 H   0  0  0  0  0  0  0  0  0  0  0  0  # atno 6908 bound_to 6896
  151.3276  135.0840  159.9380 H   0  0  0  0  0  0  0  0  0  0  0  0  # atno 6909 bound_to 6896
  146.1241  139.6069  142.9270 H   0  0  0  0  0  0  0  0  0  0  0  0  # atno 7974 bound_to 7965
  154.6734  140.0555  157.0190 H   0  0  0  0  0  0  0  0  0  0  0  0  # atno 8008 bound_to 7997
  155.1055  140.3233  155.4517 H   0  0  0  0  0  0  0  0  0  0  0  0  # atno 8009 bound_to 7997
  156.2666  140.2023  156.6181 H   0  0  0  0  0  0  0  0  0  0  0  0  # atno 8010 bound_to 7997
  139.6213  144.0618  152.1935 H   0  0  0  0  0  0  0  0  0  0  0  0  # atno 10167 bound_to 10162
  156.2367  130.7070  151.0914 H   0  0  0  0  0  0  0  0  0  0  0  0  # atno 10718 bound_to 10713
  152.9807  135.5737  154.4939 H   0  0  0  0  0  0  0  0  0  0  0  0  # atno 10763 bound_to 10752
  154.4469  135.2777  155.1810 H   0  0  0  0  0  0  0  0  0  0  0  0  # atno 10764 bound_to 10752
  154.3454  135.6220  153.5670 H   0  0  0  0  0  0  0  0  0  0  0  0  # atno 10765 bound_to 10752
  141.1230  133.6614  156.5005 H   0  0  0  0  0  0  0  0  0  0  0  0  # atno 11005 bound_to 11000
  145.5403  141.0421  143.2334 LP  0  0  0  0  0  0  0  0  0  0  0  0  # atno 17320 bound_to 7965
  144.7625  139.6923  143.7228 LP  0  0  0  0  0  0  0  0  0  0  0  0  # atno 17321 bound_to 7965
  140.0261  144.6116  150.7526 LP  0  0  0  0  0  0  0  0  0  0  0  0  # atno 17342 bound_to 10162
  140.7384  143.2777  151.3691 LP  0  0  0  0  0  0  0  0  0  0  0  0  # atno 17343 bound_to 10162
  157.7157  131.0711  150.6335 LP  0  0  0  0  0  0  0  0  0  0  0  0  # atno 17370 bound_to 10713
  156.6405  130.4457  149.5754 LP  0  0  0  0  0  0  0  0  0  0  0  0  # atno 17371 bound_to 10713
  140.4449  134.6981  157.5011 LP  0  0  0  0  0  0  0  0  0  0  0  0  # atno 17394 bound_to 11000
  140.0204  134.6556  155.9248 LP  0  0  0  0  0  0  0  0  0  0  0  0  # atno 17395 bound_to 11000

$$$$
