AV-unprocessed.smi:1071|AV-procd|sdf|4680|dock1
  -GOLD-   22720 3193D 1   1.00000     0.00000
 Structure written by MMmdl.
 47 48  0  0  0  0  0  0  0  0  2 V2000
  155.1614  140.2091  162.6087 C   0  0  0  0  0  0  0  0  0  0  0  0
  154.3352  139.8493  161.5155 O   0  0  0  0  0  0  0  0  0  0  0  0
  154.2645  140.8665  160.5304 C   0  0  0  0  0  0  0  0  0  0  0  0
  153.4132  142.0216  161.0651 C   0  0  0  0  0  0  0  0  0  0  0  0
  153.3174  143.0243  160.0580 O   0  0  0  0  0  0  0  0  0  0  0  0
  152.3757  142.8687  159.0613 C   0  0  0  0  0  0  0  0  0  0  0  0
  151.7685  141.6076  158.8990 C   0  0  0  0  0  0  0  0  0  0  0  0
  150.8078  141.4429  157.8837 C   0  0  0  0  0  0  0  0  0  0  0  0
  150.4733  142.5434  157.0693 C   0  0  0  0  0  0  0  0  0  0  0  0
  149.5163  142.3490  156.0377 N   0  0  0  0  0  0  0  0  0  0  0  0
  149.1101  141.1897  155.4850 C   0  0  0  0  0  0  0  0  0  0  0  0
  149.6791  140.1132  155.6625 O   0  0  0  0  0  0  0  0  0  0  0  0
  148.1134  141.3640  154.5834 N   0  0  0  0  0  0  0  0  0  0  0  0
  147.0281  142.3148  154.8670 C   0  0  0  0  0  0  0  0  0  0  0  0
  145.8764  141.5714  155.5745 C   0  0  0  0  0  0  0  0  0  0  0  0
  145.4104  140.4048  154.7798 N   0  3  2  0  0  0  0  0  0  0  0  0
  144.3213  139.6629  155.4495 C   0  0  0  0  0  0  0  0  0  0  0  0
  146.5141  139.5143  154.3335 C   0  0  0  0  0  0  0  0  0  0  0  0
  147.6370  140.3229  153.6510 C   0  0  2  0  0  0  0  0  0  0  0  0
  148.7398  139.4234  153.0537 C   0  0  0  0  0  0  0  0  0  0  0  0
  151.1474  143.7664  157.3038 C   0  0  0  0  0  0  0  0  0  0  0  0
  152.0725  143.9292  158.2729 N   0  0  0  0  0  0  0  0  0  0  0  0
  155.1745  139.4004  163.3394 H   0  0  0  0  0  0  0  0  0  0  0  0
  154.7899  141.1061  163.1060 H   0  0  0  0  0  0  0  0  0  0  0  0
  156.1876  140.3873  162.2848 H   0  0  0  0  0  0  0  0  0  0  0  0
  155.2673  141.2231  160.2900 H   0  0  0  0  0  0  0  0  0  0  0  0
  153.8246  140.4723  159.6130 H   0  0  0  0  0  0  0  0  0  0  0  0
  152.4217  141.6530  161.3334 H   0  0  0  0  0  0  0  0  0  0  0  0
  153.8764  142.4327  161.9637 H   0  0  0  0  0  0  0  0  0  0  0  0
  152.0361  140.7812  159.5406 H   0  0  0  0  0  0  0  0  0  0  0  0
  150.3330  140.4834  157.7380 H   0  0  0  0  0  0  0  0  0  0  0  0
  149.0902  143.1894  155.6753 H   0  0  0  0  0  0  0  0  0  0  0  0
  147.3500  143.1559  155.4827 H   0  0  0  0  0  0  0  0  0  0  0  0
  146.6749  142.7554  153.9334 H   0  0  0  0  0  0  0  0  0  0  0  0
  146.2062  141.2293  156.5571 H   0  0  0  0  0  0  0  0  0  0  0  0
  145.0424  142.2543  155.7410 H   0  0  0  0  0  0  0  0  0  0  0  0
  144.6688  139.2141  156.3811 H   0  0  0  0  0  0  0  0  0  0  0  0
  143.9447  138.8674  154.8058 H   0  0  0  0  0  0  0  0  0  0  0  0
  143.4878  140.3274  155.6792 H   0  0  0  0  0  0  0  0  0  0  0  0
  146.9112  138.9673  155.1903 H   0  0  0  0  0  0  0  0  0  0  0  0
  146.1157  138.7723  153.6405 H   0  0  0  0  0  0  0  0  0  0  0  0
  147.1994  140.8430  152.7969 H   0  0  0  0  0  0  0  0  0  0  0  0
  148.3415  138.8279  152.2318 H   0  0  0  0  0  0  0  0  0  0  0  0
  149.1485  138.7211  153.7796 H   0  0  0  0  0  0  0  0  0  0  0  0
  149.5622  140.0179  152.6546 H   0  0  0  0  0  0  0  0  0  0  0  0
  150.9710  144.6401  156.6956 H   0  0  0  0  0  0  0  0  0  0  0  0
  145.0130  140.7904  153.9351 H   0  0  0  0  0  0  0  0  0  0  0  0
  1  2  1  0  0  0  0
  1 23  1  0  0  0  0
  1 24  1  0  0  0  0
  1 25  1  0  0  0  0
  2  3  1  0  0  0  0
  3  4  1  0  0  0  0
  3 26  1  0  0  0  0
  3 27  1  0  0  0  0
  4  5  1  0  0  0  0
  4 28  1  0  0  0  0
  4 29  1  0  0  0  0
  5  6  1  0  0  0  0
  6 22  1  0  0  0  0
  6  7  2  0  0  0  0
  7  8  1  0  0  0  0
  7 30  1  0  0  0  0
  8  9  2  0  0  0  0
  8 31  1  0  0  0  0
  9 10  1  0  0  0  0
  9 21  1  0  0  0  0
 10 11  1  0  0  0  0
 10 32  1  0  0  0  0
 11 12  2  0  0  0  0
 11 13  1  0  0  0  0
 13 19  1  0  0  0  0
 13 14  1  0  0  0  0
 14 15  1  0  0  0  0
 14 33  1  0  0  0  0
 14 34  1  0  0  0  0
 15 16  1  0  0  0  0
 15 35  1  0  0  0  0
 15 36  1  0  0  0  0
 16 17  1  0  0  0  0
 16 18  1  0  0  0  0
 16 47  1  0  0  0  0
 17 37  1  0  0  0  0
 17 38  1  0  0  0  0
 17 39  1  0  0  0  0
 18 19  1  0  0  0  0
 18 40  1  0  0  0  0
 18 41  1  0  0  0  0
 19 20  1  0  0  0  0
 19 42  1  0  0  0  0
 20 43  1  0  0  0  0
 20 44  1  0  0  0  0
 20 45  1  0  0  0  0
 21 22  2  0  0  0  0
 21 46  1  0  0  0  0
M  CHG  1  16   1
M  END
> <s_m_source_file>
AV-unprocessed.smi

> <i_m_source_file_index>
1071

> <i_lp_mmshare_version>
43012

> <i_f3d_flags>
0

> <s_epik_input>
W0NIM11PW0NIMl1bQ0gyXU9jMVtjSF1bY0hdYyhbY0hdbjEpW05IXUMoPU8pTjJbQ0gyXVtDSDJdTihbQ0gzXSlbQ0gyXVtDQEhdMltDSDNd

> <s_epik_cmdline>
J2VwaWtfcHl0aG9uJywgJy1waCcsICc3LjAnLCAnLXRuJywgJzgnLCAnLW1hJywgJzIwMCcsICctbWV0YWxfYmluZGluZycsICctaW1hZScsICc8aW5maWxlLm1hZT4nLCAnLW9tYWUnLCAnPG91dGZpbGUubWFlPic=

> <r_lp_tautomer_probability>
1

> <r_epik_Ionization_Penalty>
0.25455

> <r_epik_Ionization_Penalty_Charging>
0.254506

> <r_epik_Ionization_Penalty_Neutral>
4.43365e-05

> <r_epik_State_Penalty>
0.245983

> <r_epik_Charging_Adjusted_Penalty>
0.500488

> <i_epik_Tot_Q>
1

> <i_epik_Tot_abs_Q>
1

> <r_epik_Metal_State_Penalty>
0.245987

> <b_epik_Metal_Only>
0

> <s_lp_Force_Field>
OPLS_2005

> <r_lp_Energy>
54.7367

> <b_lp_Chiralities_Consistent>
1

> <s_lp_Variant>
AV-unprocessed.smi:1071-4

> <Gold.Version>
5.8.1

> <Gold.Id.Protein>
6NUR|6NUR_protein|mol2

> <Gold.PLP.Fitness>
42.1523

> <Gold.PLP.PLP>
-31.6070

> <Gold.PLP.part.hbond>
-2.0000

> <Gold.PLP.part.metal>
0.0000

> <Gold.PLP.part.buried>
2.6645

> <Gold.PLP.part.nonpolar>
-33.4027

> <Gold.PLP.part.repulsive>
0.1864

> <Gold.PLP.ligand.clash>
0.0000

> <Gold.PLP.ligand.torsion>
0.7018

> <Gold.PLP.Chemscore.Hbond>
2.9840

> <Gold.PLP.Chemscore.CHOScore>
0.7599

> <Gold.PLP.Chemscore.Metal>
0.0000

> <Gold.Chemscore.Hbonds>
donor molecule, donor type, donor heavy atom, donor atom, acceptor molecule, acceptor atom, score
      L1  H    10    32       P1  8028  1.00
      L1  H    16    47       P1 10175  1.79
      L1  C    21    46       P1  8028  0.73

> <Gold.PLP.Chemscore.Internal.Correction>
0.7172

> <Gold.Rescore>
     Score         DG    S(hbond)    S(metal)    S(lipo)     H(rot)  DE(clash)    DE(int)     intcor
     11.49     -17.34       1.83        0.00      84.31       1.60       2.47       3.39       ----

> <Gold.Chemscore.Fitness>
11.4870

> <Gold.Chemscore.DG>
-17.3445

> <Gold.Chemscore.ZeroCoef>
-5.4800

> <Gold.Chemscore.Hbond>
1.8287

> <Gold.Chemscore.Metal>
0.0000

> <Gold.Chemscore.Lipo>
84.3088

> <Gold.Chemscore.Internal_Hbond>
0.0000

> <Gold.Chemscore.DEClash>
2.4668

> <Gold.Chemscore.DEInternal>
3.3906

> <Gold.Chemscore.Rot>
1.6045

> <Gold.Chemscore.Internal.Correction>
   9.000000E+99

> <Gold.Chemscore.Hbonds>
donor molecule, donor type, donor heavy atom, donor atom, acceptor molecule, acceptor atom, score
      L1  H    10    32       P1  8028  0.92
      L1  H    16    47       P1 10175  0.82

> <Gold.Chemscore.Hbond.Weighted>
-6.1079

> <Gold.Chemscore.Metal.Weighted>
-0.0000

> <Gold.Chemscore.Lipo.Weighted>
-9.8641

> <Gold.Chemscore.Internal_Hbond.Weighted>
0.0000

> <Gold.Chemscore.DEClash.Weighted>
2.4668

> <Gold.Chemscore.DEInternal.Weighted>
3.3906

> <Gold.Chemscore.Rot.Weighted>
4.1075

> <Gold.Chemscore.Internal.Correction.Weighted>
   9.000000E+99

> <Gold.Protein.RotatedTorsions>
[ 6907 6896 6895 6894 ] final -145.72 input  -60.11 | X-H torsion
[ 7974 7965 7964 7962 ] final  -70.68 input  175.53 | X-H torsion
[ 8008 7997 7996 7995 ] final   -0.94 input   59.86 | X-H torsion
[ 10167 10162 10161 10158 ] final  -75.57 input  -65.29 | X-H torsion
[ 10718 10713 10712 10709 ] final -110.78 input   66.30 | X-H torsion
[ 10763 10752 10751 10750 ] final  -36.24 input  -60.55 | X-H torsion
[ 11005 11000 10999 10996 ] final  160.35 input  -57.11 | X-H torsion

> <Gold.Protein.ActiveResidues>
 VAL166  LYS551  ARG553  GLY616  TRP617  ASP618  TYR619  PRO620  LYS621  CYS622 
 ASP623  PHE694  ASN695  SER759  ASP760  ASP761  ALA762  ILE779  LEU786  VAL792 
 PHE793  MET794  SER795  GLU796  ALA797  LYS798  CYS799  TRP800  GLU811  SER814 

> <Gold.Protein.RotatedAtoms>
  151.1317  133.5032  159.2598 H   0  0  0  0  0  0  0  0  0  0  0  0  # atno 6907 bound_to 6896
  151.1751  135.0335  159.8778 H   0  0  0  0  0  0  0  0  0  0  0  0  # atno 6908 bound_to 6896
  152.5460  134.1175  159.8438 H   0  0  0  0  0  0  0  0  0  0  0  0  # atno 6909 bound_to 6896
  145.6879  140.9164  143.0797 H   0  0  0  0  0  0  0  0  0  0  0  0  # atno 7974 bound_to 7965
  154.6524  140.2572  155.7199 H   0  0  0  0  0  0  0  0  0  0  0  0  # atno 8008 bound_to 7997
  156.2581  140.2865  156.0884 H   0  0  0  0  0  0  0  0  0  0  0  0  # atno 8009 bound_to 7997
  155.1431  140.0380  157.2793 H   0  0  0  0  0  0  0  0  0  0  0  0  # atno 8010 bound_to 7997
  140.4931  143.2376  151.7875 H   0  0  0  0  0  0  0  0  0  0  0  0  # atno 10167 bound_to 10162
  156.0609  130.5833  150.8283 H   0  0  0  0  0  0  0  0  0  0  0  0  # atno 10718 bound_to 10713
  153.8764  135.6826  153.4770 H   0  0  0  0  0  0  0  0  0  0  0  0  # atno 10763 bound_to 10752
  153.1258  135.4719  154.9268 H   0  0  0  0  0  0  0  0  0  0  0  0  # atno 10764 bound_to 10752
  154.7690  135.3233  154.8180 H   0  0  0  0  0  0  0  0  0  0  0  0  # atno 10765 bound_to 10752
  140.2051  134.8309  157.3060 H   0  0  0  0  0  0  0  0  0  0  0  0  # atno 11005 bound_to 11000
  144.7006  139.8782  143.7445 LP  0  0  0  0  0  0  0  0  0  0  0  0  # atno 17320 bound_to 7965
  146.0908  139.3897  143.0407 LP  0  0  0  0  0  0  0  0  0  0  0  0  # atno 17321 bound_to 7965
  139.4855  144.4623  151.9526 LP  0  0  0  0  0  0  0  0  0  0  0  0  # atno 17342 bound_to 10162
  140.3710  144.2855  150.5920 LP  0  0  0  0  0  0  0  0  0  0  0  0  # atno 17343 bound_to 10162
  157.5618  131.0946  150.9548 LP  0  0  0  0  0  0  0  0  0  0  0  0  # atno 17370 bound_to 10713
  156.9784  130.5518  149.5295 LP  0  0  0  0  0  0  0  0  0  0  0  0  # atno 17371 bound_to 10713
  140.2011  134.4253  155.7662 LP  0  0  0  0  0  0  0  0  0  0  0  0  # atno 17394 bound_to 11000
  141.2227  133.7072  156.8186 LP  0  0  0  0  0  0  0  0  0  0  0  0  # atno 17395 bound_to 11000

$$$$
