AV-unprocessed.smi:779|AV-procd|sdf|3705|dock1
  -GOLD-   22720 1123D 1   1.00000     0.00000
 Structure written by MMmdl.
 20 20  0  0  0  0  0  0  0  0  3 V2000
  151.7188  136.3874  155.6968 O   0  0  0  0  0  0  0  0  0  0  0  0
  150.5448  136.4364  155.2651 C   0  0  0  0  0  0  0  0  0  0  0  0
  149.7827  135.4535  155.1265 O   0  5  0  0  0  0  0  0  0  0  0  0
  150.0259  137.8936  154.8978 C   0  0  0  0  0  0  0  0  0  0  0  0
  148.7798  138.1503  154.4458 C   0  0  0  0  0  0  0  0  0  0  0  0
  148.3482  139.4439  154.1132 N   0  0  0  0  0  0  0  0  0  0  0  0
  146.9720  139.5957  153.6227 C   0  0  0  0  0  0  0  0  0  0  0  0
  146.6608  138.5749  152.5169 C   0  0  0  0  0  0  0  0  0  0  0  0
  147.4283  138.8609  151.3674 O   0  0  0  0  0  0  0  0  0  0  0  0
  149.2062  140.4983  154.2217 C   0  0  0  0  0  0  0  0  0  0  0  0
  148.8145  141.6213  153.8999 O   0  0  0  0  0  0  0  0  0  0  0  0
  150.4733  140.2703  154.6817 N   0  5  0  0  0  0  0  0  0  0  0  0
  150.9510  139.0401  155.0366 C   0  0  0  0  0  0  0  0  0  0  0  0
  152.1027  138.9187  155.4536 O   0  0  0  0  0  0  0  0  0  0  0  0
  148.0376  137.3786  154.3015 H   0  0  0  0  0  0  0  0  0  0  0  0
  146.2692  139.4693  154.4477 H   0  0  0  0  0  0  0  0  0  0  0  0
  146.8034  140.6107  153.2585 H   0  0  0  0  0  0  0  0  0  0  0  0
  146.8842  137.5609  152.8500 H   0  0  0  0  0  0  0  0  0  0  0  0
  145.6037  138.6064  152.2515 H   0  0  0  0  0  0  0  0  0  0  0  0
  148.1307  139.4420  151.6156 H   0  0  0  0  0  0  0  0  0  0  0  0
  1  2  2  0  0  0  0
  2  3  1  0  0  0  0
  2  4  1  0  0  0  0
  4 13  1  0  0  0  0
  4  5  2  0  0  0  0
  5  6  1  0  0  0  0
  5 15  1  0  0  0  0
  6  7  1  0  0  0  0
  6 10  1  0  0  0  0
  7  8  1  0  0  0  0
  7 16  1  0  0  0  0
  7 17  1  0  0  0  0
  8  9  1  0  0  0  0
  8 18  1  0  0  0  0
  8 19  1  0  0  0  0
  9 20  1  0  0  0  0
 10 11  2  0  0  0  0
 10 12  1  0  0  0  0
 12 13  1  0  0  0  0
 13 14  2  0  0  0  0
M  CHG  1   3  -1
M  CHG  1  12  -1
M  END
> <s_m_source_file>
AV-unprocessed.smi

> <i_m_source_file_index>
779

> <i_lp_mmshare_version>
43012

> <i_f3d_flags>
0

> <s_epik_input>
Tz1DKFtPSF0pYzFbY0hdbihbQ0gyXVtDSDJdW09IXSljKD1PKVtuSF1jMT1P

> <s_epik_cmdline>
J2VwaWtfcHl0aG9uJywgJy1waCcsICc3LjAnLCAnLXRuJywgJzgnLCAnLW1hJywgJzIwMCcsICctbWV0YWxfYmluZGluZycsICctaW1hZScsICc8aW5maWxlLm1hZT4nLCAnLW9tYWUnLCAnPG91dGZpbGUubWFlPic=

> <r_lp_tautomer_probability>
1

> <r_epik_Ionization_Penalty>
3.89082

> <r_epik_Ionization_Penalty_Charging>
0.00124607

> <r_epik_Ionization_Penalty_Neutral>
3.88958

> <r_epik_State_Penalty>
3.88874

> <r_epik_Charging_Adjusted_Penalty>
3.88999

> <i_epik_Tot_Q>
-2

> <i_epik_Tot_abs_Q>
2

> <r_epik_Metal_State_Penalty>
0.317414

> <b_epik_Metal_Only>
1

> <s_lp_Force_Field>
OPLS_2005

> <r_lp_Energy>
29.4188

> <b_lp_Chiralities_Consistent>
1

> <s_lp_Variant>
AV-unprocessed.smi:779-2

> <Gold.Version>
5.8.1

> <Gold.Id.Protein>
6NUR|6NUR_protein|mol2

> <Gold.PLP.Fitness>
39.7708

> <Gold.PLP.PLP>
-23.2150

> <Gold.PLP.part.hbond>
-6.0904

> <Gold.PLP.part.metal>
0.0000

> <Gold.PLP.part.buried>
-1.1399

> <Gold.PLP.part.nonpolar>
-15.7262

> <Gold.PLP.part.repulsive>
0.4811

> <Gold.PLP.ligand.clash>
0.0000

> <Gold.PLP.ligand.torsion>
0.1188

> <Gold.PLP.Chemscore.Hbond>
5.4976

> <Gold.PLP.Chemscore.CHOScore>
0.0991

> <Gold.PLP.Chemscore.Metal>
0.0000

> <Gold.Chemscore.Hbonds>
donor molecule, donor type, donor heavy atom, donor atom, acceptor molecule, acceptor atom, score
      L1  H     9    20       P1  7957  0.85
      P1  H  7954  7966       L1     9  0.88
      P1  H  7989  7998       L1    12  1.00
      P1  H  8011  8017       L1    11  0.64
      P1  H 10752 10763       L1     1  2.00
      L1  C     5    15       P1  7948  0.09

> <Gold.PLP.Chemscore.Internal.Correction>
0.0034

> <Gold.Rescore>
     Score         DG    S(hbond)    S(metal)    S(lipo)     H(rot)  DE(clash)    DE(int)     intcor
     11.38     -13.60       3.35        0.00      21.24       2.17       0.42       1.79       ----

> <Gold.Chemscore.Fitness>
11.3848

> <Gold.Chemscore.DG>
-13.5971

> <Gold.Chemscore.ZeroCoef>
-5.4800

> <Gold.Chemscore.Hbond>
3.3468

> <Gold.Chemscore.Metal>
0.0000

> <Gold.Chemscore.Lipo>
21.2426

> <Gold.Chemscore.Internal_Hbond>
0.0000

> <Gold.Chemscore.DEClash>
0.4178

> <Gold.Chemscore.DEInternal>
1.7945

> <Gold.Chemscore.Rot>
2.1667

> <Gold.Chemscore.Internal.Correction>
   9.000000E+99

> <Gold.Chemscore.Hbonds>
donor molecule, donor type, donor heavy atom, donor atom, acceptor molecule, acceptor atom, score
      L1  H     9    20       P1  7957  0.82
      P1  H  7954  7966       L1     9  0.30
      P1  H  7989  7998       L1    12  0.35
      P1  H  8011  8017       L1    11  0.55
      P1  H 10752 10763       L1     1  0.99

> <Gold.Chemscore.Hbond.Weighted>
-11.1784

> <Gold.Chemscore.Metal.Weighted>
-0.0000

> <Gold.Chemscore.Lipo.Weighted>
-2.4854

> <Gold.Chemscore.Internal_Hbond.Weighted>
0.0000

> <Gold.Chemscore.DEClash.Weighted>
0.4178

> <Gold.Chemscore.DEInternal.Weighted>
1.7945

> <Gold.Chemscore.Rot.Weighted>
5.5467

> <Gold.Chemscore.Internal.Correction.Weighted>
   9.000000E+99

> <Gold.Protein.RotatedTorsions>
[ 6907 6896 6895 6894 ] final    0.98 input  -60.11 | X-H torsion
[ 7974 7965 7964 7962 ] final  -68.04 input  175.53 | X-H torsion
[ 8008 7997 7996 7995 ] final  116.73 input   59.86 | X-H torsion
[ 10167 10162 10161 10158 ] final  -57.12 input  -65.29 | X-H torsion
[ 10718 10713 10712 10709 ] final -159.44 input   66.30 | X-H torsion
[ 10763 10752 10751 10750 ] final   73.32 input  -60.55 | X-H torsion
[ 11005 11000 10999 10996 ] final  -88.40 input  -57.11 | X-H torsion

> <Gold.Protein.ActiveResidues>
 VAL166  LYS551  ARG553  GLY616  TRP617  ASP618  TYR619  PRO620  LYS621  CYS622 
 ASP623  PHE694  ASN695  SER759  ASP760  ASP761  ALA762  ILE779  LEU786  VAL792 
 PHE793  MET794  SER795  GLU796  ALA797  LYS798  CYS799  TRP800  GLU811  SER814 

> <Gold.Protein.RotatedAtoms>
  151.5852  135.1056  160.0026 H   0  0  0  0  0  0  0  0  0  0  0  0  # atno 6907 bound_to 6896
  152.4334  133.7313  159.6600 H   0  0  0  0  0  0  0  0  0  0  0  0  # atno 6908 bound_to 6896
  150.8229  133.8151  159.3154 H   0  0  0  0  0  0  0  0  0  0  0  0  # atno 6909 bound_to 6896
  145.7215  140.9036  143.0628 H   0  0  0  0  0  0  0  0  0  0  0  0  # atno 7974 bound_to 7965
  156.2455  140.2911  156.0568 H   0  0  0  0  0  0  0  0  0  0  0  0  # atno 8008 bound_to 7997
  155.1820  140.0404  157.2901 H   0  0  0  0  0  0  0  0  0  0  0  0  # atno 8009 bound_to 7997
  154.6253  140.2486  155.7506 H   0  0  0  0  0  0  0  0  0  0  0  0  # atno 8010 bound_to 7997
  140.6276  143.2445  151.5322 H   0  0  0  0  0  0  0  0  0  0  0  0  # atno 10167 bound_to 10162
  156.5681  130.8676  151.2830 H   0  0  0  0  0  0  0  0  0  0  0  0  # atno 10718 bound_to 10713
  153.0514  135.5067  154.7875 H   0  0  0  0  0  0  0  0  0  0  0  0  # atno 10763 bound_to 10752
  154.6735  135.2957  154.9712 H   0  0  0  0  0  0  0  0  0  0  0  0  # atno 10764 bound_to 10752
  154.0522  135.6702  153.4854 H   0  0  0  0  0  0  0  0  0  0  0  0  # atno 10765 bound_to 10752
  141.1602  133.7568  156.9446 H   0  0  0  0  0  0  0  0  0  0  0  0  # atno 11005 bound_to 11000
  144.6915  139.9209  143.7468 LP  0  0  0  0  0  0  0  0  0  0  0  0  # atno 17320 bound_to 7965
  146.0621  139.3614  143.0575 LP  0  0  0  0  0  0  0  0  0  0  0  0  # atno 17321 bound_to 7965
  139.5495  144.2434  152.1504 LP  0  0  0  0  0  0  0  0  0  0  0  0  # atno 17342 bound_to 10162
  140.1669  144.4973  150.6601 LP  0  0  0  0  0  0  0  0  0  0  0  0  # atno 17343 bound_to 10162
  157.7354  130.9762  150.2080 LP  0  0  0  0  0  0  0  0  0  0  0  0  # atno 17370 bound_to 10713
  156.2739  130.3725  149.8004 LP  0  0  0  0  0  0  0  0  0  0  0  0  # atno 17371 bound_to 10713
  140.1299  134.9363  157.2322 LP  0  0  0  0  0  0  0  0  0  0  0  0  # atno 17394 bound_to 11000
  140.2967  134.3179  155.7300 LP  0  0  0  0  0  0  0  0  0  0  0  0  # atno 17395 bound_to 11000

$$$$
