AV-unprocessed.smi:1920|AV-procd|sdf|7783|dock10
  -GOLD-   22720 9523D 1   1.00000     0.00000
 Structure written by MMmdl.
 36 37  0  0  0  0  0  0  0  0  1 V2000
  149.2892  140.7262  157.9760 C   0  0  0  0  0  0  0  0  0  0  0  0
  149.5611  141.5492  156.7026 C   0  0  2  0  0  0  0  0  0  0  0  0
  150.0149  140.6847  155.5096 C   0  0  0  0  0  0  0  0  0  0  0  0
  148.9022  140.1444  154.7512 N   0  0  0  0  0  0  0  0  0  0  0  0
  147.9582  140.8606  154.0270 C   0  0  0  0  0  0  0  0  0  0  0  0
  147.1026  139.9350  153.4737 C   0  0  0  0  0  0  0  0  0  0  0  0
  147.5012  138.6512  153.8382 N   0  0  0  0  0  0  0  0  0  0  0  0
  148.5744  138.8548  154.5913 C   0  0  0  0  0  0  0  0  0  0  0  0
  150.5754  142.5663  156.9654 N   0  0  0  0  0  0  0  0  0  0  0  0
  150.6711  143.3004  158.0849 C   0  0  0  0  0  0  0  0  0  0  0  0
  149.8927  143.1953  159.0326 O   0  0  0  0  0  0  0  0  0  0  0  0
  151.8235  144.3086  158.1438 C   0  0  0  0  0  0  0  0  0  0  0  0
  152.7131  144.1559  159.3969 C   0  0  1  0  0  0  0  0  0  0  0  0
  152.0476  144.6167  160.6714 C   0  0  0  0  0  0  0  0  0  0  0  0
  152.0577  143.6858  161.6226 C   0  0  0  0  0  0  0  0  0  0  0  0
  152.7297  142.4163  161.1790 C   0  0  0  0  0  0  0  0  0  0  0  0
  153.0898  142.6828  159.7002 C   0  0  0  0  0  0  0  0  0  0  0  0
  148.4872  140.0042  157.8217 H   0  0  0  0  0  0  0  0  0  0  0  0
  148.9863  141.3673  158.8046 H   0  0  0  0  0  0  0  0  0  0  0  0
  150.1774  140.1767  158.2888 H   0  0  0  0  0  0  0  0  0  0  0  0
  148.6344  142.0506  156.4169 H   0  0  0  0  0  0  0  0  0  0  0  0
  150.6322  141.2733  154.8292 H   0  0  0  0  0  0  0  0  0  0  0  0
  150.6344  139.8555  155.8550 H   0  0  0  0  0  0  0  0  0  0  0  0
  147.9721  141.9392  153.9691 H   0  0  0  0  0  0  0  0  0  0  0  0
  146.2388  140.0930  152.8449 H   0  0  0  0  0  0  0  0  0  0  0  0
  149.1329  138.0467  155.0406 H   0  0  0  0  0  0  0  0  0  0  0  0
  151.2605  142.7224  156.2403 H   0  0  0  0  0  0  0  0  0  0  0  0
  152.4360  144.2170  157.2451 H   0  0  0  0  0  0  0  0  0  0  0  0
  151.3938  145.3106  158.1213 H   0  0  0  0  0  0  0  0  0  0  0  0
  153.6256  144.7418  159.2750 H   0  0  0  0  0  0  0  0  0  0  0  0
  151.6300  145.6072  160.7804 H   0  0  0  0  0  0  0  0  0  0  0  0
  151.6485  143.8044  162.6149 H   0  0  0  0  0  0  0  0  0  0  0  0
  153.6184  142.2353  161.7841 H   0  0  0  0  0  0  0  0  0  0  0  0
  152.0544  141.5669  161.2858 H   0  0  0  0  0  0  0  0  0  0  0  0
  152.5352  141.9970  159.0583 H   0  0  0  0  0  0  0  0  0  0  0  0
  154.1492  142.5027  159.5149 H   0  0  0  0  0  0  0  0  0  0  0  0
  1  2  1  0  0  0  0
  1 18  1  0  0  0  0
  1 19  1  0  0  0  0
  1 20  1  0  0  0  0
  2  3  1  0  0  0  0
  2  9  1  0  0  0  0
  2 21  1  0  0  0  0
  3  4  1  0  0  0  0
  3 22  1  0  0  0  0
  3 23  1  0  0  0  0
  4  8  1  0  0  0  0
  4  5  1  0  0  0  0
  5  6  2  0  0  0  0
  5 24  1  0  0  0  0
  6  7  1  0  0  0  0
  6 25  1  0  0  0  0
  7  8  2  0  0  0  0
  8 26  1  0  0  0  0
  9 10  1  0  0  0  0
  9 27  1  0  0  0  0
 10 11  2  0  0  0  0
 10 12  1  0  0  0  0
 12 13  1  0  0  0  0
 12 28  1  0  0  0  0
 12 29  1  0  0  0  0
 13 17  1  0  0  0  0
 13 14  1  0  0  0  0
 13 30  1  0  0  0  0
 14 15  2  0  0  0  0
 14 31  1  0  0  0  0
 15 16  1  0  0  0  0
 15 32  1  0  0  0  0
 16 17  1  0  0  0  0
 16 33  1  0  0  0  0
 16 34  1  0  0  0  0
 17 35  1  0  0  0  0
 17 36  1  0  0  0  0
M  END
> <s_m_source_file>
AV-unprocessed.smi

> <i_m_source_file_index>
1920

> <i_lp_mmshare_version>
43012

> <i_f3d_flags>
0

> <s_epik_input>
W2NIXTFuW2NIXVtjSF1uMVtDSDJdW0NAQEhdKFtDSDNdKVtOSF1DKD1PKVtDSDJdW0NAQEhdMltDSF09W0NIXVtDSDJdW0NIMl0y

> <s_epik_cmdline>
J2VwaWtfcHl0aG9uJywgJy1waCcsICc3LjAnLCAnLXRuJywgJzgnLCAnLW1hJywgJzIwMCcsICctbWV0YWxfYmluZGluZycsICctaW1hZScsICc8aW5maWxlLm1hZT4nLCAnLW9tYWUnLCAnPG91dGZpbGUubWFlPic=

> <r_lp_tautomer_probability>
1

> <r_epik_Ionization_Penalty>
0.635367

> <r_epik_Ionization_Penalty_Charging>
0.635367

> <r_epik_Ionization_Penalty_Neutral>
2.1249e-08

> <r_epik_State_Penalty>
0.65258

> <r_epik_Charging_Adjusted_Penalty>
1.28795

> <i_epik_Tot_Q>
0

> <i_epik_Tot_abs_Q>
0

> <r_epik_Metal_State_Penalty>
0.310403

> <b_epik_Metal_Only>
0

> <s_lp_Force_Field>
OPLS_2005

> <r_lp_Energy>
18.7511

> <b_lp_Chiralities_Consistent>
1

> <s_lp_Variant>
AV-unprocessed.smi:1920-7

> <Gold.Version>
5.8.1

> <Gold.Id.Protein>
6NUR|6NUR_protein|mol2

> <Gold.PLP.Fitness>
45.4185

> <Gold.PLP.PLP>
-43.8037

> <Gold.PLP.part.hbond>
-1.5978

> <Gold.PLP.part.metal>
0.0000

> <Gold.PLP.part.buried>
-3.3983

> <Gold.PLP.part.nonpolar>
-38.4625

> <Gold.PLP.part.repulsive>
0.3716

> <Gold.PLP.ligand.clash>
0.0000

> <Gold.PLP.ligand.torsion>
0.7153

> <Gold.PLP.Chemscore.Hbond>
0.0000

> <Gold.PLP.Chemscore.CHOScore>
1.0000

> <Gold.PLP.Chemscore.Metal>
0.0000

> <Gold.Chemscore.Hbonds>
donor molecule, donor type, donor heavy atom, donor atom, acceptor molecule, acceptor atom, score
      L1  C     6    25       P1 10175  0.81

> <Gold.PLP.Chemscore.Internal.Correction>
0.0453

> <Gold.Rescore>
     Score         DG    S(hbond)    S(metal)    S(lipo)     H(rot)  DE(clash)    DE(int)     intcor
     10.55     -12.54       0.00        0.00     102.60       1.93       0.06       1.93       ----

> <Gold.Chemscore.Fitness>
10.5507

> <Gold.Chemscore.DG>
-12.5416

> <Gold.Chemscore.ZeroCoef>
-5.4800

> <Gold.Chemscore.Hbond>
0.0000

> <Gold.Chemscore.Metal>
0.0000

> <Gold.Chemscore.Lipo>
102.5982

> <Gold.Chemscore.Internal_Hbond>
0.0000

> <Gold.Chemscore.DEClash>
0.0642

> <Gold.Chemscore.DEInternal>
1.9266

> <Gold.Chemscore.Rot>
1.9306

> <Gold.Chemscore.Internal.Correction>
   9.000000E+99

> <Gold.Chemscore.Hbond.Weighted>
-0.0000

> <Gold.Chemscore.Metal.Weighted>
-0.0000

> <Gold.Chemscore.Lipo.Weighted>
-12.0040

> <Gold.Chemscore.Internal_Hbond.Weighted>
0.0000

> <Gold.Chemscore.DEClash.Weighted>
0.0642

> <Gold.Chemscore.DEInternal.Weighted>
1.9266

> <Gold.Chemscore.Rot.Weighted>
4.9424

> <Gold.Chemscore.Internal.Correction.Weighted>
   9.000000E+99

> <Gold.Protein.RotatedTorsions>
[ 6907 6896 6895 6894 ] final  165.66 input  -60.11 | X-H torsion
[ 7974 7965 7964 7962 ] final  151.21 input  175.53 | X-H torsion
[ 8008 7997 7996 7995 ] final -120.50 input   59.86 | X-H torsion
[ 10167 10162 10161 10158 ] final  -82.05 input  -65.29 | X-H torsion
[ 10718 10713 10712 10709 ] final   72.43 input   66.30 | X-H torsion
[ 10763 10752 10751 10750 ] final  -22.42 input  -60.55 | X-H torsion
[ 11005 11000 10999 10996 ] final  133.41 input  -57.11 | X-H torsion

> <Gold.Protein.ActiveResidues>
 VAL166  LYS551  ARG553  GLY616  TRP617  ASP618  TYR619  PRO620  LYS621  CYS622 
 ASP623  PHE694  ASN695  SER759  ASP760  ASP761  ALA762  ILE779  LEU786  VAL792 
 PHE793  MET794  SER795  GLU796  ALA797  LYS798  CYS799  TRP800  GLU811  SER814 

> <Gold.Protein.RotatedAtoms>
  151.8910  133.3516  159.3798 H   0  0  0  0  0  0  0  0  0  0  0  0  # atno 6907 bound_to 6896
  150.7103  134.4924  159.5531 H   0  0  0  0  0  0  0  0  0  0  0  0  # atno 6908 bound_to 6896
  152.2494  134.8148  160.0499 H   0  0  0  0  0  0  0  0  0  0  0  0  # atno 6909 bound_to 6896
  144.8309  139.6508  143.6059 H   0  0  0  0  0  0  0  0  0  0  0  0  # atno 7974 bound_to 7965
  155.1329  140.0400  157.2779 H   0  0  0  0  0  0  0  0  0  0  0  0  # atno 8008 bound_to 7997
  154.6529  140.2573  155.7167 H   0  0  0  0  0  0  0  0  0  0  0  0  # atno 8009 bound_to 7997
  156.2585  140.2832  156.0971 H   0  0  0  0  0  0  0  0  0  0  0  0  # atno 8010 bound_to 7997
  140.4356  143.2533  151.8698 H   0  0  0  0  0  0  0  0  0  0  0  0  # atno 10167 bound_to 10162
  157.6501  130.9578  150.0928 H   0  0  0  0  0  0  0  0  0  0  0  0  # atno 10718 bound_to 10713
  153.6517  135.6980  153.5206 H   0  0  0  0  0  0  0  0  0  0  0  0  # atno 10763 bound_to 10752
  153.2701  135.4217  155.0978 H   0  0  0  0  0  0  0  0  0  0  0  0  # atno 10764 bound_to 10752
  154.8474  135.3576  154.6062 H   0  0  0  0  0  0  0  0  0  0  0  0  # atno 10765 bound_to 10752
  139.9850  134.9535  156.9721 H   0  0  0  0  0  0  0  0  0  0  0  0  # atno 11005 bound_to 11000
  146.2611  139.6414  142.9361 LP  0  0  0  0  0  0  0  0  0  0  0  0  # atno 17320 bound_to 7965
  145.4899  141.0438  143.2599 LP  0  0  0  0  0  0  0  0  0  0  0  0  # atno 17321 bound_to 7965
  139.4787  144.5286  151.8698 LP  0  0  0  0  0  0  0  0  0  0  0  0  # atno 17342 bound_to 10162
  140.4378  144.2028  150.5890 LP  0  0  0  0  0  0  0  0  0  0  0  0  # atno 17343 bound_to 10162
  156.1872  130.3653  149.8957 LP  0  0  0  0  0  0  0  0  0  0  0  0  # atno 17370 bound_to 10713
  156.6894  130.8890  151.3586 LP  0  0  0  0  0  0  0  0  0  0  0  0  # atno 17371 bound_to 10713
  140.5020  134.1088  155.7252 LP  0  0  0  0  0  0  0  0  0  0  0  0  # atno 17394 bound_to 11000
  141.1516  133.8957  157.2082 LP  0  0  0  0  0  0  0  0  0  0  0  0  # atno 17395 bound_to 11000

$$$$
