AV-unprocessed.smi:1196|AV-procd|sdf|4997|dock10
  -GOLD-   22720 4 03D 1   1.00000     0.00000
 Structure written by MMmdl.
 37 38  0  0  0  0  0  0  0  0  1 V2000
  151.5895  140.2928  158.4270 C   0  0  0  0  0  0  0  0  0  0  0  0
  150.5406  141.3059  157.9416 C   0  0  1  0  0  0  0  0  0  0  0  0
  151.2030  142.5992  157.4284 C   0  0  0  0  0  0  0  0  0  0  0  0
  151.4881  143.5369  158.5004 N   0  0  0  0  0  0  0  0  0  0  0  0
  151.0471  144.8358  158.6394 C   0  0  0  0  0  0  0  0  0  0  0  0
  151.5792  145.3236  159.7984 C   0  0  0  0  0  0  0  0  0  0  0  0
  152.3418  144.2342  160.3051 C   0  0  0  0  0  0  0  0  0  0  0  0
  152.2861  143.1661  159.5256 N   0  0  0  0  0  0  0  0  0  0  0  0
  149.7210  140.7115  156.8879 N   0  0  0  0  0  0  0  0  0  0  0  0
  150.1759  140.2359  155.7189 C   0  0  0  0  0  0  0  0  0  0  0  0
  151.3616  140.2706  155.3892 O   0  0  0  0  0  0  0  0  0  0  0  0
  149.1297  139.6200  154.7869 C   0  0  0  0  0  0  0  0  0  0  0  0
  148.2720  138.5468  155.4831 C   0  0  0  0  0  0  0  0  0  0  0  0
  147.1344  138.0149  154.5902 C   0  0  2  0  0  0  0  0  0  0  0  0
  147.5650  137.7499  153.2279 N   0  0  0  0  0  0  0  0  0  0  0  0
  146.8868  138.4730  152.3265 C   0  0  0  0  0  0  0  0  0  0  0  0
  147.0465  138.4421  151.1086 O   0  0  0  0  0  0  0  0  0  0  0  0
  146.0070  139.2344  152.9857 N   0  0  0  0  0  0  0  0  0  0  0  0
  146.0708  139.0598  154.3045 C   0  0  0  0  0  0  0  0  0  0  0  0
  145.3991  139.6321  155.1604 O   0  0  0  0  0  0  0  0  0  0  0  0
  152.2038  140.7161  159.2220 H   0  0  0  0  0  0  0  0  0  0  0  0
  152.2547  139.9912  157.6172 H   0  0  0  0  0  0  0  0  0  0  0  0
  151.1177  139.3931  158.8234 H   0  0  0  0  0  0  0  0  0  0  0  0
  149.9029  141.5670  158.7884 H   0  0  0  0  0  0  0  0  0  0  0  0
  152.1458  142.3645  156.9329 H   0  0  0  0  0  0  0  0  0  0  0  0
  150.5739  143.0873  156.6818 H   0  0  0  0  0  0  0  0  0  0  0  0
  150.4007  145.2998  157.9089 H   0  0  0  0  0  0  0  0  0  0  0  0
  151.4448  146.3087  160.2200 H   0  0  0  0  0  0  0  0  0  0  0  0
  152.9304  144.1884  161.2095 H   0  0  0  0  0  0  0  0  0  0  0  0
  148.7320  140.6320  157.0763 H   0  0  0  0  0  0  0  0  0  0  0  0
  148.4970  140.4241  154.4101 H   0  0  0  0  0  0  0  0  0  0  0  0
  149.6278  139.1823  153.9202 H   0  0  0  0  0  0  0  0  0  0  0  0
  148.9121  137.7122  155.7752 H   0  0  0  0  0  0  0  0  0  0  0  0
  147.8565  138.9492  156.4091 H   0  0  0  0  0  0  0  0  0  0  0  0
  146.6747  137.1233  155.0184 H   0  0  0  0  0  0  0  0  0  0  0  0
  148.2936  137.0891  153.0000 H   0  0  0  0  0  0  0  0  0  0  0  0
  145.3724  139.8773  152.5348 H   0  0  0  0  0  0  0  0  0  0  0  0
  1  2  1  0  0  0  0
  1 21  1  0  0  0  0
  1 22  1  0  0  0  0
  1 23  1  0  0  0  0
  2  3  1  0  0  0  0
  2  9  1  0  0  0  0
  2 24  1  0  0  0  0
  3  4  1  0  0  0  0
  3 25  1  0  0  0  0
  3 26  1  0  0  0  0
  4  8  1  0  0  0  0
  4  5  1  0  0  0  0
  5  6  2  0  0  0  0
  5 27  1  0  0  0  0
  6  7  1  0  0  0  0
  6 28  1  0  0  0  0
  7  8  2  0  0  0  0
  7 29  1  0  0  0  0
  9 10  1  0  0  0  0
  9 30  1  0  0  0  0
 10 11  2  0  0  0  0
 10 12  1  0  0  0  0
 12 13  1  0  0  0  0
 12 31  1  0  0  0  0
 12 32  1  0  0  0  0
 13 14  1  0  0  0  0
 13 33  1  0  0  0  0
 13 34  1  0  0  0  0
 14 19  1  0  0  0  0
 14 15  1  0  0  0  0
 14 35  1  0  0  0  0
 15 16  1  0  0  0  0
 15 36  1  0  0  0  0
 16 17  2  0  0  0  0
 16 18  1  0  0  0  0
 18 19  1  0  0  0  0
 18 37  1  0  0  0  0
 19 20  2  0  0  0  0
M  END
> <s_m_source_file>
AV-unprocessed.smi

> <i_m_source_file_index>
1196

> <i_lp_mmshare_version>
43012

> <i_f3d_flags>
0

> <s_epik_input>
bjFbY0hdW2NIXVtjSF1uMVtDSDJdW0NAQEhdKFtDSDNdKVtOSF1DKD1PKVtDSDJdW0NIMl1bQ0BASF0yW05IXUMoPU8pW05IXUMyPU8=

> <s_epik_cmdline>
J2VwaWtfcHl0aG9uJywgJy1waCcsICc3LjAnLCAnLXRuJywgJzgnLCAnLW1hJywgJzIwMCcsICctbWV0YWxfYmluZGluZycsICctaW1hZScsICc8aW5maWxlLm1hZT4nLCAnLW9tYWUnLCAnPG91dGZpbGUubWFlPic=

> <r_lp_tautomer_probability>
1

> <r_epik_Ionization_Penalty>
0.00815973

> <r_epik_Ionization_Penalty_Charging>
0

> <r_epik_Ionization_Penalty_Neutral>
0.00815973

> <r_epik_State_Penalty>
0.00583796

> <r_epik_Charging_Adjusted_Penalty>
0.00583796

> <i_epik_Tot_Q>
0

> <i_epik_Tot_abs_Q>
0

> <r_epik_Metal_State_Penalty>
0.409204

> <b_epik_Metal_Only>
0

> <s_lp_Force_Field>
OPLS_2005

> <r_lp_Energy>
16.5203

> <b_lp_Chiralities_Consistent>
1

> <s_lp_Variant>
AV-unprocessed.smi:1196-2

> <Gold.Version>
5.8.1

> <Gold.Id.Protein>
6NUR|6NUR_protein|mol2

> <Gold.PLP.Fitness>
48.7420

> <Gold.PLP.PLP>
-35.2331

> <Gold.PLP.part.hbond>
-3.9594

> <Gold.PLP.part.metal>
0.0000

> <Gold.PLP.part.buried>
-7.4266

> <Gold.PLP.part.nonpolar>
-25.7162

> <Gold.PLP.part.repulsive>
0.9641

> <Gold.PLP.ligand.clash>
0.0000

> <Gold.PLP.ligand.torsion>
0.4438

> <Gold.PLP.Chemscore.Hbond>
3.8880

> <Gold.PLP.Chemscore.CHOScore>
0.8909

> <Gold.PLP.Chemscore.Metal>
0.0000

> <Gold.Chemscore.Hbonds>
donor molecule, donor type, donor heavy atom, donor atom, acceptor molecule, acceptor atom, score
      L1  H    15    36       P1  7948  0.91
      L1  H    18    37       P1 10175  0.91
      P1  H  7954  7966       L1    17  1.00
      P1  H  7989  7998       L1    11  0.98
      L1  C     5    27       P1  8028  0.23
      L1  C     5    27       P1  8029  0.44

> <Gold.PLP.Chemscore.Internal.Correction>
0.0596

> <Gold.Rescore>
     Score         DG    S(hbond)    S(metal)    S(lipo)     H(rot)  DE(clash)    DE(int)     intcor
     16.85     -18.33       3.84        0.00      64.87       2.96       0.28       1.20       ----

> <Gold.Chemscore.Fitness>
16.8531

> <Gold.Chemscore.DG>
-18.3349

> <Gold.Chemscore.ZeroCoef>
-5.4800

> <Gold.Chemscore.Hbond>
3.8434

> <Gold.Chemscore.Metal>
0.0000

> <Gold.Chemscore.Lipo>
64.8668

> <Gold.Chemscore.Internal_Hbond>
0.0000

> <Gold.Chemscore.DEClash>
0.2819

> <Gold.Chemscore.DEInternal>
1.1999

> <Gold.Chemscore.Rot>
2.9575

> <Gold.Chemscore.Internal.Correction>
   9.000000E+99

> <Gold.Chemscore.Hbonds>
donor molecule, donor type, donor heavy atom, donor atom, acceptor molecule, acceptor atom, score
      L1  H    15    36       P1  7948  0.85
      L1  H    18    37       P1 10175  0.88
      P1  H  7954  7966       L1    17  0.99
      P1  H  7989  7998       L1    11  0.80

> <Gold.Chemscore.Hbond.Weighted>
-12.8368

> <Gold.Chemscore.Metal.Weighted>
-0.0000

> <Gold.Chemscore.Lipo.Weighted>
-7.5894

> <Gold.Chemscore.Internal_Hbond.Weighted>
0.0000

> <Gold.Chemscore.DEClash.Weighted>
0.2819

> <Gold.Chemscore.DEInternal.Weighted>
1.1999

> <Gold.Chemscore.Rot.Weighted>
7.5713

> <Gold.Chemscore.Internal.Correction.Weighted>
   9.000000E+99

> <Gold.Protein.RotatedTorsions>
[ 6907 6896 6895 6894 ] final -105.16 input  -60.11 | X-H torsion
[ 7974 7965 7964 7962 ] final  146.67 input  175.53 | X-H torsion
[ 8008 7997 7996 7995 ] final -101.47 input   59.86 | X-H torsion
[ 10167 10162 10161 10158 ] final   74.86 input  -65.29 | X-H torsion
[ 10718 10713 10712 10709 ] final -136.42 input   66.30 | X-H torsion
[ 10763 10752 10751 10750 ] final -178.43 input  -60.55 | X-H torsion
[ 11005 11000 10999 10996 ] final -130.38 input  -57.11 | X-H torsion

> <Gold.Protein.ActiveResidues>
 VAL166  LYS551  ARG553  GLY616  TRP617  ASP618  TYR619  PRO620  LYS621  CYS622 
 ASP623  PHE694  ASN695  SER759  ASP760  ASP761  ALA762  ILE779  LEU786  VAL792 
 PHE793  MET794  SER795  GLU796  ALA797  LYS798  CYS799  TRP800  GLU811  SER814 

> <Gold.Protein.RotatedAtoms>
  150.7323  134.0169  159.3687 H   0  0  0  0  0  0  0  0  0  0  0  0  # atno 6907 bound_to 6896
  151.8131  135.0672  160.0425 H   0  0  0  0  0  0  0  0  0  0  0  0  # atno 6908 bound_to 6896
  152.3058  133.5665  159.5684 H   0  0  0  0  0  0  0  0  0  0  0  0  # atno 6909 bound_to 6896
  144.8653  139.5933  143.5912 H   0  0  0  0  0  0  0  0  0  0  0  0  # atno 7974 bound_to 7965
  154.8431  140.0434  157.1554 H   0  0  0  0  0  0  0  0  0  0  0  0  # atno 8008 bound_to 7997
  154.9025  140.3002  155.5289 H   0  0  0  0  0  0  0  0  0  0  0  0  # atno 8009 bound_to 7997
  156.2993  140.2373  156.4055 H   0  0  0  0  0  0  0  0  0  0  0  0  # atno 8010 bound_to 7997
  140.0092  144.5627  150.7672 H   0  0  0  0  0  0  0  0  0  0  0  0  # atno 10167 bound_to 10162
  156.2769  130.7298  151.1283 H   0  0  0  0  0  0  0  0  0  0  0  0  # atno 10718 bound_to 10713
  154.5478  135.2810  155.1037 H   0  0  0  0  0  0  0  0  0  0  0  0  # atno 10763 bound_to 10752
  154.2494  135.6342  153.5239 H   0  0  0  0  0  0  0  0  0  0  0  0  # atno 10764 bound_to 10752
  152.9995  135.5579  154.6035 H   0  0  0  0  0  0  0  0  0  0  0  0  # atno 10765 bound_to 10752
  140.9350  134.1268  157.4201 H   0  0  0  0  0  0  0  0  0  0  0  0  # atno 11005 bound_to 11000
  146.2891  139.7087  142.9174 LP  0  0  0  0  0  0  0  0  0  0  0  0  # atno 17320 bound_to 7965
  145.4234  141.0408  143.2951 LP  0  0  0  0  0  0  0  0  0  0  0  0  # atno 17321 bound_to 7965
  140.7388  143.2783  151.3675 LP  0  0  0  0  0  0  0  0  0  0  0  0  # atno 17342 bound_to 10162
  139.6217  144.0894  152.2397 LP  0  0  0  0  0  0  0  0  0  0  0  0  # atno 17343 bound_to 10162
  157.7302  131.0618  150.5737 LP  0  0  0  0  0  0  0  0  0  0  0  0  # atno 17370 bound_to 10713
  156.5839  130.4311  149.5965 LP  0  0  0  0  0  0  0  0  0  0  0  0  # atno 17371 bound_to 10713
  139.8806  135.0018  156.6088 LP  0  0  0  0  0  0  0  0  0  0  0  0  # atno 17394 bound_to 11000
  140.7811  133.8659  155.8568 LP  0  0  0  0  0  0  0  0  0  0  0  0  # atno 17395 bound_to 11000

$$$$
