#       Name:                AV-unprocessed.smi:502
#       Creating user name   scv26
#       Creation time:       Thu Mar 26 23:20:43 2020


#       File generated by GOLD software.
#

@<TRIPOS>MOLECULE
AV-unprocessed.smi:502
    53    55     1
SMALL
NO_CHARGES


@<TRIPOS>ATOM
      1 ****        -0.2464   2.9215  -4.5995 C.3            1 S1                 0.0000
      2 ****        -0.4215   3.4762  -3.1906 C.2            1 S1                 0.0000
      3 ****         0.4439   4.1996  -2.6988 O.2            1 S1                 0.0000
      4 ****        -1.5430   3.1195  -2.5479 N.am           1 S1                 0.0000
      5 ****        -1.8972   3.5303  -1.1929 C.3            1 S1                 0.0000
      6 ****        -1.2535   2.6401  -0.1126 C.3            1 S1                 0.0000
      7 ****        -1.5761   1.1800  -0.2596 C.2            1 S1                 0.0000
      8 ****        -2.7824   0.7031   0.0513 N.2            1 S1                 0.0000
      9 ****        -2.6549  -0.6468  -0.2084 C.ar           1 S1                 0.0000
     10 ****        -3.5871  -1.7004  -0.0727 C.ar           1 S1                 0.0000
     11 ****        -3.2216  -3.0233  -0.3971 C.ar           1 S1                 0.0000
     12 ****        -1.9221  -3.3109  -0.8621 C.ar           1 S1                 0.0000
     13 ****        -0.9791  -2.2753  -1.0067 C.ar           1 S1                 0.0000
     14 ****        -1.3490  -0.9561  -0.6816 C.ar           1 S1                 0.0000
     15 ****        -0.6771   0.2628  -0.7016 N.pl3          1 S1                 0.0000
     16 ****         0.7096   0.4635  -1.0988 C.3            1 S1                 0.0000
     17 ****         1.6648   0.4034   0.1014 C.3            1 S1                 0.0000
     18 ****         1.4641  -0.8235   0.7899 O.3            1 S1                 0.0000
     19 ****         2.1473  -1.0406   1.9671 C.ar           1 S1                 0.0000
     20 ****         3.1547  -0.1747   2.4631 C.ar           1 S1                 0.0000
     21 ****         3.8133  -0.4640   3.6734 C.ar           1 S1                 0.0000
     22 ****         3.4761  -1.6189   4.4016 C.ar           1 S1                 0.0000
     23 ****         2.4780  -2.4847   3.9189 C.ar           1 S1                 0.0000
     24 ****         1.8145  -2.1991   2.7071 C.ar           1 S1                 0.0000
     25 ****         0.7345  -3.1382   2.2024 C.3            1 S1                 0.0000
     26 ****        -1.0318   3.2963  -5.2564 H              1 S1                 0.0000
     27 ****        -0.2941   1.8322  -4.5878 H              1 S1                 0.0000
     28 ****         0.7176   3.2165  -5.0155 H              1 S1                 0.0000
     29 ****        -2.1963   2.5173  -3.0280 H              1 S1                 0.0000
     30 ****        -1.6277   4.5750  -1.0299 H              1 S1                 0.0000
     31 ****        -2.9828   3.4800  -1.1066 H              1 S1                 0.0000
     32 ****        -0.1754   2.7927  -0.1011 H              1 S1                 0.0000
     33 ****        -1.6003   2.9644   0.8692 H              1 S1                 0.0000
     34 ****        -4.5844  -1.4906   0.2845 H              1 S1                 0.0000
     35 ****        -3.9410  -3.8215  -0.2875 H              1 S1                 0.0000
     36 ****        -1.6489  -4.3270  -1.1064 H              1 S1                 0.0000
     37 ****         0.0189  -2.4939  -1.3564 H              1 S1                 0.0000
     38 ****         0.9766  -0.3074  -1.8222 H              1 S1                 0.0000
     39 ****         0.8095   1.4125  -1.6222 H              1 S1                 0.0000
     40 ****         2.6954   0.4794  -0.2475 H              1 S1                 0.0000
     41 ****         1.4705   1.2445   0.7686 H              1 S1                 0.0000
     42 ****         3.4437   0.7185   1.9308 H              1 S1                 0.0000
     43 ****         4.5796   0.2016   4.0425 H              1 S1                 0.0000
     44 ****         3.9825  -1.8402   5.3296 H              1 S1                 0.0000
     45 ****         2.2230  -3.3693   4.4842 H              1 S1                 0.0000
     46 ****         0.5741  -3.9697   2.8893 H              1 S1                 0.0000
     47 ****         1.0127  -3.5484   1.2313 H              1 S1                 0.0000
     48 ****        -0.2101  -2.6046   2.0912 H              1 S1                 0.0000
     49 ****         1.2647   4.4249  -3.2236 LP             1 S1                 0.0000
     50 ****         0.3264   4.5621  -1.7742 LP             1 S1                 0.0000
     51 ****        -3.5816   1.2004   0.3890 LP             1 S1                 0.0000
     52 ****         1.7187  -1.5588   0.1618 LP             1 S1                 0.0000
     53 ****         0.4884  -0.8873   0.9996 LP             1 S1                 0.0000
@<TRIPOS>BOND
    1    1    2 1     
    2    1   26 1     
    3    1   27 1     
    4    1   28 1     
    5    2    3 2     
    6    2    4 am    
    7    4    5 1     
    8    4   29 1     
    9    5    6 1     
   10    5   30 1     
   11    5   31 1     
   12    6    7 1     
   13    6   32 1     
   14    6   33 1     
   15    7   15 1     
   16    7    8 2     
   17    8    9 1     
   18    9   14 ar    
   19    9   10 ar    
   20   10   11 ar    
   21   10   34 1     
   22   11   12 ar    
   23   11   35 1     
   24   12   13 ar    
   25   12   36 1     
   26   13   14 ar    
   27   13   37 1     
   28   14   15 1     
   29   15   16 1     
   30   16   17 1     
   31   16   38 1     
   32   16   39 1     
   33   17   18 1     
   34   17   40 1     
   35   17   41 1     
   36   18   19 1     
   37   19   24 ar    
   38   19   20 ar    
   39   20   21 ar    
   40   20   42 1     
   41   21   22 ar    
   42   21   43 1     
   43   22   23 ar    
   44   22   44 1     
   45   23   24 ar    
   46   23   45 1     
   47   24   25 1     
   48   25   46 1     
   49   25   47 1     
   50   25   48 1     
   51    3   49 1     
   52    3   50 1     
   53    8   51 1     
   54   18   52 1     
   55   18   53 1     
@<TRIPOS>SUBSTRUCTURE
      1 S1             1
@<TRIPOS>SET
LONE_PAIRS      STATIC     ATOMS    <user>   **** ""
5 49 50 51 52 53
DONOR_HYDROGENS      STATIC     ATOMS    <user>   **** ""
1 29
ATOM$BLUE        STATIC     ATOMS    COLORGROUP SYSTEM
5 49 50 51 52 53
ATOM$RED        STATIC     ATOMS    COLORGROUP SYSTEM
1 29
