AV-unprocessed.smi:1015|AV-procd|sdf|4436|dock6
  -GOLD-   22720 2393D 1   1.00000     0.00000
 Structure written by MMmdl.
 42 43  0  0  0  0  0  0  0  0  1 V2000
  152.0542  145.2617  159.1463 C   0  0  0  0  0  0  0  0  0  0  0  0
  151.9014  143.9386  159.6289 O   0  0  0  0  0  0  0  0  0  0  0  0
  152.2307  142.9615  158.6547 C   0  0  0  0  0  0  0  0  0  0  0  0
  150.9732  142.5372  157.8773 C   0  0  0  0  0  0  0  0  0  0  0  0
  151.1959  141.6006  156.7738 N   0  0  0  0  0  0  0  0  0  0  0  0
  149.9213  141.1955  156.1806 C   0  0  0  0  0  0  0  0  0  0  0  0
  150.0998  140.2773  154.9602 C   0  0  0  0  0  0  0  0  0  0  0  0
  150.9030  139.0191  155.3349 C   0  0  0  0  0  0  0  0  0  0  0  0
  151.1332  138.1117  154.1076 C   0  0  0  0  0  0  0  0  0  0  0  0
  150.4283  136.8415  154.2303 N   0  0  0  0  0  0  0  0  0  0  0  0
  150.7763  135.8422  155.0552 C   0  0  0  0  0  0  0  0  0  0  0  0
  151.6763  135.9298  155.8900 O   0  0  0  0  0  0  0  0  0  0  0  0
  150.0130  134.5295  154.8872 C   0  0  0  0  0  0  0  0  0  0  0  0
  150.0226  133.7773  156.1283 N   0  0  0  0  0  0  0  0  0  0  0  0
  149.0223  133.3408  156.8968 C   0  0  0  0  0  0  0  0  0  0  0  0
  149.4708  132.7112  157.9720 N   0  0  0  0  0  0  0  0  0  0  0  0
  150.8464  132.7806  157.8266 N   0  0  0  0  0  0  0  0  0  0  0  0
  151.1798  133.4122  156.7346 N   0  0  0  0  0  0  0  0  0  0  0  0
  152.2180  139.4471  156.0198 C   0  0  0  0  0  0  0  0  0  0  0  0
  151.9462  140.4118  157.1858 C   0  0  0  0  0  0  0  0  0  0  0  0
  151.7819  145.9702  159.9286 H   0  0  0  0  0  0  0  0  0  0  0  0
  151.4096  145.4458  158.2858 H   0  0  0  0  0  0  0  0  0  0  0  0
  153.0878  145.4586  158.8588 H   0  0  0  0  0  0  0  0  0  0  0  0
  152.9527  143.3930  157.9597 H   0  0  0  0  0  0  0  0  0  0  0  0
  152.7052  142.0928  159.1144 H   0  0  0  0  0  0  0  0  0  0  0  0
  150.2260  142.1417  158.5669 H   0  0  0  0  0  0  0  0  0  0  0  0
  150.5392  143.4481  157.4630 H   0  0  0  0  0  0  0  0  0  0  0  0
  149.3088  140.6904  156.9294 H   0  0  0  0  0  0  0  0  0  0  0  0
  149.3621  142.0797  155.8724 H   0  0  0  0  0  0  0  0  0  0  0  0
  149.1230  139.9954  154.5657 H   0  0  0  0  0  0  0  0  0  0  0  0
  150.6104  140.8237  154.1660 H   0  0  0  0  0  0  0  0  0  0  0  0
  150.3146  138.4601  156.0643 H   0  0  0  0  0  0  0  0  0  0  0  0
  150.8249  138.6204  153.1926 H   0  0  0  0  0  0  0  0  0  0  0  0
  152.1964  137.8966  153.9970 H   0  0  0  0  0  0  0  0  0  0  0  0
  149.6711  136.6784  153.5822 H   0  0  0  0  0  0  0  0  0  0  0  0
  148.9784  134.7280  154.6046 H   0  0  0  0  0  0  0  0  0  0  0  0
  150.4600  133.9312  154.0916 H   0  0  0  0  0  0  0  0  0  0  0  0
  147.9761  133.4915  156.6747 H   0  0  0  0  0  0  0  0  0  0  0  0
  152.7576  138.5768  156.3950 H   0  0  0  0  0  0  0  0  0  0  0  0
  152.8739  139.9298  155.2939 H   0  0  0  0  0  0  0  0  0  0  0  0
  152.9086  140.7023  157.6045 H   0  0  0  0  0  0  0  0  0  0  0  0
  151.4074  139.8881  157.9771 H   0  0  0  0  0  0  0  0  0  0  0  0
  1  2  1  0  0  0  0
  1 21  1  0  0  0  0
  1 22  1  0  0  0  0
  1 23  1  0  0  0  0
  2  3  1  0  0  0  0
  3  4  1  0  0  0  0
  3 24  1  0  0  0  0
  3 25  1  0  0  0  0
  4  5  1  0  0  0  0
  4 26  1  0  0  0  0
  4 27  1  0  0  0  0
  5 20  1  0  0  0  0
  5  6  1  0  0  0  0
  6  7  1  0  0  0  0
  6 28  1  0  0  0  0
  6 29  1  0  0  0  0
  7  8  1  0  0  0  0
  7 30  1  0  0  0  0
  7 31  1  0  0  0  0
  8  9  1  0  0  0  0
  8 19  1  0  0  0  0
  8 32  1  0  0  0  0
  9 10  1  0  0  0  0
  9 33  1  0  0  0  0
  9 34  1  0  0  0  0
 10 11  1  0  0  0  0
 10 35  1  0  0  0  0
 11 12  2  0  0  0  0
 11 13  1  0  0  0  0
 13 14  1  0  0  0  0
 13 36  1  0  0  0  0
 13 37  1  0  0  0  0
 14 18  1  0  0  0  0
 14 15  1  0  0  0  0
 15 16  2  0  0  0  0
 15 38  1  0  0  0  0
 16 17  1  0  0  0  0
 17 18  2  0  0  0  0
 19 20  1  0  0  0  0
 19 39  1  0  0  0  0
 19 40  1  0  0  0  0
 20 41  1  0  0  0  0
 20 42  1  0  0  0  0
M  END
> <s_m_source_file>
AV-unprocessed.smi

> <i_m_source_file_index>
1015

> <i_lp_mmshare_version>
43012

> <i_f3d_flags>
0

> <s_epik_input>
W0NIM11PW0NIMl1bQ0gyXU4xW0NIMl1bQ0gyXVtDSF0oW0NIMl1bQ0gyXTEpW0NIMl1bTkhdQyg9TylbQ0gyXW4yW2NIXW5ubjI=

> <s_epik_cmdline>
J2VwaWtfcHl0aG9uJywgJy1waCcsICc3LjAnLCAnLXRuJywgJzgnLCAnLW1hJywgJzIwMCcsICctbWV0YWxfYmluZGluZycsICctaW1hZScsICc8aW5maWxlLm1hZT4nLCAnLW9tYWUnLCAnPG91dGZpbGUubWFlPic=

> <r_lp_tautomer_probability>
1

> <r_epik_Ionization_Penalty>
2.39972

> <r_epik_Ionization_Penalty_Charging>
0

> <r_epik_Ionization_Penalty_Neutral>
2.39972

> <r_epik_State_Penalty>
2.55755

> <r_epik_Charging_Adjusted_Penalty>
2.55755

> <i_epik_Tot_Q>
0

> <i_epik_Tot_abs_Q>
0

> <r_epik_Metal_State_Penalty>
2.55755

> <b_epik_Metal_Only>
0

> <s_lp_Force_Field>
OPLS_2005

> <r_lp_Energy>
27.1713

> <b_lp_Chiralities_Consistent>
1

> <s_lp_Variant>
AV-unprocessed.smi:1015-3

> <Gold.Version>
5.8.1

> <Gold.Id.Protein>
6NUR|6NUR_protein|mol2

> <Gold.PLP.Fitness>
41.9100

> <Gold.PLP.PLP>
-35.6398

> <Gold.PLP.part.hbond>
-4.8797

> <Gold.PLP.part.metal>
0.0000

> <Gold.PLP.part.buried>
-3.5832

> <Gold.PLP.part.nonpolar>
-27.2059

> <Gold.PLP.part.repulsive>
0.1597

> <Gold.PLP.ligand.clash>
0.0000

> <Gold.PLP.ligand.torsion>
1.4064

> <Gold.PLP.Chemscore.Hbond>
3.0000

> <Gold.PLP.Chemscore.CHOScore>
0.0000

> <Gold.PLP.Chemscore.Metal>
0.0000

> <Gold.Chemscore.Hbonds>
donor molecule, donor type, donor heavy atom, donor atom, acceptor molecule, acceptor atom, score
      L1  H    10    35       P1  7948  1.00
      P1  H  6896  6908       L1    17  0.70
      P1  H 10752 10763       L1    12  1.00

> <Gold.PLP.Chemscore.Internal.Correction>
0.0831

> <Gold.Rescore>
     Score         DG    S(hbond)    S(metal)    S(lipo)     H(rot)  DE(clash)    DE(int)     intcor
     12.34     -15.35       2.45        0.00      82.62       3.12       0.12       2.89       ----

> <Gold.Chemscore.Fitness>
12.3410

> <Gold.Chemscore.DG>
-15.3517

> <Gold.Chemscore.ZeroCoef>
-5.4800

> <Gold.Chemscore.Hbond>
2.4527

> <Gold.Chemscore.Metal>
0.0000

> <Gold.Chemscore.Lipo>
82.6236

> <Gold.Chemscore.Internal_Hbond>
0.0000

> <Gold.Chemscore.DEClash>
0.1164

> <Gold.Chemscore.DEInternal>
2.8942

> <Gold.Chemscore.Rot>
3.1201

> <Gold.Chemscore.Internal.Correction>
   9.000000E+99

> <Gold.Chemscore.Hbonds>
donor molecule, donor type, donor heavy atom, donor atom, acceptor molecule, acceptor atom, score
      L1  H    10    35       P1  7948  0.58
      P1  H  6896  6908       L1    17  0.07
      P1  H 10752 10763       L1    12  0.55

> <Gold.Chemscore.Hbond.Weighted>
-8.1921

> <Gold.Chemscore.Metal.Weighted>
-0.0000

> <Gold.Chemscore.Lipo.Weighted>
-9.6670

> <Gold.Chemscore.Internal_Hbond.Weighted>
0.0000

> <Gold.Chemscore.DEClash.Weighted>
0.1164

> <Gold.Chemscore.DEInternal.Weighted>
2.8942

> <Gold.Chemscore.Rot.Weighted>
7.9874

> <Gold.Chemscore.Internal.Correction.Weighted>
   9.000000E+99

> <Gold.Protein.RotatedTorsions>
[ 6907 6896 6895 6894 ] final   97.64 input  -60.11 | X-H torsion
[ 7974 7965 7964 7962 ] final -119.23 input  175.53 | X-H torsion
[ 8008 7997 7996 7995 ] final  -84.75 input   59.86 | X-H torsion
[ 10167 10162 10161 10158 ] final  -21.80 input  -65.29 | X-H torsion
[ 10718 10713 10712 10709 ] final -101.19 input   66.30 | X-H torsion
[ 10763 10752 10751 10750 ] final   90.50 input  -60.55 | X-H torsion
[ 11005 11000 10999 10996 ] final  -44.54 input  -57.11 | X-H torsion

> <Gold.Protein.ActiveResidues>
 VAL166  LYS551  ARG553  GLY616  TRP617  ASP618  TYR619  PRO620  LYS621  CYS622 
 ASP623  PHE694  ASN695  SER759  ASP760  ASP761  ALA762  ILE779  LEU786  VAL792 
 PHE793  MET794  SER795  GLU796  ALA797  LYS798  CYS799  TRP800  GLU811  SER814 

> <Gold.Protein.RotatedAtoms>
  152.5420  134.0702  159.8190 H   0  0  0  0  0  0  0  0  0  0  0  0  # atno 6907 bound_to 6896
  151.0817  133.5377  159.2627 H   0  0  0  0  0  0  0  0  0  0  0  0  # atno 6908 bound_to 6896
  151.2202  135.0524  159.9000 H   0  0  0  0  0  0  0  0  0  0  0  0  # atno 6909 bound_to 6896
  145.0649  140.8317  143.4130 H   0  0  0  0  0  0  0  0  0  0  0  0  # atno 7974 bound_to 7965
  154.6332  140.0600  156.9758 H   0  0  0  0  0  0  0  0  0  0  0  0  # atno 8008 bound_to 7997
  155.1632  140.3284  155.4389 H   0  0  0  0  0  0  0  0  0  0  0  0  # atno 8009 bound_to 7997
  156.2494  140.1927  156.6738 H   0  0  0  0  0  0  0  0  0  0  0  0  # atno 8010 bound_to 7997
  140.7283  143.4594  151.0402 H   0  0  0  0  0  0  0  0  0  0  0  0  # atno 10167 bound_to 10162
  156.0187  130.5362  150.6927 H   0  0  0  0  0  0  0  0  0  0  0  0  # atno 10718 bound_to 10713
  153.1983  135.4431  155.0234 H   0  0  0  0  0  0  0  0  0  0  0  0  # atno 10763 bound_to 10752
  154.8132  135.3303  154.7252 H   0  0  0  0  0  0  0  0  0  0  0  0  # atno 10764 bound_to 10752
  153.7699  135.6985  153.4964 H   0  0  0  0  0  0  0  0  0  0  0  0  # atno 10765 bound_to 10752
  141.0457  133.6762  156.2886 H   0  0  0  0  0  0  0  0  0  0  0  0  # atno 11005 bound_to 11000
  145.1363  139.2600  143.5513 LP  0  0  0  0  0  0  0  0  0  0  0  0  # atno 17320 bound_to 7965
  146.3526  140.1028  142.8607 LP  0  0  0  0  0  0  0  0  0  0  0  0  # atno 17321 bound_to 7965
  139.8277  143.7734  152.3179 LP  0  0  0  0  0  0  0  0  0  0  0  0  # atno 17342 bound_to 10162
  139.7838  144.7435  151.0050 LP  0  0  0  0  0  0  0  0  0  0  0  0  # atno 17343 bound_to 10162
  157.4605  131.0882  151.0751 LP  0  0  0  0  0  0  0  0  0  0  0  0  # atno 17370 bound_to 10713
  157.1240  130.6074  149.5512 LP  0  0  0  0  0  0  0  0  0  0  0  0  # atno 17371 bound_to 10713
  140.6151  134.5418  157.5539 LP  0  0  0  0  0  0  0  0  0  0  0  0  # atno 17394 bound_to 11000
  139.9310  134.7964  156.0932 LP  0  0  0  0  0  0  0  0  0  0  0  0  # atno 17395 bound_to 11000

$$$$
