#       Name:                AV-unprocessed.smi:2702
#       Creating user name   scv26
#       Creation time:       Fri Mar 27 14:47:32 2020


#       File generated by GOLD software.
#

@<TRIPOS>MOLECULE
AV-unprocessed.smi:2702
    54    55     1
SMALL
NO_CHARGES


@<TRIPOS>ATOM
      1 ****        -7.7749  -2.4090   1.6687 C.3            1 S1                 0.0000
      2 ****        -6.3622  -2.3024   1.6645 O.3            1 S1                 0.0000
      3 ****        -5.8820  -1.4967   0.6013 C.3            1 S1                 0.0000
      4 ****        -4.3680  -1.4408   0.6215 C.2            1 S1                 0.0000
      5 ****        -3.6960  -0.3389   1.0288 C.2            1 S1                 0.0000
      6 ****        -2.2332  -0.3136   1.0257 C.2            1 S1                 0.0000
      7 ****        -1.5854   0.6675   1.3921 O.2            1 S1                 0.0000
      8 ****        -1.6392  -1.4627   0.5864 N.am           1 S1                 0.0000
      9 ****        -0.1715  -1.5906   0.5301 C.3            1 S1                 0.0000
     10 ****         0.4481  -0.8967  -0.6913 C.2            1 S1                 0.0000
     11 ****        -0.1835  -0.7964  -1.7438 O.2            1 S1                 0.0000
     12 ****         1.6966  -0.4330  -0.5288 N.am           1 S1                 0.0000
     13 ****         2.4930   0.2834  -1.5275 C.3            1 S1                 0.0000
     14 ****         3.8736  -0.3834  -1.6692 C.3            1 S1                 0.0000
     15 ****         4.7435  -0.1693  -0.4219 C.3            1 S1                 0.0000
     16 ****         4.8811   1.3243  -0.0978 C.3            1 S1                 0.0000
     17 ****         3.5111   2.0125   0.0759 C.3            1 S1                 0.0000
     18 ****         3.7162   3.5004   0.4127 C.3            1 S1                 0.0000
     19 ****         2.6234   1.7911  -1.1810 C.3            1 S1                 0.0000
     20 ****         1.2418   2.4683  -1.0730 C.3            1 S1                 0.0000
     21 ****        -2.3883  -2.5769   0.1585 C.2            1 S1                 0.0000
     22 ****        -3.6832  -2.5746   0.1728 N.2            1 S1                 0.0000
     23 ****        -8.0926  -3.0330   2.5041 H              1 S1                 0.0000
     24 ****        -8.1382  -2.8680   0.7483 H              1 S1                 0.0000
     25 ****        -8.2440  -1.4306   1.7814 H              1 S1                 0.0000
     26 ****        -6.2074  -1.9054  -0.3571 H              1 S1                 0.0000
     27 ****        -6.2926  -0.4882   0.6789 H              1 S1                 0.0000
     28 ****        -4.2379   0.5334   1.3643 H              1 S1                 0.0000
     29 ****         0.2637  -1.1755   1.4415 H              1 S1                 0.0000
     30 ****         0.1425  -2.6359   0.5199 H              1 S1                 0.0000
     31 ****         2.1296  -0.5681   0.3733 H              1 S1                 0.0000
     32 ****         2.0032   0.2048  -2.4996 H              1 S1                 0.0000
     33 ****         3.7600  -1.4498  -1.8679 H              1 S1                 0.0000
     34 ****         4.3859   0.0336  -2.5372 H              1 S1                 0.0000
     35 ****         4.3092  -0.6923   0.4309 H              1 S1                 0.0000
     36 ****         5.7297  -0.6067  -0.5798 H              1 S1                 0.0000
     37 ****         5.4753   1.4417   0.8093 H              1 S1                 0.0000
     38 ****         5.4399   1.8157  -0.8955 H              1 S1                 0.0000
     39 ****         3.0141   1.5534   0.9318 H              1 S1                 0.0000
     40 ****         4.1450   4.0428  -0.4306 H              1 S1                 0.0000
     41 ****         4.3914   3.6197   1.2606 H              1 S1                 0.0000
     42 ****         2.7799   3.9868   0.6849 H              1 S1                 0.0000
     43 ****         3.1333   2.2616  -2.0233 H              1 S1                 0.0000
     44 ****         0.7093   2.1580  -0.1734 H              1 S1                 0.0000
     45 ****         0.6167   2.2184  -1.9308 H              1 S1                 0.0000
     46 ****         1.3270   3.5544  -1.0505 H              1 S1                 0.0000
     47 ****        -1.8042  -3.4317  -0.1860 H              1 S1                 0.0000
     48 ****        -5.9717  -3.2186   1.5743 LP             1 S1                 0.0000
     49 ****        -6.0684  -1.8987   2.5309 LP             1 S1                 0.0000
     50 ****        -2.0589   1.4897   1.7079 LP             1 S1                 0.0000
     51 ****        -0.5859   0.6419   1.3737 LP             1 S1                 0.0000
     52 ****        -1.1093  -1.1689  -1.8088 LP             1 S1                 0.0000
     53 ****         0.2294  -0.3426  -2.5335 LP             1 S1                 0.0000
     54 ****        -4.1907  -3.3793  -0.1354 LP             1 S1                 0.0000
@<TRIPOS>BOND
    1    1    2 1     
    2    1   23 1     
    3    1   24 1     
    4    1   25 1     
    5    2    3 1     
    6    3    4 1     
    7    3   26 1     
    8    3   27 1     
    9    4   22 1     
   10    4    5 2     
   11    5    6 1     
   12    5   28 1     
   13    6    7 2     
   14    6    8 am    
   15    8    9 1     
   16    8   21 1     
   17    9   10 1     
   18    9   29 1     
   19    9   30 1     
   20   10   11 2     
   21   10   12 am    
   22   12   13 1     
   23   12   31 1     
   24   13   19 1     
   25   13   14 1     
   26   13   32 1     
   27   14   15 1     
   28   14   33 1     
   29   14   34 1     
   30   15   16 1     
   31   15   35 1     
   32   15   36 1     
   33   16   17 1     
   34   16   37 1     
   35   16   38 1     
   36   17   18 1     
   37   17   19 1     
   38   17   39 1     
   39   18   40 1     
   40   18   41 1     
   41   18   42 1     
   42   19   20 1     
   43   19   43 1     
   44   20   44 1     
   45   20   45 1     
   46   20   46 1     
   47   21   22 2     
   48   21   47 1     
   49    2   48 1     
   50    2   49 1     
   51    7   50 1     
   52    7   51 1     
   53   11   52 1     
   54   11   53 1     
   55   22   54 1     
@<TRIPOS>SUBSTRUCTURE
      1 S1             1
@<TRIPOS>SET
LONE_PAIRS      STATIC     ATOMS    <user>   **** ""
7 48 49 50 51 52 53 54
DONOR_HYDROGENS      STATIC     ATOMS    <user>   **** ""
1 31
ATOM$BLUE        STATIC     ATOMS    COLORGROUP SYSTEM
7 48 49 50 51 52 53 54
ATOM$RED        STATIC     ATOMS    COLORGROUP SYSTEM
1 31
