#       Name:                AV-unprocessed.smi:744
#       Creating user name   scv26
#       Creation time:       Fri Mar 27 00:56:31 2020


#       File generated by GOLD software.
#

@<TRIPOS>MOLECULE
AV-unprocessed.smi:744
    39    40     1
SMALL
NO_CHARGES


@<TRIPOS>ATOM
      1 ****        -0.0064   1.4796   0.8476 O.2            1 S1                 0.0000
      2 ****        -0.5120   0.3734   1.0385 C.2            1 S1                 0.0000
      3 ****         0.2025  -0.7538   1.1708 N.am           1 S1                 0.0000
      4 ****         1.6583  -0.8485   1.1073 C.3            1 S1                 0.0000
      5 ****         2.1427  -1.3519  -0.2683 C.3            1 S1                 0.0000
      6 ****         3.6557  -1.5826  -0.3553 C.3            1 S1                 0.0000
      7 ****         3.9922  -1.5687  -1.8542 C.3            1 S1                 0.0000
      8 ****         2.7514  -1.0187  -2.5762 C.3            1 S1                 0.0000
      9 ****         1.8391  -0.4561  -1.4808 C.3            1 S1                 0.0000
     10 ****         2.2010   0.8902  -1.2350 O.3            1 S1                 0.0000
     11 ****        -1.8306   0.1282   1.1368 N.am           1 S1                 0.0000
     12 ****        -2.9042   1.0539   1.0431 C.ar           1 S1                 0.0000
     13 ****        -4.1938   0.4916   1.1783 C.ar           1 S1                 0.0000
     14 ****        -5.3254   1.3264   1.1003 C.ar           1 S1                 0.0000
     15 ****        -5.1382   2.7043   0.8898 C.ar           1 S1                 0.0000
     16 ****        -3.8211   3.1831   0.7656 C.ar           1 S1                 0.0000
     17 ****        -2.7353   2.3846   0.8393 N.ar           1 S1                 0.0000
     18 ****        -0.2986  -1.6160   1.3270 H              1 S1                 0.0000
     19 ****         2.1286   0.1024   1.3635 H              1 S1                 0.0000
     20 ****         1.9729  -1.5527   1.8779 H              1 S1                 0.0000
     21 ****         1.6640  -2.3152  -0.4545 H              1 S1                 0.0000
     22 ****         4.1854  -0.7683   0.1414 H              1 S1                 0.0000
     23 ****         3.9589  -2.5115   0.1286 H              1 S1                 0.0000
     24 ****         4.8647  -0.9415  -2.0407 H              1 S1                 0.0000
     25 ****         4.2286  -2.5706  -2.2140 H              1 S1                 0.0000
     26 ****         3.0014  -0.2836  -3.3425 H              1 S1                 0.0000
     27 ****         2.2399  -1.8413  -3.0775 H              1 S1                 0.0000
     28 ****         0.7880  -0.4928  -1.7692 H              1 S1                 0.0000
     29 ****         1.6421   1.2314  -0.5520 H              1 S1                 0.0000
     30 ****        -2.0983  -0.8321   1.2938 H              1 S1                 0.0000
     31 ****        -4.3201  -0.5693   1.3404 H              1 S1                 0.0000
     32 ****        -6.3193   0.9157   1.2002 H              1 S1                 0.0000
     33 ****        -5.9808   3.3765   0.8252 H              1 S1                 0.0000
     34 ****        -3.6336   4.2342   0.6034 H              1 S1                 0.0000
     35 ****         0.9874   1.5708   0.7837 LP             1 S1                 0.0000
     36 ****        -0.5895   2.2869   0.7565 LP             1 S1                 0.0000
     37 ****         2.0820   1.4291  -2.0689 LP             1 S1                 0.0000
     38 ****         3.1563   0.9347  -0.9428 LP             1 S1                 0.0000
     39 ****        -1.8171   2.7693   0.7448 LP             1 S1                 0.0000
@<TRIPOS>BOND
    1    1    2 2     
    2    2    3 am    
    3    2   11 am    
    4    3    4 1     
    5    3   18 1     
    6    4    5 1     
    7    4   19 1     
    8    4   20 1     
    9    5    9 1     
   10    5    6 1     
   11    5   21 1     
   12    6    7 1     
   13    6   22 1     
   14    6   23 1     
   15    7    8 1     
   16    7   24 1     
   17    7   25 1     
   18    8    9 1     
   19    8   26 1     
   20    8   27 1     
   21    9   10 1     
   22    9   28 1     
   23   10   29 1     
   24   11   12 1     
   25   11   30 1     
   26   12   17 ar    
   27   12   13 ar    
   28   13   14 ar    
   29   13   31 1     
   30   14   15 ar    
   31   14   32 1     
   32   15   16 ar    
   33   15   33 1     
   34   16   17 ar    
   35   16   34 1     
   36    1   35 1     
   37    1   36 1     
   38   10   37 1     
   39   10   38 1     
   40   17   39 1     
@<TRIPOS>SUBSTRUCTURE
      1 S1             1
@<TRIPOS>SET
LONE_PAIRS      STATIC     ATOMS    <user>   **** ""
5 35 36 37 38 39
DONOR_HYDROGENS      STATIC     ATOMS    <user>   **** ""
3 18 29 30
ATOM$BLUE        STATIC     ATOMS    COLORGROUP SYSTEM
5 35 36 37 38 39
ATOM$RED        STATIC     ATOMS    COLORGROUP SYSTEM
3 18 29 30
