AV-unprocessed.smi:2391|AV-procd|sdf|9486|dock8
  -GOLD-   2272013113D 1   1.00000     0.00000
 Structure written by MMmdl.
 34 35  0  0  0  0  0  0  0  0  2 V2000
  150.1309  136.1158  158.8209 O   0  0  0  0  0  0  0  0  0  0  0  0
  149.1503  136.7689  158.4580 C   0  0  0  0  0  0  0  0  0  0  0  0
  148.0483  137.0351  159.1973 N   0  5  0  0  0  0  0  0  0  0  0  0
  147.8053  136.3486  160.3241 C   0  0  0  0  0  0  0  0  0  0  0  0
  147.4206  134.9904  160.2649 C   0  0  0  0  0  0  0  0  0  0  0  0
  147.1645  134.3139  161.4693 C   0  0  0  0  0  0  0  0  0  0  0  0
  147.3060  135.0467  162.6595 C   0  0  0  0  0  0  0  0  0  0  0  0
  147.6698  136.3470  162.6714 N   0  0  0  0  0  0  0  0  0  0  0  0
  147.9111  136.9830  161.5194 N   0  0  0  0  0  0  0  0  0  0  0  0
  149.1030  137.2849  157.2209 N   0  0  0  0  0  0  0  0  0  0  0  0
  150.1295  137.1777  156.1808 C   0  0  1  0  0  0  0  0  0  0  0  0
  149.7694  136.0211  155.2114 C   0  0  0  0  0  0  0  0  0  0  0  0
  148.3092  136.0188  154.7404 C   0  0  0  0  0  0  0  0  0  0  0  0
  148.0756  134.6137  154.1818 C   0  0  0  0  0  0  0  0  0  0  0  0
  149.0568  133.6963  154.9235 C   0  0  0  0  0  0  0  0  0  0  0  0
  149.9317  134.6098  155.7914 C   0  0  0  0  0  0  0  0  0  0  0  0
  150.2743  138.5516  155.4872 C   0  0  0  0  0  0  0  0  0  0  0  0
  149.0910  138.9492  155.0173 F   0  0  0  0  0  0  0  0  0  0  0  0
  150.6993  139.4781  156.3452 F   0  0  0  0  0  0  0  0  0  0  0  0
  151.1345  138.4785  154.4705 F   0  0  0  0  0  0  0  0  0  0  0  0
  147.3270  134.4788  159.3180 H   0  0  0  0  0  0  0  0  0  0  0  0
  146.8710  133.2749  161.4799 H   0  0  0  0  0  0  0  0  0  0  0  0
  147.1231  134.5846  163.6183 H   0  0  0  0  0  0  0  0  0  0  0  0
  148.2769  137.8123  156.9794 H   0  0  0  0  0  0  0  0  0  0  0  0
  151.0926  136.9480  156.6397 H   0  0  0  0  0  0  0  0  0  0  0  0
  150.4016  136.0958  154.3249 H   0  0  0  0  0  0  0  0  0  0  0  0
  147.6456  136.1884  155.5896 H   0  0  0  0  0  0  0  0  0  0  0  0
  148.1026  136.7937  154.0013 H   0  0  0  0  0  0  0  0  0  0  0  0
  147.0397  134.2964  154.3030 H   0  0  0  0  0  0  0  0  0  0  0  0
  148.2992  134.6001  153.1145 H   0  0  0  0  0  0  0  0  0  0  0  0
  148.5350  132.9600  155.5357 H   0  0  0  0  0  0  0  0  0  0  0  0
  149.6686  133.1486  154.2059 H   0  0  0  0  0  0  0  0  0  0  0  0
  150.9708  134.2798  155.8030 H   0  0  0  0  0  0  0  0  0  0  0  0
  149.5668  134.5876  156.8192 H   0  0  0  0  0  0  0  0  0  0  0  0
  1  2  2  0  0  0  0
  2  3  1  0  0  0  0
  2 10  1  0  0  0  0
  3  4  1  0  0  0  0
  4  9  1  0  0  0  0
  4  5  2  0  0  0  0
  5  6  1  0  0  0  0
  5 21  1  0  0  0  0
  6  7  2  0  0  0  0
  6 22  1  0  0  0  0
  7  8  1  0  0  0  0
  7 23  1  0  0  0  0
  8  9  2  0  0  0  0
 10 11  1  0  0  0  0
 10 24  1  0  0  0  0
 11 12  1  0  0  0  0
 11 17  1  0  0  0  0
 11 25  1  0  0  0  0
 12 16  1  0  0  0  0
 12 13  1  0  0  0  0
 12 26  1  0  0  0  0
 13 14  1  0  0  0  0
 13 27  1  0  0  0  0
 13 28  1  0  0  0  0
 14 15  1  0  0  0  0
 14 29  1  0  0  0  0
 14 30  1  0  0  0  0
 15 16  1  0  0  0  0
 15 31  1  0  0  0  0
 15 32  1  0  0  0  0
 16 33  1  0  0  0  0
 16 34  1  0  0  0  0
 17 18  1  0  0  0  0
 17 19  1  0  0  0  0
 17 20  1  0  0  0  0
M  CHG  1   3  -1
M  END
> <s_m_source_file>
AV-unprocessed.smi

> <i_m_source_file_index>
2391

> <i_lp_mmshare_version>
43012

> <i_f3d_flags>
0

> <s_epik_input>
W0NIMl0xW0NIMl1bQ0gyXVtDSDJdW0NIXTFbQ0BIXShDKEYpKEYpRilbTkhdQyg9TylbTkhdYzJbY0hdW2NIXVtjSF1ubjI=

> <s_epik_cmdline>
J2VwaWtfcHl0aG9uJywgJy1waCcsICc3LjAnLCAnLXRuJywgJzgnLCAnLW1hJywgJzIwMCcsICctbWV0YWxfYmluZGluZycsICctaW1hZScsICc8aW5maWxlLm1hZT4nLCAnLW9tYWUnLCAnPG91dGZpbGUubWFlPic=

> <r_lp_tautomer_probability>
1

> <r_epik_Ionization_Penalty>
8.90766

> <r_epik_Ionization_Penalty_Charging>
5.82661

> <r_epik_Ionization_Penalty_Neutral>
3.08106

> <r_epik_State_Penalty>
5.83894

> <r_epik_Charging_Adjusted_Penalty>
11.6655

> <i_epik_Tot_Q>
-1

> <i_epik_Tot_abs_Q>
1

> <r_epik_Metal_State_Penalty>
1.80768

> <b_epik_Metal_Only>
1

> <s_lp_Force_Field>
OPLS_2005

> <r_lp_Energy>
28.2955

> <b_lp_Chiralities_Consistent>
1

> <s_lp_Variant>
AV-unprocessed.smi:2391-6

> <Gold.Version>
5.8.1

> <Gold.Id.Protein>
6NUR|6NUR_protein|mol2

> <Gold.PLP.Fitness>
40.0107

> <Gold.PLP.PLP>
-34.0332

> <Gold.PLP.part.hbond>
-3.4244

> <Gold.PLP.part.metal>
0.0000

> <Gold.PLP.part.buried>
-5.3633

> <Gold.PLP.part.nonpolar>
-25.5632

> <Gold.PLP.part.repulsive>
0.0261

> <Gold.PLP.ligand.clash>
0.0000

> <Gold.PLP.ligand.torsion>
1.2124

> <Gold.PLP.Chemscore.Hbond>
2.6680

> <Gold.PLP.Chemscore.CHOScore>
0.0000

> <Gold.PLP.Chemscore.Metal>
0.0000

> <Gold.Chemscore.Hbonds>
donor molecule, donor type, donor heavy atom, donor atom, acceptor molecule, acceptor atom, score
      P1  H  6896  6908       L1     1  1.00
      P1  H  6931  6943       L1     9  1.00
      P1  H  6934  6947       L1     9  0.35

> <Gold.PLP.Chemscore.Internal.Correction>
0.3983

> <Gold.Rescore>
     Score         DG    S(hbond)    S(metal)    S(lipo)     H(rot)  DE(clash)    DE(int)     intcor
     14.26     -15.68       2.17        0.00      54.04       1.32       0.00       1.42       ----

> <Gold.Chemscore.Fitness>
14.2577

> <Gold.Chemscore.DG>
-15.6777

> <Gold.Chemscore.ZeroCoef>
-5.4800

> <Gold.Chemscore.Hbond>
2.1704

> <Gold.Chemscore.Metal>
0.0000

> <Gold.Chemscore.Lipo>
54.0360

> <Gold.Chemscore.Internal_Hbond>
0.0000

> <Gold.Chemscore.DEClash>
0.0048

> <Gold.Chemscore.DEInternal>
1.4152

> <Gold.Chemscore.Rot>
1.3179

> <Gold.Chemscore.Internal.Correction>
   9.000000E+99

> <Gold.Chemscore.Hbonds>
donor molecule, donor type, donor heavy atom, donor atom, acceptor molecule, acceptor atom, score
      P1  H  6896  6908       L1     1  0.99
      P1  H  6931  6943       L1     9  0.55
      P1  H  6934  6947       L1     9  0.09

> <Gold.Chemscore.Hbond.Weighted>
-7.2492

> <Gold.Chemscore.Metal.Weighted>
-0.0000

> <Gold.Chemscore.Lipo.Weighted>
-6.3222

> <Gold.Chemscore.Internal_Hbond.Weighted>
0.0000

> <Gold.Chemscore.DEClash.Weighted>
0.0048

> <Gold.Chemscore.DEInternal.Weighted>
1.4152

> <Gold.Chemscore.Rot.Weighted>
3.3737

> <Gold.Chemscore.Internal.Correction.Weighted>
   9.000000E+99

> <Gold.Protein.RotatedTorsions>
[ 6907 6896 6895 6894 ] final -160.14 input  -60.11 | X-H torsion
[ 7974 7965 7964 7962 ] final   10.61 input  175.53 | X-H torsion
[ 8008 7997 7996 7995 ] final   54.82 input   59.86 | X-H torsion
[ 10167 10162 10161 10158 ] final   89.25 input  -65.29 | X-H torsion
[ 10718 10713 10712 10709 ] final  120.76 input   66.30 | X-H torsion
[ 10763 10752 10751 10750 ] final   52.44 input  -60.55 | X-H torsion
[ 11005 11000 10999 10996 ] final  125.82 input  -57.11 | X-H torsion

> <Gold.Protein.ActiveResidues>
 VAL166  LYS551  ARG553  GLY616  TRP617  ASP618  TYR619  PRO620  LYS621  CYS622 
 ASP623  PHE694  ASN695  SER759  ASP760  ASP761  ALA762  ILE779  LEU786  VAL792 
 PHE793  MET794  SER795  GLU796  ALA797  LYS798  CYS799  TRP800  GLU811  SER814 

> <Gold.Protein.RotatedAtoms>
  151.3444  133.3949  159.2673 H   0  0  0  0  0  0  0  0  0  0  0  0  # atno 6907 bound_to 6896
  150.9851  134.9199  159.7878 H   0  0  0  0  0  0  0  0  0  0  0  0  # atno 6908 bound_to 6896
  152.5230  134.3408  159.9269 H   0  0  0  0  0  0  0  0  0  0  0  0  # atno 6909 bound_to 6896
  146.2385  139.9609  142.8458 H   0  0  0  0  0  0  0  0  0  0  0  0  # atno 7974 bound_to 7965
  155.4910  140.3471  155.4355 H   0  0  0  0  0  0  0  0  0  0  0  0  # atno 8008 bound_to 7997
  156.0977  140.1427  156.9537 H   0  0  0  0  0  0  0  0  0  0  0  0  # atno 8009 bound_to 7997
  154.4674  140.0913  156.7033 H   0  0  0  0  0  0  0  0  0  0  0  0  # atno 8010 bound_to 7997
  139.8591  144.6553  150.9079 H   0  0  0  0  0  0  0  0  0  0  0  0  # atno 10167 bound_to 10162
  157.5867  131.1069  150.8080 H   0  0  0  0  0  0  0  0  0  0  0  0  # atno 10718 bound_to 10713
  152.9789  135.5812  154.4579 H   0  0  0  0  0  0  0  0  0  0  0  0  # atno 10763 bound_to 10752
  154.4159  135.2771  155.2009 H   0  0  0  0  0  0  0  0  0  0  0  0  # atno 10764 bound_to 10752
  154.3778  135.6153  153.5828 H   0  0  0  0  0  0  0  0  0  0  0  0  # atno 10765 bound_to 10752
  139.9425  134.9634  156.8615 H   0  0  0  0  0  0  0  0  0  0  0  0  # atno 11005 bound_to 11000
  145.1772  140.9749  143.4287 LP  0  0  0  0  0  0  0  0  0  0  0  0  # atno 17320 bound_to 7965
  144.9975  139.3630  143.6184 LP  0  0  0  0  0  0  0  0  0  0  0  0  # atno 17321 bound_to 7965
  140.7777  143.3760  151.1563 LP  0  0  0  0  0  0  0  0  0  0  0  0  # atno 17342 bound_to 10162
  139.7391  143.8953  152.3044 LP  0  0  0  0  0  0  0  0  0  0  0  0  # atno 17343 bound_to 10162
  156.8512  130.5081  149.5311 LP  0  0  0  0  0  0  0  0  0  0  0  0  # atno 17370 bound_to 10713
  156.0917  130.5901  150.9744 LP  0  0  0  0  0  0  0  0  0  0  0  0  # atno 17371 bound_to 10713
  140.5916  134.0256  155.7502 LP  0  0  0  0  0  0  0  0  0  0  0  0  # atno 17394 bound_to 11000
  141.1064  133.9686  157.2988 LP  0  0  0  0  0  0  0  0  0  0  0  0  # atno 17395 bound_to 11000

$$$$
