#       Name:                AV-unprocessed.smi:1879
#       Creating user name   scv26
#       Creation time:       Fri Mar 27 09:35:42 2020


#       File generated by GOLD software.
#

@<TRIPOS>MOLECULE
AV-unprocessed.smi:1879
    52    54     1
SMALL
NO_CHARGES


@<TRIPOS>ATOM
      1 ****         0.6961   2.4250   0.1746 O.2            1 S1                 0.0000
      2 ****         0.3252   1.2610   0.3249 C.2            1 S1                 0.0000
      3 ****         1.1361   0.1922   0.3972 N.am           1 S1                 0.0000
      4 ****         2.5594   0.1528   0.3700 C.ar           1 S1                 0.0000
      5 ****         3.3677   1.2376   0.7897 C.ar           1 S1                 0.0000
      6 ****         4.7676   1.1026   0.7566 C.ar           1 S1                 0.0000
      7 ****         5.3119  -0.1153   0.3115 C.ar           1 S1                 0.0000
      8 ****         4.5568  -1.1624  -0.0781 N.ar           1 S1                 0.0000
      9 ****         3.2072  -1.0382  -0.0476 C.ar           1 S1                 0.0000
     10 ****         2.4411  -2.1458  -0.4537 N.3            1 S1                 0.0000
     11 ****         2.6482  -2.5831  -1.8244 C.3            1 S1                 0.0000
     12 ****         2.0216  -3.9770  -1.9048 C.3            1 S1                 0.0000
     13 ****         1.9934  -4.4806  -0.4565 C.3            1 S1                 0.0000
     14 ****         2.5767  -3.3333   0.3733 C.3            1 S1                 0.0000
     15 ****        -0.9608   0.8937   0.4181 N.am           1 S1                 0.0000
     16 ****        -2.1141   1.7888   0.3765 C.3            1 S1                 0.0000
     17 ****        -3.0122   1.5266   1.6010 C.3            1 S1                 0.0000
     18 ****        -4.2924   2.3760   1.5548 C.3            1 S1                 0.0000
     19 ****        -5.0639   2.1398   0.2453 C.3            1 S1                 0.0000
     20 ****        -6.2012   2.9755   0.2091 O.3            1 S1                 0.0000
     21 ****        -4.1750   2.4245  -0.9775 C.3            1 S1                 0.0000
     22 ****        -2.8918   1.5784  -0.9378 C.3            1 S1                 0.0000
     23 ****         0.6830  -0.7100   0.4136 H              1 S1                 0.0000
     24 ****         2.9423   2.1611   1.1510 H              1 S1                 0.0000
     25 ****         5.4092   1.9124   1.0706 H              1 S1                 0.0000
     26 ****         6.3819  -0.2553   0.2736 H              1 S1                 0.0000
     27 ****         2.1861  -1.8932  -2.5311 H              1 S1                 0.0000
     28 ****         3.7131  -2.6384  -2.0547 H              1 S1                 0.0000
     29 ****         1.0048  -3.9128  -2.2944 H              1 S1                 0.0000
     30 ****         2.5884  -4.6354  -2.5638 H              1 S1                 0.0000
     31 ****         0.9656  -4.6854  -0.1547 H              1 S1                 0.0000
     32 ****         2.5672  -5.3985  -0.3262 H              1 S1                 0.0000
     33 ****         3.6267  -3.5280   0.5964 H              1 S1                 0.0000
     34 ****         2.0478  -3.2135   1.3193 H              1 S1                 0.0000
     35 ****        -1.1603  -0.0895   0.5311 H              1 S1                 0.0000
     36 ****        -1.7875   2.8296   0.4176 H              1 S1                 0.0000
     37 ****        -3.2831   0.4705   1.6429 H              1 S1                 0.0000
     38 ****        -2.4632   1.7409   2.5188 H              1 S1                 0.0000
     39 ****        -4.9236   2.1378   2.4117 H              1 S1                 0.0000
     40 ****        -4.0295   3.4308   1.6470 H              1 S1                 0.0000
     41 ****        -5.4076   1.1050   0.2098 H              1 S1                 0.0000
     42 ****        -5.9140   3.8753   0.2390 H              1 S1                 0.0000
     43 ****        -4.7242   2.2186  -1.8971 H              1 S1                 0.0000
     44 ****        -3.9091   3.4824  -1.0055 H              1 S1                 0.0000
     45 ****        -2.2599   1.8309  -1.7903 H              1 S1                 0.0000
     46 ****        -3.1533   0.5249  -1.0488 H              1 S1                 0.0000
     47 ****         1.6711   2.6329   0.0959 LP             1 S1                 0.0000
     48 ****         0.0225   3.1628   0.1312 LP             1 S1                 0.0000
     49 ****         4.9839  -2.0135  -0.3834 LP             1 S1                 0.0000
     50 ****         1.5249  -1.7578  -0.3535 LP             1 S1                 0.0000
     51 ****        -6.7868   2.7822   0.9963 LP             1 S1                 0.0000
     52 ****        -6.7125   2.8127  -0.6347 LP             1 S1                 0.0000
@<TRIPOS>BOND
    1    1    2 2     
    2    2    3 am    
    3    2   15 am    
    4    3    4 1     
    5    3   23 1     
    6    4    9 ar    
    7    4    5 ar    
    8    5    6 ar    
    9    5   24 1     
   10    6    7 ar    
   11    6   25 1     
   12    7    8 ar    
   13    7   26 1     
   14    8    9 ar    
   15    9   10 1     
   16   10   14 1     
   17   10   11 1     
   18   11   12 1     
   19   11   27 1     
   20   11   28 1     
   21   12   13 1     
   22   12   29 1     
   23   12   30 1     
   24   13   14 1     
   25   13   31 1     
   26   13   32 1     
   27   14   33 1     
   28   14   34 1     
   29   15   16 1     
   30   15   35 1     
   31   16   22 1     
   32   16   17 1     
   33   16   36 1     
   34   17   18 1     
   35   17   37 1     
   36   17   38 1     
   37   18   19 1     
   38   18   39 1     
   39   18   40 1     
   40   19   20 1     
   41   19   21 1     
   42   19   41 1     
   43   20   42 1     
   44   21   22 1     
   45   21   43 1     
   46   21   44 1     
   47   22   45 1     
   48   22   46 1     
   49    1   47 1     
   50    1   48 1     
   51    8   49 1     
   52   10   50 1     
   53   20   51 1     
   54   20   52 1     
@<TRIPOS>SUBSTRUCTURE
      1 S1             1
@<TRIPOS>SET
LONE_PAIRS      STATIC     ATOMS    <user>   **** ""
6 47 48 49 50 51 52
DONOR_HYDROGENS      STATIC     ATOMS    <user>   **** ""
3 23 35 42
ATOM$BLUE        STATIC     ATOMS    COLORGROUP SYSTEM
6 47 48 49 50 51 52
ATOM$RED        STATIC     ATOMS    COLORGROUP SYSTEM
3 23 35 42
