AV-unprocessed.smi:1568|AV-procd|sdf|6310|dock8
  -GOLD-   22720 6513D 1   1.00000     0.00000
 Structure written by MMmdl.
 43 44  0  0  0  0  0  0  0  0  1 V2000
  150.6722  137.9953  154.7691 C   0  0  0  0  0  0  0  0  0  0  0  0
  149.9636  136.8562  155.2254 O   0  0  0  0  0  0  0  0  0  0  0  0
  150.6932  135.6568  155.0322 C   0  0  0  0  0  0  0  0  0  0  0  0
  150.0426  134.5314  155.8407 C   0  0  0  0  0  0  0  0  0  0  0  0
  148.9795  133.9858  155.0677 O   0  0  0  0  0  0  0  0  0  0  0  0
  149.1310  132.7294  154.5143 C   0  0  0  0  0  0  0  0  0  0  0  0
  150.3532  132.1424  154.5726 N   0  0  0  0  0  0  0  0  0  0  0  0
  150.4954  130.8996  154.0664 C   0  0  0  0  0  0  0  0  0  0  0  0
  149.4363  130.1768  153.4856 C   0  0  0  0  0  0  0  0  0  0  0  0
  148.1686  130.7847  153.4215 C   0  0  0  0  0  0  0  0  0  0  0  0
  148.0102  132.0913  153.9281 C   0  0  0  0  0  0  0  0  0  0  0  0
  146.6659  132.7566  153.8783 C   0  0  0  0  0  0  0  0  0  0  0  0
  145.9756  132.7592  154.8978 O   0  0  0  0  0  0  0  0  0  0  0  0
  146.2840  133.3430  152.7158 N   0  0  0  0  0  0  0  0  0  0  0  0
  147.0534  133.1914  151.4741 C   0  0  0  0  0  0  0  0  0  0  0  0
  146.1547  132.5631  150.3946 C   0  0  0  0  0  0  0  0  0  0  0  0
  144.8948  133.4231  150.1546 C   0  0  0  0  0  0  0  0  0  0  0  0
  143.9535  132.7582  149.1414 C   0  0  0  0  0  0  0  0  0  0  0  0
  143.6384  133.4621  148.0515 N   0  0  0  0  0  0  0  0  0  0  0  0
  143.5173  131.6250  149.3352 O   0  0  0  0  0  0  0  0  0  0  0  0
  144.1709  133.7003  151.4900 C   0  0  0  0  0  0  0  0  0  0  0  0
  145.1413  134.2561  152.5485 C   0  0  0  0  0  0  0  0  0  0  0  0
  150.0750  138.8911  154.9384 H   0  0  0  0  0  0  0  0  0  0  0  0
  150.8816  137.9273  153.7009 H   0  0  0  0  0  0  0  0  0  0  0  0
  151.6161  138.1133  155.3035 H   0  0  0  0  0  0  0  0  0  0  0  0
  150.7094  135.3939  153.9734 H   0  0  0  0  0  0  0  0  0  0  0  0
  151.7259  135.7946  155.3528 H   0  0  0  0  0  0  0  0  0  0  0  0
  150.7827  133.7618  156.0659 H   0  0  0  0  0  0  0  0  0  0  0  0
  149.6639  134.9273  156.7845 H   0  0  0  0  0  0  0  0  0  0  0  0
  151.4823  130.4657  154.1315 H   0  0  0  0  0  0  0  0  0  0  0  0
  149.5928  129.1809  153.0989 H   0  0  0  0  0  0  0  0  0  0  0  0
  147.3351  130.2567  152.9811 H   0  0  0  0  0  0  0  0  0  0  0  0
  147.4091  134.1699  151.1482 H   0  0  0  0  0  0  0  0  0  0  0  0
  147.9439  132.5742  151.5997 H   0  0  0  0  0  0  0  0  0  0  0  0
  146.7171  132.4549  149.4664 H   0  0  0  0  0  0  0  0  0  0  0  0
  145.8734  131.5554  150.7060 H   0  0  0  0  0  0  0  0  0  0  0  0
  145.2205  134.3815  149.7459 H   0  0  0  0  0  0  0  0  0  0  0  0
  143.0229  133.0671  147.3556 H   0  0  0  0  0  0  0  0  0  0  0  0
  144.0188  134.3893  147.9273 H   0  0  0  0  0  0  0  0  0  0  0  0
  143.3574  134.4097  151.3332 H   0  0  0  0  0  0  0  0  0  0  0  0
  143.7098  132.7883  151.8664 H   0  0  0  0  0  0  0  0  0  0  0  0
  144.5996  134.4528  153.4726 H   0  0  0  0  0  0  0  0  0  0  0  0
  145.5192  135.2268  152.2246 H   0  0  0  0  0  0  0  0  0  0  0  0
  1  2  1  0  0  0  0
  1 23  1  0  0  0  0
  1 24  1  0  0  0  0
  1 25  1  0  0  0  0
  2  3  1  0  0  0  0
  3  4  1  0  0  0  0
  3 26  1  0  0  0  0
  3 27  1  0  0  0  0
  4  5  1  0  0  0  0
  4 28  1  0  0  0  0
  4 29  1  0  0  0  0
  5  6  1  0  0  0  0
  6 11  1  0  0  0  0
  6  7  2  0  0  0  0
  7  8  1  0  0  0  0
  8  9  2  0  0  0  0
  8 30  1  0  0  0  0
  9 10  1  0  0  0  0
  9 31  1  0  0  0  0
 10 11  2  0  0  0  0
 10 32  1  0  0  0  0
 11 12  1  0  0  0  0
 12 13  2  0  0  0  0
 12 14  1  0  0  0  0
 14 22  1  0  0  0  0
 14 15  1  0  0  0  0
 15 16  1  0  0  0  0
 15 33  1  0  0  0  0
 15 34  1  0  0  0  0
 16 17  1  0  0  0  0
 16 35  1  0  0  0  0
 16 36  1  0  0  0  0
 17 18  1  0  0  0  0
 17 21  1  0  0  0  0
 17 37  1  0  0  0  0
 18 19  1  0  0  0  0
 18 20  2  0  0  0  0
 19 38  1  0  0  0  0
 19 39  1  0  0  0  0
 21 22  1  0  0  0  0
 21 40  1  0  0  0  0
 21 41  1  0  0  0  0
 22 42  1  0  0  0  0
 22 43  1  0  0  0  0
M  END
> <s_m_source_file>
AV-unprocessed.smi

> <i_m_source_file_index>
1568

> <i_lp_mmshare_version>
43012

> <i_f3d_flags>
0

> <s_epik_input>
W0NIM11PW0NIMl1bQ0gyXU9jMW5bY0hdW2NIXVtjSF1jMUMoPU8pTjJbQ0gyXVtDSDJdW0NIXShDKD1PKVtOSDJdKVtDSDJdW0NIMl0y

> <s_epik_cmdline>
J2VwaWtfcHl0aG9uJywgJy1waCcsICc3LjAnLCAnLXRuJywgJzgnLCAnLW1hJywgJzIwMCcsICctbWV0YWxfYmluZGluZycsICctaW1hZScsICc8aW5maWxlLm1hZT4nLCAnLW9tYWUnLCAnPG91dGZpbGUubWFlPic=

> <r_lp_tautomer_probability>
1

> <r_epik_Ionization_Penalty>
2.36279e-06

> <r_epik_Ionization_Penalty_Charging>
0

> <r_epik_Ionization_Penalty_Neutral>
2.36279e-06

> <r_epik_State_Penalty>
-0

> <r_epik_Charging_Adjusted_Penalty>
0

> <i_epik_Tot_Q>
0

> <i_epik_Tot_abs_Q>
0

> <r_epik_Metal_State_Penalty>
-0

> <b_epik_Metal_Only>
0

> <s_lp_Force_Field>
OPLS_2005

> <r_lp_Energy>
28.0257

> <b_lp_Chiralities_Consistent>
1

> <s_lp_Variant>
AV-unprocessed.smi:1568-1

> <Gold.Version>
5.8.1

> <Gold.Id.Protein>
6NUR|6NUR_protein|mol2

> <Gold.PLP.Fitness>
40.8213

> <Gold.PLP.PLP>
-35.2731

> <Gold.PLP.part.hbond>
-3.0081

> <Gold.PLP.part.metal>
0.0000

> <Gold.PLP.part.buried>
-5.4574

> <Gold.PLP.part.nonpolar>
-29.6102

> <Gold.PLP.part.repulsive>
2.4334

> <Gold.PLP.ligand.clash>
0.0000

> <Gold.PLP.ligand.torsion>
2.1523

> <Gold.PLP.Chemscore.Hbond>
2.6560

> <Gold.PLP.Chemscore.CHOScore>
0.0000

> <Gold.PLP.Chemscore.Metal>
0.0000

> <Gold.Chemscore.Hbonds>
donor molecule, donor type, donor heavy atom, donor atom, acceptor molecule, acceptor atom, score
      L1  H    19    38       P1 10195  0.59
      L1  H    19    39       P1  7921  0.34
      P1  H 10785 10796       L1    20  0.96

> <Gold.PLP.Chemscore.Internal.Correction>
1.8849

> <Gold.Rescore>
     Score         DG    S(hbond)    S(metal)    S(lipo)     H(rot)  DE(clash)    DE(int)     intcor
     13.03     -16.43       2.48        0.00      71.25       2.21       1.20       2.21       ----

> <Gold.Chemscore.Fitness>
13.0278

> <Gold.Chemscore.DG>
-16.4317

> <Gold.Chemscore.ZeroCoef>
-5.4800

> <Gold.Chemscore.Hbond>
2.4806

> <Gold.Chemscore.Metal>
0.0000

> <Gold.Chemscore.Lipo>
71.2497

> <Gold.Chemscore.Internal_Hbond>
0.0000

> <Gold.Chemscore.DEClash>
1.1983

> <Gold.Chemscore.DEInternal>
2.2056

> <Gold.Chemscore.Rot>
2.2148

> <Gold.Chemscore.Internal.Correction>
   9.000000E+99

> <Gold.Chemscore.Hbonds>
donor molecule, donor type, donor heavy atom, donor atom, acceptor molecule, acceptor atom, score
      L1  H    19    38       P1 10195  0.57
      L1  H    19    39       P1  7921  0.33
      P1  H 10785 10796       L1    20  0.92

> <Gold.Chemscore.Hbond.Weighted>
-8.2852

> <Gold.Chemscore.Metal.Weighted>
-0.0000

> <Gold.Chemscore.Lipo.Weighted>
-8.3362

> <Gold.Chemscore.Internal_Hbond.Weighted>
0.0000

> <Gold.Chemscore.DEClash.Weighted>
1.1983

> <Gold.Chemscore.DEInternal.Weighted>
2.2056

> <Gold.Chemscore.Rot.Weighted>
5.6698

> <Gold.Chemscore.Internal.Correction.Weighted>
   9.000000E+99

> <Gold.Protein.RotatedTorsions>
[ 6907 6896 6895 6894 ] final  -54.08 input  -60.11 | X-H torsion
[ 7974 7965 7964 7962 ] final  -86.30 input  175.53 | X-H torsion
[ 8008 7997 7996 7995 ] final   98.46 input   59.86 | X-H torsion
[ 10167 10162 10161 10158 ] final -117.51 input  -65.29 | X-H torsion
[ 10718 10713 10712 10709 ] final   52.31 input   66.30 | X-H torsion
[ 10763 10752 10751 10750 ] final  -25.08 input  -60.55 | X-H torsion
[ 11005 11000 10999 10996 ] final  -93.67 input  -57.11 | X-H torsion

> <Gold.Protein.ActiveResidues>
 VAL166  LYS551  ARG553  GLY616  TRP617  ASP618  TYR619  PRO620  LYS621  CYS622 
 ASP623  PHE694  ASN695  SER759  ASP760  ASP761  ALA762  ILE779  LEU786  VAL792 
 PHE793  MET794  SER795  GLU796  ALA797  LYS798  CYS799  TRP800  GLU811  SER814 

> <Gold.Protein.RotatedAtoms>
  150.8370  134.7647  159.6900 H   0  0  0  0  0  0  0  0  0  0  0  0  # atno 6907 bound_to 6896
  152.4465  134.5481  159.9868 H   0  0  0  0  0  0  0  0  0  0  0  0  # atno 6908 bound_to 6896
  151.5629  133.3363  159.3010 H   0  0  0  0  0  0  0  0  0  0  0  0  # atno 6909 bound_to 6896
  145.4818  140.9556  143.1860 H   0  0  0  0  0  0  0  0  0  0  0  0  # atno 7974 bound_to 7965
  156.1006  140.3243  155.7937 H   0  0  0  0  0  0  0  0  0  0  0  0  # atno 8008 bound_to 7997
  155.4843  140.0556  157.2980 H   0  0  0  0  0  0  0  0  0  0  0  0  # atno 8009 bound_to 7997
  154.4694  140.2004  156.0048 H   0  0  0  0  0  0  0  0  0  0  0  0  # atno 8010 bound_to 7997
  140.0675  143.4908  152.1998 H   0  0  0  0  0  0  0  0  0  0  0  0  # atno 10167 bound_to 10162
  157.5063  130.8471  149.8378 H   0  0  0  0  0  0  0  0  0  0  0  0  # atno 10718 bound_to 10713
  153.6941  135.6960  153.5081 H   0  0  0  0  0  0  0  0  0  0  0  0  # atno 10763 bound_to 10752
  153.2391  135.4312  155.0677 H   0  0  0  0  0  0  0  0  0  0  0  0  # atno 10764 bound_to 10752
  154.8364  135.3503  154.6482 H   0  0  0  0  0  0  0  0  0  0  0  0  # atno 10765 bound_to 10752
  141.1491  133.7903  157.0191 H   0  0  0  0  0  0  0  0  0  0  0  0  # atno 11005 bound_to 11000
  144.7884  139.6378  143.7124 LP  0  0  0  0  0  0  0  0  0  0  0  0  # atno 17320 bound_to 7965
  146.2336  139.5862  142.9538 LP  0  0  0  0  0  0  0  0  0  0  0  0  # atno 17321 bound_to 7965
  139.5856  144.7529  151.3529 LP  0  0  0  0  0  0  0  0  0  0  0  0  # atno 17342 bound_to 10162
  140.7142  143.7312  150.7623 LP  0  0  0  0  0  0  0  0  0  0  0  0  # atno 17343 bound_to 10162
  156.0260  130.3779  150.1822 LP  0  0  0  0  0  0  0  0  0  0  0  0  # atno 17370 bound_to 10713
  157.0011  130.9922  151.3390 LP  0  0  0  0  0  0  0  0  0  0  0  0  # atno 17371 bound_to 10713
  140.0827  134.9638  157.1650 LP  0  0  0  0  0  0  0  0  0  0  0  0  # atno 17394 bound_to 11000
  140.3554  134.2553  155.7193 LP  0  0  0  0  0  0  0  0  0  0  0  0  # atno 17395 bound_to 11000

$$$$
