AV-unprocessed.smi:2504|AV-procd|sdf|9849|dock2
  -GOLD-   2272013473D 1   1.00000     0.00000
 Structure written by MMmdl.
 46 48  0  0  0  0  0  0  0  0  1 V2000
  150.3142  141.3089  156.0480 O   0  0  0  0  0  0  0  0  0  0  0  0
  151.1303  141.1683  156.9596 C   0  0  0  0  0  0  0  0  0  0  0  0
  151.0010  141.9655  158.2754 C   0  0  0  0  0  0  0  0  0  0  0  0
  149.7669  142.8914  158.3306 C   0  0  0  0  0  0  0  0  0  0  0  0
  150.2006  144.0829  159.1808 C   0  0  0  0  0  0  0  0  0  0  0  0
  151.6586  144.2949  158.7870 C   0  0  0  0  0  0  0  0  0  0  0  0
  152.2136  142.8847  158.5606 C   0  0  0  0  0  0  0  0  0  0  0  0
  152.1393  140.2030  156.8834 N   0  0  0  0  0  0  0  0  0  0  0  0
  152.5164  139.3925  158.0321 C   0  0  0  0  0  0  0  0  0  0  0  0
  152.9272  138.3338  156.9996 C   0  0  0  0  0  0  0  0  0  0  0  0
  152.3534  136.6196  157.3794 S   0  0  0  0  0  0  0  0  0  0  0  0
  153.4784  135.6815  157.2416 O   0  0  0  0  0  0  0  0  0  0  0  0
  151.5674  136.6439  158.6223 O   0  0  0  0  0  0  0  0  0  0  0  0
  151.2587  136.3107  156.0864 N   0  0  0  0  0  0  0  0  0  0  0  0
  150.5713  135.0203  156.0592 C   0  0  0  0  0  0  0  0  0  0  0  0
  149.5506  134.9731  154.9118 C   0  0  0  0  0  0  0  0  0  0  0  0
  149.2405  133.5591  154.4533 C   0  0  0  0  0  0  0  0  0  0  0  0
  149.8113  132.4466  155.1052 C   0  0  0  0  0  0  0  0  0  0  0  0
  149.4875  131.1538  154.6505 C   0  0  0  0  0  0  0  0  0  0  0  0
  148.6037  131.0283  153.5600 C   0  0  0  0  0  0  0  0  0  0  0  0
  148.0521  132.0862  152.9270 N   0  0  0  0  0  0  0  0  0  0  0  0
  148.3698  133.3224  153.3680 C   0  0  0  0  0  0  0  0  0  0  0  0
  152.0249  139.0571  155.9933 C   0  0  0  0  0  0  0  0  0  0  0  0
  150.9122  141.2511  159.0948 H   0  0  0  0  0  0  0  0  0  0  0  0
  149.4917  143.2551  157.3393 H   0  0  0  0  0  0  0  0  0  0  0  0
  148.8939  142.3903  158.7502 H   0  0  0  0  0  0  0  0  0  0  0  0
  149.5861  144.9675  159.0107 H   0  0  0  0  0  0  0  0  0  0  0  0
  150.1361  143.8271  160.2394 H   0  0  0  0  0  0  0  0  0  0  0  0
  151.7053  144.8605  157.8554 H   0  0  0  0  0  0  0  0  0  0  0  0
  152.2193  144.8497  159.5401 H   0  0  0  0  0  0  0  0  0  0  0  0
  152.7259  142.5398  159.4595 H   0  0  0  0  0  0  0  0  0  0  0  0
  152.9534  142.8932  157.7586 H   0  0  0  0  0  0  0  0  0  0  0  0
  153.3455  139.7998  158.6111 H   0  0  0  0  0  0  0  0  0  0  0  0
  151.6683  139.1100  158.6576 H   0  0  0  0  0  0  0  0  0  0  0  0
  153.9830  138.3580  156.7243 H   0  0  0  0  0  0  0  0  0  0  0  0
  150.5913  137.0756  155.9868 H   0  0  0  0  0  0  0  0  0  0  0  0
  151.3080  134.2258  155.9370 H   0  0  0  0  0  0  0  0  0  0  0  0
  150.0772  134.8570  157.0177 H   0  0  0  0  0  0  0  0  0  0  0  0
  148.6264  135.4676  155.2145 H   0  0  0  0  0  0  0  0  0  0  0  0
  149.9321  135.5389  154.0611 H   0  0  0  0  0  0  0  0  0  0  0  0
  150.4834  132.5807  155.9402 H   0  0  0  0  0  0  0  0  0  0  0  0
  149.9056  130.2790  155.1260 H   0  0  0  0  0  0  0  0  0  0  0  0
  148.3328  130.0520  153.1862 H   0  0  0  0  0  0  0  0  0  0  0  0
  147.9084  134.1464  152.8435 H   0  0  0  0  0  0  0  0  0  0  0  0
  151.0140  138.6475  155.9382 H   0  0  0  0  0  0  0  0  0  0  0  0
  152.4715  139.2104  155.0106 H   0  0  0  0  0  0  0  0  0  0  0  0
  1  2  2  0  0  0  0
  2  3  1  0  0  0  0
  2  8  1  0  0  0  0
  3  7  1  0  0  0  0
  3  4  1  0  0  0  0
  3 24  1  0  0  0  0
  4  5  1  0  0  0  0
  4 25  1  0  0  0  0
  4 26  1  0  0  0  0
  5  6  1  0  0  0  0
  5 27  1  0  0  0  0
  5 28  1  0  0  0  0
  6  7  1  0  0  0  0
  6 29  1  0  0  0  0
  6 30  1  0  0  0  0
  7 31  1  0  0  0  0
  7 32  1  0  0  0  0
  8 23  1  0  0  0  0
  8  9  1  0  0  0  0
  9 10  1  0  0  0  0
  9 33  1  0  0  0  0
  9 34  1  0  0  0  0
 10 11  1  0  0  0  0
 10 23  1  0  0  0  0
 10 35  1  0  0  0  0
 11 12  2  0  0  0  0
 11 13  2  0  0  0  0
 11 14  1  0  0  0  0
 14 15  1  0  0  0  0
 14 36  1  0  0  0  0
 15 16  1  0  0  0  0
 15 37  1  0  0  0  0
 15 38  1  0  0  0  0
 16 17  1  0  0  0  0
 16 39  1  0  0  0  0
 16 40  1  0  0  0  0
 17 22  1  0  0  0  0
 17 18  2  0  0  0  0
 18 19  1  0  0  0  0
 18 41  1  0  0  0  0
 19 20  2  0  0  0  0
 19 42  1  0  0  0  0
 20 21  1  0  0  0  0
 20 43  1  0  0  0  0
 21 22  2  0  0  0  0
 22 44  1  0  0  0  0
 23 45  1  0  0  0  0
 23 46  1  0  0  0  0
M  END
> <s_m_source_file>
AV-unprocessed.smi

> <i_m_source_file_index>
2504

> <i_lp_mmshare_version>
43012

> <i_f3d_flags>
0

> <s_epik_input>
W0NIMl0xW0NIMl1bQ0gyXVtDSDJdW0NIXTFDKD1PKU4yW0NIMl1bQ0hdKFtDSDJdMilTKD1PKSg9TylbTkhdW0NIMl1bQ0gyXWMzW2NIXVtjSF1bY0hdbltjSF0z

> <s_epik_cmdline>
J2VwaWtfcHl0aG9uJywgJy1waCcsICc3LjAnLCAnLXRuJywgJzgnLCAnLW1hJywgJzIwMCcsICctbWV0YWxfYmluZGluZycsICctaW1hZScsICc8aW5maWxlLm1hZT4nLCAnLW9tYWUnLCAnPG91dGZpbGUubWFlPic=

> <r_epik_Ionization_Penalty>
0.0107611

> <r_epik_Ionization_Penalty_Charging>
0

> <r_epik_Ionization_Penalty_Neutral>
0.0107611

> <r_epik_State_Penalty>
0.00821942

> <r_epik_Charging_Adjusted_Penalty>
0.00821942

> <i_epik_Tot_Q>
0

> <i_epik_Tot_abs_Q>
0

> <r_epik_Metal_State_Penalty>
0.0376733

> <b_epik_Metal_Only>
0

> <s_lp_Force_Field>
OPLS_2005

> <r_lp_Energy>
34.3459

> <b_lp_Chiralities_Consistent>
1

> <s_lp_Variant>
AV-unprocessed.smi:2504-1

> <Gold.Version>
5.8.1

> <Gold.Id.Protein>
6NUR|6NUR_protein|mol2

> <Gold.PLP.Fitness>
46.7950

> <Gold.PLP.PLP>
-38.7395

> <Gold.PLP.part.hbond>
-2.1677

> <Gold.PLP.part.metal>
0.0000

> <Gold.PLP.part.buried>
-4.2140

> <Gold.PLP.part.nonpolar>
-33.0325

> <Gold.PLP.part.repulsive>
0.8304

> <Gold.PLP.ligand.clash>
0.0000

> <Gold.PLP.ligand.torsion>
1.0196

> <Gold.PLP.Chemscore.Hbond>
1.7680

> <Gold.PLP.Chemscore.CHOScore>
0.9989

> <Gold.PLP.Chemscore.Metal>
0.0000

> <Gold.Chemscore.Hbonds>
donor molecule, donor type, donor heavy atom, donor atom, acceptor molecule, acceptor atom, score
      P1  H  6896  6907       L1    13  0.75
      P1  H 10752 10764       L1    12  1.00
      L1  C    22    44       P1  7948  0.98

> <Gold.PLP.Chemscore.Internal.Correction>
1.7940

> <Gold.Rescore>
     Score         DG    S(hbond)    S(metal)    S(lipo)     H(rot)  DE(clash)    DE(int)     intcor
     16.64     -17.80       1.77        0.00      95.20       1.85       0.13       1.03       ----

> <Gold.Chemscore.Fitness>
16.6440

> <Gold.Chemscore.DG>
-17.7998

> <Gold.Chemscore.ZeroCoef>
-5.4800

> <Gold.Chemscore.Hbond>
1.7713

> <Gold.Chemscore.Metal>
0.0000

> <Gold.Chemscore.Lipo>
95.1999

> <Gold.Chemscore.Internal_Hbond>
0.0000

> <Gold.Chemscore.DEClash>
0.1252

> <Gold.Chemscore.DEInternal>
1.0307

> <Gold.Chemscore.Rot>
1.8494

> <Gold.Chemscore.Internal.Correction>
   9.000000E+99

> <Gold.Chemscore.Hbonds>
donor molecule, donor type, donor heavy atom, donor atom, acceptor molecule, acceptor atom, score
      P1  H  6896  6907       L1    13  0.74
      P1  H 10752 10764       L1    12  0.78

> <Gold.Chemscore.Hbond.Weighted>
-5.9160

> <Gold.Chemscore.Metal.Weighted>
-0.0000

> <Gold.Chemscore.Lipo.Weighted>
-11.1384

> <Gold.Chemscore.Internal_Hbond.Weighted>
0.0000

> <Gold.Chemscore.DEClash.Weighted>
0.1252

> <Gold.Chemscore.DEInternal.Weighted>
1.0307

> <Gold.Chemscore.Rot.Weighted>
4.7346

> <Gold.Chemscore.Internal.Correction.Weighted>
   9.000000E+99

> <Gold.Protein.RotatedTorsions>
[ 6907 6896 6895 6894 ] final  -11.07 input  -60.11 | X-H torsion
[ 7974 7965 7964 7962 ] final  140.76 input  175.53 | X-H torsion
[ 8008 7997 7996 7995 ] final   63.84 input   59.86 | X-H torsion
[ 10167 10162 10161 10158 ] final   52.95 input  -65.29 | X-H torsion
[ 10718 10713 10712 10709 ] final -119.48 input   66.30 | X-H torsion
[ 10763 10752 10751 10750 ] final   18.15 input  -60.55 | X-H torsion
[ 11005 11000 10999 10996 ] final   29.93 input  -57.11 | X-H torsion

> <Gold.Protein.ActiveResidues>
 VAL166  LYS551  ARG553  GLY616  TRP617  ASP618  TYR619  PRO620  LYS621  CYS622 
 ASP623  PHE694  ASN695  SER759  ASP760  ASP761  ALA762  ILE779  LEU786  VAL792 
 PHE793  MET794  SER795  GLU796  ALA797  LYS798  CYS799  TRP800  GLU811  SER814 

> <Gold.Protein.RotatedAtoms>
  151.3920  135.0957  159.9528 H   0  0  0  0  0  0  0  0  0  0  0  0  # atno 6907 bound_to 6896
  152.5077  133.8970  159.7432 H   0  0  0  0  0  0  0  0  0  0  0  0  # atno 6908 bound_to 6896
  150.9426  133.6583  159.2816 H   0  0  0  0  0  0  0  0  0  0  0  0  # atno 6909 bound_to 6896
  144.9157  139.5234  143.5687 H   0  0  0  0  0  0  0  0  0  0  0  0  # atno 7974 bound_to 7965
  155.6366  140.3496  155.4701 H   0  0  0  0  0  0  0  0  0  0  0  0  # atno 8008 bound_to 7997
  155.9960  140.1203  157.0617 H   0  0  0  0  0  0  0  0  0  0  0  0  # atno 8009 bound_to 7997
  154.4233  140.1110  156.5616 H   0  0  0  0  0  0  0  0  0  0  0  0  # atno 8010 bound_to 7997
  140.2459  144.3533  150.6364 H   0  0  0  0  0  0  0  0  0  0  0  0  # atno 10167 bound_to 10162
  156.1184  130.6304  150.9421 H   0  0  0  0  0  0  0  0  0  0  0  0  # atno 10718 bound_to 10713
  153.1274  135.6733  153.9234 H   0  0  0  0  0  0  0  0  0  0  0  0  # atno 10763 bound_to 10752
  153.8731  135.3067  155.3444 H   0  0  0  0  0  0  0  0  0  0  0  0  # atno 10764 bound_to 10752
  154.7677  135.4955  153.9668 H   0  0  0  0  0  0  0  0  0  0  0  0  # atno 10765 bound_to 10752
  140.2997  134.2770  155.7756 H   0  0  0  0  0  0  0  0  0  0  0  0  # atno 11005 bound_to 11000
  146.3180  139.7998  142.8968 LP  0  0  0  0  0  0  0  0  0  0  0  0  # atno 17320 bound_to 7965
  145.3380  141.0281  143.3409 LP  0  0  0  0  0  0  0  0  0  0  0  0  # atno 17321 bound_to 7965
  140.6078  143.2168  151.6946 LP  0  0  0  0  0  0  0  0  0  0  0  0  # atno 17342 bound_to 10162
  139.5062  144.3690  152.0488 LP  0  0  0  0  0  0  0  0  0  0  0  0  # atno 17343 bound_to 10162
  157.6368  131.0915  150.8333 LP  0  0  0  0  0  0  0  0  0  0  0  0  # atno 17370 bound_to 10713
  156.8433  130.5055  149.5319 LP  0  0  0  0  0  0  0  0  0  0  0  0  # atno 17371 bound_to 10713
  141.2130  133.7638  156.9749 LP  0  0  0  0  0  0  0  0  0  0  0  0  # atno 17394 bound_to 11000
  140.1120  134.9471  157.2079 LP  0  0  0  0  0  0  0  0  0  0  0  0  # atno 17395 bound_to 11000

$$$$
