AV-unprocessed.smi:2523|AV-procd|sdf|9920|dock3
  -GOLD-   2272013553D 1   1.00000     0.00000
 Structure written by MMmdl.
 34 36  0  0  0  0  0  0  0  0  1 V2000
  149.6545  135.6628  158.4749 C   0  0  0  0  0  0  0  0  0  0  0  0
  149.8724  136.5399  157.3269 N   0  0  0  0  0  0  0  0  0  0  0  0
  149.8970  135.8888  156.0880 N   0  0  0  0  0  0  0  0  0  0  0  0
  150.0839  136.5450  154.9858 C   0  0  0  0  0  0  0  0  0  0  0  0
  150.2706  137.9904  155.0656 C   0  0  0  0  0  0  0  0  0  0  0  0
  150.5003  139.0306  154.1237 C   0  0  0  0  0  0  0  0  0  0  0  0
  150.6095  140.2208  154.7109 N   0  0  0  0  0  0  0  0  0  0  0  0
  150.4538  139.9924  156.0405 N   0  0  0  0  0  0  0  0  0  0  0  0
  150.5286  141.1065  156.9732 C   0  0  0  0  0  0  0  0  0  0  0  0
  151.9742  141.5910  157.2071 C   0  0  2  0  0  0  0  0  0  0  0  0
  152.8234  140.4912  157.4742 O   0  0  0  0  0  0  0  0  0  0  0  0
  152.0362  142.6348  158.3106 C   0  0  0  0  0  0  0  0  0  0  0  0
  151.6022  143.9549  158.0631 C   0  0  0  0  0  0  0  0  0  0  0  0
  151.6551  144.9221  159.0856 C   0  0  0  0  0  0  0  0  0  0  0  0
  152.1389  144.5745  160.3613 C   0  0  0  0  0  0  0  0  0  0  0  0
  152.5706  143.2582  160.6152 C   0  0  0  0  0  0  0  0  0  0  0  0
  153.1608  142.8298  162.1788 Cl  0  0  0  0  0  0  0  0  0  0  0  0
  152.5198  142.2911  159.5922 C   0  0  0  0  0  0  0  0  0  0  0  0
  150.2490  138.6433  156.2538 C   0  0  0  0  0  0  0  0  0  0  0  0
  150.0348  137.8850  157.5102 C   0  0  0  0  0  0  0  0  0  0  0  0
  150.0098  138.4382  158.6095 O   0  0  0  0  0  0  0  0  0  0  0  0
  148.7550  135.9566  159.0176 H   0  0  0  0  0  0  0  0  0  0  0  0
  150.5003  135.7134  159.1621 H   0  0  0  0  0  0  0  0  0  0  0  0
  149.5333  134.6203  158.1762 H   0  0  0  0  0  0  0  0  0  0  0  0
  150.1027  136.0364  154.0221 H   0  0  0  0  0  0  0  0  0  0  0  0
  150.5926  138.9639  153.0498 H   0  0  0  0  0  0  0  0  0  0  0  0
  149.9253  141.9244  156.5761 H   0  0  0  0  0  0  0  0  0  0  0  0
  150.0576  140.8175  157.9121 H   0  0  0  0  0  0  0  0  0  0  0  0
  152.3388  142.0449  156.2845 H   0  0  0  0  0  0  0  0  0  0  0  0
  152.4047  139.7059  157.1567 H   0  0  0  0  0  0  0  0  0  0  0  0
  151.2269  144.2314  157.0886 H   0  0  0  0  0  0  0  0  0  0  0  0
  151.3234  145.9314  158.8916 H   0  0  0  0  0  0  0  0  0  0  0  0
  152.1770  145.3177  161.1442 H   0  0  0  0  0  0  0  0  0  0  0  0
  152.8504  141.2822  159.7927 H   0  0  0  0  0  0  0  0  0  0  0  0
  1  2  1  0  0  0  0
  1 22  1  0  0  0  0
  1 23  1  0  0  0  0
  1 24  1  0  0  0  0
  2 20  1  0  0  0  0
  2  3  1  0  0  0  0
  3  4  2  0  0  0  0
  4  5  1  0  0  0  0
  4 25  1  0  0  0  0
  5 19  2  0  0  0  0
  5  6  1  0  0  0  0
  6  7  2  0  0  0  0
  6 26  1  0  0  0  0
  7  8  1  0  0  0  0
  8  9  1  0  0  0  0
  8 19  1  0  0  0  0
  9 10  1  0  0  0  0
  9 27  1  0  0  0  0
  9 28  1  0  0  0  0
 10 11  1  0  0  0  0
 10 12  1  0  0  0  0
 10 29  1  0  0  0  0
 11 30  1  0  0  0  0
 12 18  1  0  0  0  0
 12 13  2  0  0  0  0
 13 14  1  0  0  0  0
 13 31  1  0  0  0  0
 14 15  2  0  0  0  0
 14 32  1  0  0  0  0
 15 16  1  0  0  0  0
 15 33  1  0  0  0  0
 16 17  1  0  0  0  0
 16 18  2  0  0  0  0
 18 34  1  0  0  0  0
 19 20  1  0  0  0  0
 20 21  2  0  0  0  0
M  END
> <s_m_source_file>
AV-unprocessed.smi

> <i_m_source_file_index>
2523

> <i_lp_mmshare_version>
43012

> <i_f3d_flags>
0

> <s_epik_input>
W2NIXTFubihbQ0gzXSljKD1PKWMoYzEyKW4obltjSF0yKVtDSDJdW0NASF0oW09IXSljM1tjSF1bY0hdW2NIXWMoQ2wpW2NIXTM=

> <s_epik_cmdline>
J2VwaWtfcHl0aG9uJywgJy1waCcsICc3LjAnLCAnLXRuJywgJzgnLCAnLW1hJywgJzIwMCcsICctbWV0YWxfYmluZGluZycsICctaW1hZScsICc8aW5maWxlLm1hZT4nLCAnLW9tYWUnLCAnPG91dGZpbGUubWFlPic=

> <r_lp_tautomer_probability>
1

> <r_epik_Ionization_Penalty>
8.52698e-06

> <r_epik_Ionization_Penalty_Charging>
1.65421e-10

> <r_epik_Ionization_Penalty_Neutral>
8.52681e-06

> <r_epik_State_Penalty>
-0

> <r_epik_Charging_Adjusted_Penalty>
1.65421e-10

> <i_epik_Tot_Q>
0

> <i_epik_Tot_abs_Q>
0

> <r_epik_Metal_State_Penalty>
-0

> <b_epik_Metal_Only>
0

> <s_lp_Force_Field>
OPLS_2005

> <r_lp_Energy>
27.0285

> <b_lp_Chiralities_Consistent>
1

> <s_lp_Variant>
AV-unprocessed.smi:2523-1

> <Gold.Version>
5.8.1

> <Gold.Id.Protein>
6NUR|6NUR_protein|mol2

> <Gold.PLP.Fitness>
49.8433

> <Gold.PLP.PLP>
-39.4998

> <Gold.PLP.part.hbond>
-2.0695

> <Gold.PLP.part.metal>
0.0000

> <Gold.PLP.part.buried>
-6.0060

> <Gold.PLP.part.nonpolar>
-30.9548

> <Gold.PLP.part.repulsive>
0.1012

> <Gold.PLP.ligand.clash>
0.0000

> <Gold.PLP.ligand.torsion>
0.7201

> <Gold.PLP.Chemscore.Hbond>
1.9204

> <Gold.PLP.Chemscore.CHOScore>
2.0000

> <Gold.PLP.Chemscore.Metal>
0.0000

> <Gold.Chemscore.Hbonds>
donor molecule, donor type, donor heavy atom, donor atom, acceptor molecule, acceptor atom, score
      P1  H  7989  7998       L1     7  0.70
      P1  H  7997  8008       L1    11  0.65
      L1  C     4    25       P1  7948  0.76
      L1  C     4    25       P1  7949  0.01
      L1  C     6    26       P1  7957  1.00

> <Gold.PLP.Chemscore.Internal.Correction>
0.0226

> <Gold.Rescore>
     Score         DG    S(hbond)    S(metal)    S(lipo)     H(rot)  DE(clash)    DE(int)     intcor
     18.11     -18.82       1.59        0.00     110.73       1.93       0.24       0.46       ----

> <Gold.Chemscore.Fitness>
18.1148

> <Gold.Chemscore.DG>
-18.8181

> <Gold.Chemscore.ZeroCoef>
-5.4800

> <Gold.Chemscore.Hbond>
1.5912

> <Gold.Chemscore.Metal>
0.0000

> <Gold.Chemscore.Lipo>
110.7295

> <Gold.Chemscore.Internal_Hbond>
0.0000

> <Gold.Chemscore.DEClash>
0.2390

> <Gold.Chemscore.DEInternal>
0.4642

> <Gold.Chemscore.Rot>
1.9265

> <Gold.Chemscore.Internal.Correction>
   9.000000E+99

> <Gold.Chemscore.Hbonds>
donor molecule, donor type, donor heavy atom, donor atom, acceptor molecule, acceptor atom, score
      P1  H  7989  7998       L1     7  0.07
      P1  H  7997  8008       L1    11  0.10

> <Gold.Chemscore.Hbond.Weighted>
-5.3145

> <Gold.Chemscore.Metal.Weighted>
-0.0000

> <Gold.Chemscore.Lipo.Weighted>
-12.9554

> <Gold.Chemscore.Internal_Hbond.Weighted>
0.0000

> <Gold.Chemscore.DEClash.Weighted>
0.2390

> <Gold.Chemscore.DEInternal.Weighted>
0.4642

> <Gold.Chemscore.Rot.Weighted>
4.9317

> <Gold.Chemscore.Internal.Correction.Weighted>
   9.000000E+99

> <Gold.Protein.RotatedTorsions>
[ 6907 6896 6895 6894 ] final   37.52 input  -60.11 | X-H torsion
[ 7974 7965 7964 7962 ] final -156.91 input  175.53 | X-H torsion
[ 8008 7997 7996 7995 ] final  -72.05 input   59.86 | X-H torsion
[ 10167 10162 10161 10158 ] final   75.83 input  -65.29 | X-H torsion
[ 10718 10713 10712 10709 ] final   92.51 input   66.30 | X-H torsion
[ 10763 10752 10751 10750 ] final    7.16 input  -60.55 | X-H torsion
[ 11005 11000 10999 10996 ] final   32.28 input  -57.11 | X-H torsion

> <Gold.Protein.ActiveResidues>
 VAL166  LYS551  ARG553  GLY616  TRP617  ASP618  TYR619  PRO620  LYS621  CYS622 
 ASP623  PHE694  ASN695  SER759  ASP760  ASP761  ALA762  ILE779  LEU786  VAL792 
 PHE793  MET794  SER795  GLU796  ALA797  LYS798  CYS799  TRP800  GLU811  SER814 

> <Gold.Protein.RotatedAtoms>
  152.1442  134.9039  160.0551 H   0  0  0  0  0  0  0  0  0  0  0  0  # atno 6907 bound_to 6896
  152.0095  133.3851  159.4222 H   0  0  0  0  0  0  0  0  0  0  0  0  # atno 6908 bound_to 6896
  150.6868  134.3667  159.5018 H   0  0  0  0  0  0  0  0  0  0  0  0  # atno 6909 bound_to 6896
  144.7571  140.4043  143.6004 H   0  0  0  0  0  0  0  0  0  0  0  0  # atno 7974 bound_to 7965
  154.5135  140.0804  156.8036 H   0  0  0  0  0  0  0  0  0  0  0  0  # atno 8008 bound_to 7997
  155.3732  140.3424  155.4226 H   0  0  0  0  0  0  0  0  0  0  0  0  # atno 8009 bound_to 7997
  156.1601  140.1586  156.8614 H   0  0  0  0  0  0  0  0  0  0  0  0  # atno 8010 bound_to 7997
  139.9987  144.5702  150.7755 H   0  0  0  0  0  0  0  0  0  0  0  0  # atno 10167 bound_to 10162
  157.6958  131.0446  150.3892 H   0  0  0  0  0  0  0  0  0  0  0  0  # atno 10718 bound_to 10713
  153.2394  135.6902  153.7800 H   0  0  0  0  0  0  0  0  0  0  0  0  # atno 10763 bound_to 10752
  153.6935  135.3309  155.3208 H   0  0  0  0  0  0  0  0  0  0  0  0  # atno 10764 bound_to 10752
  154.8349  135.4551  154.1310 H   0  0  0  0  0  0  0  0  0  0  0  0  # atno 10765 bound_to 10752
  140.2751  134.3037  155.7816 H   0  0  0  0  0  0  0  0  0  0  0  0  # atno 11005 bound_to 11000
  145.6741  139.1605  143.2738 LP  0  0  0  0  0  0  0  0  0  0  0  0  # atno 17320 bound_to 7965
  146.1594  140.6810  142.9284 LP  0  0  0  0  0  0  0  0  0  0  0  0  # atno 17321 bound_to 7965
  140.7427  143.2836  151.3528 LP  0  0  0  0  0  0  0  0  0  0  0  0  # atno 17342 bound_to 10162
  139.6287  144.0763  152.2457 LP  0  0  0  0  0  0  0  0  0  0  0  0  # atno 17343 bound_to 10162
  156.4298  130.3969  149.6768 LP  0  0  0  0  0  0  0  0  0  0  0  0  # atno 17370 bound_to 10713
  156.3990  130.7665  151.2671 LP  0  0  0  0  0  0  0  0  0  0  0  0  # atno 17371 bound_to 10713
  141.2171  133.7491  156.9395 LP  0  0  0  0  0  0  0  0  0  0  0  0  # atno 17394 bound_to 11000
  140.1336  134.9340  157.2371 LP  0  0  0  0  0  0  0  0  0  0  0  0  # atno 17395 bound_to 11000

$$$$
