#       Name:                AV-unprocessed.smi:3234
#       Creating user name   scv26
#       Creation time:       Fri Mar 27 18:22:05 2020


#       File generated by GOLD software.
#

@<TRIPOS>MOLECULE
AV-unprocessed.smi:3234
    40    42     1
SMALL
NO_CHARGES


@<TRIPOS>ATOM
      1 ****        -0.1366   2.3542  -1.1213 O.2            1 S1                 0.0000
      2 ****        -0.6395   1.2876  -0.7498 C.2            1 S1                 0.0000
      3 ****        -1.9708   1.1861  -0.5878 N.am           1 S1                 0.0000
      4 ****        -2.9636   2.1878  -0.7559 C.ar           1 S1                 0.0000
      5 ****        -4.2509   1.7793  -1.1689 C.ar           1 S1                 0.0000
      6 ****        -5.2676   2.7431  -1.3257 C.ar           1 S1                 0.0000
      7 ****        -5.0081   4.0430  -1.0673 N.pl3          1 S1                 1.0000
      8 ****        -3.7989   4.4777  -0.6516 C.ar           1 S1                 0.0000
      9 ****        -2.7430   3.5602  -0.4775 C.ar           1 S1                 0.0000
     10 ****         0.0025   0.1187  -0.4793 N.pl3          1 S1                -1.0000
     11 ****         1.4470  -0.0938  -0.6197 C.3            1 S1                 0.0000
     12 ****         2.2040   0.4339   0.6179 C.3            1 S1                 0.0000
     13 ****         3.0103  -0.7557   1.1437 C.3            1 S1                 0.0000
     14 ****         2.2776  -1.9439   0.6751 N.4            1 S1                 1.0000
     15 ****         3.0570  -3.1990   0.7235 C.3            1 S1                 0.0000
     16 ****         2.2010  -4.4346   0.8647 C.3            1 S1                 0.0000
     17 ****         2.9752  -3.9081   2.0539 C.3            1 S1                 0.0000
     18 ****         1.7594  -1.5994  -0.6614 C.3            1 S1                 0.0000
     19 ****        -2.3142   0.2571  -0.3926 H              1 S1                 0.0000
     20 ****        -4.4566   0.7384  -1.3727 H              1 S1                 0.0000
     21 ****        -6.2737   2.5141  -1.6452 H              1 S1                 0.0000
     22 ****        -3.7137   5.5381  -0.4648 H              1 S1                 0.0000
     23 ****        -1.7876   3.9183  -0.1236 H              1 S1                 0.0000
     24 ****         1.8431   0.3686  -1.5249 H              1 S1                 0.0000
     25 ****         2.8490   1.2781   0.3721 H              1 S1                 0.0000
     26 ****         1.5161   0.7736   1.3944 H              1 S1                 0.0000
     27 ****         4.0165  -0.7496   0.7181 H              1 S1                 0.0000
     28 ****         3.1072  -0.7461   2.2299 H              1 S1                 0.0000
     29 ****         3.9723  -3.2269   0.1348 H              1 S1                 0.0000
     30 ****         1.1192  -4.3126   0.8737 H              1 S1                 0.0000
     31 ****         2.5615  -5.3502   0.4007 H              1 S1                 0.0000
     32 ****         3.8454  -4.4774   2.3737 H              1 S1                 0.0000
     33 ****         2.4073  -3.4372   2.8543 H              1 S1                 0.0000
     34 ****         0.9024  -2.2203  -0.9281 H              1 S1                 0.0000
     35 ****         2.5379  -1.7842  -1.4036 H              1 S1                 0.0000
     36 ****         1.4717  -2.0451   1.2755 H              1 S1                 0.0000
     37 ****        -5.7579   4.7246  -1.1855 H              1 S1                 0.0000
     38 ****        -0.7202   3.1458  -1.3026 LP             1 S1                 0.0000
     39 ****         0.8537   2.4254  -1.2405 LP             1 S1                 0.0000
     40 ****        -0.5508  -0.6514  -0.1617 LP             1 S1                 0.0000
@<TRIPOS>BOND
    1    1    2 2     
    2    2    3 am    
    3    2   10 1     
    4    3    4 1     
    5    3   19 1     
    6    4    9 ar    
    7    4    5 ar    
    8    5    6 ar    
    9    5   20 1     
   10    6    7 ar    
   11    6   21 1     
   12    7    8 ar    
   13    7   37 1     
   14    8    9 ar    
   15    8   22 1     
   16    9   23 1     
   17   10   11 1     
   18   11   18 1     
   19   11   12 1     
   20   11   24 1     
   21   12   13 1     
   22   12   25 1     
   23   12   26 1     
   24   13   14 1     
   25   13   27 1     
   26   13   28 1     
   27   14   15 1     
   28   14   18 1     
   29   14   36 1     
   30   15   17 1     
   31   15   16 1     
   32   15   29 1     
   33   16   17 1     
   34   16   30 1     
   35   16   31 1     
   36   17   32 1     
   37   17   33 1     
   38   18   34 1     
   39   18   35 1     
   40    1   38 1     
   41    1   39 1     
   42   10   40 1     
@<TRIPOS>SUBSTRUCTURE
      1 S1             1
@<TRIPOS>SET
LONE_PAIRS      STATIC     ATOMS    <user>   **** ""
3 38 39 40
DONOR_HYDROGENS      STATIC     ATOMS    <user>   **** ""
3 19 37 36
ATOM$BLUE        STATIC     ATOMS    COLORGROUP SYSTEM
3 38 39 40
ATOM$RED        STATIC     ATOMS    COLORGROUP SYSTEM
3 19 37 36
