AV-unprocessed.smi:1904|AV-procd|sdf|7724|dock9
  -GOLD-   22720 9463D 1   1.00000     0.00000
 Structure written by MMmdl.
 50 51  0  0  0  0  0  0  0  0  2 V2000
  148.9390  137.1915  158.5350 C   0  0  0  0  0  0  0  0  0  0  0  0
  148.3081  136.5326  159.7283 C   0  0  0  0  0  0  0  0  0  0  0  0
  148.0736  137.2519  160.8128 N   0  0  0  0  0  0  0  0  0  0  0  0
  147.5240  136.3864  161.6881 N   0  0  0  0  0  0  0  0  0  0  0  0
  147.1369  136.8565  163.0038 C   0  0  0  0  0  0  0  0  0  0  0  0
  147.4197  135.1148  161.1587 C   0  0  0  0  0  0  0  0  0  0  0  0
  146.8556  133.9715  161.9393 C   0  0  0  0  0  0  0  0  0  0  0  0
  147.9145  135.1701  159.8827 C   0  0  0  0  0  0  0  0  0  0  0  0
  148.0339  134.0589  158.8705 C   0  0  0  0  0  0  0  0  0  0  0  0
  147.2273  134.4226  157.6246 C   0  0  0  0  0  0  0  0  0  0  0  0
  146.3776  135.3118  157.6775 O   0  0  0  0  0  0  0  0  0  0  0  0
  147.4835  133.7114  156.5158 N   0  0  0  0  0  0  0  0  0  0  0  0
  146.7740  133.8555  155.2511 C   0  0  0  0  0  0  0  0  0  0  0  0
  147.6731  134.5100  154.1845 C   0  0  0  0  0  0  0  0  0  0  0  0
  147.0623  134.4983  152.8312 N   0  3  2  0  0  0  0  0  0  0  0  0
  145.8349  135.3336  152.7693 C   0  0  0  0  0  0  0  0  0  0  0  0
  145.2911  135.4260  151.3322 C   0  0  0  0  0  0  0  0  0  0  0  0
  145.0302  134.0392  150.7174 C   0  0  2  0  0  0  0  0  0  0  0  0
  143.7759  133.3577  151.2925 C   0  0  0  0  0  0  0  0  0  0  0  0
  146.2947  133.1728  150.8570 C   0  0  0  0  0  0  0  0  0  0  0  0
  146.8169  133.1291  152.3047 C   0  0  0  0  0  0  0  0  0  0  0  0
  148.5330  136.7933  157.6053 H   0  0  0  0  0  0  0  0  0  0  0  0
  150.0161  137.0256  158.5245 H   0  0  0  0  0  0  0  0  0  0  0  0
  148.7677  138.2686  158.5326 H   0  0  0  0  0  0  0  0  0  0  0  0
  146.1202  136.5324  163.2268 H   0  0  0  0  0  0  0  0  0  0  0  0
  147.1752  137.9458  163.0503 H   0  0  0  0  0  0  0  0  0  0  0  0
  147.8149  136.4460  163.7524 H   0  0  0  0  0  0  0  0  0  0  0  0
  147.0442  133.0206  161.4417 H   0  0  0  0  0  0  0  0  0  0  0  0
  145.7778  134.0806  162.0600 H   0  0  0  0  0  0  0  0  0  0  0  0
  147.3041  133.9182  162.9315 H   0  0  0  0  0  0  0  0  0  0  0  0
  149.0703  133.8884  158.5785 H   0  0  0  0  0  0  0  0  0  0  0  0
  147.6805  133.1107  159.2778 H   0  0  0  0  0  0  0  0  0  0  0  0
  148.2018  133.0027  156.5618 H   0  0  0  0  0  0  0  0  0  0  0  0
  146.4137  132.8843  154.9076 H   0  0  0  0  0  0  0  0  0  0  0  0
  145.8919  134.4639  155.4464 H   0  0  0  0  0  0  0  0  0  0  0  0
  147.9266  135.5333  154.4669 H   0  0  0  0  0  0  0  0  0  0  0  0
  148.6149  133.9601  154.1484 H   0  0  0  0  0  0  0  0  0  0  0  0
  145.0785  134.9240  153.4402 H   0  0  0  0  0  0  0  0  0  0  0  0
  146.0574  136.3399  153.1265 H   0  0  0  0  0  0  0  0  0  0  0  0
  144.3801  136.0254  151.3144 H   0  0  0  0  0  0  0  0  0  0  0  0
  146.0152  135.9598  150.7151 H   0  0  0  0  0  0  0  0  0  0  0  0
  144.8428  134.1803  149.6520 H   0  0  0  0  0  0  0  0  0  0  0  0
  143.8629  133.1675  152.3616 H   0  0  0  0  0  0  0  0  0  0  0  0
  143.5931  132.4012  150.8018 H   0  0  0  0  0  0  0  0  0  0  0  0
  142.8909  133.9760  151.1390 H   0  0  0  0  0  0  0  0  0  0  0  0
  146.1005  132.1616  150.4982 H   0  0  0  0  0  0  0  0  0  0  0  0
  147.0765  133.5765  150.2119 H   0  0  0  0  0  0  0  0  0  0  0  0
  147.7370  132.5463  152.3197 H   0  0  0  0  0  0  0  0  0  0  0  0
  146.1090  132.6085  152.9509 H   0  0  0  0  0  0  0  0  0  0  0  0
  147.7305  134.9365  152.2134 H   0  0  0  0  0  0  0  0  0  0  0  0
  1  2  1  0  0  0  0
  1 22  1  0  0  0  0
  1 23  1  0  0  0  0
  1 24  1  0  0  0  0
  2  8  1  0  0  0  0
  2  3  2  0  0  0  0
  3  4  1  0  0  0  0
  4  5  1  0  0  0  0
  4  6  1  0  0  0  0
  5 25  1  0  0  0  0
  5 26  1  0  0  0  0
  5 27  1  0  0  0  0
  6  7  1  0  0  0  0
  6  8  2  0  0  0  0
  7 28  1  0  0  0  0
  7 29  1  0  0  0  0
  7 30  1  0  0  0  0
  8  9  1  0  0  0  0
  9 10  1  0  0  0  0
  9 31  1  0  0  0  0
  9 32  1  0  0  0  0
 10 11  2  0  0  0  0
 10 12  1  0  0  0  0
 12 13  1  0  0  0  0
 12 33  1  0  0  0  0
 13 14  1  0  0  0  0
 13 34  1  0  0  0  0
 13 35  1  0  0  0  0
 14 15  1  0  0  0  0
 14 36  1  0  0  0  0
 14 37  1  0  0  0  0
 15 21  1  0  0  0  0
 15 16  1  0  0  0  0
 15 50  1  0  0  0  0
 16 17  1  0  0  0  0
 16 38  1  0  0  0  0
 16 39  1  0  0  0  0
 17 18  1  0  0  0  0
 17 40  1  0  0  0  0
 17 41  1  0  0  0  0
 18 19  1  0  0  0  0
 18 20  1  0  0  0  0
 18 42  1  0  0  0  0
 19 43  1  0  0  0  0
 19 44  1  0  0  0  0
 19 45  1  0  0  0  0
 20 21  1  0  0  0  0
 20 46  1  0  0  0  0
 20 47  1  0  0  0  0
 21 48  1  0  0  0  0
 21 49  1  0  0  0  0
M  CHG  1  15   1
M  END
> <s_m_source_file>
AV-unprocessed.smi

> <i_m_source_file_index>
1904

> <i_lp_mmshare_version>
43012

> <i_f3d_flags>
0

> <s_epik_input>
W0NIM11jMW5uKFtDSDNdKWMoW0NIM10pYzFbQ0gyXUMoPU8pW05IXVtDSDJdW0NIMl1OMltDSDJdW0NIMl1bQ0hdKFtDSDNdKVtDSDJdW0NIMl0y

> <s_epik_cmdline>
J2VwaWtfcHl0aG9uJywgJy1waCcsICc3LjAnLCAnLXRuJywgJzgnLCAnLW1hJywgJzIwMCcsICctbWV0YWxfYmluZGluZycsICctaW1hZScsICc8aW5maWxlLm1hZT4nLCAnLW9tYWUnLCAnPG91dGZpbGUubWFlPic=

> <r_lp_tautomer_probability>
1

> <r_epik_Ionization_Penalty>
0.00374255

> <r_epik_Ionization_Penalty_Charging>
0.00158211

> <r_epik_Ionization_Penalty_Neutral>
0.00216044

> <r_epik_State_Penalty>
-0

> <r_epik_Charging_Adjusted_Penalty>
0.00158211

> <i_epik_Tot_Q>
1

> <i_epik_Tot_abs_Q>
1

> <r_epik_Metal_State_Penalty>
-0

> <b_epik_Metal_Only>
0

> <s_lp_Force_Field>
OPLS_2005

> <r_lp_Energy>
12.0105

> <b_lp_Chiralities_Consistent>
1

> <s_lp_Variant>
AV-unprocessed.smi:1904-2

> <Gold.Version>
5.8.1

> <Gold.Id.Protein>
6NUR|6NUR_protein|mol2

> <Gold.PLP.Fitness>
45.2081

> <Gold.PLP.PLP>
-35.1162

> <Gold.PLP.part.hbond>
-3.0000

> <Gold.PLP.part.metal>
0.0000

> <Gold.PLP.part.buried>
-3.8646

> <Gold.PLP.part.nonpolar>
-28.3530

> <Gold.PLP.part.repulsive>
0.0000

> <Gold.PLP.ligand.clash>
0.0000

> <Gold.PLP.ligand.torsion>
0.2925

> <Gold.PLP.Chemscore.Hbond>
3.5504

> <Gold.PLP.Chemscore.CHOScore>
0.0000

> <Gold.PLP.Chemscore.Metal>
0.0000

> <Gold.Chemscore.Hbonds>
donor molecule, donor type, donor heavy atom, donor atom, acceptor molecule, acceptor atom, score
      L1  H    15    50       P1  7948  2.00
      P1  H  6931  6943       L1     3  0.85
      P1  H  6934  6947       L1     3  0.70

> <Gold.PLP.Chemscore.Internal.Correction>
0.0257

> <Gold.Rescore>
     Score         DG    S(hbond)    S(metal)    S(lipo)     H(rot)  DE(clash)    DE(int)     intcor
     18.46     -19.03       2.53        0.00      78.87       1.61       0.25       0.32       ----

> <Gold.Chemscore.Fitness>
18.4620

> <Gold.Chemscore.DG>
-19.0337

> <Gold.Chemscore.ZeroCoef>
-5.4800

> <Gold.Chemscore.Hbond>
2.5324

> <Gold.Chemscore.Metal>
0.0000

> <Gold.Chemscore.Lipo>
78.8710

> <Gold.Chemscore.Internal_Hbond>
0.0000

> <Gold.Chemscore.DEClash>
0.2540

> <Gold.Chemscore.DEInternal>
0.3177

> <Gold.Chemscore.Rot>
1.6142

> <Gold.Chemscore.Internal.Correction>
   9.000000E+99

> <Gold.Chemscore.Hbonds>
donor molecule, donor type, donor heavy atom, donor atom, acceptor molecule, acceptor atom, score
      L1  H    15    50       P1  7948  0.83
      P1  H  6931  6943       L1     3  0.25
      P1  H  6934  6947       L1     3  0.54

> <Gold.Chemscore.Hbond.Weighted>
-8.4582

> <Gold.Chemscore.Metal.Weighted>
-0.0000

> <Gold.Chemscore.Lipo.Weighted>
-9.2279

> <Gold.Chemscore.Internal_Hbond.Weighted>
0.0000

> <Gold.Chemscore.DEClash.Weighted>
0.2540

> <Gold.Chemscore.DEInternal.Weighted>
0.3177

> <Gold.Chemscore.Rot.Weighted>
4.1324

> <Gold.Chemscore.Internal.Correction.Weighted>
   9.000000E+99

> <Gold.Protein.RotatedTorsions>
[ 6907 6896 6895 6894 ] final  -71.82 input  -60.11 | X-H torsion
[ 7974 7965 7964 7962 ] final  144.24 input  175.53 | X-H torsion
[ 8008 7997 7996 7995 ] final   86.93 input   59.86 | X-H torsion
[ 10167 10162 10161 10158 ] final -150.54 input  -65.29 | X-H torsion
[ 10718 10713 10712 10709 ] final -110.34 input   66.30 | X-H torsion
[ 10763 10752 10751 10750 ] final -116.31 input  -60.55 | X-H torsion
[ 11005 11000 10999 10996 ] final   40.43 input  -57.11 | X-H torsion

> <Gold.Protein.ActiveResidues>
 VAL166  LYS551  ARG553  GLY616  TRP617  ASP618  TYR619  PRO620  LYS621  CYS622 
 ASP623  PHE694  ASN695  SER759  ASP760  ASP761  ALA762  ILE779  LEU786  VAL792 
 PHE793  MET794  SER795  GLU796  ALA797  LYS798  CYS799  TRP800  GLU811  SER814 

> <Gold.Protein.RotatedAtoms>
  150.7196  134.5253  159.5673 H   0  0  0  0  0  0  0  0  0  0  0  0  # atno 6907 bound_to 6896
  152.2798  134.7838  160.0407 H   0  0  0  0  0  0  0  0  0  0  0  0  # atno 6908 bound_to 6896
  151.8488  133.3401  159.3703 H   0  0  0  0  0  0  0  0  0  0  0  0  # atno 6909 bound_to 6896
  144.8852  139.5639  143.5824 H   0  0  0  0  0  0  0  0  0  0  0  0  # atno 7974 bound_to 7965
  155.9690  140.3387  155.6558 H   0  0  0  0  0  0  0  0  0  0  0  0  # atno 8008 bound_to 7997
  155.6700  140.0726  157.2542 H   0  0  0  0  0  0  0  0  0  0  0  0  # atno 8009 bound_to 7997
  154.4161  140.1693  156.1856 H   0  0  0  0  0  0  0  0  0  0  0  0  # atno 8010 bound_to 7997
  139.7345  143.8757  152.2545 H   0  0  0  0  0  0  0  0  0  0  0  0  # atno 10167 bound_to 10162
  156.0586  130.5810  150.8224 H   0  0  0  0  0  0  0  0  0  0  0  0  # atno 10718 bound_to 10713
  154.8514  135.4350  154.1800 H   0  0  0  0  0  0  0  0  0  0  0  0  # atno 10763 bound_to 10752
  153.2893  135.6960  153.7315 H   0  0  0  0  0  0  0  0  0  0  0  0  # atno 10764 bound_to 10752
  153.6488  135.3455  155.3068 H   0  0  0  0  0  0  0  0  0  0  0  0  # atno 10765 bound_to 10752
  140.1931  134.3962  155.8136 H   0  0  0  0  0  0  0  0  0  0  0  0  # atno 11005 bound_to 11000
  146.3020  139.7457  142.9084 LP  0  0  0  0  0  0  0  0  0  0  0  0  # atno 17320 bound_to 7965
  145.3881  141.0368  143.3139 LP  0  0  0  0  0  0  0  0  0  0  0  0  # atno 17321 bound_to 7965
  139.8689  144.7078  150.9010 LP  0  0  0  0  0  0  0  0  0  0  0  0  # atno 17342 bound_to 10162
  140.7776  143.3754  151.1572 LP  0  0  0  0  0  0  0  0  0  0  0  0  # atno 17343 bound_to 10162
  157.5576  131.0945  150.9606 LP  0  0  0  0  0  0  0  0  0  0  0  0  # atno 17370 bound_to 10713
  156.9851  130.5542  149.5299 LP  0  0  0  0  0  0  0  0  0  0  0  0  # atno 17371 bound_to 10713
  141.2226  133.7056  156.8130 LP  0  0  0  0  0  0  0  0  0  0  0  0  # atno 17394 bound_to 11000
  140.2137  134.8808  157.3302 LP  0  0  0  0  0  0  0  0  0  0  0  0  # atno 17395 bound_to 11000

$$$$
