AV-unprocessed.smi:1981|AV-procd|sdf|8019|dock7
  -GOLD-   2272010213D 1   1.00000     0.00000
 Structure written by MMmdl.
 45 46  0  0  0  0  0  0  0  0  1 V2000
  147.2421  137.0437  160.7465 C   0  0  0  0  0  0  0  0  0  0  0  0
  146.7261  137.9594  159.7964 O   0  0  0  0  0  0  0  0  0  0  0  0
  146.7707  137.4506  158.4744 C   0  0  0  0  0  0  0  0  0  0  0  0
  146.1665  138.4906  157.5193 C   0  0  0  0  0  0  0  0  0  0  0  0
  147.0092  138.6859  156.3355 N   0  0  0  0  0  0  0  0  0  0  0  0
  148.2024  139.3388  156.5952 N   0  0  0  0  0  0  0  0  0  0  0  0
  149.0407  139.5678  155.6365 C   0  0  0  0  0  0  0  0  0  0  0  0
  150.3343  140.2658  155.8754 C   0  0  0  0  0  0  0  0  0  0  0  0
  151.2012  140.3463  155.0035 O   0  0  0  0  0  0  0  0  0  0  0  0
  150.4829  140.7952  157.1032 N   0  0  0  0  0  0  0  0  0  0  0  0
  151.6538  141.5267  157.5753 C   0  0  0  0  0  0  0  0  0  0  0  0
  152.1211  140.9855  158.9468 C   0  0  0  0  0  0  0  0  0  0  0  0
  153.2156  141.8785  159.5577 C   0  0  0  0  0  0  0  0  0  0  0  0
  152.7068  143.2515  159.6500 N   0  0  0  0  0  0  0  0  0  0  0  0
  152.3814  143.8339  160.8291 C   0  0  0  0  0  0  0  0  0  0  0  0
  152.6359  143.0757  162.1338 C   0  0  0  0  0  0  0  0  0  0  0  0
  151.8901  144.9605  160.9014 O   0  0  0  0  0  0  0  0  0  0  0  0
  152.4590  143.8247  158.3214 C   0  0  0  0  0  0  0  0  0  0  0  0
  151.3244  143.0338  157.6462 C   0  0  0  0  0  0  0  0  0  0  0  0
  148.7486  139.1471  154.2766 C   0  0  0  0  0  0  0  0  0  0  0  0
  147.5833  138.5058  154.0397 C   0  0  0  0  0  0  0  0  0  0  0  0
  146.6202  138.2295  155.1070 C   0  0  0  0  0  0  0  0  0  0  0  0
  145.5584  137.6365  154.9190 O   0  0  0  0  0  0  0  0  0  0  0  0
  147.1891  137.4805  161.7437 H   0  0  0  0  0  0  0  0  0  0  0  0
  148.2861  136.8058  160.5387 H   0  0  0  0  0  0  0  0  0  0  0  0
  146.6666  136.1172  160.7534 H   0  0  0  0  0  0  0  0  0  0  0  0
  147.8034  137.2381  158.1929 H   0  0  0  0  0  0  0  0  0  0  0  0
  146.2136  136.5142  158.4180 H   0  0  0  0  0  0  0  0  0  0  0  0
  145.1589  138.1901  157.2269 H   0  0  0  0  0  0  0  0  0  0  0  0
  146.0441  139.4382  158.0471 H   0  0  0  0  0  0  0  0  0  0  0  0
  149.7225  140.6821  157.7583 H   0  0  0  0  0  0  0  0  0  0  0  0
  152.4670  141.3985  156.8584 H   0  0  0  0  0  0  0  0  0  0  0  0
  151.2747  140.9385  159.6340 H   0  0  0  0  0  0  0  0  0  0  0  0
  152.4917  139.9650  158.8448 H   0  0  0  0  0  0  0  0  0  0  0  0
  153.5274  141.4768  160.5227 H   0  0  0  0  0  0  0  0  0  0  0  0
  154.1068  141.8628  158.9287 H   0  0  0  0  0  0  0  0  0  0  0  0
  153.6921  142.8252  162.2358 H   0  0  0  0  0  0  0  0  0  0  0  0
  152.0472  142.1588  162.1691 H   0  0  0  0  0  0  0  0  0  0  0  0
  152.3545  143.6855  162.9932 H   0  0  0  0  0  0  0  0  0  0  0  0
  152.2118  144.8849  158.3420 H   0  0  0  0  0  0  0  0  0  0  0  0
  153.3692  143.7515  157.7244 H   0  0  0  0  0  0  0  0  0  0  0  0
  151.1432  143.4243  156.6442 H   0  0  0  0  0  0  0  0  0  0  0  0
  150.4016  143.1857  158.2087 H   0  0  0  0  0  0  0  0  0  0  0  0
  149.4411  139.3377  153.4694 H   0  0  0  0  0  0  0  0  0  0  0  0
  147.3537  138.1864  153.0337 H   0  0  0  0  0  0  0  0  0  0  0  0
  1  2  1  0  0  0  0
  1 24  1  0  0  0  0
  1 25  1  0  0  0  0
  1 26  1  0  0  0  0
  2  3  1  0  0  0  0
  3  4  1  0  0  0  0
  3 27  1  0  0  0  0
  3 28  1  0  0  0  0
  4  5  1  0  0  0  0
  4 29  1  0  0  0  0
  4 30  1  0  0  0  0
  5 22  1  0  0  0  0
  5  6  1  0  0  0  0
  6  7  2  0  0  0  0
  7  8  1  0  0  0  0
  7 20  1  0  0  0  0
  8  9  2  0  0  0  0
  8 10  1  0  0  0  0
 10 11  1  0  0  0  0
 10 31  1  0  0  0  0
 11 19  1  0  0  0  0
 11 12  1  0  0  0  0
 11 32  1  0  0  0  0
 12 13  1  0  0  0  0
 12 33  1  0  0  0  0
 12 34  1  0  0  0  0
 13 14  1  0  0  0  0
 13 35  1  0  0  0  0
 13 36  1  0  0  0  0
 14 15  1  0  0  0  0
 14 18  1  0  0  0  0
 15 16  1  0  0  0  0
 15 17  2  0  0  0  0
 16 37  1  0  0  0  0
 16 38  1  0  0  0  0
 16 39  1  0  0  0  0
 18 19  1  0  0  0  0
 18 40  1  0  0  0  0
 18 41  1  0  0  0  0
 19 42  1  0  0  0  0
 19 43  1  0  0  0  0
 20 21  2  0  0  0  0
 20 44  1  0  0  0  0
 21 22  1  0  0  0  0
 21 45  1  0  0  0  0
 22 23  2  0  0  0  0
M  END
> <s_m_source_file>
AV-unprocessed.smi

> <i_m_source_file_index>
1981

> <i_lp_mmshare_version>
43012

> <i_f3d_flags>
0

> <s_epik_input>
W0NIM11PW0NIMl1bQ0gyXW4xbmMoW2NIXVtjSF1jMT1PKUMoPU8pW05IXVtDSF0yW0NIMl1bQ0gyXU4oQyg9TylbQ0gzXSlbQ0gyXVtDSDJdMg==

> <s_epik_cmdline>
J2VwaWtfcHl0aG9uJywgJy1waCcsICc3LjAnLCAnLXRuJywgJzgnLCAnLW1hJywgJzIwMCcsICctbWV0YWxfYmluZGluZycsICctaW1hZScsICc8aW5maWxlLm1hZT4nLCAnLW9tYWUnLCAnPG91dGZpbGUubWFlPic=

> <r_lp_tautomer_probability>
1

> <r_epik_Ionization_Penalty>
2.32097e-06

> <r_epik_Ionization_Penalty_Charging>
6.14723e-09

> <r_epik_Ionization_Penalty_Neutral>
2.31482e-06

> <r_epik_State_Penalty>
-0

> <r_epik_Charging_Adjusted_Penalty>
6.14723e-09

> <i_epik_Tot_Q>
0

> <i_epik_Tot_abs_Q>
0

> <r_epik_Metal_State_Penalty>
-0

> <b_epik_Metal_Only>
0

> <s_lp_Force_Field>
OPLS_2005

> <r_lp_Energy>
40.8399

> <b_lp_Chiralities_Consistent>
1

> <s_lp_Variant>
AV-unprocessed.smi:1981-1

> <Gold.Version>
5.8.1

> <Gold.Id.Protein>
6NUR|6NUR_protein|mol2

> <Gold.PLP.Fitness>
41.9701

> <Gold.PLP.PLP>
-37.1870

> <Gold.PLP.part.hbond>
-2.0000

> <Gold.PLP.part.metal>
0.0000

> <Gold.PLP.part.buried>
-5.9807

> <Gold.PLP.part.nonpolar>
-29.5577

> <Gold.PLP.part.repulsive>
0.3892

> <Gold.PLP.ligand.clash>
0.0000

> <Gold.PLP.ligand.torsion>
0.6213

> <Gold.PLP.Chemscore.Hbond>
2.0000

> <Gold.PLP.Chemscore.CHOScore>
0.0000

> <Gold.PLP.Chemscore.Metal>
0.0000

> <Gold.Chemscore.Hbonds>
donor molecule, donor type, donor heavy atom, donor atom, acceptor molecule, acceptor atom, score
      P1  H  6934  6947       L1     2  0.13
      P1  H  7989  7998       L1     9  1.00

> <Gold.PLP.Chemscore.Internal.Correction>
0.0257

> <Gold.Rescore>
     Score         DG    S(hbond)    S(metal)    S(lipo)     H(rot)  DE(clash)    DE(int)     intcor
     16.17     -16.88       1.92        0.00      79.39       1.69       0.02       0.69       ----

> <Gold.Chemscore.Fitness>
16.1708

> <Gold.Chemscore.DG>
-16.8807

> <Gold.Chemscore.ZeroCoef>
-5.4800

> <Gold.Chemscore.Hbond>
1.9247

> <Gold.Chemscore.Metal>
0.0000

> <Gold.Chemscore.Lipo>
79.3910

> <Gold.Chemscore.Internal_Hbond>
0.0000

> <Gold.Chemscore.DEClash>
0.0241

> <Gold.Chemscore.DEInternal>
0.6857

> <Gold.Chemscore.Rot>
1.6861

> <Gold.Chemscore.Internal.Correction>
   9.000000E+99

> <Gold.Chemscore.Hbonds>
donor molecule, donor type, donor heavy atom, donor atom, acceptor molecule, acceptor atom, score
      P1  H  7989  7998       L1     9  0.97

> <Gold.Chemscore.Hbond.Weighted>
-6.4283

> <Gold.Chemscore.Metal.Weighted>
-0.0000

> <Gold.Chemscore.Lipo.Weighted>
-9.2887

> <Gold.Chemscore.Internal_Hbond.Weighted>
0.0000

> <Gold.Chemscore.DEClash.Weighted>
0.0241

> <Gold.Chemscore.DEInternal.Weighted>
0.6857

> <Gold.Chemscore.Rot.Weighted>
4.3164

> <Gold.Chemscore.Internal.Correction.Weighted>
   9.000000E+99

> <Gold.Protein.RotatedTorsions>
[ 6907 6896 6895 6894 ] final  -72.93 input  -60.11 | X-H torsion
[ 7974 7965 7964 7962 ] final  175.67 input  175.53 | X-H torsion
[ 8008 7997 7996 7995 ] final  -69.84 input   59.86 | X-H torsion
[ 10167 10162 10161 10158 ] final  153.18 input  -65.29 | X-H torsion
[ 10718 10713 10712 10709 ] final  -41.56 input   66.30 | X-H torsion
[ 10763 10752 10751 10750 ] final  170.51 input  -60.55 | X-H torsion
[ 11005 11000 10999 10996 ] final  173.94 input  -57.11 | X-H torsion

> <Gold.Protein.ActiveResidues>
 VAL166  LYS551  ARG553  GLY616  TRP617  ASP618  TYR619  PRO620  LYS621  CYS622 
 ASP623  PHE694  ASN695  SER759  ASP760  ASP761  ALA762  ILE779  LEU786  VAL792 
 PHE793  MET794  SER795  GLU796  ALA797  LYS798  CYS799  TRP800  GLU811  SER814 

> <Gold.Protein.RotatedAtoms>
  150.7150  134.5091  159.5598 H   0  0  0  0  0  0  0  0  0  0  0  0  # atno 6907 bound_to 6896
  152.2671  134.7969  160.0430 H   0  0  0  0  0  0  0  0  0  0  0  0  # atno 6908 bound_to 6896
  151.8662  133.3431  159.3757 H   0  0  0  0  0  0  0  0  0  0  0  0  # atno 6909 bound_to 6896
  144.7197  139.9982  143.6440 H   0  0  0  0  0  0  0  0  0  0  0  0  # atno 7974 bound_to 7965
  154.4968  140.0846  156.7712 H   0  0  0  0  0  0  0  0  0  0  0  0  # atno 8008 bound_to 7997
  155.4098  140.3441  155.4244 H   0  0  0  0  0  0  0  0  0  0  0  0  # atno 8009 bound_to 7997
  156.1404  140.1527  156.8918 H   0  0  0  0  0  0  0  0  0  0  0  0  # atno 8010 bound_to 7997
  139.4828  144.5295  151.7745 H   0  0  0  0  0  0  0  0  0  0  0  0  # atno 10167 bound_to 10162
  156.2691  130.4205  149.8458 H   0  0  0  0  0  0  0  0  0  0  0  0  # atno 10718 bound_to 10713
  154.3986  135.2754  155.2111 H   0  0  0  0  0  0  0  0  0  0  0  0  # atno 10763 bound_to 10752
  154.4146  135.6014  153.5977 H   0  0  0  0  0  0  0  0  0  0  0  0  # atno 10764 bound_to 10752
  152.9831  135.5958  154.4250 H   0  0  0  0  0  0  0  0  0  0  0  0  # atno 10765 bound_to 10752
  140.3459  134.7236  157.4234 H   0  0  0  0  0  0  0  0  0  0  0  0  # atno 11005 bound_to 11000
  146.0357  139.3375  143.0728 LP  0  0  0  0  0  0  0  0  0  0  0  0  # atno 17320 bound_to 7965
  145.8397  140.9587  143.0805 LP  0  0  0  0  0  0  0  0  0  0  0  0  # atno 17321 bound_to 7965
  140.4820  144.1436  150.5934 LP  0  0  0  0  0  0  0  0  0  0  0  0  # atno 17342 bound_to 10162
  140.4267  143.2586  151.9647 LP  0  0  0  0  0  0  0  0  0  0  0  0  # atno 17343 bound_to 10162
  156.5946  130.8520  151.3416 LP  0  0  0  0  0  0  0  0  0  0  0  0  # atno 17370 bound_to 10713
  157.7277  130.9647  150.1712 LP  0  0  0  0  0  0  0  0  0  0  0  0  # atno 17371 bound_to 10713
  140.0743  134.5819  155.8608 LP  0  0  0  0  0  0  0  0  0  0  0  0  # atno 17394 bound_to 11000
  141.2026  133.6626  156.6013 LP  0  0  0  0  0  0  0  0  0  0  0  0  # atno 17395 bound_to 11000

$$$$
