#       Name:                AV-unprocessed.smi:1487
#       Creating user name   scv26
#       Creation time:       Fri Mar 27 06:12:24 2020


#       File generated by GOLD software.
#

@<TRIPOS>MOLECULE
AV-unprocessed.smi:1487
    53    55     1
SMALL
NO_CHARGES


@<TRIPOS>ATOM
      1 ****        -3.8999   3.4125   2.3204 C.3            1 S1                 0.0000
      2 ****        -3.4057   2.3060   1.4040 C.ar           1 S1                 0.0000
      3 ****        -3.4265   2.5268   0.0087 C.ar           1 S1                 0.0000
      4 ****        -2.9696   1.4960  -0.8038 C.ar           1 S1                 0.0000
      5 ****        -2.8660   1.4067  -2.1932 N.pl3          1 S1                 1.0000
      6 ****        -2.3597   0.1898  -2.5342 C.2            1 S1                 0.0000
      7 ****        -2.1327  -0.4989  -1.3822 N.pl3          1 S1                 0.0000
      8 ****        -1.6094  -1.8599  -1.1956 C.3            1 S1                 0.0000
      9 ****        -0.0712  -1.9368  -1.2770 C.3            1 S1                 0.0000
     10 ****         0.2834  -3.2965  -1.1249 O.3            1 S1                 0.0000
     11 ****         0.6467  -1.0997  -0.1939 C.3            1 S1                 0.0000
     12 ****         2.1286  -1.1716  -0.2799 N.4            1 S1                 1.0000
     13 ****         2.7783  -0.8187   1.0098 C.3            1 S1                 0.0000
     14 ****         4.2990  -1.0385   0.9476 C.3            1 S1                 0.0000
     15 ****         4.9214  -0.2434  -0.2068 C.3            1 S1                 0.0000
     16 ****         4.2171  -0.6009  -1.5238 C.3            1 S1                 0.0000
     17 ****         4.7326   0.2042  -2.5624 O.3            1 S1                 0.0000
     18 ****         2.6963  -0.3868  -1.4097 C.3            1 S1                 0.0000
     19 ****        -2.5035   0.2760  -0.2754 C.ar           1 S1                 0.0000
     20 ****        -2.4766   0.0429   1.0984 C.ar           1 S1                 0.0000
     21 ****        -2.9364   1.0797   1.9417 C.ar           1 S1                 0.0000
     22 ****        -2.9182   0.8534   3.4439 C.3            1 S1                 0.0000
     23 ****        -4.2100   4.2909   1.7537 H              1 S1                 0.0000
     24 ****        -3.1129   3.7217   3.0085 H              1 S1                 0.0000
     25 ****        -4.7564   3.0727   2.9031 H              1 S1                 0.0000
     26 ****        -3.7842   3.4575  -0.4077 H              1 S1                 0.0000
     27 ****        -2.1766  -0.1663  -3.5381 H              1 S1                 0.0000
     28 ****        -1.9755  -2.2632  -0.2514 H              1 S1                 0.0000
     29 ****        -2.0528  -2.4779  -1.9778 H              1 S1                 0.0000
     30 ****         0.2317  -1.6184  -2.2739 H              1 S1                 0.0000
     31 ****         1.1859  -3.4117  -1.3799 H              1 S1                 0.0000
     32 ****         0.3469  -0.0526  -0.2481 H              1 S1                 0.0000
     33 ****         0.3214  -1.4594   0.7835 H              1 S1                 0.0000
     34 ****         2.5575   0.2209   1.2573 H              1 S1                 0.0000
     35 ****         2.3644  -1.4304   1.8126 H              1 S1                 0.0000
     36 ****         4.7576  -0.7441   1.8921 H              1 S1                 0.0000
     37 ****         4.5110  -2.1007   0.8184 H              1 S1                 0.0000
     38 ****         4.8257   0.8251  -0.0078 H              1 S1                 0.0000
     39 ****         5.9891  -0.4553  -0.2754 H              1 S1                 0.0000
     40 ****         4.4211  -1.6433  -1.7728 H              1 S1                 0.0000
     41 ****         4.3602  -0.0797  -3.3835 H              1 S1                 0.0000
     42 ****         2.2280  -0.6792  -2.3485 H              1 S1                 0.0000
     43 ****         2.4731   0.6714  -1.2616 H              1 S1                 0.0000
     44 ****        -2.1210  -0.8883   1.5135 H              1 S1                 0.0000
     45 ****        -2.5432  -0.1392   3.6948 H              1 S1                 0.0000
     46 ****        -3.9233   0.9432   3.8567 H              1 S1                 0.0000
     47 ****        -2.2758   1.5858   3.9333 H              1 S1                 0.0000
     48 ****         2.3573  -2.1407  -0.4488 H              1 S1                 0.0000
     49 ****        -3.1280   2.1202  -2.8618 H              1 S1                 0.0000
     50 ****        -0.3030  -3.8622  -1.7047 LP             1 S1                 0.0000
     51 ****         0.1684  -3.5675  -0.1693 LP             1 S1                 0.0000
     52 ****         5.7279   0.1126  -2.5957 LP             1 S1                 0.0000
     53 ****         4.4913   1.1604  -2.3972 LP             1 S1                 0.0000
@<TRIPOS>BOND
    1    1    2 1     
    2    1   23 1     
    3    1   24 1     
    4    1   25 1     
    5    2   21 ar    
    6    2    3 ar    
    7    3    4 ar    
    8    3   26 1     
    9    4   19 ar    
   10    4    5 1     
   11    5    6 2     
   12    5   49 1     
   13    6    7 1     
   14    6   27 1     
   15    7    8 1     
   16    7   19 1     
   17    8    9 1     
   18    8   28 1     
   19    8   29 1     
   20    9   10 1     
   21    9   11 1     
   22    9   30 1     
   23   10   31 1     
   24   11   12 1     
   25   11   32 1     
   26   11   33 1     
   27   12   18 1     
   28   12   13 1     
   29   12   48 1     
   30   13   14 1     
   31   13   34 1     
   32   13   35 1     
   33   14   15 1     
   34   14   36 1     
   35   14   37 1     
   36   15   16 1     
   37   15   38 1     
   38   15   39 1     
   39   16   17 1     
   40   16   18 1     
   41   16   40 1     
   42   17   41 1     
   43   18   42 1     
   44   18   43 1     
   45   19   20 ar    
   46   20   21 ar    
   47   20   44 1     
   48   21   22 1     
   49   22   45 1     
   50   22   46 1     
   51   22   47 1     
   52   10   50 1     
   53   10   51 1     
   54   17   52 1     
   55   17   53 1     
@<TRIPOS>SUBSTRUCTURE
      1 S1             1
@<TRIPOS>SET
LONE_PAIRS      STATIC     ATOMS    <user>   **** ""
4 50 51 52 53
DONOR_HYDROGENS      STATIC     ATOMS    <user>   **** ""
4 49 31 48 41
ATOM$BLUE        STATIC     ATOMS    COLORGROUP SYSTEM
4 50 51 52 53
ATOM$RED        STATIC     ATOMS    COLORGROUP SYSTEM
4 49 31 48 41
