AV-unprocessed.smi:371|AV-procd|sdf|2442|dock2
  -GOLD-   2262022383D 1   1.00000     0.00000
 Structure written by MMmdl.
 39 40  0  0  0  0  0  0  0  0  1 V2000
  153.5140  143.1176  163.4748 C   0  0  0  0  0  0  0  0  0  0  0  0
  153.0112  143.0184  162.0398 C   0  0  0  0  0  0  0  0  0  0  0  0
  152.1509  144.0696  161.5484 C   0  0  0  0  0  0  0  0  0  0  0  0
  151.5909  143.9954  160.3302 C   0  0  0  0  0  0  0  0  0  0  0  0
  150.6889  145.1126  159.8179 C   0  0  0  0  0  0  0  0  0  0  0  0
  151.8620  142.8908  159.4767 N   0  0  0  0  0  0  0  0  0  0  0  0
  151.1468  142.7816  158.1801 C   0  0  0  0  0  0  0  0  0  0  0  0
  150.2997  141.4884  158.0642 C   0  0  1  0  0  0  0  0  0  0  0  0
  149.2720  141.5467  159.0334 O   0  0  0  0  0  0  0  0  0  0  0  0
  149.7598  141.2393  156.6589 C   0  0  0  0  0  0  0  0  0  0  0  0
  148.5074  141.7682  156.2735 C   0  0  0  0  0  0  0  0  0  0  0  0
  148.0229  141.5723  154.9659 C   0  0  0  0  0  0  0  0  0  0  0  0
  148.7870  140.8465  154.0332 C   0  0  0  0  0  0  0  0  0  0  0  0
  150.0354  140.3158  154.4092 C   0  0  0  0  0  0  0  0  0  0  0  0
  150.5219  140.5099  155.7167 C   0  0  0  0  0  0  0  0  0  0  0  0
  151.7338  140.0073  156.0544 F   0  0  0  0  0  0  0  0  0  0  0  0
  152.7659  141.9164  159.8201 C   0  0  0  0  0  0  0  0  0  0  0  0
  153.0931  141.0497  159.0030 O   0  0  0  0  0  0  0  0  0  0  0  0
  153.2933  141.9786  161.2100 C   0  0  0  0  0  0  0  0  0  0  0  0
  154.1510  140.8571  161.6395 C   0  0  0  0  0  0  0  0  0  0  0  0
  153.9863  139.7194  160.9495 N   0  0  0  0  0  0  0  0  0  0  0  0
  154.9150  140.8851  162.6030 O   0  0  0  0  0  0  0  0  0  0  0  0
  153.0222  143.9309  164.0092 H   0  0  0  0  0  0  0  0  0  0  0  0
  154.5866  143.3115  163.4917 H   0  0  0  0  0  0  0  0  0  0  0  0
  153.3143  142.1981  164.0258 H   0  0  0  0  0  0  0  0  0  0  0  0
  151.9500  144.9259  162.1759 H   0  0  0  0  0  0  0  0  0  0  0  0
  150.4959  145.8442  160.6029 H   0  0  0  0  0  0  0  0  0  0  0  0
  149.7198  144.7412  159.4892 H   0  0  0  0  0  0  0  0  0  0  0  0
  151.1657  145.6436  158.9935 H   0  0  0  0  0  0  0  0  0  0  0  0
  150.5167  143.6525  158.0070 H   0  0  0  0  0  0  0  0  0  0  0  0
  151.8394  142.8255  157.3380 H   0  0  0  0  0  0  0  0  0  0  0  0
  150.9135  140.6332  158.3431 H   0  0  0  0  0  0  0  0  0  0  0  0
  148.9705  140.6674  159.2033 H   0  0  0  0  0  0  0  0  0  0  0  0
  147.9187  142.3392  156.9765 H   0  0  0  0  0  0  0  0  0  0  0  0
  147.0667  141.9839  154.6777 H   0  0  0  0  0  0  0  0  0  0  0  0
  148.4171  140.6987  153.0293 H   0  0  0  0  0  0  0  0  0  0  0  0
  150.6237  139.7627  153.6921 H   0  0  0  0  0  0  0  0  0  0  0  0
  154.5256  138.9000  161.1897 H   0  0  0  0  0  0  0  0  0  0  0  0
  153.3118  139.6825  160.1991 H   0  0  0  0  0  0  0  0  0  0  0  0
  1  2  1  0  0  0  0
  1 23  1  0  0  0  0
  1 24  1  0  0  0  0
  1 25  1  0  0  0  0
  2 19  2  0  0  0  0
  2  3  1  0  0  0  0
  3  4  2  0  0  0  0
  3 26  1  0  0  0  0
  4  5  1  0  0  0  0
  4  6  1  0  0  0  0
  5 27  1  0  0  0  0
  5 28  1  0  0  0  0
  5 29  1  0  0  0  0
  6  7  1  0  0  0  0
  6 17  1  0  0  0  0
  7  8  1  0  0  0  0
  7 30  1  0  0  0  0
  7 31  1  0  0  0  0
  8  9  1  0  0  0  0
  8 10  1  0  0  0  0
  8 32  1  0  0  0  0
  9 33  1  0  0  0  0
 10 15  1  0  0  0  0
 10 11  2  0  0  0  0
 11 12  1  0  0  0  0
 11 34  1  0  0  0  0
 12 13  2  0  0  0  0
 12 35  1  0  0  0  0
 13 14  1  0  0  0  0
 13 36  1  0  0  0  0
 14 15  2  0  0  0  0
 14 37  1  0  0  0  0
 15 16  1  0  0  0  0
 17 18  2  0  0  0  0
 17 19  1  0  0  0  0
 19 20  1  0  0  0  0
 20 21  1  0  0  0  0
 20 22  2  0  0  0  0
 21 38  1  0  0  0  0
 21 39  1  0  0  0  0
M  END
> <s_m_source_file>
AV-unprocessed.smi

> <i_m_source_file_index>
371

> <i_lp_mmshare_version>
43012

> <i_f3d_flags>
0

> <s_epik_input>
W0NIM11jMVtjSF1jKFtDSDNdKW4oYyg9TyljMUMoPU8pW05IMl0pW0NIMl1bQ0BIXShbT0hdKWMyW2NIXVtjSF1bY0hdW2NIXWMyRg==

> <s_epik_cmdline>
J2VwaWtfcHl0aG9uJywgJy1waCcsICc3LjAnLCAnLXRuJywgJzgnLCAnLW1hJywgJzIwMCcsICctbWV0YWxfYmluZGluZycsICctaW1hZScsICc8aW5maWxlLm1hZT4nLCAnLW9tYWUnLCAnPG91dGZpbGUubWFlPic=

> <r_lp_tautomer_probability>
1

> <r_epik_Ionization_Penalty>
3.46512e-07

> <r_epik_Ionization_Penalty_Charging>
1.35363e-07

> <r_epik_Ionization_Penalty_Neutral>
2.11149e-07

> <r_epik_State_Penalty>
-0

> <r_epik_Charging_Adjusted_Penalty>
1.35363e-07

> <i_epik_Tot_Q>
0

> <i_epik_Tot_abs_Q>
0

> <r_epik_Metal_State_Penalty>
-0

> <b_epik_Metal_Only>
0

> <s_lp_Force_Field>
OPLS_2005

> <r_lp_Energy>
37.7279

> <b_lp_Chiralities_Consistent>
1

> <s_lp_Variant>
AV-unprocessed.smi:371-2

> <Gold.Version>
5.8.1

> <Gold.Id.Protein>
6NUR|6NUR_protein|mol2

> <Gold.PLP.Fitness>
47.8532

> <Gold.PLP.PLP>
-49.2841

> <Gold.PLP.part.hbond>
-3.0000

> <Gold.PLP.part.metal>
0.0000

> <Gold.PLP.part.buried>
1.1408

> <Gold.PLP.part.nonpolar>
-46.2126

> <Gold.PLP.part.repulsive>
0.0300

> <Gold.PLP.ligand.clash>
0.0000

> <Gold.PLP.ligand.torsion>
0.9509

> <Gold.PLP.Chemscore.Hbond>
0.0000

> <Gold.PLP.Chemscore.CHOScore>
0.0000

> <Gold.PLP.Chemscore.Metal>
0.0000

> <Gold.PLP.Chemscore.Internal.Correction>
0.4710

> <Gold.Rescore>
     Score         DG    S(hbond)    S(metal)    S(lipo)     H(rot)  DE(clash)    DE(int)     intcor
     12.92     -15.92       0.62        0.00     116.26       2.04       0.58       2.42       ----

> <Gold.Chemscore.Fitness>
12.9182

> <Gold.Chemscore.DG>
-15.9247

> <Gold.Chemscore.ZeroCoef>
-5.4800

> <Gold.Chemscore.Hbond>
0.6178

> <Gold.Chemscore.Metal>
0.0000

> <Gold.Chemscore.Lipo>
116.2609

> <Gold.Chemscore.Internal_Hbond>
0.0000

> <Gold.Chemscore.DEClash>
0.5844

> <Gold.Chemscore.DEInternal>
2.4221

> <Gold.Chemscore.Rot>
2.0396

> <Gold.Chemscore.Internal.Correction>
   9.000000E+99

> <Gold.Chemscore.Hbond.Weighted>
-2.0636

> <Gold.Chemscore.Metal.Weighted>
-0.0000

> <Gold.Chemscore.Lipo.Weighted>
-13.6025

> <Gold.Chemscore.Internal_Hbond.Weighted>
0.0000

> <Gold.Chemscore.DEClash.Weighted>
0.5844

> <Gold.Chemscore.DEInternal.Weighted>
2.4221

> <Gold.Chemscore.Rot.Weighted>
5.2214

> <Gold.Chemscore.Internal.Correction.Weighted>
   9.000000E+99

> <Gold.Protein.RotatedTorsions>
[ 6907 6896 6895 6894 ] final -127.56 input  -60.11 | X-H torsion
[ 7974 7965 7964 7962 ] final  170.15 input  175.53 | X-H torsion
[ 8008 7997 7996 7995 ] final   36.92 input   59.86 | X-H torsion
[ 10167 10162 10161 10158 ] final  -79.93 input  -65.29 | X-H torsion
[ 10718 10713 10712 10709 ] final   17.40 input   66.30 | X-H torsion
[ 10763 10752 10751 10750 ] final  -35.98 input  -60.55 | X-H torsion
[ 11005 11000 10999 10996 ] final -178.23 input  -57.11 | X-H torsion

> <Gold.Protein.ActiveResidues>
 VAL166  LYS551  ARG553  GLY616  TRP617  ASP618  TYR619  PRO620  LYS621  CYS622 
 ASP623  PHE694  ASN695  SER759  ASP760  ASP761  ALA762  ILE779  LEU786  VAL792 
 PHE793  MET794  SER795  GLU796  ALA797  LYS798  CYS799  TRP800  GLU811  SER814 

> <Gold.Protein.RotatedAtoms>
  150.9086  133.7026  159.2860 H   0  0  0  0  0  0  0  0  0  0  0  0  # atno 6907 bound_to 6896
  151.4521  135.1029  159.9710 H   0  0  0  0  0  0  0  0  0  0  0  0  # atno 6908 bound_to 6896
  152.4917  133.8469  159.7237 H   0  0  0  0  0  0  0  0  0  0  0  0  # atno 6909 bound_to 6896
  144.7332  139.9160  143.6417 H   0  0  0  0  0  0  0  0  0  0  0  0  # atno 7974 bound_to 7965
  155.1953  140.3311  155.4352 H   0  0  0  0  0  0  0  0  0  0  0  0  # atno 8008 bound_to 7997
  156.2427  140.1903  156.6993 H   0  0  0  0  0  0  0  0  0  0  0  0  # atno 8009 bound_to 7997
  154.6178  140.0599  156.9562 H   0  0  0  0  0  0  0  0  0  0  0  0  # atno 8010 bound_to 7997
  140.4549  143.2471  151.8434 H   0  0  0  0  0  0  0  0  0  0  0  0  # atno 10167 bound_to 10162
  157.0816  130.6390  149.5828 H   0  0  0  0  0  0  0  0  0  0  0  0  # atno 10718 bound_to 10713
  153.8722  135.6830  153.4773 H   0  0  0  0  0  0  0  0  0  0  0  0  # atno 10763 bound_to 10752
  153.1281  135.4710  154.9302 H   0  0  0  0  0  0  0  0  0  0  0  0  # atno 10764 bound_to 10752
  154.7709  135.3238  154.8143 H   0  0  0  0  0  0  0  0  0  0  0  0  # atno 10765 bound_to 10752
  140.4321  134.6509  157.4717 H   0  0  0  0  0  0  0  0  0  0  0  0  # atno 11005 bound_to 11000
  146.0965  139.3958  143.0373 LP  0  0  0  0  0  0  0  0  0  0  0  0  # atno 17320 bound_to 7965
  145.7638  140.9925  143.1186 LP  0  0  0  0  0  0  0  0  0  0  0  0  # atno 17321 bound_to 7965
  139.4800  144.5076  151.8976 LP  0  0  0  0  0  0  0  0  0  0  0  0  # atno 17342 bound_to 10162
  140.4163  144.2302  150.5887 LP  0  0  0  0  0  0  0  0  0  0  0  0  # atno 17343 bound_to 10162
  155.9922  130.4979  150.7330 LP  0  0  0  0  0  0  0  0  0  0  0  0  # atno 17370 bound_to 10713
  157.4795  131.0901  151.0552 LP  0  0  0  0  0  0  0  0  0  0  0  0  # atno 17371 bound_to 10713
  140.0127  134.6666  155.9356 LP  0  0  0  0  0  0  0  0  0  0  0  0  # atno 17394 bound_to 11000
  141.1741  133.6539  156.4761 LP  0  0  0  0  0  0  0  0  0  0  0  0  # atno 17395 bound_to 11000

$$$$
