AV-unprocessed.smi:3338|AV-procd|sdf|12876|dock8
  -GOLD-   2272019283D 1   1.00000     0.00000
 Structure written by MMmdl.
 44 45  0  0  0  0  0  0  0  0  2 V2000
  146.3564  132.1352  149.5242 C   0  0  0  0  0  0  0  0  0  0  0  0
  146.6003  133.4326  150.3078 C   0  0  1  0  0  0  0  0  0  0  0  0
  145.3770  134.3626  150.2494 C   0  0  0  0  0  0  0  0  0  0  0  0
  145.6386  135.6368  151.0623 C   0  0  0  0  0  0  0  0  0  0  0  0
  146.0472  135.2960  152.5042 C   0  0  0  0  0  0  0  0  0  0  0  0
  147.2331  134.4010  152.5289 N   0  3  1  0  0  0  0  0  0  0  0  0
  147.7294  134.1679  153.9092 C   0  0  0  0  0  0  0  0  0  0  0  0
  147.5340  135.3921  154.8186 C   0  0  0  0  0  0  0  0  0  0  0  0
  148.2722  136.5363  154.3033 N   0  0  0  0  0  0  0  0  0  0  0  0
  148.5369  137.6448  155.0118 C   0  0  0  0  0  0  0  0  0  0  0  0
  148.1526  137.8002  156.1715 O   0  0  0  0  0  0  0  0  0  0  0  0
  149.3514  138.7363  154.2951 C   0  0  1  0  0  0  0  0  0  0  0  0
  148.6230  140.0943  154.2385 C   0  0  0  0  0  0  0  0  0  0  0  0
  150.6800  138.8622  154.8842 N   0  0  0  0  0  0  0  0  0  0  0  0
  151.8019  138.1034  154.6189 C   0  0  0  0  0  0  0  0  0  0  0  0
  152.8075  138.5634  155.4196 C   0  0  0  0  0  0  0  0  0  0  0  0
  152.1988  139.6178  156.1550 C   0  0  0  0  0  0  0  0  0  0  0  0
  150.9262  139.7903  155.8382 N   0  0  0  0  0  0  0  0  0  0  0  0
  146.9824  133.1437  151.7734 C   0  0  0  0  0  0  0  0  0  0  0  0
  145.5273  131.5665  149.9466 H   0  0  0  0  0  0  0  0  0  0  0  0
  147.2394  131.4958  149.5373 H   0  0  0  0  0  0  0  0  0  0  0  0
  146.1186  132.3448  148.4809 H   0  0  0  0  0  0  0  0  0  0  0  0
  147.4393  133.9472  149.8363 H   0  0  0  0  0  0  0  0  0  0  0  0
  145.1474  134.6230  149.2154 H   0  0  0  0  0  0  0  0  0  0  0  0
  144.4989  133.8492  150.6440 H   0  0  0  0  0  0  0  0  0  0  0  0
  146.4267  136.2212  150.5854 H   0  0  0  0  0  0  0  0  0  0  0  0
  144.7474  136.2650  151.0661 H   0  0  0  0  0  0  0  0  0  0  0  0
  146.2699  136.2209  153.0378 H   0  0  0  0  0  0  0  0  0  0  0  0
  145.2178  134.8180  153.0282 H   0  0  0  0  0  0  0  0  0  0  0  0
  147.1828  133.3327  154.3499 H   0  0  0  0  0  0  0  0  0  0  0  0
  148.7783  133.8682  153.8792 H   0  0  0  0  0  0  0  0  0  0  0  0
  146.4813  135.6653  154.8904 H   0  0  0  0  0  0  0  0  0  0  0  0
  147.8796  135.1660  155.8286 H   0  0  0  0  0  0  0  0  0  0  0  0
  148.6182  136.4798  153.3562 H   0  0  0  0  0  0  0  0  0  0  0  0
  149.4871  138.4010  153.2656 H   0  0  0  0  0  0  0  0  0  0  0  0
  147.6587  140.0049  153.7368 H   0  0  0  0  0  0  0  0  0  0  0  0
  149.2108  140.8268  153.6847 H   0  0  0  0  0  0  0  0  0  0  0  0
  148.4419  140.5024  155.2337 H   0  0  0  0  0  0  0  0  0  0  0  0
  151.7920  137.3075  153.8887 H   0  0  0  0  0  0  0  0  0  0  0  0
  153.8239  138.2022  155.4722 H   0  0  0  0  0  0  0  0  0  0  0  0
  152.6399  140.2566  156.9059 H   0  0  0  0  0  0  0  0  0  0  0  0
  146.1902  132.5767  152.2655 H   0  0  0  0  0  0  0  0  0  0  0  0
  147.8716  132.5146  151.7857 H   0  0  0  0  0  0  0  0  0  0  0  0
  147.9669  134.8961  152.0421 H   0  0  0  0  0  0  0  0  0  0  0  0
  1  2  1  0  0  0  0
  1 20  1  0  0  0  0
  1 21  1  0  0  0  0
  1 22  1  0  0  0  0
  2 19  1  0  0  0  0
  2  3  1  0  0  0  0
  2 23  1  0  0  0  0
  3  4  1  0  0  0  0
  3 24  1  0  0  0  0
  3 25  1  0  0  0  0
  4  5  1  0  0  0  0
  4 26  1  0  0  0  0
  4 27  1  0  0  0  0
  5  6  1  0  0  0  0
  5 28  1  0  0  0  0
  5 29  1  0  0  0  0
  6  7  1  0  0  0  0
  6 19  1  0  0  0  0
  6 44  1  0  0  0  0
  7  8  1  0  0  0  0
  7 30  1  0  0  0  0
  7 31  1  0  0  0  0
  8  9  1  0  0  0  0
  8 32  1  0  0  0  0
  8 33  1  0  0  0  0
  9 10  1  0  0  0  0
  9 34  1  0  0  0  0
 10 11  2  0  0  0  0
 10 12  1  0  0  0  0
 12 13  1  0  0  0  0
 12 14  1  0  0  0  0
 12 35  1  0  0  0  0
 13 36  1  0  0  0  0
 13 37  1  0  0  0  0
 13 38  1  0  0  0  0
 14 18  1  0  0  0  0
 14 15  1  0  0  0  0
 15 16  2  0  0  0  0
 15 39  1  0  0  0  0
 16 17  1  0  0  0  0
 16 40  1  0  0  0  0
 17 18  2  0  0  0  0
 17 41  1  0  0  0  0
 19 42  1  0  0  0  0
 19 43  1  0  0  0  0
M  CHG  1   6   1
M  END
> <s_m_source_file>
AV-unprocessed.smi

> <i_m_source_file_index>
3338

> <i_lp_mmshare_version>
43012

> <i_f3d_flags>
0

> <s_epik_input>
W0NIM11bQ0BASF0xW0NIMl1bQ0gyXVtDSDJdTihbQ0gyXTEpW0NIMl1bQ0gyXVtOSF1DKD1PKVtDQEhdKFtDSDNdKW4yW2NIXVtjSF1bY0hdbjI=

> <s_epik_cmdline>
J2VwaWtfcHl0aG9uJywgJy1waCcsICc3LjAnLCAnLXRuJywgJzgnLCAnLW1hJywgJzIwMCcsICctbWV0YWxfYmluZGluZycsICctaW1hZScsICc8aW5maWxlLm1hZT4nLCAnLW9tYWUnLCAnPG91dGZpbGUubWFlPic=

> <r_lp_tautomer_probability>
1

> <r_epik_Ionization_Penalty>
0.00225707

> <r_epik_Ionization_Penalty_Charging>
0.00223709

> <r_epik_Ionization_Penalty_Neutral>
1.99775e-05

> <r_epik_State_Penalty>
0.00153978

> <r_epik_Charging_Adjusted_Penalty>
0.00377687

> <i_epik_Tot_Q>
1

> <i_epik_Tot_abs_Q>
1

> <r_epik_Metal_State_Penalty>
-0

> <b_epik_Metal_Only>
0

> <s_lp_Force_Field>
OPLS_2005

> <r_lp_Energy>
20.7823

> <b_lp_Chiralities_Consistent>
1

> <s_lp_Variant>
AV-unprocessed.smi:3338-8

> <Gold.Version>
5.8.1

> <Gold.Id.Protein>
6NUR|6NUR_protein|mol2

> <Gold.PLP.Fitness>
45.9247

> <Gold.PLP.PLP>
-36.0449

> <Gold.PLP.part.hbond>
-2.0502

> <Gold.PLP.part.metal>
0.0000

> <Gold.PLP.part.buried>
-2.0265

> <Gold.PLP.part.nonpolar>
-31.0950

> <Gold.PLP.part.repulsive>
0.0442

> <Gold.PLP.ligand.clash>
0.0000

> <Gold.PLP.ligand.torsion>
1.1286

> <Gold.PLP.Chemscore.Hbond>
3.0000

> <Gold.PLP.Chemscore.CHOScore>
1.0000

> <Gold.PLP.Chemscore.Metal>
0.0000

> <Gold.Chemscore.Hbonds>
donor molecule, donor type, donor heavy atom, donor atom, acceptor molecule, acceptor atom, score
      L1  H     6    44       P1  7948  2.00
      L1  H     9    34       P1  7948  1.00
      L1  C    15    39       P1  7949  0.31

> <Gold.PLP.Chemscore.Internal.Correction>
0.1370

> <Gold.Rescore>
     Score         DG    S(hbond)    S(metal)    S(lipo)     H(rot)  DE(clash)    DE(int)     intcor
     16.43     -16.92       1.99        0.00      79.45       1.76       0.04       0.44       ----

> <Gold.Chemscore.Fitness>
16.4283

> <Gold.Chemscore.DG>
-16.9164

> <Gold.Chemscore.ZeroCoef>
-5.4800

> <Gold.Chemscore.Hbond>
1.9877

> <Gold.Chemscore.Metal>
0.0000

> <Gold.Chemscore.Lipo>
79.4482

> <Gold.Chemscore.Internal_Hbond>
0.0000

> <Gold.Chemscore.DEClash>
0.0441

> <Gold.Chemscore.DEInternal>
0.4440

> <Gold.Chemscore.Rot>
1.7570

> <Gold.Chemscore.Internal.Correction>
   9.000000E+99

> <Gold.Chemscore.Hbonds>
donor molecule, donor type, donor heavy atom, donor atom, acceptor molecule, acceptor atom, score
      L1  H     6    44       P1  7948  0.48
      L1  H     9    34       P1  7948  0.94

> <Gold.Chemscore.Hbond.Weighted>
-6.6388

> <Gold.Chemscore.Metal.Weighted>
-0.0000

> <Gold.Chemscore.Lipo.Weighted>
-9.2954

> <Gold.Chemscore.Internal_Hbond.Weighted>
0.0000

> <Gold.Chemscore.DEClash.Weighted>
0.0441

> <Gold.Chemscore.DEInternal.Weighted>
0.4440

> <Gold.Chemscore.Rot.Weighted>
4.4979

> <Gold.Chemscore.Internal.Correction.Weighted>
   9.000000E+99

> <Gold.Protein.RotatedTorsions>
[ 6907 6896 6895 6894 ] final   -4.41 input  -60.11 | X-H torsion
[ 7974 7965 7964 7962 ] final  -44.97 input  175.53 | X-H torsion
[ 8008 7997 7996 7995 ] final  -28.33 input   59.86 | X-H torsion
[ 10167 10162 10161 10158 ] final   96.94 input  -65.29 | X-H torsion
[ 10718 10713 10712 10709 ] final   33.21 input   66.30 | X-H torsion
[ 10763 10752 10751 10750 ] final  -94.34 input  -60.55 | X-H torsion
[ 11005 11000 10999 10996 ] final  -68.01 input  -57.11 | X-H torsion

> <Gold.Protein.ActiveResidues>
 VAL166  LYS551  ARG553  GLY616  TRP617  ASP618  TYR619  PRO620  LYS621  CYS622 
 ASP623  PHE694  ASN695  SER759  ASP760  ASP761  ALA762  ILE779  LEU786  VAL792 
 PHE793  MET794  SER795  GLU796  ALA797  LYS798  CYS799  TRP800  GLU811  SER814 

> <Gold.Protein.RotatedAtoms>
  151.4980  135.1060  159.9821 H   0  0  0  0  0  0  0  0  0  0  0  0  # atno 6907 bound_to 6896
  152.4713  133.8033  159.6975 H   0  0  0  0  0  0  0  0  0  0  0  0  # atno 6908 bound_to 6896
  150.8724  133.7423  159.2983 H   0  0  0  0  0  0  0  0  0  0  0  0  # atno 6909 bound_to 6896
  145.9868  140.7224  142.9336 H   0  0  0  0  0  0  0  0  0  0  0  0  # atno 7974 bound_to 7965
  154.4337  140.1848  156.1072 H   0  0  0  0  0  0  0  0  0  0  0  0  # atno 8008 bound_to 7997
  156.0246  140.3337  155.7049 H   0  0  0  0  0  0  0  0  0  0  0  0  # atno 8009 bound_to 7997
  155.5928  140.0632  157.2745 H   0  0  0  0  0  0  0  0  0  0  0  0  # atno 8010 bound_to 7997
  139.7847  144.6875  150.9973 H   0  0  0  0  0  0  0  0  0  0  0  0  # atno 10167 bound_to 10162
  157.2950  130.7322  149.6633 H   0  0  0  0  0  0  0  0  0  0  0  0  # atno 10718 bound_to 10713
  154.7046  135.5161  153.8576 H   0  0  0  0  0  0  0  0  0  0  0  0  # atno 10763 bound_to 10752
  153.0731  135.6607  154.0214 H   0  0  0  0  0  0  0  0  0  0  0  0  # atno 10764 bound_to 10752
  154.0067  135.3006  155.3376 H   0  0  0  0  0  0  0  0  0  0  0  0  # atno 10765 bound_to 10752
  141.1522  133.6731  156.6380 H   0  0  0  0  0  0  0  0  0  0  0  0  # atno 11005 bound_to 11000
  144.6877  140.3002  143.7264 LP  0  0  0  0  0  0  0  0  0  0  0  0  # atno 17320 bound_to 7965
  145.7689  139.1850  143.2224 LP  0  0  0  0  0  0  0  0  0  0  0  0  # atno 17321 bound_to 7965
  140.7819  143.4444  151.0504 LP  0  0  0  0  0  0  0  0  0  0  0  0  # atno 17342 bound_to 10162
  139.8123  143.7933  152.3172 LP  0  0  0  0  0  0  0  0  0  0  0  0  # atno 17343 bound_to 10162
  155.9669  130.4297  150.4845 LP  0  0  0  0  0  0  0  0  0  0  0  0  # atno 17370 bound_to 10713
  157.2815  131.0608  151.2195 LP  0  0  0  0  0  0  0  0  0  0  0  0  # atno 17371 bound_to 10713
  140.3415  134.7845  157.4401 LP  0  0  0  0  0  0  0  0  0  0  0  0  # atno 17394 bound_to 11000
  140.0934  134.5570  155.8422 LP  0  0  0  0  0  0  0  0  0  0  0  0  # atno 17395 bound_to 11000

$$$$
