AV-unprocessed.smi:3349|AV-procd|sdf|12934|dock10
  -GOLD-   2272019363D 1   1.00000     0.00000
 Structure written by MMmdl.
 40 41  0  0  0  0  0  0  0  0  1 V2000
  152.1622  145.0291  158.6695 C   0  0  0  0  0  0  0  0  0  0  0  0
  151.1826  144.2761  159.6064 C   0  0  1  0  0  0  0  0  0  0  0  0
  150.0080  143.7114  158.7600 C   0  0  0  0  0  0  0  0  0  0  0  0
  150.4609  143.0496  157.5419 N   0  0  0  0  0  0  0  0  0  0  0  0
  150.2272  141.7636  157.2415 C   0  0  0  0  0  0  0  0  0  0  0  0
  149.5781  141.0111  157.9692 O   0  0  0  0  0  0  0  0  0  0  0  0
  150.8171  141.2577  155.9161 C   0  0  1  0  0  0  0  0  0  0  0  0
  151.9412  140.2260  156.1223 C   0  0  0  0  0  0  0  0  0  0  0  0
  149.7665  140.7188  155.0639 N   0  0  0  0  0  0  0  0  0  0  0  0
  148.6690  141.2886  154.5573 C   0  0  0  0  0  0  0  0  0  0  0  0
  147.9271  140.4688  153.8261 N   0  0  0  0  0  0  0  0  0  0  0  0
  148.6726  139.3291  153.9346 C   0  0  0  0  0  0  0  0  0  0  0  0
  149.7820  139.4235  154.6677 N   0  0  0  0  0  0  0  0  0  0  0  0
  151.8576  143.2437  160.4276 N   0  0  0  0  0  0  0  0  0  0  0  0
  152.5488  143.8051  161.5943 C   0  0  0  0  0  0  0  0  0  0  0  0
  153.2712  142.7360  162.4330 C   0  0  0  0  0  0  0  0  0  0  0  0
  154.1894  142.0238  161.6154 O   0  0  0  0  0  0  0  0  0  0  0  0
  153.5468  141.3968  160.5142 C   0  0  0  0  0  0  0  0  0  0  0  0
  152.8314  142.4580  159.6604 C   0  0  0  0  0  0  0  0  0  0  0  0
  151.6587  145.7558  158.0328 H   0  0  0  0  0  0  0  0  0  0  0  0
  152.6935  144.3356  158.0168 H   0  0  0  0  0  0  0  0  0  0  0  0
  152.9020  145.6065  159.2219 H   0  0  0  0  0  0  0  0  0  0  0  0
  150.7576  145.0187  160.2838 H   0  0  0  0  0  0  0  0  0  0  0  0
  149.4202  143.0141  159.3595 H   0  0  0  0  0  0  0  0  0  0  0  0
  149.3350  144.5035  158.4344 H   0  0  0  0  0  0  0  0  0  0  0  0
  150.9969  143.6038  156.8897 H   0  0  0  0  0  0  0  0  0  0  0  0
  151.2558  142.1188  155.4076 H   0  0  0  0  0  0  0  0  0  0  0  0
  152.7291  140.6220  156.7640 H   0  0  0  0  0  0  0  0  0  0  0  0
  152.3999  139.9574  155.1704 H   0  0  0  0  0  0  0  0  0  0  0  0
  151.5696  139.3078  156.5787 H   0  0  0  0  0  0  0  0  0  0  0  0
  148.4079  142.3231  154.7280 H   0  0  0  0  0  0  0  0  0  0  0  0
  148.3883  138.4011  153.4608 H   0  0  0  0  0  0  0  0  0  0  0  0
  153.2680  144.5592  161.2713 H   0  0  0  0  0  0  0  0  0  0  0  0
  151.8444  144.3016  162.2585 H   0  0  0  0  0  0  0  0  0  0  0  0
  153.8152  143.2032  163.2540 H   0  0  0  0  0  0  0  0  0  0  0  0
  152.5539  142.0440  162.8772 H   0  0  0  0  0  0  0  0  0  0  0  0
  154.2937  140.8722  159.9181 H   0  0  0  0  0  0  0  0  0  0  0  0
  152.8391  140.6476  160.8730 H   0  0  0  0  0  0  0  0  0  0  0  0
  152.3425  141.9306  158.8434 H   0  0  0  0  0  0  0  0  0  0  0  0
  153.5721  143.1220  159.2124 H   0  0  0  0  0  0  0  0  0  0  0  0
  1  2  1  0  0  0  0
  1 20  1  0  0  0  0
  1 21  1  0  0  0  0
  1 22  1  0  0  0  0
  2  3  1  0  0  0  0
  2 14  1  0  0  0  0
  2 23  1  0  0  0  0
  3  4  1  0  0  0  0
  3 24  1  0  0  0  0
  3 25  1  0  0  0  0
  4  5  1  0  0  0  0
  4 26  1  0  0  0  0
  5  6  2  0  0  0  0
  5  7  1  0  0  0  0
  7  8  1  0  0  0  0
  7  9  1  0  0  0  0
  7 27  1  0  0  0  0
  8 28  1  0  0  0  0
  8 29  1  0  0  0  0
  8 30  1  0  0  0  0
  9 13  1  0  0  0  0
  9 10  1  0  0  0  0
 10 11  2  0  0  0  0
 10 31  1  0  0  0  0
 11 12  1  0  0  0  0
 12 13  2  0  0  0  0
 12 32  1  0  0  0  0
 14 19  1  0  0  0  0
 14 15  1  0  0  0  0
 15 16  1  0  0  0  0
 15 33  1  0  0  0  0
 15 34  1  0  0  0  0
 16 17  1  0  0  0  0
 16 35  1  0  0  0  0
 16 36  1  0  0  0  0
 17 18  1  0  0  0  0
 18 19  1  0  0  0  0
 18 37  1  0  0  0  0
 18 38  1  0  0  0  0
 19 39  1  0  0  0  0
 19 40  1  0  0  0  0
M  END
> <s_m_source_file>
AV-unprocessed.smi

> <i_m_source_file_index>
3349

> <i_lp_mmshare_version>
43012

> <i_f3d_flags>
0

> <s_epik_input>
W0NIMl0xW0NIMl1PW0NIMl1bQ0gyXU4xW0NASF0oW0NIM10pW0NIMl1bTkhdQyg9TylbQ0BIXShbQ0gzXSluMltjSF1uW2NIXW4y

> <s_epik_cmdline>
J2VwaWtfcHl0aG9uJywgJy1waCcsICc3LjAnLCAnLXRuJywgJzgnLCAnLW1hJywgJzIwMCcsICctbWV0YWxfYmluZGluZycsICctaW1hZScsICc8aW5maWxlLm1hZT4nLCAnLW9tYWUnLCAnPG91dGZpbGUubWFlPic=

> <r_lp_tautomer_probability>
1

> <r_epik_Ionization_Penalty>
0.211373

> <r_epik_Ionization_Penalty_Charging>
0

> <r_epik_Ionization_Penalty_Neutral>
0.211373

> <r_epik_State_Penalty>
0.201459

> <r_epik_Charging_Adjusted_Penalty>
0.201459

> <i_epik_Tot_Q>
0

> <i_epik_Tot_abs_Q>
0

> <r_epik_Metal_State_Penalty>
0.201458

> <b_epik_Metal_Only>
0

> <s_lp_Force_Field>
OPLS_2005

> <r_lp_Energy>
35.0343

> <b_lp_Chiralities_Consistent>
1

> <s_lp_Variant>
AV-unprocessed.smi:3349-4

> <Gold.Version>
5.8.1

> <Gold.Id.Protein>
6NUR|6NUR_protein|mol2

> <Gold.PLP.Fitness>
48.0086

> <Gold.PLP.PLP>
-44.8385

> <Gold.PLP.part.hbond>
-1.9567

> <Gold.PLP.part.metal>
0.0000

> <Gold.PLP.part.buried>
-4.0665

> <Gold.PLP.part.nonpolar>
-38.5303

> <Gold.PLP.part.repulsive>
0.8927

> <Gold.PLP.ligand.clash>
0.0000

> <Gold.PLP.ligand.torsion>
0.6362

> <Gold.PLP.Chemscore.Hbond>
0.0000

> <Gold.PLP.Chemscore.CHOScore>
1.4490

> <Gold.PLP.Chemscore.Metal>
0.0000

> <Gold.Chemscore.Hbonds>
donor molecule, donor type, donor heavy atom, donor atom, acceptor molecule, acceptor atom, score
      L1  C    10    31       P1  8028  0.84
      L1  C    12    32       P1  7948  0.49

> <Gold.PLP.Chemscore.Internal.Correction>
0.0956

> <Gold.Rescore>
     Score         DG    S(hbond)    S(metal)    S(lipo)     H(rot)  DE(clash)    DE(int)     intcor
      8.74      -9.65       0.00        0.00      91.60       2.56       0.01       0.91       ----

> <Gold.Chemscore.Fitness>
8.7365

> <Gold.Chemscore.DG>
-9.6508

> <Gold.Chemscore.ZeroCoef>
-5.4800

> <Gold.Chemscore.Hbond>
0.0000

> <Gold.Chemscore.Metal>
0.0000

> <Gold.Chemscore.Lipo>
91.5951

> <Gold.Chemscore.Internal_Hbond>
0.0000

> <Gold.Chemscore.DEClash>
0.0050

> <Gold.Chemscore.DEInternal>
0.9092

> <Gold.Chemscore.Rot>
2.5570

> <Gold.Chemscore.Internal.Correction>
   9.000000E+99

> <Gold.Chemscore.Hbond.Weighted>
-0.0000

> <Gold.Chemscore.Metal.Weighted>
-0.0000

> <Gold.Chemscore.Lipo.Weighted>
-10.7166

> <Gold.Chemscore.Internal_Hbond.Weighted>
0.0000

> <Gold.Chemscore.DEClash.Weighted>
0.0050

> <Gold.Chemscore.DEInternal.Weighted>
0.9092

> <Gold.Chemscore.Rot.Weighted>
6.5459

> <Gold.Chemscore.Internal.Correction.Weighted>
   9.000000E+99

> <Gold.Protein.RotatedTorsions>
[ 6907 6896 6895 6894 ] final  -25.90 input  -60.11 | X-H torsion
[ 7974 7965 7964 7962 ] final   -9.15 input  175.53 | X-H torsion
[ 8008 7997 7996 7995 ] final  -76.51 input   59.86 | X-H torsion
[ 10167 10162 10161 10158 ] final  -81.35 input  -65.29 | X-H torsion
[ 10718 10713 10712 10709 ] final   -2.35 input   66.30 | X-H torsion
[ 10763 10752 10751 10750 ] final    6.31 input  -60.55 | X-H torsion
[ 11005 11000 10999 10996 ] final  121.54 input  -57.11 | X-H torsion

> <Gold.Protein.ActiveResidues>
 VAL166  LYS551  ARG553  GLY616  TRP617  ASP618  TYR619  PRO620  LYS621  CYS622 
 ASP623  PHE694  ASN695  SER759  ASP760  ASP761  ALA762  ILE779  LEU786  VAL792 
 PHE793  MET794  SER795  GLU796  ALA797  LYS798  CYS799  TRP800  GLU811  SER814 

> <Gold.Protein.RotatedAtoms>
  151.1686  135.0307  159.8741 H   0  0  0  0  0  0  0  0  0  0  0  0  # atno 6907 bound_to 6896
  152.5449  134.1197  159.8404 H   0  0  0  0  0  0  0  0  0  0  0  0  # atno 6908 bound_to 6896
  151.1300  133.4997  159.2632 H   0  0  0  0  0  0  0  0  0  0  0  0  # atno 6909 bound_to 6896
  146.2260  140.2574  142.8350 H   0  0  0  0  0  0  0  0  0  0  0  0  # atno 7974 bound_to 7965
  154.5512  140.0726  156.8671 H   0  0  0  0  0  0  0  0  0  0  0  0  # atno 8008 bound_to 7997
  155.2989  140.3383  155.4230 H   0  0  0  0  0  0  0  0  0  0  0  0  # atno 8009 bound_to 7997
  156.1963  140.1705  156.7978 H   0  0  0  0  0  0  0  0  0  0  0  0  # atno 8010 bound_to 7997
  140.4420  143.2511  151.8612 H   0  0  0  0  0  0  0  0  0  0  0  0  # atno 10167 bound_to 10162
  156.7920  130.5365  149.5734 H   0  0  0  0  0  0  0  0  0  0  0  0  # atno 10718 bound_to 10713
  153.2492  135.6912  153.7698 H   0  0  0  0  0  0  0  0  0  0  0  0  # atno 10763 bound_to 10752
  153.6799  135.3330  155.3176 H   0  0  0  0  0  0  0  0  0  0  0  0  # atno 10764 bound_to 10752
  154.8387  135.4520  154.1442 H   0  0  0  0  0  0  0  0  0  0  0  0  # atno 10765 bound_to 10752
  139.9230  134.9639  156.7974 H   0  0  0  0  0  0  0  0  0  0  0  0  # atno 11005 bound_to 11000
  144.9365  140.8032  143.5657 LP  0  0  0  0  0  0  0  0  0  0  0  0  # atno 17320 bound_to 7965
  145.2522  139.2027  143.4936 LP  0  0  0  0  0  0  0  0  0  0  0  0  # atno 17321 bound_to 7965
  139.4790  144.5218  151.8791 LP  0  0  0  0  0  0  0  0  0  0  0  0  # atno 17342 bound_to 10162
  140.4307  144.2119  150.5888 LP  0  0  0  0  0  0  0  0  0  0  0  0  # atno 17343 bound_to 10162
  156.1153  130.6070  151.0111 LP  0  0  0  0  0  0  0  0  0  0  0  0  # atno 17370 bound_to 10713
  157.6596  131.0883  150.7870 LP  0  0  0  0  0  0  0  0  0  0  0  0  # atno 17371 bound_to 10713
  140.6418  133.9812  155.7711 LP  0  0  0  0  0  0  0  0  0  0  0  0  # atno 17394 bound_to 11000
  141.0766  134.0125  157.3448 LP  0  0  0  0  0  0  0  0  0  0  0  0  # atno 17395 bound_to 11000

$$$$
