AV-unprocessed.smi:3117|AV-procd|sdf|11879|dock2
  -GOLD-   2272017263D 1   1.00000     0.00000
 Structure written by MMmdl.
 37 37  0  0  0  0  0  0  0  0  2 V2000
  151.7151  140.3178  156.4304 C   0  0  0  0  0  0  0  0  0  0  0  0
  151.2048  141.7402  156.7246 C   0  0  1  0  0  0  0  0  0  0  0  0
  150.0930  142.0483  155.7973 N   0  3  0  0  0  0  0  0  0  0  0  0
  148.9621  141.0955  155.8420 C   0  0  0  0  0  0  0  0  0  0  0  0
  148.3559  140.8386  154.4460 C   0  0  0  0  0  0  0  0  0  0  0  0
  147.5890  139.5057  154.4360 C   0  0  0  0  0  0  0  0  0  0  0  0
  147.4382  141.9853  153.9836 C   0  0  0  0  0  0  0  0  0  0  0  0
  149.4167  140.7080  153.5193 O   0  0  0  0  0  0  0  0  0  0  0  0
  150.7549  141.9295  158.1988 C   0  0  2  0  0  0  0  0  0  0  0  0
  149.9620  143.2316  158.4242 C   0  0  0  0  0  0  0  0  0  0  0  0
  151.8801  141.8661  159.1236 N   0  0  0  0  0  0  0  0  0  0  0  0
  152.3195  142.8332  160.0046 C   0  0  0  0  0  0  0  0  0  0  0  0
  153.4030  142.3250  160.6625 C   0  0  0  0  0  0  0  0  0  0  0  0
  153.5568  141.0245  160.1069 C   0  0  0  0  0  0  0  0  0  0  0  0
  152.6451  140.7526  159.1875 N   0  0  0  0  0  0  0  0  0  0  0  0
  152.6016  140.0747  157.0164 H   0  0  0  0  0  0  0  0  0  0  0  0
  151.9895  140.2109  155.3804 H   0  0  0  0  0  0  0  0  0  0  0  0
  150.9538  139.5693  156.6524 H   0  0  0  0  0  0  0  0  0  0  0  0
  152.0327  142.4228  156.5235 H   0  0  0  0  0  0  0  0  0  0  0  0
  149.7357  142.9658  156.0212 H   0  0  0  0  0  0  0  0  0  0  0  0
  149.3048  140.1552  156.2764 H   0  0  0  0  0  0  0  0  0  0  0  0
  148.1976  141.4912  156.5123 H   0  0  0  0  0  0  0  0  0  0  0  0
  146.7482  139.5294  155.1301 H   0  0  0  0  0  0  0  0  0  0  0  0
  148.2308  138.6729  154.7265 H   0  0  0  0  0  0  0  0  0  0  0  0
  147.1895  139.2820  153.4459 H   0  0  0  0  0  0  0  0  0  0  0  0
  146.6101  142.1300  154.6783 H   0  0  0  0  0  0  0  0  0  0  0  0
  147.0092  141.7778  153.0024 H   0  0  0  0  0  0  0  0  0  0  0  0
  147.9745  142.9318  153.9085 H   0  0  0  0  0  0  0  0  0  0  0  0
  149.1828  140.0483  152.8836 H   0  0  0  0  0  0  0  0  0  0  0  0
  150.0956  141.0986  158.4557 H   0  0  0  0  0  0  0  0  0  0  0  0
  149.0325  143.2395  157.8547 H   0  0  0  0  0  0  0  0  0  0  0  0
  150.5395  144.1084  158.1299 H   0  0  0  0  0  0  0  0  0  0  0  0
  149.6949  143.3488  159.4750 H   0  0  0  0  0  0  0  0  0  0  0  0
  151.8299  143.7920  160.0913 H   0  0  0  0  0  0  0  0  0  0  0  0
  153.9966  142.8090  161.4239 H   0  0  0  0  0  0  0  0  0  0  0  0
  154.2978  140.2748  160.3425 H   0  0  0  0  0  0  0  0  0  0  0  0
  150.4565  142.0688  154.8550 H   0  0  0  0  0  0  0  0  0  0  0  0
  1  2  1  0  0  0  0
  1 16  1  0  0  0  0
  1 17  1  0  0  0  0
  1 18  1  0  0  0  0
  2  3  1  0  0  0  0
  2  9  1  0  0  0  0
  2 19  1  0  0  0  0
  3  4  1  0  0  0  0
  3 20  1  0  0  0  0
  3 37  1  0  0  0  0
  4  5  1  0  0  0  0
  4 21  1  0  0  0  0
  4 22  1  0  0  0  0
  5  6  1  0  0  0  0
  5  7  1  0  0  0  0
  5  8  1  0  0  0  0
  6 23  1  0  0  0  0
  6 24  1  0  0  0  0
  6 25  1  0  0  0  0
  7 26  1  0  0  0  0
  7 27  1  0  0  0  0
  7 28  1  0  0  0  0
  8 29  1  0  0  0  0
  9 10  1  0  0  0  0
  9 11  1  0  0  0  0
  9 30  1  0  0  0  0
 10 31  1  0  0  0  0
 10 32  1  0  0  0  0
 10 33  1  0  0  0  0
 11 15  1  0  0  0  0
 11 12  1  0  0  0  0
 12 13  2  0  0  0  0
 12 34  1  0  0  0  0
 13 14  1  0  0  0  0
 13 35  1  0  0  0  0
 14 15  2  0  0  0  0
 14 36  1  0  0  0  0
M  CHG  1   3   1
M  END
> <s_m_source_file>
AV-unprocessed.smi

> <i_m_source_file_index>
3117

> <i_lp_mmshare_version>
43012

> <i_f3d_flags>
0

> <s_epik_input>
W0NIM11DKFtDSDNdKShbT0hdKVtDSDJdW05IXVtDQEBIXShbQ0gzXSlbQ0BIXShbQ0gzXSluMVtjSF1bY0hdW2NIXW4x

> <s_epik_cmdline>
J2VwaWtfcHl0aG9uJywgJy1waCcsICc3LjAnLCAnLXRuJywgJzgnLCAnLW1hJywgJzIwMCcsICctbWV0YWxfYmluZGluZycsICctaW1hZScsICc8aW5maWxlLm1hZT4nLCAnLW9tYWUnLCAnPG91dGZpbGUubWFlPic=

> <r_lp_tautomer_probability>
1

> <r_epik_Ionization_Penalty>
0.0164263

> <r_epik_Ionization_Penalty_Charging>
0.0164138

> <r_epik_Ionization_Penalty_Neutral>
1.24697e-05

> <r_epik_State_Penalty>
0.0129543

> <r_epik_Charging_Adjusted_Penalty>
0.0293681

> <i_epik_Tot_Q>
1

> <i_epik_Tot_abs_Q>
1

> <r_epik_Metal_State_Penalty>
0.0129806

> <b_epik_Metal_Only>
0

> <s_lp_Force_Field>
OPLS_2005

> <r_lp_Energy>
13.915

> <b_lp_Chiralities_Consistent>
1

> <s_lp_Variant>
AV-unprocessed.smi:3117-2

> <Gold.Version>
5.8.1

> <Gold.Id.Protein>
6NUR|6NUR_protein|mol2

> <Gold.PLP.Fitness>
44.2639

> <Gold.PLP.PLP>
-33.3682

> <Gold.PLP.part.hbond>
-3.4589

> <Gold.PLP.part.metal>
0.0000

> <Gold.PLP.part.buried>
-5.6417

> <Gold.PLP.part.nonpolar>
-23.8963

> <Gold.PLP.part.repulsive>
0.1442

> <Gold.PLP.ligand.clash>
0.0000

> <Gold.PLP.ligand.torsion>
0.7096

> <Gold.PLP.Chemscore.Hbond>
4.0720

> <Gold.PLP.Chemscore.CHOScore>
0.0000

> <Gold.PLP.Chemscore.Metal>
0.0000

> <Gold.Chemscore.Hbonds>
donor molecule, donor type, donor heavy atom, donor atom, acceptor molecule, acceptor atom, score
      L1  H     3    20       P1  8028  2.00
      L1  H     8    29       P1  7957  0.53
      P1  H  7989  7998       L1     8  0.23
      P1  H  8011  8017       L1     8  0.80

> <Gold.PLP.Chemscore.Internal.Correction>
0.0989

> <Gold.Rescore>
     Score         DG    S(hbond)    S(metal)    S(lipo)     H(rot)  DE(clash)    DE(int)     intcor
     15.32     -16.88       2.25        0.00      82.82       2.27       0.39       1.17       ----

> <Gold.Chemscore.Fitness>
15.3151

> <Gold.Chemscore.DG>
-16.8786

> <Gold.Chemscore.ZeroCoef>
-5.4800

> <Gold.Chemscore.Hbond>
2.2533

> <Gold.Chemscore.Metal>
0.0000

> <Gold.Chemscore.Lipo>
82.8230

> <Gold.Chemscore.Internal_Hbond>
0.0000

> <Gold.Chemscore.DEClash>
0.3934

> <Gold.Chemscore.DEInternal>
1.1701

> <Gold.Chemscore.Rot>
2.2725

> <Gold.Chemscore.Internal.Correction>
   9.000000E+99

> <Gold.Chemscore.Hbonds>
donor molecule, donor type, donor heavy atom, donor atom, acceptor molecule, acceptor atom, score
      L1  H     3    20       P1  8028  0.96
      L1  H     8    29       P1  7957  0.54
      P1  H  7989  7998       L1     8  0.14
      P1  H  8011  8017       L1     8  0.29

> <Gold.Chemscore.Hbond.Weighted>
-7.5259

> <Gold.Chemscore.Metal.Weighted>
-0.0000

> <Gold.Chemscore.Lipo.Weighted>
-9.6903

> <Gold.Chemscore.Internal_Hbond.Weighted>
0.0000

> <Gold.Chemscore.DEClash.Weighted>
0.3934

> <Gold.Chemscore.DEInternal.Weighted>
1.1701

> <Gold.Chemscore.Rot.Weighted>
5.8176

> <Gold.Chemscore.Internal.Correction.Weighted>
   9.000000E+99

> <Gold.Protein.RotatedTorsions>
[ 6907 6896 6895 6894 ] final -161.80 input  -60.11 | X-H torsion
[ 7974 7965 7964 7962 ] final   11.37 input  175.53 | X-H torsion
[ 8008 7997 7996 7995 ] final   65.23 input   59.86 | X-H torsion
[ 10167 10162 10161 10158 ] final  149.06 input  -65.29 | X-H torsion
[ 10718 10713 10712 10709 ] final  109.79 input   66.30 | X-H torsion
[ 10763 10752 10751 10750 ] final  115.73 input  -60.55 | X-H torsion
[ 11005 11000 10999 10996 ] final   92.57 input  -57.11 | X-H torsion

> <Gold.Protein.ActiveResidues>
 VAL166  LYS551  ARG553  GLY616  TRP617  ASP618  TYR619  PRO620  LYS621  CYS622 
 ASP623  PHE694  ASN695  SER759  ASP760  ASP761  ALA762  ILE779  LEU786  VAL792 
 PHE793  MET794  SER795  GLU796  ALA797  LYS798  CYS799  TRP800  GLU811  SER814 

> <Gold.Protein.RotatedAtoms>
  151.3703  133.3857  159.2698 H   0  0  0  0  0  0  0  0  0  0  0  0  # atno 6907 bound_to 6896
  150.9656  134.9038  159.7767 H   0  0  0  0  0  0  0  0  0  0  0  0  # atno 6908 bound_to 6896
  152.5166  134.3664  159.9355 H   0  0  0  0  0  0  0  0  0  0  0  0  # atno 6909 bound_to 6896
  146.2372  139.9495  142.8472 H   0  0  0  0  0  0  0  0  0  0  0  0  # atno 7974 bound_to 7965
  155.6584  140.3497  155.4774 H   0  0  0  0  0  0  0  0  0  0  0  0  # atno 8008 bound_to 7997
  155.9789  140.1170  157.0768 H   0  0  0  0  0  0  0  0  0  0  0  0  # atno 8009 bound_to 7997
  154.4186  140.1142  156.5394 H   0  0  0  0  0  0  0  0  0  0  0  0  # atno 8010 bound_to 7997
  139.4866  144.5631  151.7195 H   0  0  0  0  0  0  0  0  0  0  0  0  # atno 10167 bound_to 10162
  157.6525  131.0920  150.6506 H   0  0  0  0  0  0  0  0  0  0  0  0  # atno 10718 bound_to 10713
  153.5265  135.3587  155.2656 H   0  0  0  0  0  0  0  0  0  0  0  0  # atno 10763 bound_to 10752
  154.8730  135.4058  154.3200 H   0  0  0  0  0  0  0  0  0  0  0  0  # atno 10764 bound_to 10752
  153.3880  135.7070  153.6583 H   0  0  0  0  0  0  0  0  0  0  0  0  # atno 10765 bound_to 10752
  139.8821  134.8740  156.3592 H   0  0  0  0  0  0  0  0  0  0  0  0  # atno 11005 bound_to 11000
  145.1875  140.9796  143.4230 LP  0  0  0  0  0  0  0  0  0  0  0  0  # atno 17320 bound_to 7965
  144.9886  139.3711  143.6226 LP  0  0  0  0  0  0  0  0  0  0  0  0  # atno 17321 bound_to 7965
  140.5204  144.0887  150.6021 LP  0  0  0  0  0  0  0  0  0  0  0  0  # atno 17342 bound_to 10162
  140.3843  143.2786  152.0134 LP  0  0  0  0  0  0  0  0  0  0  0  0  # atno 17343 bound_to 10162
  156.6815  130.4568  149.5626 LP  0  0  0  0  0  0  0  0  0  0  0  0  # atno 17370 bound_to 10713
  156.1925  130.6569  151.1078 LP  0  0  0  0  0  0  0  0  0  0  0  0  # atno 17371 bound_to 10713
  140.9541  133.7431  156.0311 LP  0  0  0  0  0  0  0  0  0  0  0  0  # atno 17394 bound_to 11000
  140.8070  134.3443  157.5423 LP  0  0  0  0  0  0  0  0  0  0  0  0  # atno 17395 bound_to 11000

$$$$
