#       Name:                AV-unprocessed.smi:2245
#       Creating user name   scv26
#       Creation time:       Fri Mar 27 12:28:39 2020


#       File generated by GOLD software.
#

@<TRIPOS>MOLECULE
AV-unprocessed.smi:2245
    48    49     1
SMALL
NO_CHARGES


@<TRIPOS>ATOM
      1 ****        -6.4230   1.3934   1.0213 C.3            1 S1                 0.0000
      2 ****        -4.9723   1.8275   1.0340 C.ar           1 S1                 0.0000
      3 ****        -4.6241   3.1783   0.8451 C.ar           1 S1                 0.0000
      4 ****        -3.2579   3.5214   0.8614 C.ar           1 S1                 0.0000
      5 ****        -2.8122   4.9556   0.6683 C.3            1 S1                 0.0000
      6 ****        -2.2735   2.6168   1.0495 N.ar           1 S1                 0.0000
      7 ****        -2.5970   1.3127   1.2323 C.ar           1 S1                 0.0000
      8 ****        -1.6379   0.2849   1.4352 N.am           1 S1                 0.0000
      9 ****        -0.2988   0.3976   1.4838 C.2            1 S1                 0.0000
     10 ****         0.3333   1.4486   1.3756 O.2            1 S1                 0.0000
     11 ****         0.2844  -0.7965   1.6640 N.am           1 S1                 0.0000
     12 ****         1.7230  -1.0201   1.7702 C.3            1 S1                 0.0000
     13 ****         2.4443  -0.8734   0.4154 C.3            1 S1                 0.0000
     14 ****         3.9408  -1.1745   0.4710 C.3            1 S1                 0.0000
     15 ****         4.3124  -1.5454  -0.9712 C.3            1 S1                 0.0000
     16 ****         3.0421  -1.8198  -1.6863 N.4            1 S1                 1.0000
     17 ****         3.0517  -3.0067  -2.5753 C.3            1 S1                 0.0000
     18 ****         3.8571  -2.7732  -3.8657 C.3            1 S1                 0.0000
     19 ****         3.7267  -3.8364  -4.6575 F              1 S1                 0.0000
     20 ****         3.3906  -1.7021  -4.5074 F              1 S1                 0.0000
     21 ****         5.1517  -2.5983  -3.6031 F              1 S1                 0.0000
     22 ****         1.9640  -1.8280  -0.6777 C.3            1 S1                 0.0000
     23 ****        -3.9433   0.8838   1.2287 C.ar           1 S1                 0.0000
     24 ****        -7.0826   2.2254   1.2699 H              1 S1                 0.0000
     25 ****        -6.5938   0.5978   1.7469 H              1 S1                 0.0000
     26 ****        -6.6947   1.0223   0.0329 H              1 S1                 0.0000
     27 ****        -5.3840   3.9308   0.6919 H              1 S1                 0.0000
     28 ****        -3.6435   5.5889   0.3567 H              1 S1                 0.0000
     29 ****        -2.0359   5.0152  -0.0952 H              1 S1                 0.0000
     30 ****        -2.4092   5.3533   1.6000 H              1 S1                 0.0000
     31 ****        -2.0169  -0.6431   1.5511 H              1 S1                 0.0000
     32 ****        -0.3103  -1.6077   1.7506 H              1 S1                 0.0000
     33 ****         2.1472  -0.3287   2.5002 H              1 S1                 0.0000
     34 ****         1.8774  -2.0224   2.1708 H              1 S1                 0.0000
     35 ****         2.3249   0.1485   0.0512 H              1 S1                 0.0000
     36 ****         4.5226  -0.3340   0.8508 H              1 S1                 0.0000
     37 ****         4.1273  -2.0278   1.1249 H              1 S1                 0.0000
     38 ****         4.8212  -0.7194  -1.4687 H              1 S1                 0.0000
     39 ****         4.9858  -2.4033  -0.9797 H              1 S1                 0.0000
     40 ****         3.4241  -3.8789  -2.0356 H              1 S1                 0.0000
     41 ****         2.0208  -3.2314  -2.8531 H              1 S1                 0.0000
     42 ****         1.8471  -2.8343  -0.2710 H              1 S1                 0.0000
     43 ****         1.0107  -1.5243  -1.1118 H              1 S1                 0.0000
     44 ****        -4.1874  -0.1587   1.3741 H              1 S1                 0.0000
     45 ****         2.8655  -1.0136  -2.2691 H              1 S1                 0.0000
     46 ****        -1.3160   2.9054   1.0540 LP             1 S1                 0.0000
     47 ****        -0.1520   2.3122   1.2391 LP             1 S1                 0.0000
     48 ****         1.3321   1.4386   1.4242 LP             1 S1                 0.0000
@<TRIPOS>BOND
    1    1    2 1     
    2    1   24 1     
    3    1   25 1     
    4    1   26 1     
    5    2   23 ar    
    6    2    3 ar    
    7    3    4 ar    
    8    3   27 1     
    9    4    5 1     
   10    4    6 ar    
   11    5   28 1     
   12    5   29 1     
   13    5   30 1     
   14    6    7 ar    
   15    7    8 1     
   16    7   23 ar    
   17    8    9 am    
   18    8   31 1     
   19    9   10 2     
   20    9   11 am    
   21   11   12 1     
   22   11   32 1     
   23   12   13 1     
   24   12   33 1     
   25   12   34 1     
   26   13   22 1     
   27   13   14 1     
   28   13   35 1     
   29   14   15 1     
   30   14   36 1     
   31   14   37 1     
   32   15   16 1     
   33   15   38 1     
   34   15   39 1     
   35   16   17 1     
   36   16   22 1     
   37   16   45 1     
   38   17   18 1     
   39   17   40 1     
   40   17   41 1     
   41   18   19 1     
   42   18   20 1     
   43   18   21 1     
   44   22   42 1     
   45   22   43 1     
   46   23   44 1     
   47    6   46 1     
   48   10   47 1     
   49   10   48 1     
@<TRIPOS>SUBSTRUCTURE
      1 S1             1
@<TRIPOS>SET
LONE_PAIRS      STATIC     ATOMS    <user>   **** ""
3 46 47 48
DONOR_HYDROGENS      STATIC     ATOMS    <user>   **** ""
3 31 32 45
ATOM$BLUE        STATIC     ATOMS    COLORGROUP SYSTEM
3 46 47 48
ATOM$RED        STATIC     ATOMS    COLORGROUP SYSTEM
3 31 32 45
