#       Name:                AV-unprocessed.smi:1100
#       Creating user name   scv26
#       Creation time:       Fri Mar 27 03:29:39 2020


#       File generated by GOLD software.
#

@<TRIPOS>MOLECULE
AV-unprocessed.smi:1100
    50    51     1
SMALL
NO_CHARGES


@<TRIPOS>ATOM
      1 ****        -1.6973   1.4638  -1.5933 C.3            1 S1                 0.0000
      2 ****        -1.1593   0.0327  -1.8496 C.3            1 S1                 0.0000
      3 ****         0.3968   0.0773  -1.8662 C.3            1 S1                 0.0000
      4 ****         0.9769   0.6565  -0.6573 N.am           1 S1                 0.0000
      5 ****         1.0490   0.0435   0.5329 C.2            1 S1                 0.0000
      6 ****         0.6340  -1.0985   0.7268 O.2            1 S1                 0.0000
      7 ****         1.6292   0.8406   1.4486 N.am           1 S1                 0.0000
      8 ****         1.8637   0.5996   2.8096 C.2            1 S1                 0.0000
      9 ****         1.3816  -0.5528   3.5578 C.2            1 S1                 0.0000
     10 ****         1.6619  -0.6915   4.8690 C.2            1 S1                 0.0000
     11 ****         2.4565   0.3012   5.5965 C.2            1 S1                 0.0000
     12 ****         2.7268   0.1800   6.7916 O.2            1 S1                 0.0000
     13 ****         2.8760   1.3717   4.8626 N.am           1 S1                 0.0000
     14 ****         3.6725   2.4241   5.4983 C.3            1 S1                 0.0000
     15 ****         2.5803   1.5100   3.4936 C.2            1 S1                 0.0000
     16 ****        -1.7391  -0.5900  -3.0626 N.3            1 S1                 0.0000
     17 ****        -1.2621  -1.9613  -3.2789 C.3            1 S1                 0.0000
     18 ****        -1.8867  -2.6236  -4.5191 C.3            1 S1                 0.0000
     19 ****        -3.3031  -2.6115  -4.4082 O.3            1 S1                 0.0000
     20 ****        -3.8154  -1.2931  -4.2753 C.3            1 S1                 0.0000
     21 ****        -3.2061  -0.6236  -3.0314 C.3            1 S1                 0.0000
     22 ****        -1.2315   1.9355  -0.7289 H              1 S1                 0.0000
     23 ****        -2.7644   1.4716  -1.3764 H              1 S1                 0.0000
     24 ****        -1.5221   2.1107  -2.4534 H              1 S1                 0.0000
     25 ****        -1.4550  -0.5742  -0.9926 H              1 S1                 0.0000
     26 ****         0.8343  -0.9139  -1.9762 H              1 S1                 0.0000
     27 ****         0.7410   0.6616  -2.7200 H              1 S1                 0.0000
     28 ****         1.3435   1.5940  -0.7343 H              1 S1                 0.0000
     29 ****         1.9437   1.7416   1.1197 H              1 S1                 0.0000
     30 ****         0.7799  -1.3183   3.0961 H              1 S1                 0.0000
     31 ****         1.2870  -1.5537   5.4008 H              1 S1                 0.0000
     32 ****         3.8917   3.2525   4.8241 H              1 S1                 0.0000
     33 ****         4.6260   2.0224   5.8438 H              1 S1                 0.0000
     34 ****         3.1464   2.8394   6.3593 H              1 S1                 0.0000
     35 ****         2.9794   2.4021   3.0323 H              1 S1                 0.0000
     36 ****        -0.1843  -1.9777  -3.4254 H              1 S1                 0.0000
     37 ****        -1.4731  -2.5699  -2.3982 H              1 S1                 0.0000
     38 ****        -1.5805  -2.1055  -5.4291 H              1 S1                 0.0000
     39 ****        -1.5460  -3.6551  -4.6089 H              1 S1                 0.0000
     40 ****        -3.5936  -0.7148  -5.1738 H              1 S1                 0.0000
     41 ****        -4.9007  -1.3412  -4.1856 H              1 S1                 0.0000
     42 ****        -3.5453  -1.1472  -2.1362 H              1 S1                 0.0000
     43 ****        -3.6127   0.3848  -2.9820 H              1 S1                 0.0000
     44 ****         0.2194  -1.6139  -0.0232 LP             1 S1                 0.0000
     45 ****         0.7114  -1.5112   1.6343 LP             1 S1                 0.0000
     46 ****         2.4010  -0.6174   7.2995 LP             1 S1                 0.0000
     47 ****         3.2721   0.8790   7.2543 LP             1 S1                 0.0000
     48 ****        -1.4315  -0.0071  -3.8147 LP             1 S1                 0.0000
     49 ****        -3.5685  -3.1436  -3.6042 LP             1 S1                 0.0000
     50 ****        -3.6947  -3.0289  -5.2282 LP             1 S1                 0.0000
@<TRIPOS>BOND
    1    1    2 1     
    2    1   22 1     
    3    1   23 1     
    4    1   24 1     
    5    2    3 1     
    6    2   16 1     
    7    2   25 1     
    8    3    4 1     
    9    3   26 1     
   10    3   27 1     
   11    4    5 am    
   12    4   28 1     
   13    5    6 2     
   14    5    7 am    
   15    7    8 1     
   16    7   29 1     
   17    8   15 2     
   18    8    9 1     
   19    9   10 2     
   20    9   30 1     
   21   10   11 1     
   22   10   31 1     
   23   11   12 2     
   24   11   13 am    
   25   13   14 1     
   26   13   15 1     
   27   14   32 1     
   28   14   33 1     
   29   14   34 1     
   30   15   35 1     
   31   16   21 1     
   32   16   17 1     
   33   17   18 1     
   34   17   36 1     
   35   17   37 1     
   36   18   19 1     
   37   18   38 1     
   38   18   39 1     
   39   19   20 1     
   40   20   21 1     
   41   20   40 1     
   42   20   41 1     
   43   21   42 1     
   44   21   43 1     
   45    6   44 1     
   46    6   45 1     
   47   12   46 1     
   48   12   47 1     
   49   16   48 1     
   50   19   49 1     
   51   19   50 1     
@<TRIPOS>SUBSTRUCTURE
      1 S1             1
@<TRIPOS>SET
LONE_PAIRS      STATIC     ATOMS    <user>   **** ""
7 44 45 46 47 48 49 50
DONOR_HYDROGENS      STATIC     ATOMS    <user>   **** ""
2 28 29
ATOM$BLUE        STATIC     ATOMS    COLORGROUP SYSTEM
7 44 45 46 47 48 49 50
ATOM$RED        STATIC     ATOMS    COLORGROUP SYSTEM
2 28 29
