AV-unprocessed.smi:2252|AV-procd|sdf|9106|dock4
  -GOLD-   2272012303D 1   1.00000     0.00000
 Structure written by MMmdl.
 45 47  0  0  0  0  0  0  0  0  2 V2000
  153.4929  139.7051  158.5330 C   0  0  0  0  0  0  0  0  0  0  0  0
  153.0745  140.9946  159.0482 N   0  0  0  0  0  0  0  0  0  0  0  0
  153.5993  141.6304  160.1658 C   0  0  0  0  0  0  0  0  0  0  0  0
  152.9190  142.8161  160.3009 C   0  0  0  0  0  0  0  0  0  0  0  0
  151.9797  142.9267  159.2818 N   0  0  0  0  0  0  0  0  0  0  0  0
  152.1190  141.8147  158.5666 C   0  0  0  0  0  0  0  0  0  0  0  0
  151.2839  141.5001  157.3595 C   0  0  0  0  0  0  0  0  0  0  0  0
  151.5079  142.4730  156.1896 C   0  0  0  0  0  0  0  0  0  0  0  0
  150.3668  142.4908  155.2817 N   0  0  0  0  0  0  0  0  0  0  0  0
  150.1083  141.5551  154.3569 C   0  0  0  0  0  0  0  0  0  0  0  0
  150.8068  140.5537  154.1954 O   0  0  0  0  0  0  0  0  0  0  0  0
  148.8854  141.7994  153.4585 C   0  0  1  0  0  0  0  0  0  0  0  0
  148.3451  140.4318  152.9850 C   0  0  0  0  0  0  0  0  0  0  0  0
  149.2084  139.4986  152.1618 C   0  0  0  0  0  0  0  0  0  0  0  0
  148.0179  140.1708  151.5301 C   0  0  0  0  0  0  0  0  0  0  0  0
  147.8297  142.5886  154.1561 N   0  3  0  0  0  0  0  0  0  0  0  0
  146.7095  143.0462  153.3048 C   0  0  0  0  0  0  0  0  0  0  0  0
  145.6080  143.4285  154.2863 C   0  0  0  0  0  0  0  0  0  0  0  0
  145.7533  142.3995  155.4042 C   0  0  0  0  0  0  0  0  0  0  0  0
  147.2138  141.9289  155.3334 C   0  0  0  0  0  0  0  0  0  0  0  0
  154.2326  139.2572  159.1973 H   0  0  0  0  0  0  0  0  0  0  0  0
  153.9363  139.8292  157.5448 H   0  0  0  0  0  0  0  0  0  0  0  0
  152.6355  139.0360  158.4628 H   0  0  0  0  0  0  0  0  0  0  0  0
  154.3918  141.1981  160.7590 H   0  0  0  0  0  0  0  0  0  0  0  0
  153.0319  143.5906  161.0453 H   0  0  0  0  0  0  0  0  0  0  0  0
  151.5192  140.4858  157.0356 H   0  0  0  0  0  0  0  0  0  0  0  0
  150.2288  141.4869  157.6322 H   0  0  0  0  0  0  0  0  0  0  0  0
  151.6762  143.4753  156.5881 H   0  0  0  0  0  0  0  0  0  0  0  0
  152.4059  142.1961  155.6366 H   0  0  0  0  0  0  0  0  0  0  0  0
  149.7493  143.2876  155.3416 H   0  0  0  0  0  0  0  0  0  0  0  0
  149.2097  142.3727  152.5876 H   0  0  0  0  0  0  0  0  0  0  0  0
  147.7019  139.9412  153.7140 H   0  0  0  0  0  0  0  0  0  0  0  0
  150.1918  139.8477  151.8563 H   0  0  0  0  0  0  0  0  0  0  0  0
  149.1366  138.4331  152.3697 H   0  0  0  0  0  0  0  0  0  0  0  0
  147.1474  139.5546  151.3147 H   0  0  0  0  0  0  0  0  0  0  0  0
  148.2184  140.9617  150.8100 H   0  0  0  0  0  0  0  0  0  0  0  0
  146.9906  143.8815  152.6627 H   0  0  0  0  0  0  0  0  0  0  0  0
  146.3707  142.2269  152.6684 H   0  0  0  0  0  0  0  0  0  0  0  0
  145.7954  144.4287  154.6791 H   0  0  0  0  0  0  0  0  0  0  0  0
  144.6163  143.4264  153.8329 H   0  0  0  0  0  0  0  0  0  0  0  0
  145.4985  142.8179  156.3784 H   0  0  0  0  0  0  0  0  0  0  0  0
  145.0850  141.5566  155.2231 H   0  0  0  0  0  0  0  0  0  0  0  0
  147.2342  140.8435  155.2286 H   0  0  0  0  0  0  0  0  0  0  0  0
  147.7678  142.1885  156.2361 H   0  0  0  0  0  0  0  0  0  0  0  0
  148.2725  143.4269  154.5052 H   0  0  0  0  0  0  0  0  0  0  0  0
  1  2  1  0  0  0  0
  1 21  1  0  0  0  0
  1 22  1  0  0  0  0
  1 23  1  0  0  0  0
  2  6  1  0  0  0  0
  2  3  1  0  0  0  0
  3  4  2  0  0  0  0
  3 24  1  0  0  0  0
  4  5  1  0  0  0  0
  4 25  1  0  0  0  0
  5  6  2  0  0  0  0
  6  7  1  0  0  0  0
  7  8  1  0  0  0  0
  7 26  1  0  0  0  0
  7 27  1  0  0  0  0
  8  9  1  0  0  0  0
  8 28  1  0  0  0  0
  8 29  1  0  0  0  0
  9 10  1  0  0  0  0
  9 30  1  0  0  0  0
 10 11  2  0  0  0  0
 10 12  1  0  0  0  0
 12 13  1  0  0  0  0
 12 16  1  0  0  0  0
 12 31  1  0  0  0  0
 13 15  1  0  0  0  0
 13 14  1  0  0  0  0
 13 32  1  0  0  0  0
 14 15  1  0  0  0  0
 14 33  1  0  0  0  0
 14 34  1  0  0  0  0
 15 35  1  0  0  0  0
 15 36  1  0  0  0  0
 16 20  1  0  0  0  0
 16 17  1  0  0  0  0
 16 45  1  0  0  0  0
 17 18  1  0  0  0  0
 17 37  1  0  0  0  0
 17 38  1  0  0  0  0
 18 19  1  0  0  0  0
 18 39  1  0  0  0  0
 18 40  1  0  0  0  0
 19 20  1  0  0  0  0
 19 41  1  0  0  0  0
 19 42  1  0  0  0  0
 20 43  1  0  0  0  0
 20 44  1  0  0  0  0
M  CHG  1  16   1
M  END
> <s_m_source_file>
AV-unprocessed.smi

> <i_m_source_file_index>
2252

> <i_lp_mmshare_version>
43012

> <i_f3d_flags>
0

> <s_epik_input>
W0NIM11uMVtjSF1bY0hdbmMxW0NIMl1bQ0gyXVtOSF1DKD1PKVtDQEhdKFtDSF0yW0NIMl1bQ0gyXTIpTjNbQ0gyXVtDSDJdW0NIMl1bQ0gyXTM=

> <s_epik_cmdline>
J2VwaWtfcHl0aG9uJywgJy1waCcsICc3LjAnLCAnLXRuJywgJzgnLCAnLW1hJywgJzIwMCcsICctbWV0YWxfYmluZGluZycsICctaW1hZScsICc8aW5maWxlLm1hZT4nLCAnLW9tYWUnLCAnPG91dGZpbGUubWFlPic=

> <r_lp_tautomer_probability>
1

> <r_epik_Ionization_Penalty>
1.07437

> <r_epik_Ionization_Penalty_Charging>
1.07435

> <r_epik_Ionization_Penalty_Neutral>
2.35578e-05

> <r_epik_State_Penalty>
1.18204

> <r_epik_Charging_Adjusted_Penalty>
2.25639

> <i_epik_Tot_Q>
1

> <i_epik_Tot_abs_Q>
1

> <r_epik_Metal_State_Penalty>
0.433434

> <b_epik_Metal_Only>
0

> <s_lp_Force_Field>
OPLS_2005

> <r_lp_Energy>
34.9186

> <b_lp_Chiralities_Consistent>
1

> <s_lp_Variant>
AV-unprocessed.smi:2252-4

> <Gold.Version>
5.8.1

> <Gold.Id.Protein>
6NUR|6NUR_protein|mol2

> <Gold.PLP.Fitness>
48.8146

> <Gold.PLP.PLP>
-42.0754

> <Gold.PLP.part.hbond>
-2.0000

> <Gold.PLP.part.metal>
0.0000

> <Gold.PLP.part.buried>
-6.0245

> <Gold.PLP.part.nonpolar>
-33.7337

> <Gold.PLP.part.repulsive>
0.3694

> <Gold.PLP.ligand.clash>
0.0000

> <Gold.PLP.ligand.torsion>
1.7079

> <Gold.PLP.Chemscore.Hbond>
3.0000

> <Gold.PLP.Chemscore.CHOScore>
0.0000

> <Gold.PLP.Chemscore.Metal>
0.0000

> <Gold.Chemscore.Hbonds>
donor molecule, donor type, donor heavy atom, donor atom, acceptor molecule, acceptor atom, score
      L1  H     9    30       P1  8028  1.00
      L1  H    16    45       P1  8028  2.00

> <Gold.PLP.Chemscore.Internal.Correction>
1.1550

> <Gold.Rescore>
     Score         DG    S(hbond)    S(metal)    S(lipo)     H(rot)  DE(clash)    DE(int)     intcor
     13.89     -17.14       1.90        0.00      88.04       1.95       0.21       3.05       ----

> <Gold.Chemscore.Fitness>
13.8869

> <Gold.Chemscore.DG>
-17.1413

> <Gold.Chemscore.ZeroCoef>
-5.4800

> <Gold.Chemscore.Hbond>
1.9008

> <Gold.Chemscore.Metal>
0.0000

> <Gold.Chemscore.Lipo>
88.0405

> <Gold.Chemscore.Internal_Hbond>
0.0000

> <Gold.Chemscore.DEClash>
0.2058

> <Gold.Chemscore.DEInternal>
3.0485

> <Gold.Chemscore.Rot>
1.9485

> <Gold.Chemscore.Internal.Correction>
   9.000000E+99

> <Gold.Chemscore.Hbonds>
donor molecule, donor type, donor heavy atom, donor atom, acceptor molecule, acceptor atom, score
      L1  H     9    30       P1  8028  1.00
      L1  H    16    45       P1  8028  0.98
      P1  H  7989  7998       L1    11  0.03

> <Gold.Chemscore.Hbond.Weighted>
-6.3487

> <Gold.Chemscore.Metal.Weighted>
-0.0000

> <Gold.Chemscore.Lipo.Weighted>
-10.3007

> <Gold.Chemscore.Internal_Hbond.Weighted>
0.0000

> <Gold.Chemscore.DEClash.Weighted>
0.2058

> <Gold.Chemscore.DEInternal.Weighted>
3.0485

> <Gold.Chemscore.Rot.Weighted>
4.9881

> <Gold.Chemscore.Internal.Correction.Weighted>
   9.000000E+99

> <Gold.Protein.RotatedTorsions>
[ 6907 6896 6895 6894 ] final   84.69 input  -60.11 | X-H torsion
[ 7974 7965 7964 7962 ] final   68.50 input  175.53 | X-H torsion
[ 8008 7997 7996 7995 ] final  -66.69 input   59.86 | X-H torsion
[ 10167 10162 10161 10158 ] final  -23.77 input  -65.29 | X-H torsion
[ 10718 10713 10712 10709 ] final   27.30 input   66.30 | X-H torsion
[ 10763 10752 10751 10750 ] final   51.52 input  -60.55 | X-H torsion
[ 11005 11000 10999 10996 ] final  -52.96 input  -57.11 | X-H torsion

> <Gold.Protein.ActiveResidues>
 VAL166  LYS551  ARG553  GLY616  TRP617  ASP618  TYR619  PRO620  LYS621  CYS622 
 ASP623  PHE694  ASN695  SER759  ASP760  ASP761  ALA762  ILE779  LEU786  VAL792 
 PHE793  MET794  SER795  GLU796  ALA797  LYS798  CYS799  TRP800  GLU811  SER814 

> <Gold.Protein.RotatedAtoms>
  152.5358  134.2702  159.8968 H   0  0  0  0  0  0  0  0  0  0  0  0  # atno 6907 bound_to 6896
  151.2659  133.4272  159.2626 H   0  0  0  0  0  0  0  0  0  0  0  0  # atno 6908 bound_to 6896
  151.0411  134.9622  159.8218 H   0  0  0  0  0  0  0  0  0  0  0  0  # atno 6909 bound_to 6896
  145.8018  139.2986  143.1150 H   0  0  0  0  0  0  0  0  0  0  0  0  # atno 7974 bound_to 7965
  154.4751  140.0907  156.7241 H   0  0  0  0  0  0  0  0  0  0  0  0  # atno 8008 bound_to 7997
  155.4619  140.3461  155.4295 H   0  0  0  0  0  0  0  0  0  0  0  0  # atno 8009 bound_to 7997
  156.1103  140.1446  156.9336 H   0  0  0  0  0  0  0  0  0  0  0  0  # atno 8010 bound_to 7997
  140.7288  143.4413  151.0653 H   0  0  0  0  0  0  0  0  0  0  0  0  # atno 10167 bound_to 10162
  157.2183  130.6967  149.6259 H   0  0  0  0  0  0  0  0  0  0  0  0  # atno 10718 bound_to 10713
  152.9785  135.5843  154.4429 H   0  0  0  0  0  0  0  0  0  0  0  0  # atno 10763 bound_to 10752
  154.4028  135.2769  155.2088 H   0  0  0  0  0  0  0  0  0  0  0  0  # atno 10764 bound_to 10752
  154.3911  135.6125  153.5898 H   0  0  0  0  0  0  0  0  0  0  0  0  # atno 10765 bound_to 10752
  141.0951  133.6626  156.4101 H   0  0  0  0  0  0  0  0  0  0  0  0  # atno 11005 bound_to 11000
  145.9870  140.8635  143.0085 LP  0  0  0  0  0  0  0  0  0  0  0  0  # atno 17320 bound_to 7965
  144.6768  140.2161  143.7371 LP  0  0  0  0  0  0  0  0  0  0  0  0  # atno 17321 bound_to 7965
  139.8080  143.7990  152.3169 LP  0  0  0  0  0  0  0  0  0  0  0  0  # atno 17342 bound_to 10162
  139.8030  144.7366  150.9799 LP  0  0  0  0  0  0  0  0  0  0  0  0  # atno 17343 bound_to 10162
  155.9684  130.4528  150.5788 LP  0  0  0  0  0  0  0  0  0  0  0  0  # atno 17370 bound_to 10713
  157.3602  131.0748  151.1643 LP  0  0  0  0  0  0  0  0  0  0  0  0  # atno 17371 bound_to 10713
  140.5158  134.6351  157.5301 LP  0  0  0  0  0  0  0  0  0  0  0  0  # atno 17394 bound_to 11000
  139.9786  134.7174  155.9902 LP  0  0  0  0  0  0  0  0  0  0  0  0  # atno 17395 bound_to 11000

$$$$
