AV-unprocessed.smi:1037|AV-procd|sdf|4520|dock5
  -GOLD-   22720 2533D 1   1.00000     0.00000
 Structure written by MMmdl.
 29 29  0  0  0  0  0  0  0  0  1 V2000
  150.0575  137.6924  154.0100 N   0  0  0  0  0  0  0  0  0  0  0  0
  150.3780  138.8384  154.6150 C   0  0  0  0  0  0  0  0  0  0  0  0
  150.1817  139.9323  154.0876 O   0  0  0  0  0  0  0  0  0  0  0  0
  150.9850  138.7273  156.0196 C   0  0  0  0  0  0  0  0  0  0  0  0
  151.5098  139.9967  156.5166 N   0  0  0  0  0  0  0  0  0  0  0  0
  151.0682  140.6424  157.6072 C   0  0  0  0  0  0  0  0  0  0  0  0
  150.1298  140.2389  158.2958 O   0  0  0  0  0  0  0  0  0  0  0  0
  151.7893  141.9520  157.9554 C   0  0  0  0  0  0  0  0  0  0  0  0
  152.4228  141.9239  159.2849 N   0  0  0  0  0  0  0  0  0  0  0  0
  152.0503  142.9335  160.1903 C   0  0  0  0  0  0  0  0  0  0  0  0
  152.5627  142.9962  161.4266 C   0  0  0  0  0  0  0  0  0  0  0  0
  153.5207  141.9920  161.8199 C   0  0  0  0  0  0  0  0  0  0  0  0
  153.8965  141.0067  160.9719 C   0  0  0  0  0  0  0  0  0  0  0  0
  154.9068  139.9343  161.3728 C   0  0  0  0  0  0  0  0  0  0  0  0
  154.3502  138.7233  161.3256 F   0  0  0  0  0  0  0  0  0  0  0  0
  155.9532  139.9447  160.5462 F   0  0  0  0  0  0  0  0  0  0  0  0
  155.3645  140.1239  162.6114 F   0  0  0  0  0  0  0  0  0  0  0  0
  153.3239  140.9459  159.6115 C   0  0  0  0  0  0  0  0  0  0  0  0
  153.6335  140.0678  158.8043 O   0  0  0  0  0  0  0  0  0  0  0  0
  149.6604  137.7111  153.0818 H   0  0  0  0  0  0  0  0  0  0  0  0
  150.2178  136.8120  154.4775 H   0  0  0  0  0  0  0  0  0  0  0  0
  150.2095  138.3862  156.7056 H   0  0  0  0  0  0  0  0  0  0  0  0
  151.7689  137.9679  156.0302 H   0  0  0  0  0  0  0  0  0  0  0  0
  152.2851  140.3976  156.0092 H   0  0  0  0  0  0  0  0  0  0  0  0
  152.5352  142.1763  157.1903 H   0  0  0  0  0  0  0  0  0  0  0  0
  151.0641  142.7642  157.8912 H   0  0  0  0  0  0  0  0  0  0  0  0
  151.3227  143.6412  159.8206 H   0  0  0  0  0  0  0  0  0  0  0  0
  152.2630  143.7752  162.1123 H   0  0  0  0  0  0  0  0  0  0  0  0
  153.9356  142.0413  162.8156 H   0  0  0  0  0  0  0  0  0  0  0  0
  1  2  1  0  0  0  0
  1 20  1  0  0  0  0
  1 21  1  0  0  0  0
  2  3  2  0  0  0  0
  2  4  1  0  0  0  0
  4  5  1  0  0  0  0
  4 22  1  0  0  0  0
  4 23  1  0  0  0  0
  5  6  1  0  0  0  0
  5 24  1  0  0  0  0
  6  7  2  0  0  0  0
  6  8  1  0  0  0  0
  8  9  1  0  0  0  0
  8 25  1  0  0  0  0
  8 26  1  0  0  0  0
  9 18  1  0  0  0  0
  9 10  1  0  0  0  0
 10 11  2  0  0  0  0
 10 27  1  0  0  0  0
 11 12  1  0  0  0  0
 11 28  1  0  0  0  0
 12 13  2  0  0  0  0
 12 29  1  0  0  0  0
 13 14  1  0  0  0  0
 13 18  1  0  0  0  0
 14 15  1  0  0  0  0
 14 16  1  0  0  0  0
 14 17  1  0  0  0  0
 18 19  2  0  0  0  0
M  END
> <s_m_source_file>
AV-unprocessed.smi

> <i_m_source_file_index>
1037

> <i_lp_mmshare_version>
43012

> <i_f3d_flags>
0

> <s_epik_input>
W05IMl1DKD1PKVtDSDJdW05IXUMoPU8pW0NIMl1uMVtjSF1bY0hdW2NIXWMoQyhGKShGKUYpYzE9Tw==

> <s_epik_cmdline>
J2VwaWtfcHl0aG9uJywgJy1waCcsICc3LjAnLCAnLXRuJywgJzgnLCAnLW1hJywgJzIwMCcsICctbWV0YWxfYmluZGluZycsICctaW1hZScsICc8aW5maWxlLm1hZT4nLCAnLW9tYWUnLCAnPG91dGZpbGUubWFlPic=

> <r_lp_tautomer_probability>
1

> <r_epik_Ionization_Penalty>
9.73018e-08

> <r_epik_Ionization_Penalty_Charging>
1.58095e-09

> <r_epik_Ionization_Penalty_Neutral>
9.57208e-08

> <r_epik_State_Penalty>
-0

> <r_epik_Charging_Adjusted_Penalty>
1.58095e-09

> <i_epik_Tot_Q>
0

> <i_epik_Tot_abs_Q>
0

> <r_epik_Metal_State_Penalty>
-0

> <b_epik_Metal_Only>
0

> <s_lp_Force_Field>
OPLS_2005

> <r_lp_Energy>
7.91729

> <b_lp_Chiralities_Consistent>
1

> <s_lp_Variant>
AV-unprocessed.smi:1037-1

> <Gold.Version>
5.8.1

> <Gold.Id.Protein>
6NUR|6NUR_protein|mol2

> <Gold.PLP.Fitness>
46.9451

> <Gold.PLP.PLP>
-38.7082

> <Gold.PLP.part.hbond>
-3.6629

> <Gold.PLP.part.metal>
0.0000

> <Gold.PLP.part.buried>
-4.8902

> <Gold.PLP.part.nonpolar>
-30.4206

> <Gold.PLP.part.repulsive>
0.6964

> <Gold.PLP.ligand.clash>
0.3076

> <Gold.PLP.ligand.torsion>
0.1217

> <Gold.PLP.Chemscore.Hbond>
2.8160

> <Gold.PLP.Chemscore.CHOScore>
0.0000

> <Gold.PLP.Chemscore.Metal>
0.0000

> <Gold.Chemscore.Hbonds>
donor molecule, donor type, donor heavy atom, donor atom, acceptor molecule, acceptor atom, score
      L1  H     1    20       P1  7948  0.66
      P1  H  7989  7998       L1     3  1.00
      P1  H  7997  8008       L1    19  0.98

> <Gold.PLP.Chemscore.Internal.Correction>
0.3399

> <Gold.Rescore>
     Score         DG    S(hbond)    S(metal)    S(lipo)     H(rot)  DE(clash)    DE(int)     intcor
     10.87     -15.08       2.71        0.00      64.83       2.74       0.49       3.72       ----

> <Gold.Chemscore.Fitness>
10.8656

> <Gold.Chemscore.DG>
-15.0807

> <Gold.Chemscore.ZeroCoef>
-5.4800

> <Gold.Chemscore.Hbond>
2.7062

> <Gold.Chemscore.Metal>
0.0000

> <Gold.Chemscore.Lipo>
64.8325

> <Gold.Chemscore.Internal_Hbond>
0.0000

> <Gold.Chemscore.DEClash>
0.4930

> <Gold.Chemscore.DEInternal>
3.7221

> <Gold.Chemscore.Rot>
2.7435

> <Gold.Chemscore.Internal.Correction>
   9.000000E+99

> <Gold.Chemscore.Hbonds>
donor molecule, donor type, donor heavy atom, donor atom, acceptor molecule, acceptor atom, score
      L1  H     1    20       P1  7948  0.44
      P1  H  7989  7998       L1     3  0.92
      P1  H  7997  8008       L1    19  0.91

> <Gold.Chemscore.Hbond.Weighted>
-9.0387

> <Gold.Chemscore.Metal.Weighted>
-0.0000

> <Gold.Chemscore.Lipo.Weighted>
-7.5854

> <Gold.Chemscore.Internal_Hbond.Weighted>
0.0000

> <Gold.Chemscore.DEClash.Weighted>
0.4930

> <Gold.Chemscore.DEInternal.Weighted>
3.7221

> <Gold.Chemscore.Rot.Weighted>
7.0234

> <Gold.Chemscore.Internal.Correction.Weighted>
   9.000000E+99

> <Gold.Protein.RotatedTorsions>
[ 6907 6896 6895 6894 ] final  167.43 input  -60.11 | X-H torsion
[ 7974 7965 7964 7962 ] final -121.35 input  175.53 | X-H torsion
[ 8008 7997 7996 7995 ] final -106.98 input   59.86 | X-H torsion
[ 10167 10162 10161 10158 ] final  -27.64 input  -65.29 | X-H torsion
[ 10718 10713 10712 10709 ] final  173.07 input   66.30 | X-H torsion
[ 10763 10752 10751 10750 ] final  167.40 input  -60.55 | X-H torsion
[ 11005 11000 10999 10996 ] final   33.78 input  -57.11 | X-H torsion

> <Gold.Protein.ActiveResidues>
 VAL166  LYS551  ARG553  GLY616  TRP617  ASP618  TYR619  PRO620  LYS621  CYS622 
 ASP623  PHE694  ASN695  SER759  ASP760  ASP761  ALA762  ILE779  LEU786  VAL792 
 PHE793  MET794  SER795  GLU796  ALA797  LYS798  CYS799  TRP800  GLU811  SER814 

> <Gold.Protein.RotatedAtoms>
  151.8634  133.3461  159.3710 H   0  0  0  0  0  0  0  0  0  0  0  0  # atno 6907 bound_to 6896
  150.7172  134.5184  159.5651 H   0  0  0  0  0  0  0  0  0  0  0  0  # atno 6908 bound_to 6896
  152.2702  134.7942  160.0466 H   0  0  0  0  0  0  0  0  0  0  0  0  # atno 6909 bound_to 6896
  145.0413  140.8147  143.4264 H   0  0  0  0  0  0  0  0  0  0  0  0  # atno 7974 bound_to 7965
  154.9226  140.0407  157.2006 H   0  0  0  0  0  0  0  0  0  0  0  0  # atno 8008 bound_to 7997
  154.8239  140.2888  155.5746 H   0  0  0  0  0  0  0  0  0  0  0  0  # atno 8009 bound_to 7997
  156.2982  140.2513  156.3152 H   0  0  0  0  0  0  0  0  0  0  0  0  # atno 8010 bound_to 7997
  140.7276  143.4076  151.1159 H   0  0  0  0  0  0  0  0  0  0  0  0  # atno 10167 bound_to 10162
  156.9697  131.0086  151.2908 H   0  0  0  0  0  0  0  0  0  0  0  0  # atno 10718 bound_to 10713
  154.3533  135.2753  155.2360 H   0  0  0  0  0  0  0  0  0  0  0  0  # atno 10763 bound_to 10752
  154.4580  135.5914  153.6240 H   0  0  0  0  0  0  0  0  0  0  0  0  # atno 10764 bound_to 10752
  152.9848  135.6058  154.3746 H   0  0  0  0  0  0  0  0  0  0  0  0  # atno 10765 bound_to 10752
  140.2596  134.3208  155.7862 H   0  0  0  0  0  0  0  0  0  0  0  0  # atno 11005 bound_to 11000
  145.1644  139.2440  143.5375 LP  0  0  0  0  0  0  0  0  0  0  0  0  # atno 17320 bound_to 7965
  146.3509  140.1379  142.8595 LP  0  0  0  0  0  0  0  0  0  0  0  0  # atno 17321 bound_to 7965
  139.7705  143.8501  152.3119 LP  0  0  0  0  0  0  0  0  0  0  0  0  # atno 17342 bound_to 10162
  139.8418  144.7206  150.9321 LP  0  0  0  0  0  0  0  0  0  0  0  0  # atno 17343 bound_to 10162
  157.5601  130.8240  149.8255 LP  0  0  0  0  0  0  0  0  0  0  0  0  # atno 17370 bound_to 10713
  156.0288  130.3771  150.1747 LP  0  0  0  0  0  0  0  0  0  0  0  0  # atno 17371 bound_to 10713
  141.2192  133.7401  156.9166 LP  0  0  0  0  0  0  0  0  0  0  0  0  # atno 17394 bound_to 11000
  140.1478  134.9251  157.2552 LP  0  0  0  0  0  0  0  0  0  0  0  0  # atno 17395 bound_to 11000

$$$$
