AV-unprocessed.smi:1743|AV-procd|sdf|7022|dock3
  -GOLD-   22720 8243D 1   1.00000     0.00000
 Structure written by MMmdl.
 38 39  0  0  0  0  0  0  0  0  1 V2000
  153.0263  130.8083  157.1124 C   0  0  0  0  0  0  0  0  0  0  0  0
  152.8387  132.2154  157.0088 O   0  0  0  0  0  0  0  0  0  0  0  0
  151.8556  132.6850  156.1622 C   0  0  0  0  0  0  0  0  0  0  0  0
  151.6435  134.0757  156.0821 C   0  0  0  0  0  0  0  0  0  0  0  0
  150.6415  134.5639  155.2217 C   0  0  0  0  0  0  0  0  0  0  0  0
  149.8760  133.6405  154.4709 C   0  0  0  0  0  0  0  0  0  0  0  0
  148.8564  134.0111  153.5535 N   0  0  0  0  0  0  0  0  0  0  0  0
  147.7206  133.3548  153.2611 C   0  0  0  0  0  0  0  0  0  0  0  0
  147.3921  132.2643  153.7277 O   0  0  0  0  0  0  0  0  0  0  0  0
  146.9879  134.0342  152.3668 N   0  0  0  0  0  0  0  0  0  0  0  0
  145.7064  133.6089  151.8096 C   0  0  2  0  0  0  0  0  0  0  0  0
  145.8473  132.2089  151.1810 C   0  0  0  0  0  0  0  0  0  0  0  0
  144.5422  131.7622  150.5019 C   0  0  0  0  0  0  0  0  0  0  0  0
  144.0764  132.7940  149.4601 C   0  0  1  0  0  0  0  0  0  0  0  0
  142.8419  132.3846  148.9111 O   0  0  0  0  0  0  0  0  0  0  0  0
  143.9209  134.1870  150.0941 C   0  0  0  0  0  0  0  0  0  0  0  0
  145.2280  134.6365  150.7664 C   0  0  0  0  0  0  0  0  0  0  0  0
  150.1772  132.2700  154.6115 C   0  0  0  0  0  0  0  0  0  0  0  0
  151.1347  131.7954  155.4357 N   0  0  0  0  0  0  0  0  0  0  0  0
  153.8344  130.6032  157.8145 H   0  0  0  0  0  0  0  0  0  0  0  0
  153.3031  130.3696  156.1526 H   0  0  0  0  0  0  0  0  0  0  0  0
  152.1290  130.3136  157.4874 H   0  0  0  0  0  0  0  0  0  0  0  0
  152.2424  134.7576  156.6674 H   0  0  0  0  0  0  0  0  0  0  0  0
  150.4924  135.6298  155.1440 H   0  0  0  0  0  0  0  0  0  0  0  0
  149.0371  134.8484  153.0193 H   0  0  0  0  0  0  0  0  0  0  0  0
  147.3470  134.9196  152.0410 H   0  0  0  0  0  0  0  0  0  0  0  0
  144.9510  133.5546  152.5958 H   0  0  0  0  0  0  0  0  0  0  0  0
  146.6527  132.2128  150.4450 H   0  0  0  0  0  0  0  0  0  0  0  0
  146.1300  131.4833  151.9446 H   0  0  0  0  0  0  0  0  0  0  0  0
  144.6868  130.7902  150.0288 H   0  0  0  0  0  0  0  0  0  0  0  0
  143.7696  131.6254  151.2601 H   0  0  0  0  0  0  0  0  0  0  0  0
  144.8048  132.8440  148.6494 H   0  0  0  0  0  0  0  0  0  0  0  0
  142.1853  133.0256  149.1365 H   0  0  0  0  0  0  0  0  0  0  0  0
  143.6264  134.9145  149.3371 H   0  0  0  0  0  0  0  0  0  0  0  0
  143.1206  134.1703  150.8357 H   0  0  0  0  0  0  0  0  0  0  0  0
  145.0818  135.6083  151.2396 H   0  0  0  0  0  0  0  0  0  0  0  0
  145.9958  134.7760  150.0040 H   0  0  0  0  0  0  0  0  0  0  0  0
  149.6298  131.5276  154.0491 H   0  0  0  0  0  0  0  0  0  0  0  0
  1  2  1  0  0  0  0
  1 20  1  0  0  0  0
  1 21  1  0  0  0  0
  1 22  1  0  0  0  0
  2  3  1  0  0  0  0
  3 19  1  0  0  0  0
  3  4  2  0  0  0  0
  4  5  1  0  0  0  0
  4 23  1  0  0  0  0
  5  6  2  0  0  0  0
  5 24  1  0  0  0  0
  6  7  1  0  0  0  0
  6 18  1  0  0  0  0
  7  8  1  0  0  0  0
  7 25  1  0  0  0  0
  8  9  2  0  0  0  0
  8 10  1  0  0  0  0
 10 11  1  0  0  0  0
 10 26  1  0  0  0  0
 11 17  1  0  0  0  0
 11 12  1  0  0  0  0
 11 27  1  0  0  0  0
 12 13  1  0  0  0  0
 12 28  1  0  0  0  0
 12 29  1  0  0  0  0
 13 14  1  0  0  0  0
 13 30  1  0  0  0  0
 13 31  1  0  0  0  0
 14 15  1  0  0  0  0
 14 16  1  0  0  0  0
 14 32  1  0  0  0  0
 15 33  1  0  0  0  0
 16 17  1  0  0  0  0
 16 34  1  0  0  0  0
 16 35  1  0  0  0  0
 17 36  1  0  0  0  0
 17 37  1  0  0  0  0
 18 19  2  0  0  0  0
 18 38  1  0  0  0  0
M  END
> <s_m_source_file>
AV-unprocessed.smi

> <i_m_source_file_index>
1743

> <i_lp_mmshare_version>
43012

> <i_f3d_flags>
0

> <s_epik_input>
W0NIM11PYzFbY0hdW2NIXWMoW2NIXW4xKVtOSF1DKD1PKVtOSF1bQ0BASF0yW0NIMl1bQ0gyXVtDQEBIXShbT0hdKVtDSDJdW0NIMl0y

> <s_epik_cmdline>
J2VwaWtfcHl0aG9uJywgJy1waCcsICc3LjAnLCAnLXRuJywgJzgnLCAnLW1hJywgJzIwMCcsICctbWV0YWxfYmluZGluZycsICctaW1hZScsICc8aW5maWxlLm1hZT4nLCAnLW9tYWUnLCAnPG91dGZpbGUubWFlPic=

> <r_lp_tautomer_probability>
1

> <r_epik_Ionization_Penalty>
9.95686e-05

> <r_epik_Ionization_Penalty_Charging>
0

> <r_epik_Ionization_Penalty_Neutral>
9.95686e-05

> <r_epik_State_Penalty>
-0

> <r_epik_Charging_Adjusted_Penalty>
0

> <i_epik_Tot_Q>
0

> <i_epik_Tot_abs_Q>
0

> <r_epik_Metal_State_Penalty>
-0

> <b_epik_Metal_Only>
0

> <s_lp_Force_Field>
OPLS_2005

> <r_lp_Energy>
11.6996

> <b_lp_Chiralities_Consistent>
1

> <s_lp_Variant>
AV-unprocessed.smi:1743-1

> <Gold.Version>
5.8.1

> <Gold.Id.Protein>
6NUR|6NUR_protein|mol2

> <Gold.PLP.Fitness>
47.1345

> <Gold.PLP.PLP>
-33.5780

> <Gold.PLP.part.hbond>
-5.9614

> <Gold.PLP.part.metal>
0.0000

> <Gold.PLP.part.buried>
-3.9703

> <Gold.PLP.part.nonpolar>
-24.7157

> <Gold.PLP.part.repulsive>
0.0728

> <Gold.PLP.ligand.clash>
0.0000

> <Gold.PLP.ligand.torsion>
0.2578

> <Gold.PLP.Chemscore.Hbond>
4.6887

> <Gold.PLP.Chemscore.CHOScore>
0.0000

> <Gold.PLP.Chemscore.Metal>
0.0000

> <Gold.Chemscore.Hbonds>
donor molecule, donor type, donor heavy atom, donor atom, acceptor molecule, acceptor atom, score
      L1  H     7    25       P1  7948  0.65
      L1  H    10    26       P1  7948  0.95
      L1  H    15    33       P1 10186  1.00
      P1  H 10785 10796       L1    15  0.39

> <Gold.PLP.Chemscore.Internal.Correction>
0.0060

> <Gold.Rescore>
     Score         DG    S(hbond)    S(metal)    S(lipo)     H(rot)  DE(clash)    DE(int)     intcor
     17.23     -19.25       3.01        0.00      70.38       1.77       0.47       1.55       ----

> <Gold.Chemscore.Fitness>
17.2335

> <Gold.Chemscore.DG>
-19.2485

> <Gold.Chemscore.ZeroCoef>
-5.4800

> <Gold.Chemscore.Hbond>
3.0146

> <Gold.Chemscore.Metal>
0.0000

> <Gold.Chemscore.Lipo>
70.3786

> <Gold.Chemscore.Internal_Hbond>
0.0000

> <Gold.Chemscore.DEClash>
0.4685

> <Gold.Chemscore.DEInternal>
1.5465

> <Gold.Chemscore.Rot>
1.7714

> <Gold.Chemscore.Internal.Correction>
   9.000000E+99

> <Gold.Chemscore.Hbonds>
donor molecule, donor type, donor heavy atom, donor atom, acceptor molecule, acceptor atom, score
      L1  H     7    25       P1  7948  0.06
      L1  H    10    26       P1  7948  0.78
      L1  H    15    33       P1 10186  1.00
      P1  H 10785 10796       L1    15  0.11

> <Gold.Chemscore.Hbond.Weighted>
-10.0689

> <Gold.Chemscore.Metal.Weighted>
-0.0000

> <Gold.Chemscore.Lipo.Weighted>
-8.2343

> <Gold.Chemscore.Internal_Hbond.Weighted>
0.0000

> <Gold.Chemscore.DEClash.Weighted>
0.4685

> <Gold.Chemscore.DEInternal.Weighted>
1.5465

> <Gold.Chemscore.Rot.Weighted>
4.5347

> <Gold.Chemscore.Internal.Correction.Weighted>
   9.000000E+99

> <Gold.Protein.RotatedTorsions>
[ 6907 6896 6895 6894 ] final  -77.07 input  -60.11 | X-H torsion
[ 7974 7965 7964 7962 ] final  -50.19 input  175.53 | X-H torsion
[ 8008 7997 7996 7995 ] final  -83.76 input   59.86 | X-H torsion
[ 10167 10162 10161 10158 ] final   56.41 input  -65.29 | X-H torsion
[ 10718 10713 10712 10709 ] final   37.50 input   66.30 | X-H torsion
[ 10763 10752 10751 10750 ] final   94.71 input  -60.55 | X-H torsion
[ 11005 11000 10999 10996 ] final -126.48 input  -57.11 | X-H torsion

> <Gold.Protein.ActiveResidues>
 VAL166  LYS551  ARG553  GLY616  TRP617  ASP618  TYR619  PRO620  LYS621  CYS622 
 ASP623  PHE694  ASN695  SER759  ASP760  ASP761  ALA762  ILE779  LEU786  VAL792 
 PHE793  MET794  SER795  GLU796  ALA797  LYS798  CYS799  TRP800  GLU811  SER814 

> <Gold.Protein.RotatedAtoms>
  150.7009  134.4478  159.5321 H   0  0  0  0  0  0  0  0  0  0  0  0  # atno 6907 bound_to 6896
  152.2176  134.8440  160.0499 H   0  0  0  0  0  0  0  0  0  0  0  0  # atno 6908 bound_to 6896
  151.9303  133.3574  159.3965 H   0  0  0  0  0  0  0  0  0  0  0  0  # atno 6909 bound_to 6896
  145.9325  140.7736  142.9592 H   0  0  0  0  0  0  0  0  0  0  0  0  # atno 7974 bound_to 7965
  154.6225  140.0614  156.9633 H   0  0  0  0  0  0  0  0  0  0  0  0  # atno 8008 bound_to 7997
  155.1794  140.3298  155.4359 H   0  0  0  0  0  0  0  0  0  0  0  0  # atno 8009 bound_to 7997
  156.2439  140.1900  156.6891 H   0  0  0  0  0  0  0  0  0  0  0  0  # atno 8010 bound_to 7997
  140.2090  144.3908  150.6496 H   0  0  0  0  0  0  0  0  0  0  0  0  # atno 10167 bound_to 10162
  157.3477  130.7581  149.6956 H   0  0  0  0  0  0  0  0  0  0  0  0  # atno 10718 bound_to 10713
  153.2448  135.4280  155.0736 H   0  0  0  0  0  0  0  0  0  0  0  0  # atno 10763 bound_to 10752
  154.8356  135.3411  154.6597 H   0  0  0  0  0  0  0  0  0  0  0  0  # atno 10764 bound_to 10752
  153.7020  135.7028  153.5117 H   0  0  0  0  0  0  0  0  0  0  0  0  # atno 10765 bound_to 10752
  140.9677  134.0848  157.3902 H   0  0  0  0  0  0  0  0  0  0  0  0  # atno 11005 bound_to 11000
  144.6767  140.2150  143.7373 LP  0  0  0  0  0  0  0  0  0  0  0  0  # atno 17320 bound_to 7965
  145.8407  139.2128  143.1829 LP  0  0  0  0  0  0  0  0  0  0  0  0  # atno 17321 bound_to 7965
  140.6337  143.2191  151.6441 LP  0  0  0  0  0  0  0  0  0  0  0  0  # atno 17342 bound_to 10162
  139.5187  144.3276  152.0855 LP  0  0  0  0  0  0  0  0  0  0  0  0  # atno 17343 bound_to 10162
  155.9717  130.4149  150.4157 LP  0  0  0  0  0  0  0  0  0  0  0  0  # atno 17370 bound_to 10713
  157.2215  131.0483  151.2543 LP  0  0  0  0  0  0  0  0  0  0  0  0  # atno 17371 bound_to 10713
  139.8901  135.0109  156.6715 LP  0  0  0  0  0  0  0  0  0  0  0  0  # atno 17394 bound_to 11000
  140.7374  133.9007  155.8254 LP  0  0  0  0  0  0  0  0  0  0  0  0  # atno 17395 bound_to 11000

$$$$
