AV-unprocessed.smi:1558|AV-procd|sdf|6272|dock10
  -GOLD-   22720 6463D 1   1.00000     0.00000
 Structure written by MMmdl.
 36 37  0  0  0  0  0  0  0  0  1 V2000
  142.8757  132.8555  149.5390 N   0  0  0  0  0  0  0  0  0  0  0  0
  143.5097  132.9249  150.7126 C   0  0  0  0  0  0  0  0  0  0  0  0
  144.5669  132.3346  150.9244 O   0  0  0  0  0  0  0  0  0  0  0  0
  142.8652  133.7787  151.8060 C   0  0  0  0  0  0  0  0  0  0  0  0
  143.7367  134.8717  152.1995 N   0  0  0  0  0  0  0  0  0  0  0  0
  145.1157  134.8758  152.2828 C   0  0  0  0  0  0  0  0  0  0  0  0
  145.4584  136.1324  152.6945 C   0  0  0  0  0  0  0  0  0  0  0  0
  146.7431  136.6786  152.9413 N   0  0  0  0  0  0  0  0  0  0  0  0
  147.0704  137.6139  153.8478 C   0  0  0  0  0  0  0  0  0  0  0  0
  146.2828  138.1468  154.6296 O   0  0  0  0  0  0  0  0  0  0  0  0
  148.3794  137.8985  153.8020 N   0  0  0  0  0  0  0  0  0  0  0  0
  149.0663  138.8606  154.6580 C   0  0  0  0  0  0  0  0  0  0  0  0
  150.5931  138.6810  154.6086 C   0  0  2  0  0  0  0  0  0  0  0  0
  151.1172  137.3872  155.2317 C   0  0  0  0  0  0  0  0  0  0  0  0
  152.5463  137.7635  155.5478 C   0  0  0  0  0  0  0  0  0  0  0  0
  152.3999  139.2160  155.9948 C   0  0  0  0  0  0  0  0  0  0  0  0
  151.2347  139.7185  155.3438 O   0  0  0  0  0  0  0  0  0  0  0  0
  144.2363  136.8375  152.8441 C   0  0  0  0  0  0  0  0  0  0  0  0
  143.2003  136.0693  152.5435 N   0  0  0  0  0  0  0  0  0  0  0  0
  143.2678  132.3020  148.7910 H   0  0  0  0  0  0  0  0  0  0  0  0
  142.0086  133.3542  149.4021 H   0  0  0  0  0  0  0  0  0  0  0  0
  141.9151  134.1800  151.4495 H   0  0  0  0  0  0  0  0  0  0  0  0
  142.6456  133.1705  152.6846 H   0  0  0  0  0  0  0  0  0  0  0  0
  145.7059  134.0036  152.0446 H   0  0  0  0  0  0  0  0  0  0  0  0
  147.4915  136.3195  152.3667 H   0  0  0  0  0  0  0  0  0  0  0  0
  148.9473  137.4096  153.1257 H   0  0  0  0  0  0  0  0  0  0  0  0
  148.8087  139.8591  154.3043 H   0  0  0  0  0  0  0  0  0  0  0  0
  148.7062  138.8005  155.6864 H   0  0  0  0  0  0  0  0  0  0  0  0
  150.9427  138.7496  153.5770 H   0  0  0  0  0  0  0  0  0  0  0  0
  150.5794  137.1571  156.1526 H   0  0  0  0  0  0  0  0  0  0  0  0
  151.0382  136.5288  154.5641 H   0  0  0  0  0  0  0  0  0  0  0  0
  153.0014  137.1264  156.3068 H   0  0  0  0  0  0  0  0  0  0  0  0
  153.1545  137.7078  154.6440 H   0  0  0  0  0  0  0  0  0  0  0  0
  152.2436  139.2712  157.0726 H   0  0  0  0  0  0  0  0  0  0  0  0
  153.2789  139.8123  155.7496 H   0  0  0  0  0  0  0  0  0  0  0  0
  144.0691  137.8584  153.1540 H   0  0  0  0  0  0  0  0  0  0  0  0
  1  2  1  0  0  0  0
  1 20  1  0  0  0  0
  1 21  1  0  0  0  0
  2  3  2  0  0  0  0
  2  4  1  0  0  0  0
  4  5  1  0  0  0  0
  4 22  1  0  0  0  0
  4 23  1  0  0  0  0
  5 19  1  0  0  0  0
  5  6  1  0  0  0  0
  6  7  2  0  0  0  0
  6 24  1  0  0  0  0
  7  8  1  0  0  0  0
  7 18  1  0  0  0  0
  8  9  1  0  0  0  0
  8 25  1  0  0  0  0
  9 10  2  0  0  0  0
  9 11  1  0  0  0  0
 11 12  1  0  0  0  0
 11 26  1  0  0  0  0
 12 13  1  0  0  0  0
 12 27  1  0  0  0  0
 12 28  1  0  0  0  0
 13 17  1  0  0  0  0
 13 14  1  0  0  0  0
 13 29  1  0  0  0  0
 14 15  1  0  0  0  0
 14 30  1  0  0  0  0
 14 31  1  0  0  0  0
 15 16  1  0  0  0  0
 15 32  1  0  0  0  0
 15 33  1  0  0  0  0
 16 17  1  0  0  0  0
 16 34  1  0  0  0  0
 16 35  1  0  0  0  0
 18 19  2  0  0  0  0
 18 36  1  0  0  0  0
M  END
> <s_m_source_file>
AV-unprocessed.smi

> <i_m_source_file_index>
1558

> <i_lp_mmshare_version>
43012

> <i_f3d_flags>
0

> <s_epik_input>
W05IMl1DKD1PKVtDSDJdbjFbY0hdYyhbY0hdbjEpW05IXUMoPU8pW05IXVtDSDJdW0NAQEhdMltDSDJdW0NIMl1bQ0gyXU8y

> <s_epik_cmdline>
J2VwaWtfcHl0aG9uJywgJy1waCcsICc3LjAnLCAnLXRuJywgJzgnLCAnLW1hJywgJzIwMCcsICctbWV0YWxfYmluZGluZycsICctaW1hZScsICc8aW5maWxlLm1hZT4nLCAnLW9tYWUnLCAnPG91dGZpbGUubWFlPic=

> <r_lp_tautomer_probability>
1

> <r_epik_Ionization_Penalty>
4.01684e-05

> <r_epik_Ionization_Penalty_Charging>
0

> <r_epik_Ionization_Penalty_Neutral>
4.01684e-05

> <r_epik_State_Penalty>
-0

> <r_epik_Charging_Adjusted_Penalty>
0

> <i_epik_Tot_Q>
0

> <i_epik_Tot_abs_Q>
0

> <r_epik_Metal_State_Penalty>
-0

> <b_epik_Metal_Only>
0

> <s_lp_Force_Field>
OPLS_2005

> <r_lp_Energy>
20.4808

> <b_lp_Chiralities_Consistent>
1

> <s_lp_Variant>
AV-unprocessed.smi:1558-1

> <Gold.Version>
5.8.1

> <Gold.Id.Protein>
6NUR|6NUR_protein|mol2

> <Gold.PLP.Fitness>
43.8783

> <Gold.PLP.PLP>
-30.2567

> <Gold.PLP.part.hbond>
-5.1567

> <Gold.PLP.part.metal>
0.0000

> <Gold.PLP.part.buried>
-1.5424

> <Gold.PLP.part.nonpolar>
-23.1846

> <Gold.PLP.part.repulsive>
0.6811

> <Gold.PLP.ligand.clash>
0.0000

> <Gold.PLP.ligand.torsion>
0.6823

> <Gold.PLP.Chemscore.Hbond>
3.9920

> <Gold.PLP.Chemscore.CHOScore>
0.9972

> <Gold.PLP.Chemscore.Metal>
0.0000

> <Gold.Chemscore.Hbonds>
donor molecule, donor type, donor heavy atom, donor atom, acceptor molecule, acceptor atom, score
      L1  H     1    21       P1 10186  0.83
      L1  H     8    25       P1  7948  1.00
      L1  H    11    26       P1  7948  0.94
      P1  H  7989  7998       L1    17  0.33
      L1  C    18    36       P1 10175  0.57

> <Gold.PLP.Chemscore.Internal.Correction>
0.0186

> <Gold.Rescore>
     Score         DG    S(hbond)    S(metal)    S(lipo)     H(rot)  DE(clash)    DE(int)     intcor
     15.67     -17.68       3.73        0.00      48.90       2.33       0.05       1.96       ----

> <Gold.Chemscore.Fitness>
15.6668

> <Gold.Chemscore.DG>
-17.6801

> <Gold.Chemscore.ZeroCoef>
-5.4800

> <Gold.Chemscore.Hbond>
3.7258

> <Gold.Chemscore.Metal>
0.0000

> <Gold.Chemscore.Lipo>
48.9017

> <Gold.Chemscore.Internal_Hbond>
0.0000

> <Gold.Chemscore.DEClash>
0.0489

> <Gold.Chemscore.DEInternal>
1.9645

> <Gold.Chemscore.Rot>
2.3303

> <Gold.Chemscore.Internal.Correction>
   9.000000E+99

> <Gold.Chemscore.Hbonds>
donor molecule, donor type, donor heavy atom, donor atom, acceptor molecule, acceptor atom, score
      L1  H     1    21       P1 10186  0.82
      L1  H     8    25       P1  7948  0.93
      L1  H    11    26       P1  7948  0.91
      P1  H  7989  7998       L1    17  0.02

> <Gold.Chemscore.Hbond.Weighted>
-12.4442

> <Gold.Chemscore.Metal.Weighted>
-0.0000

> <Gold.Chemscore.Lipo.Weighted>
-5.7215

> <Gold.Chemscore.Internal_Hbond.Weighted>
0.0000

> <Gold.Chemscore.DEClash.Weighted>
0.0489

> <Gold.Chemscore.DEInternal.Weighted>
1.9645

> <Gold.Chemscore.Rot.Weighted>
5.9656

> <Gold.Chemscore.Internal.Correction.Weighted>
   9.000000E+99

> <Gold.Protein.RotatedTorsions>
[ 6907 6896 6895 6894 ] final  167.26 input  -60.11 | X-H torsion
[ 7974 7965 7964 7962 ] final  -68.76 input  175.53 | X-H torsion
[ 8008 7997 7996 7995 ] final -111.23 input   59.86 | X-H torsion
[ 10167 10162 10161 10158 ] final  -35.77 input  -65.29 | X-H torsion
[ 10718 10713 10712 10709 ] final  151.08 input   66.30 | X-H torsion
[ 10763 10752 10751 10750 ] final  -72.23 input  -60.55 | X-H torsion
[ 11005 11000 10999 10996 ] final -179.93 input  -57.11 | X-H torsion

> <Gold.Protein.ActiveResidues>
 VAL166  LYS551  ARG553  GLY616  TRP617  ASP618  TYR619  PRO620  LYS621  CYS622 
 ASP623  PHE694  ASN695  SER759  ASP760  ASP761  ALA762  ILE779  LEU786  VAL792 
 PHE793  MET794  SER795  GLU796  ALA797  LYS798  CYS799  TRP800  GLU811  SER814 

> <Gold.Protein.RotatedAtoms>
  151.8661  133.3466  159.3719 H   0  0  0  0  0  0  0  0  0  0  0  0  # atno 6907 bound_to 6896
  150.7165  134.5158  159.5639 H   0  0  0  0  0  0  0  0  0  0  0  0  # atno 6908 bound_to 6896
  152.2682  134.7962  160.0470 H   0  0  0  0  0  0  0  0  0  0  0  0  # atno 6909 bound_to 6896
  145.7124  140.9073  143.0674 H   0  0  0  0  0  0  0  0  0  0  0  0  # atno 7974 bound_to 7965
  154.9866  140.0395  157.2301 H   0  0  0  0  0  0  0  0  0  0  0  0  # atno 8008 bound_to 7997
  154.7666  140.2794  155.6149 H   0  0  0  0  0  0  0  0  0  0  0  0  # atno 8009 bound_to 7997
  156.2913  140.2618  156.2458 H   0  0  0  0  0  0  0  0  0  0  0  0  # atno 8010 bound_to 7997
  140.7157  143.3454  151.2268 H   0  0  0  0  0  0  0  0  0  0  0  0  # atno 10167 bound_to 10162
  157.2752  131.0825  151.1571 H   0  0  0  0  0  0  0  0  0  0  0  0  # atno 10718 bound_to 10713
  154.4428  135.5936  153.6140 H   0  0  0  0  0  0  0  0  0  0  0  0  # atno 10763 bound_to 10752
  152.9807  135.6002  154.3701 H   0  0  0  0  0  0  0  0  0  0  0  0  # atno 10764 bound_to 10752
  154.3553  135.2841  155.2329 H   0  0  0  0  0  0  0  0  0  0  0  0  # atno 10765 bound_to 10752
  140.4132  134.6673  157.4625 H   0  0  0  0  0  0  0  0  0  0  0  0  # atno 11005 bound_to 11000
  144.6938  139.9092  143.7462 LP  0  0  0  0  0  0  0  0  0  0  0  0  # atno 17320 bound_to 7965
  146.0701  139.3690  143.0528 LP  0  0  0  0  0  0  0  0  0  0  0  0  # atno 17321 bound_to 7965
  139.6972  143.9593  152.2888 LP  0  0  0  0  0  0  0  0  0  0  0  0  # atno 17342 bound_to 10162
  139.9274  144.6762  150.8398 LP  0  0  0  0  0  0  0  0  0  0  0  0  # atno 17343 bound_to 10162
  157.3027  130.6850  149.6172 LP  0  0  0  0  0  0  0  0  0  0  0  0  # atno 17370 bound_to 10713
  155.9663  130.4387  150.5229 LP  0  0  0  0  0  0  0  0  0  0  0  0  # atno 17371 bound_to 10713
  140.0253  134.6487  155.9182 LP  0  0  0  0  0  0  0  0  0  0  0  0  # atno 17394 bound_to 11000
  141.1813  133.6547  156.5032 LP  0  0  0  0  0  0  0  0  0  0  0  0  # atno 17395 bound_to 11000

$$$$
