AV-unprocessed.smi:171|AV-procd|sdf|1421|dock2
  -GOLD-   2262019183D 1   1.00000     0.00000
 Structure written by MMmdl.
 56 59  0  0  0  0  0  0  0  0  1 V2000
  152.5260  141.5474  160.5482 C   0  0  0  0  0  0  0  0  0  0  0  0
  152.2239  141.7794  159.0592 C   0  0  0  0  0  0  0  0  0  0  0  0
  152.0908  143.2835  158.7743 C   0  0  0  0  0  0  0  0  0  0  0  0
  150.9754  141.0194  158.5532 C   0  0  0  0  0  0  0  0  0  0  0  0
  150.7890  141.0015  157.0053 C   0  0  1  0  0  0  0  0  0  0  0  0
  151.7192  140.0298  156.2364 C   0  0  0  0  0  0  0  0  0  0  0  0
  152.8085  139.6995  156.7000 O   0  0  0  0  0  0  0  0  0  0  0  0
  151.3006  139.5627  155.0464 N   0  0  0  0  0  0  0  0  0  0  0  0
  150.0072  139.8455  154.4186 C   0  0  0  0  0  0  0  0  0  0  0  0
  149.1834  140.9240  155.1539 C   0  0  0  0  0  0  0  0  0  0  0  0
  149.3811  140.8387  156.5992 N   0  0  0  0  0  0  0  0  0  0  0  0
  148.5963  139.8883  157.1769 C   0  0  0  0  0  0  0  0  0  0  0  0
  147.2414  140.0058  157.1667 N   0  0  0  0  0  0  0  0  0  0  0  0
  146.4785  139.0770  157.7497 C   0  0  0  0  0  0  0  0  0  0  0  0
  146.8563  137.9710  158.3932 N   0  0  0  0  0  0  0  0  0  0  0  0
  148.2145  137.8493  158.4107 C   0  0  0  0  0  0  0  0  0  0  0  0
  149.1487  138.7523  157.8300 C   0  0  0  0  0  0  0  0  0  0  0  0
  150.4441  138.2945  158.0378 N   0  0  0  0  0  0  0  0  0  0  0  0
  150.2849  137.1862  158.7085 C   0  0  0  0  0  0  0  0  0  0  0  0
  148.9789  136.8494  158.9860 N   0  0  0  0  0  0  0  0  0  0  0  0
  148.5152  135.6822  159.7207 C   0  0  0  0  0  0  0  0  0  0  0  0
  147.4888  136.0230  160.8333 C   0  0  2  0  0  0  0  0  0  0  0  0
  147.7917  137.3149  161.3331 O   0  0  0  0  0  0  0  0  0  0  0  0
  147.5233  135.0495  162.0096 C   0  0  0  0  0  0  0  0  0  0  0  0
  146.0924  135.0781  162.5237 C   0  0  0  0  0  0  0  0  0  0  0  0
  145.3412  135.1316  161.3244 O   0  0  0  0  0  0  0  0  0  0  0  0
  145.9903  136.0172  160.4162 C   0  0  2  0  0  0  0  0  0  0  0  0
  145.6677  135.5484  158.9888 C   0  0  0  0  0  0  0  0  0  0  0  0
  151.6833  141.8401  161.1752 H   0  0  0  0  0  0  0  0  0  0  0  0
  153.3924  142.1275  160.8667 H   0  0  0  0  0  0  0  0  0  0  0  0
  152.7523  140.5013  160.7521 H   0  0  0  0  0  0  0  0  0  0  0  0
  153.0837  141.4236  158.4902 H   0  0  0  0  0  0  0  0  0  0  0  0
  151.2454  143.7149  159.3115 H   0  0  0  0  0  0  0  0  0  0  0  0
  151.9419  143.4735  157.7110 H   0  0  0  0  0  0  0  0  0  0  0  0
  152.9884  143.8228  159.0787 H   0  0  0  0  0  0  0  0  0  0  0  0
  150.9669  140.0055  158.9559 H   0  0  0  0  0  0  0  0  0  0  0  0
  150.1150  141.5096  159.0101 H   0  0  0  0  0  0  0  0  0  0  0  0
  151.0599  141.9954  156.6467 H   0  0  0  0  0  0  0  0  0  0  0  0
  151.9165  138.9355  154.5497 H   0  0  0  0  0  0  0  0  0  0  0  0
  150.1581  140.1247  153.3756 H   0  0  0  0  0  0  0  0  0  0  0  0
  149.4472  138.9097  154.4119 H   0  0  0  0  0  0  0  0  0  0  0  0
  149.5120  141.9124  154.8306 H   0  0  0  0  0  0  0  0  0  0  0  0
  148.1319  140.8569  154.8725 H   0  0  0  0  0  0  0  0  0  0  0  0
  145.4133  139.2453  157.6943 H   0  0  0  0  0  0  0  0  0  0  0  0
  151.1228  136.5826  159.0255 H   0  0  0  0  0  0  0  0  0  0  0  0
  148.0844  134.9796  159.0062 H   0  0  0  0  0  0  0  0  0  0  0  0
  149.3915  135.1928  160.1464 H   0  0  0  0  0  0  0  0  0  0  0  0
  146.9803  137.7657  161.5101 H   0  0  0  0  0  0  0  0  0  0  0  0
  147.7459  134.0419  161.6563 H   0  0  0  0  0  0  0  0  0  0  0  0
  148.2601  135.3033  162.7732 H   0  0  0  0  0  0  0  0  0  0  0  0
  145.8392  134.2015  163.1202 H   0  0  0  0  0  0  0  0  0  0  0  0
  145.9050  135.9724  163.1200 H   0  0  0  0  0  0  0  0  0  0  0  0
  145.5531  137.0074  160.5582 H   0  0  0  0  0  0  0  0  0  0  0  0
  146.1244  136.1994  158.2433 H   0  0  0  0  0  0  0  0  0  0  0  0
  144.5916  135.5612  158.8159 H   0  0  0  0  0  0  0  0  0  0  0  0
  146.0131  134.5295  158.8121 H   0  0  0  0  0  0  0  0  0  0  0  0
  1  2  1  0  0  0  0
  1 29  1  0  0  0  0
  1 30  1  0  0  0  0
  1 31  1  0  0  0  0
  2  3  1  0  0  0  0
  2  4  1  0  0  0  0
  2 32  1  0  0  0  0
  3 33  1  0  0  0  0
  3 34  1  0  0  0  0
  3 35  1  0  0  0  0
  4  5  1  0  0  0  0
  4 36  1  0  0  0  0
  4 37  1  0  0  0  0
  5 11  1  0  0  0  0
  5  6  1  0  0  0  0
  5 38  1  0  0  0  0
  6  7  2  0  0  0  0
  6  8  1  0  0  0  0
  8  9  1  0  0  0  0
  8 39  1  0  0  0  0
  9 10  1  0  0  0  0
  9 40  1  0  0  0  0
  9 41  1  0  0  0  0
 10 11  1  0  0  0  0
 10 42  1  0  0  0  0
 10 43  1  0  0  0  0
 11 12  1  0  0  0  0
 12 17  1  0  0  0  0
 12 13  2  0  0  0  0
 13 14  1  0  0  0  0
 14 15  2  0  0  0  0
 14 44  1  0  0  0  0
 15 16  1  0  0  0  0
 16 20  1  0  0  0  0
 16 17  2  0  0  0  0
 17 18  1  0  0  0  0
 18 19  2  0  0  0  0
 19 20  1  0  0  0  0
 19 45  1  0  0  0  0
 20 21  1  0  0  0  0
 21 22  1  0  0  0  0
 21 46  1  0  0  0  0
 21 47  1  0  0  0  0
 22 27  1  0  0  0  0
 22 23  1  0  0  0  0
 22 24  1  0  0  0  0
 23 48  1  0  0  0  0
 24 25  1  0  0  0  0
 24 49  1  0  0  0  0
 24 50  1  0  0  0  0
 25 26  1  0  0  0  0
 25 51  1  0  0  0  0
 25 52  1  0  0  0  0
 26 27  1  0  0  0  0
 27 28  1  0  0  0  0
 27 53  1  0  0  0  0
 28 54  1  0  0  0  0
 28 55  1  0  0  0  0
 28 56  1  0  0  0  0
M  END
> <s_m_source_file>
AV-unprocessed.smi

> <i_m_source_file_index>
171

> <i_lp_mmshare_version>
43012

> <i_f3d_flags>
0

> <s_epik_input>
W0NIM11bQ0hdKFtDSDNdKVtDSDJdW0NAQEhdMUMoPU8pW05IXVtDSDJdW0NIMl1OMWMobltjSF1uMiljKGMyMyluW2NIXW4zW0NIMl1bQ0BAXTQoW09IXSlbQ0gyXVtDSDJdT1tDQEhdNFtDSDNd

> <s_epik_cmdline>
J2VwaWtfcHl0aG9uJywgJy1waCcsICc3LjAnLCAnLXRuJywgJzgnLCAnLW1hJywgJzIwMCcsICctbWV0YWxfYmluZGluZycsICctaW1hZScsICc8aW5maWxlLm1hZT4nLCAnLW9tYWUnLCAnPG91dGZpbGUubWFlPic=

> <r_lp_tautomer_probability>
1

> <r_epik_Ionization_Penalty>
0.000670584

> <r_epik_Ionization_Penalty_Charging>
0

> <r_epik_Ionization_Penalty_Neutral>
0.000670584

> <r_epik_State_Penalty>
0.000304767

> <r_epik_Charging_Adjusted_Penalty>
0.000304767

> <i_epik_Tot_Q>
0

> <i_epik_Tot_abs_Q>
0

> <r_epik_Metal_State_Penalty>
-0

> <b_epik_Metal_Only>
0

> <s_lp_Force_Field>
OPLS_2005

> <r_lp_Energy>
45.2633

> <b_lp_Chiralities_Consistent>
1

> <s_lp_Variant>
AV-unprocessed.smi:171-8

> <Gold.Version>
5.8.1

> <Gold.Id.Protein>
6NUR|6NUR_protein|mol2

> <Gold.PLP.Fitness>
43.8696

> <Gold.PLP.PLP>
-39.8485

> <Gold.PLP.part.hbond>
-3.1652

> <Gold.PLP.part.metal>
0.0000

> <Gold.PLP.part.buried>
-4.6679

> <Gold.PLP.part.nonpolar>
-33.2311

> <Gold.PLP.part.repulsive>
0.8496

> <Gold.PLP.ligand.clash>
0.0045

> <Gold.PLP.ligand.torsion>
1.2244

> <Gold.PLP.Chemscore.Hbond>
1.9913

> <Gold.PLP.Chemscore.CHOScore>
0.0000

> <Gold.PLP.Chemscore.Metal>
0.0000

> <Gold.Chemscore.Hbonds>
donor molecule, donor type, donor heavy atom, donor atom, acceptor molecule, acceptor atom, score
      P1  H  6931  6943       L1    23  0.94
      P1  H  7997  8009       L1     7  1.00

> <Gold.PLP.Chemscore.Internal.Correction>
0.5006

> <Gold.Rescore>
     Score         DG    S(hbond)    S(metal)    S(lipo)     H(rot)  DE(clash)    DE(int)     intcor
      8.21     -14.97       1.73        0.00      88.74       2.61       0.13       6.63       ----

> <Gold.Chemscore.Fitness>
8.2101

> <Gold.Chemscore.DG>
-14.9717

> <Gold.Chemscore.ZeroCoef>
-5.4800

> <Gold.Chemscore.Hbond>
1.7316

> <Gold.Chemscore.Metal>
0.0000

> <Gold.Chemscore.Lipo>
88.7429

> <Gold.Chemscore.Internal_Hbond>
0.0000

> <Gold.Chemscore.DEClash>
0.1281

> <Gold.Chemscore.DEInternal>
6.6335

> <Gold.Chemscore.Rot>
2.6074

> <Gold.Chemscore.Internal.Correction>
   9.000000E+99

> <Gold.Chemscore.Hbonds>
donor molecule, donor type, donor heavy atom, donor atom, acceptor molecule, acceptor atom, score
      P1  H  6931  6943       L1    23  0.59
      P1  H  7997  8009       L1     7  0.99

> <Gold.Chemscore.Hbond.Weighted>
-5.7836

> <Gold.Chemscore.Metal.Weighted>
-0.0000

> <Gold.Chemscore.Lipo.Weighted>
-10.3829

> <Gold.Chemscore.Internal_Hbond.Weighted>
0.0000

> <Gold.Chemscore.DEClash.Weighted>
0.1281

> <Gold.Chemscore.DEInternal.Weighted>
6.6335

> <Gold.Chemscore.Rot.Weighted>
6.6748

> <Gold.Chemscore.Internal.Correction.Weighted>
   9.000000E+99

> <Gold.Protein.RotatedTorsions>
[ 6907 6896 6895 6894 ] final   71.21 input  -60.11 | X-H torsion
[ 7974 7965 7964 7962 ] final -129.02 input  175.53 | X-H torsion
[ 8008 7997 7996 7995 ] final -175.18 input   59.86 | X-H torsion
[ 10167 10162 10161 10158 ] final  153.83 input  -65.29 | X-H torsion
[ 10718 10713 10712 10709 ] final  118.50 input   66.30 | X-H torsion
[ 10763 10752 10751 10750 ] final  -96.04 input  -60.55 | X-H torsion
[ 11005 11000 10999 10996 ] final  -79.42 input  -57.11 | X-H torsion

> <Gold.Protein.ActiveResidues>
 VAL166  LYS551  ARG553  GLY616  TRP617  ASP618  TYR619  PRO620  LYS621  CYS622 
 ASP623  PHE694  ASN695  SER759  ASP760  ASP761  ALA762  ILE779  LEU786  VAL792 
 PHE793  MET794  SER795  GLU796  ALA797  LYS798  CYS799  TRP800  GLU811  SER814 

> <Gold.Protein.RotatedAtoms>
  152.4796  134.4754  159.9648 H   0  0  0  0  0  0  0  0  0  0  0  0  # atno 6907 bound_to 6896
  151.4762  133.3551  159.2839 H   0  0  0  0  0  0  0  0  0  0  0  0  # atno 6908 bound_to 6896
  150.8859  134.8283  159.7320 H   0  0  0  0  0  0  0  0  0  0  0  0  # atno 6909 bound_to 6896
  144.9613  140.7449  143.4727 H   0  0  0  0  0  0  0  0  0  0  0  0  # atno 7974 bound_to 7965
  155.9793  140.1178  157.0741 H   0  0  0  0  0  0  0  0  0  0  0  0  # atno 8008 bound_to 7997
  154.4178  140.1147  156.5481 H   0  0  0  0  0  0  0  0  0  0  0  0  # atno 8009 bound_to 7997
  155.6492  140.3473  155.4744 H   0  0  0  0  0  0  0  0  0  0  0  0  # atno 8010 bound_to 7997
  139.4825  144.5240  151.7831 H   0  0  0  0  0  0  0  0  0  0  0  0  # atno 10167 bound_to 10162
  157.6026  131.1048  150.7764 H   0  0  0  0  0  0  0  0  0  0  0  0  # atno 10718 bound_to 10713
  154.7204  135.5098  153.8803 H   0  0  0  0  0  0  0  0  0  0  0  0  # atno 10763 bound_to 10752
  153.0857  135.6644  153.9963 H   0  0  0  0  0  0  0  0  0  0  0  0  # atno 10764 bound_to 10752
  153.9787  135.3031  155.3401 H   0  0  0  0  0  0  0  0  0  0  0  0  # atno 10765 bound_to 10752
  141.1667  133.7105  156.8120 H   0  0  0  0  0  0  0  0  0  0  0  0  # atno 11005 bound_to 11000
  145.2696  139.1960  143.4848 LP  0  0  0  0  0  0  0  0  0  0  0  0  # atno 17320 bound_to 7965
  146.3354  140.2640  142.8603 LP  0  0  0  0  0  0  0  0  0  0  0  0  # atno 17321 bound_to 7965
  140.4757  144.1522  150.5924 LP  0  0  0  0  0  0  0  0  0  0  0  0  # atno 17342 bound_to 10162
  140.4333  143.2558  151.9567 LP  0  0  0  0  0  0  0  0  0  0  0  0  # atno 17343 bound_to 10162
  156.8160  130.4968  149.5349 LP  0  0  0  0  0  0  0  0  0  0  0  0  # atno 17370 bound_to 10713
  156.1103  130.6035  151.0037 LP  0  0  0  0  0  0  0  0  0  0  0  0  # atno 17371 bound_to 10713
  140.2180  134.8778  157.3347 LP  0  0  0  0  0  0  0  0  0  0  0  0  # atno 17394 bound_to 11000
  140.2017  134.4246  155.7659 LP  0  0  0  0  0  0  0  0  0  0  0  0  # atno 17395 bound_to 11000

$$$$
