AV-unprocessed.smi:1774|AV-procd|sdf|7168|dock8
  -GOLD-   22720 8403D 1   1.00000     0.00000
 Structure written by MMmdl.
 46 47  0  0  0  0  0  0  0  0  2 V2000
  145.4157  135.4637  150.8958 C   0  0  0  0  0  0  0  0  0  0  0  0
  145.3916  133.9713  151.1838 C   0  0  0  0  0  0  0  0  0  0  0  0
  144.4513  133.1552  150.5196 C   0  0  0  0  0  0  0  0  0  0  0  0
  144.4297  131.7759  150.7876 C   0  0  0  0  0  0  0  0  0  0  0  0
  145.3551  131.2676  151.7151 C   0  0  0  0  0  0  0  0  0  0  0  0
  146.2576  132.0398  152.3541 N   0  0  0  0  0  0  0  0  0  0  0  0
  146.2924  133.3732  152.1056 C   0  0  0  0  0  0  0  0  0  0  0  0
  147.2166  134.2486  152.7434 N   0  0  0  0  0  0  0  0  0  0  0  0
  147.7431  134.1536  153.9770 C   0  0  0  0  0  0  0  0  0  0  0  0
  147.5035  133.2607  154.7905 O   0  0  0  0  0  0  0  0  0  0  0  0
  148.5817  135.1695  154.2279 N   0  0  0  0  0  0  0  0  0  0  0  0
  149.3215  135.3469  155.4720 C   0  0  0  0  0  0  0  0  0  0  0  0
  150.6993  135.9900  155.2243 C   0  0  0  0  0  0  0  0  0  0  0  0
  150.6811  137.4572  155.4438 N   0  3  1  0  0  0  0  0  0  0  0  0
  152.0067  138.0803  155.2175 C   0  0  0  0  0  0  0  0  0  0  0  0
  151.9698  139.5926  155.5149 C   0  0  2  0  0  0  0  0  0  0  0  0
  151.9041  139.9232  157.0168 C   0  0  0  0  0  0  0  0  0  0  0  0
  150.9162  140.2140  154.7790 O   0  0  0  0  0  0  0  0  0  0  0  0
  149.6223  139.6582  154.9993 C   0  0  1  0  0  0  0  0  0  0  0  0
  148.6228  140.4354  154.1355 C   0  0  0  0  0  0  0  0  0  0  0  0
  149.6425  138.1588  154.6515 C   0  0  0  0  0  0  0  0  0  0  0  0
  144.6863  135.7323  150.1309 H   0  0  0  0  0  0  0  0  0  0  0  0
  146.3999  135.7696  150.5401 H   0  0  0  0  0  0  0  0  0  0  0  0
  145.1809  136.0297  151.7979 H   0  0  0  0  0  0  0  0  0  0  0  0
  143.7528  133.5778  149.8122 H   0  0  0  0  0  0  0  0  0  0  0  0
  143.7227  131.1247  150.2952 H   0  0  0  0  0  0  0  0  0  0  0  0
  145.3721  130.2136  151.9503 H   0  0  0  0  0  0  0  0  0  0  0  0
  147.5157  135.0364  152.1882 H   0  0  0  0  0  0  0  0  0  0  0  0
  148.7252  135.8608  153.5060 H   0  0  0  0  0  0  0  0  0  0  0  0
  148.7213  135.9396  156.1627 H   0  0  0  0  0  0  0  0  0  0  0  0
  149.4475  134.3672  155.9335 H   0  0  0  0  0  0  0  0  0  0  0  0
  151.4119  135.5321  155.9120 H   0  0  0  0  0  0  0  0  0  0  0  0
  151.0624  135.7755  154.2178 H   0  0  0  0  0  0  0  0  0  0  0  0
  152.7621  137.5987  155.8399 H   0  0  0  0  0  0  0  0  0  0  0  0
  152.3020  137.9166  154.1797 H   0  0  0  0  0  0  0  0  0  0  0  0
  152.8964  140.0270  155.1382 H   0  0  0  0  0  0  0  0  0  0  0  0
  152.7945  139.5609  157.5315 H   0  0  0  0  0  0  0  0  0  0  0  0
  151.0420  139.4687  157.5043 H   0  0  0  0  0  0  0  0  0  0  0  0
  151.8488  141.0003  157.1756 H   0  0  0  0  0  0  0  0  0  0  0  0
  149.3371  139.7887  156.0435 H   0  0  0  0  0  0  0  0  0  0  0  0
  147.6085  140.0596  154.2729 H   0  0  0  0  0  0  0  0  0  0  0  0
  148.8688  140.3548  153.0762 H   0  0  0  0  0  0  0  0  0  0  0  0
  148.6228  141.4940  154.3970 H   0  0  0  0  0  0  0  0  0  0  0  0
  149.8409  138.0208  153.5872 H   0  0  0  0  0  0  0  0  0  0  0  0
  148.6600  137.7313  154.8489 H   0  0  0  0  0  0  0  0  0  0  0  0
  150.4622  137.6014  156.4193 H   0  0  0  0  0  0  0  0  0  0  0  0
  1  2  1  0  0  0  0
  1 22  1  0  0  0  0
  1 23  1  0  0  0  0
  1 24  1  0  0  0  0
  2  7  1  0  0  0  0
  2  3  2  0  0  0  0
  3  4  1  0  0  0  0
  3 25  1  0  0  0  0
  4  5  2  0  0  0  0
  4 26  1  0  0  0  0
  5  6  1  0  0  0  0
  5 27  1  0  0  0  0
  6  7  2  0  0  0  0
  7  8  1  0  0  0  0
  8  9  1  0  0  0  0
  8 28  1  0  0  0  0
  9 10  2  0  0  0  0
  9 11  1  0  0  0  0
 11 12  1  0  0  0  0
 11 29  1  0  0  0  0
 12 13  1  0  0  0  0
 12 30  1  0  0  0  0
 12 31  1  0  0  0  0
 13 14  1  0  0  0  0
 13 32  1  0  0  0  0
 13 33  1  0  0  0  0
 14 21  1  0  0  0  0
 14 15  1  0  0  0  0
 14 46  1  0  0  0  0
 15 16  1  0  0  0  0
 15 34  1  0  0  0  0
 15 35  1  0  0  0  0
 16 17  1  0  0  0  0
 16 18  1  0  0  0  0
 16 36  1  0  0  0  0
 17 37  1  0  0  0  0
 17 38  1  0  0  0  0
 17 39  1  0  0  0  0
 18 19  1  0  0  0  0
 19 20  1  0  0  0  0
 19 21  1  0  0  0  0
 19 40  1  0  0  0  0
 20 41  1  0  0  0  0
 20 42  1  0  0  0  0
 20 43  1  0  0  0  0
 21 44  1  0  0  0  0
 21 45  1  0  0  0  0
M  CHG  1  14   1
M  END
> <s_m_source_file>
AV-unprocessed.smi

> <i_m_source_file_index>
1774

> <i_lp_mmshare_version>
43012

> <i_f3d_flags>
0

> <s_epik_input>
W0NIM11jMVtjSF1bY0hdW2NIXW5jMVtOSF1DKD1PKVtOSF1bQ0gyXVtDSDJdTjJbQ0gyXVtDQEBIXShbQ0gzXSlPW0NAQEhdKFtDSDNdKVtDSDJdMg==

> <s_epik_cmdline>
J2VwaWtfcHl0aG9uJywgJy1waCcsICc3LjAnLCAnLXRuJywgJzgnLCAnLW1hJywgJzIwMCcsICctbWV0YWxfYmluZGluZycsICctaW1hZScsICc8aW5maWxlLm1hZT4nLCAnLW9tYWUnLCAnPG91dGZpbGUubWFlPic=

> <r_epik_Ionization_Penalty>
0.602573

> <r_epik_Ionization_Penalty_Charging>
0.602531

> <r_epik_Ionization_Penalty_Neutral>
4.21996e-05

> <r_epik_State_Penalty>
0.617039

> <r_epik_Charging_Adjusted_Penalty>
1.21957

> <i_epik_Tot_Q>
1

> <i_epik_Tot_abs_Q>
1

> <r_epik_Metal_State_Penalty>
0.617042

> <b_epik_Metal_Only>
0

> <s_lp_Force_Field>
OPLS_2005

> <r_lp_Energy>
18.8628

> <b_lp_Chiralities_Consistent>
1

> <s_lp_Variant>
AV-unprocessed.smi:1774-5

> <Gold.Version>
5.8.1

> <Gold.Id.Protein>
6NUR|6NUR_protein|mol2

> <Gold.PLP.Fitness>
43.6550

> <Gold.PLP.PLP>
-36.2031

> <Gold.PLP.part.hbond>
-3.0000

> <Gold.PLP.part.metal>
0.0000

> <Gold.PLP.part.buried>
-3.6354

> <Gold.PLP.part.nonpolar>
-29.7811

> <Gold.PLP.part.repulsive>
0.2926

> <Gold.PLP.ligand.clash>
0.0000

> <Gold.PLP.ligand.torsion>
0.6471

> <Gold.PLP.Chemscore.Hbond>
2.9120

> <Gold.PLP.Chemscore.CHOScore>
0.0000

> <Gold.PLP.Chemscore.Metal>
0.0000

> <Gold.Chemscore.Hbonds>
donor molecule, donor type, donor heavy atom, donor atom, acceptor molecule, acceptor atom, score
      L1  H     8    28       P1  7948  0.88
      L1  H    11    29       P1  7948  0.98
      P1  H  7989  7998       L1    18  1.00

> <Gold.PLP.Chemscore.Internal.Correction>
0.0102

> <Gold.Rescore>
     Score         DG    S(hbond)    S(metal)    S(lipo)     H(rot)  DE(clash)    DE(int)     intcor
     19.29     -20.80       2.71        0.00      86.42       1.49       0.11       1.40       ----

> <Gold.Chemscore.Fitness>
19.2902

> <Gold.Chemscore.DG>
-20.8046

> <Gold.Chemscore.ZeroCoef>
-5.4800

> <Gold.Chemscore.Hbond>
2.7066

> <Gold.Chemscore.Metal>
0.0000

> <Gold.Chemscore.Lipo>
86.4158

> <Gold.Chemscore.Internal_Hbond>
0.0000

> <Gold.Chemscore.DEClash>
0.1098

> <Gold.Chemscore.DEInternal>
1.4046

> <Gold.Chemscore.Rot>
1.4946

> <Gold.Chemscore.Internal.Correction>
   9.000000E+99

> <Gold.Chemscore.Hbonds>
donor molecule, donor type, donor heavy atom, donor atom, acceptor molecule, acceptor atom, score
      L1  H     8    28       P1  7948  0.83
      L1  H    11    29       P1  7948  0.91
      P1  H  7989  7998       L1    18  0.49

> <Gold.Chemscore.Hbond.Weighted>
-9.0400

> <Gold.Chemscore.Metal.Weighted>
-0.0000

> <Gold.Chemscore.Lipo.Weighted>
-10.1107

> <Gold.Chemscore.Internal_Hbond.Weighted>
0.0000

> <Gold.Chemscore.DEClash.Weighted>
0.1098

> <Gold.Chemscore.DEInternal.Weighted>
1.4046

> <Gold.Chemscore.Rot.Weighted>
3.8261

> <Gold.Chemscore.Internal.Correction.Weighted>
   9.000000E+99

> <Gold.Protein.RotatedTorsions>
[ 6907 6896 6895 6894 ] final  130.45 input  -60.11 | X-H torsion
[ 7974 7965 7964 7962 ] final   22.03 input  175.53 | X-H torsion
[ 8008 7997 7996 7995 ] final  -54.59 input   59.86 | X-H torsion
[ 10167 10162 10161 10158 ] final   37.75 input  -65.29 | X-H torsion
[ 10718 10713 10712 10709 ] final  122.65 input   66.30 | X-H torsion
[ 10763 10752 10751 10750 ] final   22.72 input  -60.55 | X-H torsion
[ 11005 11000 10999 10996 ] final  -23.66 input  -57.11 | X-H torsion

> <Gold.Protein.ActiveResidues>
 VAL166  LYS551  ARG553  GLY616  TRP617  ASP618  TYR619  PRO620  LYS621  CYS622 
 ASP623  PHE694  ASN695  SER759  ASP760  ASP761  ALA762  ILE779  LEU786  VAL792 
 PHE793  MET794  SER795  GLU796  ALA797  LYS798  CYS799  TRP800  GLU811  SER814 

> <Gold.Protein.RotatedAtoms>
  152.3525  133.6196  159.5954 H   0  0  0  0  0  0  0  0  0  0  0  0  # atno 6907 bound_to 6896
  150.7547  133.9552  159.3507 H   0  0  0  0  0  0  0  0  0  0  0  0  # atno 6908 bound_to 6896
  151.7402  135.0857  160.0365 H   0  0  0  0  0  0  0  0  0  0  0  0  # atno 6909 bound_to 6896
  146.2046  139.7942  142.8735 H   0  0  0  0  0  0  0  0  0  0  0  0  # atno 7974 bound_to 7965
  154.4167  140.1173  156.5340 H   0  0  0  0  0  0  0  0  0  0  0  0  # atno 8008 bound_to 7997
  155.6576  140.3496  155.4752 H   0  0  0  0  0  0  0  0  0  0  0  0  # atno 8009 bound_to 7997
  155.9740  140.1147  157.0777 H   0  0  0  0  0  0  0  0  0  0  0  0  # atno 8010 bound_to 7997
  140.4002  144.1733  150.6133 H   0  0  0  0  0  0  0  0  0  0  0  0  # atno 10167 bound_to 10162
  157.5726  131.1082  150.8339 H   0  0  0  0  0  0  0  0  0  0  0  0  # atno 10718 bound_to 10713
  153.0894  135.6642  153.9884 H   0  0  0  0  0  0  0  0  0  0  0  0  # atno 10763 bound_to 10752
  153.9485  135.2986  155.3441 H   0  0  0  0  0  0  0  0  0  0  0  0  # atno 10764 bound_to 10752
  154.7306  135.5124  153.9031 H   0  0  0  0  0  0  0  0  0  0  0  0  # atno 10765 bound_to 10752
  140.8772  133.7679  156.0258 H   0  0  0  0  0  0  0  0  0  0  0  0  # atno 11005 bound_to 11000
  145.3365  141.0278  143.3417 LP  0  0  0  0  0  0  0  0  0  0  0  0  # atno 17320 bound_to 7965
  144.8762  139.4968  143.6744 LP  0  0  0  0  0  0  0  0  0  0  0  0  # atno 17321 bound_to 7965
  140.4747  143.2400  151.9039 LP  0  0  0  0  0  0  0  0  0  0  0  0  # atno 17342 bound_to 10162
  139.4785  144.5332  151.8636 LP  0  0  0  0  0  0  0  0  0  0  0  0  # atno 17343 bound_to 10162
  156.8807  130.5178  149.5291 LP  0  0  0  0  0  0  0  0  0  0  0  0  # atno 17370 bound_to 10713
  156.0771  130.5790  150.9494 LP  0  0  0  0  0  0  0  0  0  0  0  0  # atno 17371 bound_to 10713
  140.8504  134.2961  157.5278 LP  0  0  0  0  0  0  0  0  0  0  0  0  # atno 17394 bound_to 11000
  139.8716  134.9464  156.3938 LP  0  0  0  0  0  0  0  0  0  0  0  0  # atno 17395 bound_to 11000

$$$$
