#       Name:                AV-unprocessed.smi:1831
#       Creating user name   scv26
#       Creation time:       Fri Mar 27 09:14:51 2020


#       File generated by GOLD software.
#

@<TRIPOS>MOLECULE
AV-unprocessed.smi:1831
    45    46     1
SMALL
NO_CHARGES


@<TRIPOS>ATOM
      1 ****        -5.5658   4.2183  -1.7406 C.3            1 S1                 0.0000
      2 ****        -4.8009   3.5581  -0.6449 C.2            1 S1                 0.0000
      3 ****        -4.7762   4.0282   0.6086 N.2            1 S1                 0.0000
      4 ****        -3.9986   3.2455   1.4518 N.2            1 S1                 0.0000
      5 ****        -3.4617   2.2035   0.8111 C.2            1 S1                 0.0000
      6 ****        -2.6423   1.3150   1.5515 N.am           1 S1                 0.0000
      7 ****        -2.0319   0.2006   1.1175 C.2            1 S1                 0.0000
      8 ****        -2.0856  -0.2399  -0.0306 O.2            1 S1                 0.0000
      9 ****        -1.3374  -0.3886   2.1019 N.am           1 S1                 0.0000
     10 ****        -0.5864  -1.6346   1.9797 C.3            1 S1                 0.0000
     11 ****         0.8858  -1.3977   1.5889 C.3            1 S1                 0.0000
     12 ****         1.7183  -2.6767   1.5388 C.3            1 S1                 0.0000
     13 ****         2.8815  -2.3509   0.5928 C.3            1 S1                 0.0000
     14 ****         2.5198  -1.1084  -0.1356 N.4            1 S1                 1.0000
     15 ****         2.8588  -1.1005  -1.5869 C.3            1 S1                 0.0000
     16 ****         4.3726  -1.2843  -1.8051 C.3            1 S1                 0.0000
     17 ****         2.3945   0.1980  -2.2746 C.3            1 S1                 0.0000
     18 ****         1.1052  -0.8232   0.1885 C.3            1 S1                 0.0000
     19 ****        -3.8631   2.0925  -0.9027 S.3            1 S1                 0.0000
     20 ****        -5.8818   5.2181  -1.4411 H              1 S1                 0.0000
     21 ****        -6.4503   3.6292  -1.9833 H              1 S1                 0.0000
     22 ****        -4.9446   4.3022  -2.6324 H              1 S1                 0.0000
     23 ****        -2.5143   1.5530   2.5241 H              1 S1                 0.0000
     24 ****        -1.3509   0.0438   3.0144 H              1 S1                 0.0000
     25 ****        -0.6272  -2.1368   2.9466 H              1 S1                 0.0000
     26 ****        -1.0715  -2.3064   1.2694 H              1 S1                 0.0000
     27 ****         1.3441  -0.7226   2.3141 H              1 S1                 0.0000
     28 ****         2.0571  -2.9941   2.5255 H              1 S1                 0.0000
     29 ****         1.1270  -3.4906   1.1164 H              1 S1                 0.0000
     30 ****         3.8039  -2.1777   1.1478 H              1 S1                 0.0000
     31 ****         3.0528  -3.1901  -0.0827 H              1 S1                 0.0000
     32 ****         2.3401  -1.9355  -2.0605 H              1 S1                 0.0000
     33 ****         4.6185  -1.2625  -2.8673 H              1 S1                 0.0000
     34 ****         4.7326  -2.2372  -1.4178 H              1 S1                 0.0000
     35 ****         4.9418  -0.4911  -1.3192 H              1 S1                 0.0000
     36 ****         2.6905   0.2104  -3.3240 H              1 S1                 0.0000
     37 ****         2.8303   1.0775  -1.7993 H              1 S1                 0.0000
     38 ****         1.3102   0.3079  -2.2540 H              1 S1                 0.0000
     39 ****         0.4572  -1.3312  -0.5281 H              1 S1                 0.0000
     40 ****         0.8920   0.2453   0.1446 H              1 S1                 0.0000
     41 ****         3.0545  -0.3683   0.2962 H              1 S1                 0.0000
     42 ****        -5.2628   4.8503   0.9042 LP             1 S1                 0.0000
     43 ****        -3.8574   3.4388   2.4227 LP             1 S1                 0.0000
     44 ****        -2.6169   0.2426  -0.7269 LP             1 S1                 0.0000
     45 ****        -1.5978  -1.0802  -0.2670 LP             1 S1                 0.0000
@<TRIPOS>BOND
    1    1    2 1     
    2    1   20 1     
    3    1   21 1     
    4    1   22 1     
    5    2   19 1     
    6    2    3 2     
    7    3    4 1     
    8    4    5 2     
    9    5    6 1     
   10    5   19 1     
   11    6    7 am    
   12    6   23 1     
   13    7    8 2     
   14    7    9 am    
   15    9   10 1     
   16    9   24 1     
   17   10   11 1     
   18   10   25 1     
   19   10   26 1     
   20   11   18 1     
   21   11   12 1     
   22   11   27 1     
   23   12   13 1     
   24   12   28 1     
   25   12   29 1     
   26   13   14 1     
   27   13   30 1     
   28   13   31 1     
   29   14   15 1     
   30   14   18 1     
   31   14   41 1     
   32   15   16 1     
   33   15   17 1     
   34   15   32 1     
   35   16   33 1     
   36   16   34 1     
   37   16   35 1     
   38   17   36 1     
   39   17   37 1     
   40   17   38 1     
   41   18   39 1     
   42   18   40 1     
   43    3   42 1     
   44    4   43 1     
   45    8   44 1     
   46    8   45 1     
@<TRIPOS>SUBSTRUCTURE
      1 S1             1
@<TRIPOS>SET
LONE_PAIRS      STATIC     ATOMS    <user>   **** ""
4 42 43 44 45
DONOR_HYDROGENS      STATIC     ATOMS    <user>   **** ""
3 23 24 41
ATOM$BLUE        STATIC     ATOMS    COLORGROUP SYSTEM
4 42 43 44 45
ATOM$RED        STATIC     ATOMS    COLORGROUP SYSTEM
3 23 24 41
