#       Name:                AV-unprocessed.smi:3259
#       Creating user name   scv26
#       Creation time:       Fri Mar 27 18:37:15 2020


#       File generated by GOLD software.
#

@<TRIPOS>MOLECULE
AV-unprocessed.smi:3259
    44    45     1
SMALL
NO_CHARGES


@<TRIPOS>ATOM
      1 ****        -3.2812  -1.9399   1.5532 C.3            1 S1                 0.0000
      2 ****        -2.5998  -1.4104   0.4234 O.3            1 S1                 0.0000
      3 ****        -2.2703  -0.0212   0.4756 C.3            1 S1                 0.0000
      4 ****        -3.5529   0.8247   0.4445 C.3            1 S1                 0.0000
      5 ****        -1.2289   0.2901   1.5659 C.3            1 S1                 0.0000
      6 ****        -0.5415   1.1797   0.5323 C.3            1 S1                 0.0000
      7 ****         0.9117   1.1304   0.6319 N.am           1 S1                 0.0000
      8 ****         1.7523   1.8408  -0.1350 C.2            1 S1                 0.0000
      9 ****         1.3773   2.6713  -0.9622 O.2            1 S1                 0.0000
     10 ****         3.2446   1.5621   0.0517 C.3            1 S1                 0.0000
     11 ****         3.5789   0.2035  -0.3409 N.pl3          1 S1                 0.0000
     12 ****         3.6376  -0.9271   0.4478 C.2            1 S1                 0.0000
     13 ****         3.9765  -1.9719  -0.3629 C.2            1 S1                 0.0000
     14 ****         4.1074  -1.3741  -1.6474 C.2            1 S1                 0.0000
     15 ****         3.8687  -0.0727  -1.6315 N.2            1 S1                 0.0000
     16 ****        -1.1451   0.2710  -0.5699 C.3            1 S1                 0.0000
     17 ****        -0.2973  -0.9398  -1.0136 C.3            1 S1                 0.0000
     18 ****        -1.5692   0.9796  -1.8601 C.3            1 S1                 0.0000
     19 ****        -3.3830  -3.0183   1.4333 H              1 S1                 0.0000
     20 ****        -4.2858  -1.5296   1.6516 H              1 S1                 0.0000
     21 ****        -2.7361  -1.7616   2.4803 H              1 S1                 0.0000
     22 ****        -3.3358   1.8884   0.3492 H              1 S1                 0.0000
     23 ****        -4.1362   0.7130   1.3579 H              1 S1                 0.0000
     24 ****        -4.1917   0.5457  -0.3936 H              1 S1                 0.0000
     25 ****        -1.6195   0.8236   2.4329 H              1 S1                 0.0000
     26 ****        -0.6340  -0.5750   1.8646 H              1 S1                 0.0000
     27 ****        -0.9520   2.1920   0.5280 H              1 S1                 0.0000
     28 ****         1.3044   0.4737   1.2906 H              1 S1                 0.0000
     29 ****         3.8378   2.2635  -0.5372 H              1 S1                 0.0000
     30 ****         3.5185   1.7073   1.0974 H              1 S1                 0.0000
     31 ****         3.4316  -0.8943   1.5076 H              1 S1                 0.0000
     32 ****         4.1097  -3.0058  -0.0811 H              1 S1                 0.0000
     33 ****         4.3662  -1.8442  -2.5848 H              1 S1                 0.0000
     34 ****         0.5785  -0.6319  -1.5861 H              1 S1                 0.0000
     35 ****        -0.8712  -1.6181  -1.6458 H              1 S1                 0.0000
     36 ****         0.0664  -1.5239  -0.1680 H              1 S1                 0.0000
     37 ****        -0.7112   1.2064  -2.4935 H              1 S1                 0.0000
     38 ****        -2.0677   1.9279  -1.6607 H              1 S1                 0.0000
     39 ****        -2.2564   0.3668  -2.4441 H              1 S1                 0.0000
     40 ****        -3.1801  -1.5559  -0.3779 LP             1 S1                 0.0000
     41 ****        -1.7473  -1.9217   0.3147 LP             1 S1                 0.0000
     42 ****         0.4007   2.8448  -1.0892 LP             1 S1                 0.0000
     43 ****         2.0492   3.1726  -1.5074 LP             1 S1                 0.0000
     44 ****         3.8965   0.5639  -2.4022 LP             1 S1                 0.0000
@<TRIPOS>BOND
    1    1    2 1     
    2    1   19 1     
    3    1   20 1     
    4    1   21 1     
    5    2    3 1     
    6    3   16 1     
    7    3    4 1     
    8    3    5 1     
    9    4   22 1     
   10    4   23 1     
   11    4   24 1     
   12    5    6 1     
   13    5   25 1     
   14    5   26 1     
   15    6    7 1     
   16    6   16 1     
   17    6   27 1     
   18    7    8 am    
   19    7   28 1     
   20    8    9 2     
   21    8   10 1     
   22   10   11 1     
   23   10   29 1     
   24   10   30 1     
   25   11   15 1     
   26   11   12 1     
   27   12   13 2     
   28   12   31 1     
   29   13   14 1     
   30   13   32 1     
   31   14   15 2     
   32   14   33 1     
   33   16   17 1     
   34   16   18 1     
   35   17   34 1     
   36   17   35 1     
   37   17   36 1     
   38   18   37 1     
   39   18   38 1     
   40   18   39 1     
   41    2   40 1     
   42    2   41 1     
   43    9   42 1     
   44    9   43 1     
   45   15   44 1     
@<TRIPOS>SUBSTRUCTURE
      1 S1             1
@<TRIPOS>SET
LONE_PAIRS      STATIC     ATOMS    <user>   **** ""
5 40 41 42 43 44
DONOR_HYDROGENS      STATIC     ATOMS    <user>   **** ""
1 28
ATOM$BLUE        STATIC     ATOMS    COLORGROUP SYSTEM
5 40 41 42 43 44
ATOM$RED        STATIC     ATOMS    COLORGROUP SYSTEM
1 28
