#       Name:                AV-unprocessed.smi:3116
#       Creating user name   scv26
#       Creation time:       Fri Mar 27 17:25:02 2020


#       File generated by GOLD software.
#

@<TRIPOS>MOLECULE
AV-unprocessed.smi:3116
    37    37     1
SMALL
NO_CHARGES


@<TRIPOS>ATOM
      1 ****        -2.6791   0.9660  -0.4272 C.3            1 S1                 0.0000
      2 ****        -1.1900   0.9564  -0.8022 C.3            1 S1                 0.0000
      3 ****        -0.7076  -0.4420  -0.8960 N.4            1 S1                 1.0000
      4 ****         0.7618  -0.6305  -0.8037 C.3            1 S1                 0.0000
      5 ****         1.2321  -1.4112  -2.0427 C.3            1 S1                 0.0000
      6 ****         1.1369  -1.3419   0.5253 C.3            1 S1                 0.0000
      7 ****         2.6540  -1.5532   0.6943 C.3            1 S1                 0.0000
      8 ****         0.6036  -0.6353   1.6847 N.pl3          1 S1                 0.0000
      9 ****        -0.3484  -1.0701   2.5842 C.2            1 S1                 0.0000
     10 ****        -0.5400  -0.0693   3.4928 C.2            1 S1                 0.0000
     11 ****         0.3545   0.9510   3.0660 C.2            1 S1                 0.0000
     12 ****         1.0358   0.6106   1.9841 N.2            1 S1                 0.0000
     13 ****        -0.9694   1.7201  -2.1154 C.2            1 S1                 0.0000
     14 ****        -0.7097   3.0268  -2.0233 N.am           1 S1                 0.0000
     15 ****        -1.0447   1.1431  -3.1987 O.2            1 S1                 0.0000
     16 ****        -3.0566   1.9844  -0.3266 H              1 S1                 0.0000
     17 ****        -2.8428   0.4637   0.5270 H              1 S1                 0.0000
     18 ****        -3.2864   0.4582  -1.1779 H              1 S1                 0.0000
     19 ****        -0.6455   1.4618  -0.0041 H              1 S1                 0.0000
     20 ****        -1.1285  -0.9708  -0.1459 H              1 S1                 0.0000
     21 ****         1.2537   0.3434  -0.8308 H              1 S1                 0.0000
     22 ****         2.3188  -1.4755  -2.0910 H              1 S1                 0.0000
     23 ****         0.9052  -0.9230  -2.9614 H              1 S1                 0.0000
     24 ****         0.8342  -2.4264  -2.0481 H              1 S1                 0.0000
     25 ****         0.6723  -2.3294   0.5203 H              1 S1                 0.0000
     26 ****         3.0516  -2.2373  -0.0546 H              1 S1                 0.0000
     27 ****         2.8817  -1.9853   1.6694 H              1 S1                 0.0000
     28 ****         3.2016  -0.6137   0.6124 H              1 S1                 0.0000
     29 ****        -0.8073  -2.0446   2.5041 H              1 S1                 0.0000
     30 ****        -1.2141  -0.0674   4.3367 H              1 S1                 0.0000
     31 ****         0.5269   1.9223   3.5059 H              1 S1                 0.0000
     32 ****        -0.5539   3.5753  -2.8568 H              1 S1                 0.0000
     33 ****        -0.6669   3.4644  -1.1138 H              1 S1                 0.0000
     34 ****        -1.0298  -0.8219  -1.7748 H              1 S1                 0.0000
     35 ****         1.7188   1.1540   1.4961 LP             1 S1                 0.0000
     36 ****        -1.2517   0.1653  -3.2311 LP             1 S1                 0.0000
     37 ****        -0.8989   1.6517  -4.0473 LP             1 S1                 0.0000
@<TRIPOS>BOND
    1    1    2 1     
    2    1   16 1     
    3    1   17 1     
    4    1   18 1     
    5    2    3 1     
    6    2   13 1     
    7    2   19 1     
    8    3    4 1     
    9    3   20 1     
   10    3   34 1     
   11    4    5 1     
   12    4    6 1     
   13    4   21 1     
   14    5   22 1     
   15    5   23 1     
   16    5   24 1     
   17    6    7 1     
   18    6    8 1     
   19    6   25 1     
   20    7   26 1     
   21    7   27 1     
   22    7   28 1     
   23    8   12 1     
   24    8    9 1     
   25    9   10 2     
   26    9   29 1     
   27   10   11 1     
   28   10   30 1     
   29   11   12 2     
   30   11   31 1     
   31   13   14 am    
   32   13   15 2     
   33   14   32 1     
   34   14   33 1     
   35   12   35 1     
   36   15   36 1     
   37   15   37 1     
@<TRIPOS>SUBSTRUCTURE
      1 S1             1
@<TRIPOS>SET
LONE_PAIRS      STATIC     ATOMS    <user>   **** ""
3 35 36 37
DONOR_HYDROGENS      STATIC     ATOMS    <user>   **** ""
4 20 34 32 33
ATOM$BLUE        STATIC     ATOMS    COLORGROUP SYSTEM
3 35 36 37
ATOM$RED        STATIC     ATOMS    COLORGROUP SYSTEM
4 20 34 32 33
