#       Name:                AV-unprocessed.smi:2875
#       Creating user name   scv26
#       Creation time:       Fri Mar 27 15:50:34 2020


#       File generated by GOLD software.
#

@<TRIPOS>MOLECULE
AV-unprocessed.smi:2875
    48    48     1
SMALL
NO_CHARGES


@<TRIPOS>ATOM
      1 ****        -3.9293  -2.9115  -2.0257 C.3            1 S1                 0.0000
      2 ****        -3.0355  -1.7511  -1.5773 C.3            1 S1                 0.0000
      3 ****        -2.6882  -1.8268  -0.0812 C.3            1 S1                 0.0000
      4 ****        -1.8169  -0.7494   0.3452 N.am           1 S1                 0.0000
      5 ****        -0.4212  -0.8267   0.3197 C.2            1 S1                 0.0000
      6 ****         0.1564  -1.9974  -0.1501 N.pl3          1 S1                 0.0000
      7 ****         0.3638   0.2084   0.7454 C.2            1 S1                 0.0000
      8 ****         1.7693   0.1434   0.6821 N.am           1 S1                 0.0000
      9 ****         2.3867   0.2302  -0.6517 C.3            1 S1                 0.0000
     10 ****         2.9780   1.6220  -0.9285 C.3            1 S1                 0.0000
     11 ****         1.9250   2.5618  -1.0604 O.3            1 S1                 0.0000
     12 ****         2.3968   3.8811  -1.2666 C.3            1 S1                 0.0000
     13 ****         2.5320  -0.0574   1.7886 C.2            1 S1                 0.0000
     14 ****         1.8515  -0.2804   3.1445 C.3            1 S1                 0.0000
     15 ****         3.7621  -0.0942   1.7472 O.2            1 S1                 0.0000
     16 ****        -0.2446   1.4627   1.2126 C.2            1 S1                 0.0000
     17 ****         0.3663   2.4567   1.6035 O.2            1 S1                 0.0000
     18 ****        -1.6366   1.4850   1.1850 N.am           1 S1                 0.0000
     19 ****        -2.4547   0.4423   0.7657 C.2            1 S1                 0.0000
     20 ****        -3.6768   0.5942   0.7730 O.2            1 S1                 0.0000
     21 ****        -2.0904   2.3342   1.4886 H              1 S1                 0.0000
     22 ****        -4.1665  -2.8320  -3.0867 H              1 S1                 0.0000
     23 ****        -4.8695  -2.9193  -1.4737 H              1 S1                 0.0000
     24 ****        -3.4374  -3.8712  -1.8652 H              1 S1                 0.0000
     25 ****        -2.1194  -1.7547  -2.1692 H              1 S1                 0.0000
     26 ****        -3.5384  -0.8081  -1.7939 H              1 S1                 0.0000
     27 ****        -3.5798  -1.8148   0.5481 H              1 S1                 0.0000
     28 ****        -2.1842  -2.7605   0.1668 H              1 S1                 0.0000
     29 ****        -0.4033  -2.7766  -0.4666 H              1 S1                 0.0000
     30 ****         1.1553  -2.1445  -0.1262 H              1 S1                 0.0000
     31 ****         3.1671  -0.5267  -0.7473 H              1 S1                 0.0000
     32 ****         1.6587  -0.0053  -1.4292 H              1 S1                 0.0000
     33 ****         3.6627   1.9194  -0.1330 H              1 S1                 0.0000
     34 ****         3.5525   1.5954  -1.8553 H              1 S1                 0.0000
     35 ****         1.5509   4.5620  -1.3593 H              1 S1                 0.0000
     36 ****         2.9878   3.9498  -2.1807 H              1 S1                 0.0000
     37 ****         3.0073   4.2165  -0.4271 H              1 S1                 0.0000
     38 ****         1.4175   0.6475   3.5164 H              1 S1                 0.0000
     39 ****         2.5756  -0.6265   3.8829 H              1 S1                 0.0000
     40 ****         1.0663  -1.0339   3.0748 H              1 S1                 0.0000
     41 ****         1.3741   2.5452  -0.2259 LP             1 S1                 0.0000
     42 ****         1.3567   2.2991  -1.8402 LP             1 S1                 0.0000
     43 ****         4.2368   0.0261   0.8754 LP             1 S1                 0.0000
     44 ****         4.2863  -0.2444   2.5854 LP             1 S1                 0.0000
     45 ****         1.3661   2.4541   1.6214 LP             1 S1                 0.0000
     46 ****        -0.1371   3.2671   1.9033 LP             1 S1                 0.0000
     47 ****        -4.2748  -0.1482   0.4707 LP             1 S1                 0.0000
     48 ****        -4.0713   1.4599   1.0813 LP             1 S1                 0.0000
@<TRIPOS>BOND
    1    1    2 1     
    2    1   22 1     
    3    1   23 1     
    4    1   24 1     
    5    2    3 1     
    6    2   25 1     
    7    2   26 1     
    8    3    4 1     
    9    3   27 1     
   10    3   28 1     
   11    4   19 1     
   12    4    5 1     
   13    5    6 1     
   14    5    7 2     
   15    6   29 1     
   16    6   30 1     
   17    7    8 1     
   18    7   16 1     
   19    8    9 1     
   20    8   13 am    
   21    9   10 1     
   22    9   31 1     
   23    9   32 1     
   24   10   11 1     
   25   10   33 1     
   26   10   34 1     
   27   11   12 1     
   28   12   35 1     
   29   12   36 1     
   30   12   37 1     
   31   13   14 1     
   32   13   15 2     
   33   14   38 1     
   34   14   39 1     
   35   14   40 1     
   36   16   17 2     
   37   16   18 1     
   38   18   21 1     
   39   18   19 1     
   40   19   20 2     
   41   11   41 1     
   42   11   42 1     
   43   15   43 1     
   44   15   44 1     
   45   17   45 1     
   46   17   46 1     
   47   20   47 1     
   48   20   48 1     
@<TRIPOS>SUBSTRUCTURE
      1 S1             1
@<TRIPOS>SET
LONE_PAIRS      STATIC     ATOMS    <user>   **** ""
8 41 42 43 44 45 46 47 48
DONOR_HYDROGENS      STATIC     ATOMS    <user>   **** ""
3 29 30 21
ATOM$BLUE        STATIC     ATOMS    COLORGROUP SYSTEM
8 41 42 43 44 45 46 47 48
ATOM$RED        STATIC     ATOMS    COLORGROUP SYSTEM
3 29 30 21
