#       Name:                AV-unprocessed.smi:3211
#       Creating user name   scv26
#       Creation time:       Fri Mar 27 18:11:12 2020


#       File generated by GOLD software.
#

@<TRIPOS>MOLECULE
AV-unprocessed.smi:3211
    37    38     1
SMALL
NO_CHARGES


@<TRIPOS>ATOM
      1 ****        -2.4928   4.8181   3.1156 C.3            1 S1                 0.0000
      2 ****        -1.2994   4.8723   2.1557 C.3            1 S1                 0.0000
      3 ****        -1.3462   3.7988   1.1205 C.2            1 S1                 0.0000
      4 ****        -0.8325   2.5787   1.2996 N.2            1 S1                 0.0000
      5 ****        -1.0255   1.7450   0.1934 C.2            1 S1                 0.0000
      6 ****        -0.4960   0.3431   0.2094 C.3            1 S1                 0.0000
      7 ****         1.0215   0.2954  -0.0322 C.3            1 S1                 0.0000
      8 ****         1.5242  -1.0738  -0.0275 N.am           1 S1                 0.0000
      9 ****         1.4974  -1.9081  -1.0781 C.2            1 S1                 0.0000
     10 ****         1.0314  -1.5859  -2.1717 O.2            1 S1                 0.0000
     11 ****         2.0936  -3.2525  -0.7954 C.3            1 S1                 0.0000
     12 ****         2.6067  -4.0614  -1.9707 C.3            1 S1                 0.0000
     13 ****         1.3727  -4.5217  -1.2324 C.3            1 S1                 0.0000
     14 ****         0.0202  -4.5470  -1.9228 C.3            1 S1                 0.0000
     15 ****        -1.7133   2.3519  -0.8277 C.2            1 S1                 0.0000
     16 ****        -2.1431   3.9940  -0.4364 S.3            1 S1                 0.0000
     17 ****        -2.4284   5.6110   3.8611 H              1 S1                 0.0000
     18 ****        -2.5288   3.8653   3.6446 H              1 S1                 0.0000
     19 ****        -3.4346   4.9397   2.5794 H              1 S1                 0.0000
     20 ****        -1.2696   5.8398   1.6535 H              1 S1                 0.0000
     21 ****        -0.3674   4.7827   2.7152 H              1 S1                 0.0000
     22 ****        -0.7272  -0.1303   1.1645 H              1 S1                 0.0000
     23 ****        -1.0071  -0.2512  -0.5492 H              1 S1                 0.0000
     24 ****         1.2729   0.7847  -0.9748 H              1 S1                 0.0000
     25 ****         1.5406   0.8487   0.7510 H              1 S1                 0.0000
     26 ****         1.9263  -1.4094   0.8358 H              1 S1                 0.0000
     27 ****         2.6559  -3.3312   0.1341 H              1 S1                 0.0000
     28 ****         2.4756  -3.6618  -2.9749 H              1 S1                 0.0000
     29 ****         3.5278  -4.6207  -1.8201 H              1 S1                 0.0000
     30 ****         1.5008  -5.3593  -0.5494 H              1 S1                 0.0000
     31 ****        -0.0187  -3.8494  -2.7586 H              1 S1                 0.0000
     32 ****        -0.7677  -4.2926  -1.2138 H              1 S1                 0.0000
     33 ****        -0.1757  -5.5455  -2.3135 H              1 S1                 0.0000
     34 ****        -1.9930   1.9331  -1.7831 H              1 S1                 0.0000
     35 ****        -0.3613   2.2926   2.1339 LP             1 S1                 0.0000
     36 ****         0.6525  -0.6699  -2.3035 LP             1 S1                 0.0000
     37 ****         1.0320  -2.2403  -2.9279 LP             1 S1                 0.0000
@<TRIPOS>BOND
    1    1    2 1     
    2    1   17 1     
    3    1   18 1     
    4    1   19 1     
    5    2    3 1     
    6    2   20 1     
    7    2   21 1     
    8    3   16 1     
    9    3    4 2     
   10    4    5 1     
   11    5    6 1     
   12    5   15 2     
   13    6    7 1     
   14    6   22 1     
   15    6   23 1     
   16    7    8 1     
   17    7   24 1     
   18    7   25 1     
   19    8    9 am    
   20    8   26 1     
   21    9   10 2     
   22    9   11 1     
   23   11   13 1     
   24   11   12 1     
   25   11   27 1     
   26   12   13 1     
   27   12   28 1     
   28   12   29 1     
   29   13   14 1     
   30   13   30 1     
   31   14   31 1     
   32   14   32 1     
   33   14   33 1     
   34   15   16 1     
   35   15   34 1     
   36    4   35 1     
   37   10   36 1     
   38   10   37 1     
@<TRIPOS>SUBSTRUCTURE
      1 S1             1
@<TRIPOS>SET
LONE_PAIRS      STATIC     ATOMS    <user>   **** ""
3 35 36 37
DONOR_HYDROGENS      STATIC     ATOMS    <user>   **** ""
1 26
ATOM$BLUE        STATIC     ATOMS    COLORGROUP SYSTEM
3 35 36 37
ATOM$RED        STATIC     ATOMS    COLORGROUP SYSTEM
1 26
