#       Name:                AV-unprocessed.smi:2183
#       Creating user name   scv26
#       Creation time:       Fri Mar 27 12:06:37 2020


#       File generated by GOLD software.
#

@<TRIPOS>MOLECULE
AV-unprocessed.smi:2183
    47    49     1
SMALL
NO_CHARGES


@<TRIPOS>ATOM
      1 ****        -2.3005   1.1965   2.8230 O.3            1 S1                 0.0000
      2 ****        -1.1670   1.9047   2.3732 C.3            1 S1                 0.0000
      3 ****        -1.3175   2.3781   0.9652 C.2            1 S1                 0.0000
      4 ****        -1.7831   3.5992   0.5792 N.pl3          1 S1                 1.0000
      5 ****        -1.7947   3.6820  -0.8137 C.ar           1 S1                 0.0000
      6 ****        -2.1811   4.7160  -1.6608 C.ar           1 S1                 0.0000
      7 ****        -2.0654   4.4764  -3.0457 C.ar           1 S1                 0.0000
      8 ****        -1.5808   3.2480  -3.5399 C.ar           1 S1                 0.0000
      9 ****        -1.1932   2.2066  -2.6712 C.ar           1 S1                 0.0000
     10 ****        -1.3121   2.4503  -1.3028 C.ar           1 S1                 0.0000
     11 ****        -1.0324   1.6765  -0.1695 N.pl3          1 S1                 0.0000
     12 ****        -0.5144   0.3078  -0.3260 C.3            1 S1                 0.0000
     13 ****         1.0226   0.2365  -0.2284 C.3            1 S1                 0.0000
     14 ****         1.6086   1.0047  -1.2596 O.3            1 S1                 0.0000
     15 ****         1.5523  -1.2012  -0.3267 C.3            1 S1                 0.0000
     16 ****         1.1405  -1.9197   0.8288 O.3            1 S1                 0.0000
     17 ****         1.5063  -3.2438   0.9403 C.ar           1 S1                 0.0000
     18 ****         1.0650  -3.9346   2.0880 C.ar           1 S1                 0.0000
     19 ****         1.3920  -5.2902   2.2842 C.ar           1 S1                 0.0000
     20 ****         2.1689  -5.9715   1.3289 C.ar           1 S1                 0.0000
     21 ****         2.5723  -7.6321   1.5665 Cl             1 S1                 0.0000
     22 ****         2.6163  -5.2946   0.1789 C.ar           1 S1                 0.0000
     23 ****         2.2885  -3.9387  -0.0169 C.ar           1 S1                 0.0000
     24 ****        -2.1475   0.9168   3.7128 H              1 S1                 0.0000
     25 ****        -0.9981   2.7600   3.0280 H              1 S1                 0.0000
     26 ****        -0.2902   1.2622   2.4533 H              1 S1                 0.0000
     27 ****        -2.5524   5.6580  -1.2845 H              1 S1                 0.0000
     28 ****        -2.3535   5.2502  -3.7427 H              1 S1                 0.0000
     29 ****        -1.5042   3.1009  -4.6075 H              1 S1                 0.0000
     30 ****        -0.8197   1.2719  -3.0625 H              1 S1                 0.0000
     31 ****        -0.9668  -0.2961   0.4615 H              1 S1                 0.0000
     32 ****        -0.8727  -0.1115  -1.2662 H              1 S1                 0.0000
     33 ****         1.3489   0.6656   0.7194 H              1 S1                 0.0000
     34 ****         1.3416   1.9044  -1.1498 H              1 S1                 0.0000
     35 ****         1.1798  -1.6781  -1.2350 H              1 S1                 0.0000
     36 ****         2.6428  -1.1867  -0.3735 H              1 S1                 0.0000
     37 ****         0.4686  -3.4194   2.8265 H              1 S1                 0.0000
     38 ****         1.0460  -5.8053   3.1682 H              1 S1                 0.0000
     39 ****         3.2127  -5.8141  -0.5565 H              1 S1                 0.0000
     40 ****         2.6514  -3.4543  -0.9104 H              1 S1                 0.0000
     41 ****        -2.0766   4.3204   1.2254 H              1 S1                 0.0000
     42 ****        -2.4522   0.3981   2.2402 LP             1 S1                 0.0000
     43 ****        -3.1041   1.7907   2.7900 LP             1 S1                 0.0000
     44 ****         1.3004   0.6671  -2.1491 LP             1 S1                 0.0000
     45 ****         2.6049   0.9390  -1.2052 LP             1 S1                 0.0000
     46 ****         0.1415  -1.8852   0.8584 LP             1 S1                 0.0000
     47 ****         1.5142  -1.4415   1.6235 LP             1 S1                 0.0000
@<TRIPOS>BOND
    1    1    2 1     
    2    1   24 1     
    3    2    3 1     
    4    2   25 1     
    5    2   26 1     
    6    3   11 1     
    7    3    4 2     
    8    4    5 1     
    9    4   41 1     
   10    5   10 ar    
   11    5    6 ar    
   12    6    7 ar    
   13    6   27 1     
   14    7    8 ar    
   15    7   28 1     
   16    8    9 ar    
   17    8   29 1     
   18    9   10 ar    
   19    9   30 1     
   20   10   11 1     
   21   11   12 1     
   22   12   13 1     
   23   12   31 1     
   24   12   32 1     
   25   13   14 1     
   26   13   15 1     
   27   13   33 1     
   28   14   34 1     
   29   15   16 1     
   30   15   35 1     
   31   15   36 1     
   32   16   17 1     
   33   17   23 ar    
   34   17   18 ar    
   35   18   19 ar    
   36   18   37 1     
   37   19   20 ar    
   38   19   38 1     
   39   20   21 1     
   40   20   22 ar    
   41   22   23 ar    
   42   22   39 1     
   43   23   40 1     
   44    1   42 1     
   45    1   43 1     
   46   14   44 1     
   47   14   45 1     
   48   16   46 1     
   49   16   47 1     
@<TRIPOS>SUBSTRUCTURE
      1 S1             1
@<TRIPOS>SET
LONE_PAIRS      STATIC     ATOMS    <user>   **** ""
6 42 43 44 45 46 47
DONOR_HYDROGENS      STATIC     ATOMS    <user>   **** ""
3 24 41 34
ATOM$BLUE        STATIC     ATOMS    COLORGROUP SYSTEM
6 42 43 44 45 46 47
ATOM$RED        STATIC     ATOMS    COLORGROUP SYSTEM
3 24 41 34
