AV-unprocessed.smi:2247|AV-procd|sdf|9088|dock8
  -GOLD-   2272012293D 1   1.00000     0.00000
 Structure written by MMmdl.
 34 35  0  0  0  0  0  0  0  0  1 V2000
  152.1512  144.1414  161.8035 C   0  0  0  0  0  0  0  0  0  0  0  0
  151.9722  144.1184  160.2749 C   0  0  0  0  0  0  0  0  0  0  0  0
  150.5819  144.6170  159.8507 C   0  0  0  0  0  0  0  0  0  0  0  0
  152.2391  142.7944  159.6970 N   0  0  0  0  0  0  0  0  0  0  0  0
  152.6648  141.6629  160.5049 C   0  0  0  0  0  0  0  0  0  0  0  0
  152.4886  140.4482  159.5888 C   0  0  0  0  0  0  0  0  0  0  0  0
  152.4805  141.0017  158.1551 C   0  0  1  0  0  0  0  0  0  0  0  0
  151.4718  140.3089  157.3547 N   0  0  0  0  0  0  0  0  0  0  0  0
  151.7224  139.4090  156.3910 C   0  0  0  0  0  0  0  0  0  0  0  0
  152.8764  139.0826  156.0949 O   0  0  0  0  0  0  0  0  0  0  0  0
  150.5327  138.9365  155.8583 N   0  0  0  0  0  0  0  0  0  0  0  0
  149.7548  139.7552  155.2203 C   0  0  0  0  0  0  0  0  0  0  0  0
  148.5319  139.4757  154.6316 N   0  0  0  0  0  0  0  0  0  0  0  0
  148.0639  140.6247  154.0563 C   0  0  0  0  0  0  0  0  0  0  0  0
  148.9538  141.5888  154.2739 C   0  0  0  0  0  0  0  0  0  0  0  0
  150.0025  141.0883  154.9847 O   0  0  0  0  0  0  0  0  0  0  0  0
  152.0967  142.4609  158.4065 C   0  0  0  0  0  0  0  0  0  0  0  0
  151.7263  143.2172  157.5084 O   0  0  0  0  0  0  0  0  0  0  0  0
  152.0404  145.1546  162.1905 H   0  0  0  0  0  0  0  0  0  0  0  0
  153.1434  143.7903  162.0896 H   0  0  0  0  0  0  0  0  0  0  0  0
  151.4132  143.5184  162.3094 H   0  0  0  0  0  0  0  0  0  0  0  0
  152.7086  144.8137  159.8677 H   0  0  0  0  0  0  0  0  0  0  0  0
  150.3888  145.6161  160.2421 H   0  0  0  0  0  0  0  0  0  0  0  0
  149.7953  143.9578  160.2192 H   0  0  0  0  0  0  0  0  0  0  0  0
  150.4931  144.6676  158.7649 H   0  0  0  0  0  0  0  0  0  0  0  0
  153.7127  141.7879  160.7812 H   0  0  0  0  0  0  0  0  0  0  0  0
  152.0747  141.5676  161.4172 H   0  0  0  0  0  0  0  0  0  0  0  0
  153.2734  139.7059  159.7380 H   0  0  0  0  0  0  0  0  0  0  0  0
  151.5387  139.9630  159.8218 H   0  0  0  0  0  0  0  0  0  0  0  0
  153.4759  140.9530  157.7104 H   0  0  0  0  0  0  0  0  0  0  0  0
  150.5063  140.5312  157.5496 H   0  0  0  0  0  0  0  0  0  0  0  0
  148.0386  138.5950  154.6013 H   0  0  0  0  0  0  0  0  0  0  0  0
  147.1170  140.6295  153.5367 H   0  0  0  0  0  0  0  0  0  0  0  0
  148.9861  142.6329  154.0003 H   0  0  0  0  0  0  0  0  0  0  0  0
  1  2  1  0  0  0  0
  1 19  1  0  0  0  0
  1 20  1  0  0  0  0
  1 21  1  0  0  0  0
  2  3  1  0  0  0  0
  2  4  1  0  0  0  0
  2 22  1  0  0  0  0
  3 23  1  0  0  0  0
  3 24  1  0  0  0  0
  3 25  1  0  0  0  0
  4 17  1  0  0  0  0
  4  5  1  0  0  0  0
  5  6  1  0  0  0  0
  5 26  1  0  0  0  0
  5 27  1  0  0  0  0
  6  7  1  0  0  0  0
  6 28  1  0  0  0  0
  6 29  1  0  0  0  0
  7  8  1  0  0  0  0
  7 17  1  0  0  0  0
  7 30  1  0  0  0  0
  8 31  1  0  0  0  0
  8  9  1  0  0  0  0
  9 11  1  0  0  0  0
  9 10  2  0  0  0  0
 11 12  2  0  0  0  0
 12 16  1  0  0  0  0
 12 13  1  0  0  0  0
 13 32  1  0  0  0  0
 13 14  1  0  0  0  0
 14 33  1  0  0  0  0
 14 15  2  0  0  0  0
 15 34  1  0  0  0  0
 15 16  1  0  0  0  0
 17 18  2  0  0  0  0
M  END
> <s_m_source_file>
AV-unprocessed.smi

> <i_m_source_file_index>
2247

> <i_lp_mmshare_version>
43012

> <i_f3d_flags>
0

> <s_epik_input>
W0NIM11bQ0hdKFtDSDNdKU4xW0NIMl1bQ0gyXVtDQEhdKEMxPU8pW05IXUMoPU8pW05IXWMybltjSF1bY0hdbzI=

> <s_epik_cmdline>
J2VwaWtfcHl0aG9uJywgJy1waCcsICc3LjAnLCAnLXRuJywgJzgnLCAnLW1hJywgJzIwMCcsICctbWV0YWxfYmluZGluZycsICctaW1hZScsICc8aW5maWxlLm1hZT4nLCAnLW9tYWUnLCAnPG91dGZpbGUubWFlPic=

> <r_lp_tautomer_probability>
0.107061

> <r_epik_Ionization_Penalty>
0.180736

> <r_epik_Ionization_Penalty_Charging>
0.180388

> <r_epik_Ionization_Penalty_Neutral>
0.000348501

> <r_epik_State_Penalty>
2.44396

> <r_epik_Charging_Adjusted_Penalty>
2.62435

> <i_epik_Tot_Q>
0

> <i_epik_Tot_abs_Q>
0

> <r_epik_Metal_State_Penalty>
4.38331

> <b_epik_Metal_Only>
0

> <s_lp_Force_Field>
OPLS_2005

> <r_lp_Energy>
44.8331

> <b_lp_Chiralities_Consistent>
1

> <s_lp_Variant>
AV-unprocessed.smi:2247-3

> <Gold.Version>
5.8.1

> <Gold.Id.Protein>
6NUR|6NUR_protein|mol2

> <Gold.PLP.Fitness>
37.4223

> <Gold.PLP.PLP>
-32.6653

> <Gold.PLP.part.hbond>
-2.0000

> <Gold.PLP.part.metal>
0.0000

> <Gold.PLP.part.buried>
-2.4593

> <Gold.PLP.part.nonpolar>
-27.3744

> <Gold.PLP.part.repulsive>
0.3376

> <Gold.PLP.ligand.clash>
0.0000

> <Gold.PLP.ligand.torsion>
0.9068

> <Gold.PLP.Chemscore.Hbond>
1.1804

> <Gold.PLP.Chemscore.CHOScore>
0.9839

> <Gold.PLP.Chemscore.Metal>
0.0000

> <Gold.Chemscore.Hbonds>
donor molecule, donor type, donor heavy atom, donor atom, acceptor molecule, acceptor atom, score
      P1  H  7989  7998       L1    16  0.36
      P1  H  7997  8009       L1    10  1.00
      L1  C    15    34       P1  8028  0.69

> <Gold.PLP.Chemscore.Internal.Correction>
0.0780

> <Gold.Rescore>
     Score         DG    S(hbond)    S(metal)    S(lipo)     H(rot)  DE(clash)    DE(int)     intcor
     10.69     -14.16       1.04        0.00      73.56       1.33       0.27       3.20       ----

> <Gold.Chemscore.Fitness>
10.6851

> <Gold.Chemscore.DG>
-14.1570

> <Gold.Chemscore.ZeroCoef>
-5.4800

> <Gold.Chemscore.Hbond>
1.0435

> <Gold.Chemscore.Metal>
0.0000

> <Gold.Chemscore.Lipo>
73.5571

> <Gold.Chemscore.Internal_Hbond>
0.0000

> <Gold.Chemscore.DEClash>
0.2699

> <Gold.Chemscore.DEInternal>
3.2019

> <Gold.Chemscore.Rot>
1.3338

> <Gold.Chemscore.Internal.Correction>
   9.000000E+99

> <Gold.Chemscore.Hbonds>
donor molecule, donor type, donor heavy atom, donor atom, acceptor molecule, acceptor atom, score
      P1  H  7989  7998       L1    16  0.04
      P1  H  7997  8009       L1    10  1.00

> <Gold.Chemscore.Hbond.Weighted>
-3.4853

> <Gold.Chemscore.Metal.Weighted>
-0.0000

> <Gold.Chemscore.Lipo.Weighted>
-8.6062

> <Gold.Chemscore.Internal_Hbond.Weighted>
0.0000

> <Gold.Chemscore.DEClash.Weighted>
0.2699

> <Gold.Chemscore.DEInternal.Weighted>
3.2019

> <Gold.Chemscore.Rot.Weighted>
3.4145

> <Gold.Chemscore.Internal.Correction.Weighted>
   9.000000E+99

> <Gold.Protein.RotatedTorsions>
[ 6907 6896 6895 6894 ] final -101.66 input  -60.11 | X-H torsion
[ 7974 7965 7964 7962 ] final  -38.40 input  175.53 | X-H torsion
[ 8008 7997 7996 7995 ] final -167.70 input   59.86 | X-H torsion
[ 10167 10162 10161 10158 ] final -155.95 input  -65.29 | X-H torsion
[ 10718 10713 10712 10709 ] final   -8.07 input   66.30 | X-H torsion
[ 10763 10752 10751 10750 ] final  -92.40 input  -60.55 | X-H torsion
[ 11005 11000 10999 10996 ] final  -80.52 input  -57.11 | X-H torsion

> <Gold.Protein.ActiveResidues>
 VAL166  LYS551  ARG553  GLY616  TRP617  ASP618  TYR619  PRO620  LYS621  CYS622 
 ASP623  PHE694  ASN695  SER759  ASP760  ASP761  ALA762  ILE779  LEU786  VAL792 
 PHE793  MET794  SER795  GLU796  ALA797  LYS798  CYS799  TRP800  GLU811  SER814 

> <Gold.Protein.RotatedAtoms>
  150.7164  134.0700  159.3860 H   0  0  0  0  0  0  0  0  0  0  0  0  # atno 6907 bound_to 6896
  151.8682  135.0497  160.0486 H   0  0  0  0  0  0  0  0  0  0  0  0  # atno 6908 bound_to 6896
  152.2664  133.5307  159.5449 H   0  0  0  0  0  0  0  0  0  0  0  0  # atno 6909 bound_to 6896
  146.0490  140.6507  142.9051 H   0  0  0  0  0  0  0  0  0  0  0  0  # atno 7974 bound_to 7965
  155.8813  140.1009  157.1483 H   0  0  0  0  0  0  0  0  0  0  0  0  # atno 8008 bound_to 7997
  154.4005  140.1328  156.4263 H   0  0  0  0  0  0  0  0  0  0  0  0  # atno 8009 bound_to 7997
  155.7640  140.3462  155.5215 H   0  0  0  0  0  0  0  0  0  0  0  0  # atno 8010 bound_to 7997
  139.6889  143.9454  152.2375 H   0  0  0  0  0  0  0  0  0  0  0  0  # atno 10167 bound_to 10162
  156.7079  130.5113  149.5899 H   0  0  0  0  0  0  0  0  0  0  0  0  # atno 10718 bound_to 10713
  154.6857  135.5232  153.8324 H   0  0  0  0  0  0  0  0  0  0  0  0  # atno 10763 bound_to 10752
  153.0596  135.6563  154.0504 H   0  0  0  0  0  0  0  0  0  0  0  0  # atno 10764 bound_to 10752
  154.0385  135.2979  155.3338 H   0  0  0  0  0  0  0  0  0  0  0  0  # atno 10765 bound_to 10752
  141.1668  133.7154  156.8286 H   0  0  0  0  0  0  0  0  0  0  0  0  # atno 11005 bound_to 11000
  144.7112  140.4047  143.7079 LP  0  0  0  0  0  0  0  0  0  0  0  0  # atno 17320 bound_to 7965
  145.6757  139.1608  143.2729 LP  0  0  0  0  0  0  0  0  0  0  0  0  # atno 17321 bound_to 7965
  139.9264  144.6768  150.8408 LP  0  0  0  0  0  0  0  0  0  0  0  0  # atno 17342 bound_to 10162
  140.7676  143.3339  151.2351 LP  0  0  0  0  0  0  0  0  0  0  0  0  # atno 17343 bound_to 10162
  156.1682  130.6419  151.0804 LP  0  0  0  0  0  0  0  0  0  0  0  0  # atno 17370 bound_to 10713
  157.6947  131.0798  150.7003 LP  0  0  0  0  0  0  0  0  0  0  0  0  # atno 17371 bound_to 10713
  140.2068  134.8857  157.3230 LP  0  0  0  0  0  0  0  0  0  0  0  0  # atno 17394 bound_to 11000
  140.2129  134.4116  155.7603 LP  0  0  0  0  0  0  0  0  0  0  0  0  # atno 17395 bound_to 11000

$$$$
