AV-unprocessed.smi:1231|AV-procd|sdf|5166|dock2
  -GOLD-   22720 4243D 1   1.00000     0.00000
 Structure written by MMmdl.
 43 44  0  0  0  0  0  0  0  0  2 V2000
  145.0013  137.4449  152.3784 C   0  0  0  0  0  0  0  0  0  0  0  0
  145.9304  137.5378  153.6020 C   0  0  1  0  0  0  0  0  0  0  0  0
  146.8936  138.7405  153.5545 C   0  0  0  0  0  0  0  0  0  0  0  0
  146.1813  140.0112  153.8281 N   0  3  2  0  0  0  0  0  0  0  0  0
  147.0745  141.1921  153.7314 C   0  0  0  0  0  0  0  0  0  0  0  0
  148.5089  140.8810  154.2002 C   0  0  0  0  0  0  0  0  0  0  0  0
  149.0207  141.9207  155.0856 N   0  0  0  0  0  0  0  0  0  0  0  0
  149.9557  141.7295  156.0276 C   0  0  0  0  0  0  0  0  0  0  0  0
  150.4885  140.6391  156.2374 O   0  0  0  0  0  0  0  0  0  0  0  0
  150.2205  142.8681  156.6919 N   0  0  0  0  0  0  0  0  0  0  0  0
  151.1556  143.0743  157.7413 C   0  0  0  0  0  0  0  0  0  0  0  0
  151.4806  141.9195  158.4887 C   0  0  0  0  0  0  0  0  0  0  0  0
  152.3996  142.0182  159.5513 C   0  0  0  0  0  0  0  0  0  0  0  0
  152.9689  143.2710  159.8407 C   0  0  0  0  0  0  0  0  0  0  0  0
  152.5897  144.3709  159.0491 C   0  0  0  0  0  0  0  0  0  0  0  0
  151.7098  144.2784  158.0294 N   0  0  0  0  0  0  0  0  0  0  0  0
  145.4543  139.9245  155.1175 C   0  0  0  0  0  0  0  0  0  0  0  0
  144.4837  138.7300  155.1075 C   0  0  2  0  0  0  0  0  0  0  0  0
  143.7759  138.5535  156.4554 C   0  0  0  0  0  0  0  0  0  0  0  0
  145.2071  137.5332  154.8326 O   0  0  0  0  0  0  0  0  0  0  0  0
  145.5801  137.3181  151.4632 H   0  0  0  0  0  0  0  0  0  0  0  0
  144.3897  138.3377  152.2525 H   0  0  0  0  0  0  0  0  0  0  0  0
  144.3314  136.5889  152.4635 H   0  0  0  0  0  0  0  0  0  0  0  0
  146.5352  136.6306  153.6055 H   0  0  0  0  0  0  0  0  0  0  0  0
  147.6809  138.6086  154.2987 H   0  0  0  0  0  0  0  0  0  0  0  0
  147.3843  138.7844  152.5812 H   0  0  0  0  0  0  0  0  0  0  0  0
  147.0648  141.5736  152.7091 H   0  0  0  0  0  0  0  0  0  0  0  0
  146.6807  141.9917  154.3609 H   0  0  0  0  0  0  0  0  0  0  0  0
  148.5251  139.9356  154.7429 H   0  0  0  0  0  0  0  0  0  0  0  0
  149.1904  140.7659  153.3569 H   0  0  0  0  0  0  0  0  0  0  0  0
  148.6315  142.8464  154.9789 H   0  0  0  0  0  0  0  0  0  0  0  0
  149.6936  143.6833  156.4156 H   0  0  0  0  0  0  0  0  0  0  0  0
  151.0343  140.9642  158.2526 H   0  0  0  0  0  0  0  0  0  0  0  0
  152.6627  141.1472  160.1332 H   0  0  0  0  0  0  0  0  0  0  0  0
  153.6774  143.3865  160.6475 H   0  0  0  0  0  0  0  0  0  0  0  0
  153.0026  145.3504  159.2391 H   0  0  0  0  0  0  0  0  0  0  0  0
  146.1713  139.8221  155.9341 H   0  0  0  0  0  0  0  0  0  0  0  0
  144.8934  140.8404  155.3010 H   0  0  0  0  0  0  0  0  0  0  0  0
  143.7210  138.8841  154.3438 H   0  0  0  0  0  0  0  0  0  0  0  0
  143.1889  139.4364  156.7099 H   0  0  0  0  0  0  0  0  0  0  0  0
  144.4931  138.3856  157.2597 H   0  0  0  0  0  0  0  0  0  0  0  0
  143.0979  137.6999  156.4305 H   0  0  0  0  0  0  0  0  0  0  0  0
  145.4884  140.1117  153.1003 H   0  0  0  0  0  0  0  0  0  0  0  0
  1  2  1  0  0  0  0
  1 21  1  0  0  0  0
  1 22  1  0  0  0  0
  1 23  1  0  0  0  0
  2 20  1  0  0  0  0
  2  3  1  0  0  0  0
  2 24  1  0  0  0  0
  3  4  1  0  0  0  0
  3 25  1  0  0  0  0
  3 26  1  0  0  0  0
  4  5  1  0  0  0  0
  4 17  1  0  0  0  0
  4 43  1  0  0  0  0
  5  6  1  0  0  0  0
  5 27  1  0  0  0  0
  5 28  1  0  0  0  0
  6  7  1  0  0  0  0
  6 29  1  0  0  0  0
  6 30  1  0  0  0  0
  7  8  1  0  0  0  0
  7 31  1  0  0  0  0
  8  9  2  0  0  0  0
  8 10  1  0  0  0  0
 10 11  1  0  0  0  0
 10 32  1  0  0  0  0
 11 16  1  0  0  0  0
 11 12  2  0  0  0  0
 12 13  1  0  0  0  0
 12 33  1  0  0  0  0
 13 14  2  0  0  0  0
 13 34  1  0  0  0  0
 14 15  1  0  0  0  0
 14 35  1  0  0  0  0
 15 16  2  0  0  0  0
 15 36  1  0  0  0  0
 17 18  1  0  0  0  0
 17 37  1  0  0  0  0
 17 38  1  0  0  0  0
 18 19  1  0  0  0  0
 18 20  1  0  0  0  0
 18 39  1  0  0  0  0
 19 40  1  0  0  0  0
 19 41  1  0  0  0  0
 19 42  1  0  0  0  0
M  CHG  1   4   1
M  END
> <s_m_source_file>
AV-unprocessed.smi

> <i_m_source_file_index>
1231

> <i_lp_mmshare_version>
43012

> <i_f3d_flags>
0

> <s_epik_input>
W0NIM11bQ0BASF0xW0NIMl1OKFtDSDJdW0NASF0oTzEpW0NIM10pW0NIMl1bQ0gyXVtOSF1DKD1PKVtOSF1jMltjSF1bY0hdW2NIXVtjSF1uMg==

> <s_epik_cmdline>
J2VwaWtfcHl0aG9uJywgJy1waCcsICc3LjAnLCAnLXRuJywgJzgnLCAnLW1hJywgJzIwMCcsICctbWV0YWxfYmluZGluZycsICctaW1hZScsICc8aW5maWxlLm1hZT4nLCAnLW9tYWUnLCAnPG91dGZpbGUubWFlPic=

> <r_epik_Ionization_Penalty>
0.602565

> <r_epik_Ionization_Penalty_Charging>
0.602531

> <r_epik_Ionization_Penalty_Neutral>
3.43186e-05

> <r_epik_State_Penalty>
0.617039

> <r_epik_Charging_Adjusted_Penalty>
1.21957

> <i_epik_Tot_Q>
1

> <i_epik_Tot_abs_Q>
1

> <r_epik_Metal_State_Penalty>
0.617041

> <b_epik_Metal_Only>
0

> <s_lp_Force_Field>
OPLS_2005

> <r_lp_Energy>
18.3102

> <b_lp_Chiralities_Consistent>
1

> <s_lp_Variant>
AV-unprocessed.smi:1231-7

> <Gold.Version>
5.8.1

> <Gold.Id.Protein>
6NUR|6NUR_protein|mol2

> <Gold.PLP.Fitness>
42.6683

> <Gold.PLP.PLP>
-33.0904

> <Gold.PLP.part.hbond>
-3.0000

> <Gold.PLP.part.metal>
0.0000

> <Gold.PLP.part.buried>
-4.6760

> <Gold.PLP.part.nonpolar>
-26.6465

> <Gold.PLP.part.repulsive>
0.4461

> <Gold.PLP.ligand.clash>
0.0000

> <Gold.PLP.ligand.torsion>
0.9958

> <Gold.PLP.Chemscore.Hbond>
3.8480

> <Gold.PLP.Chemscore.CHOScore>
0.0000

> <Gold.PLP.Chemscore.Metal>
0.0000

> <Gold.Chemscore.Hbonds>
donor molecule, donor type, donor heavy atom, donor atom, acceptor molecule, acceptor atom, score
      L1  H     4    43       P1 10175  2.00
      L1  H     7    31       P1  8028  0.83
      L1  H    10    32       P1  8028  0.96

> <Gold.PLP.Chemscore.Internal.Correction>
0.0254

> <Gold.Rescore>
     Score         DG    S(hbond)    S(metal)    S(lipo)     H(rot)  DE(clash)    DE(int)     intcor
     17.13     -19.79       2.83        0.00      75.61       1.55       0.31       2.34       ----

> <Gold.Chemscore.Fitness>
17.1345

> <Gold.Chemscore.DG>
-19.7857

> <Gold.Chemscore.ZeroCoef>
-5.4800

> <Gold.Chemscore.Hbond>
2.8260

> <Gold.Chemscore.Metal>
0.0000

> <Gold.Chemscore.Lipo>
75.6101

> <Gold.Chemscore.Internal_Hbond>
0.0000

> <Gold.Chemscore.DEClash>
0.3145

> <Gold.Chemscore.DEInternal>
2.3367

> <Gold.Chemscore.Rot>
1.5546

> <Gold.Chemscore.Internal.Correction>
   9.000000E+99

> <Gold.Chemscore.Hbonds>
donor molecule, donor type, donor heavy atom, donor atom, acceptor molecule, acceptor atom, score
      L1  H     4    43       P1 10175  0.96
      L1  H     7    31       P1  8028  0.80
      L1  H    10    32       P1  8028  0.90

> <Gold.Chemscore.Hbond.Weighted>
-9.4390

> <Gold.Chemscore.Metal.Weighted>
-0.0000

> <Gold.Chemscore.Lipo.Weighted>
-8.8464

> <Gold.Chemscore.Internal_Hbond.Weighted>
0.0000

> <Gold.Chemscore.DEClash.Weighted>
0.3145

> <Gold.Chemscore.DEInternal.Weighted>
2.3367

> <Gold.Chemscore.Rot.Weighted>
3.9797

> <Gold.Chemscore.Internal.Correction.Weighted>
   9.000000E+99

> <Gold.Protein.RotatedTorsions>
[ 6907 6896 6895 6894 ] final  100.06 input  -60.11 | X-H torsion
[ 7974 7965 7964 7962 ] final  157.40 input  175.53 | X-H torsion
[ 8008 7997 7996 7995 ] final -103.06 input   59.86 | X-H torsion
[ 10167 10162 10161 10158 ] final  -81.82 input  -65.29 | X-H torsion
[ 10718 10713 10712 10709 ] final   24.33 input   66.30 | X-H torsion
[ 10763 10752 10751 10750 ] final  -37.05 input  -60.55 | X-H torsion
[ 11005 11000 10999 10996 ] final   27.32 input  -57.11 | X-H torsion

> <Gold.Protein.ActiveResidues>
 VAL166  LYS551  ARG553  GLY616  TRP617  ASP618  TYR619  PRO620  LYS621  CYS622 
 ASP623  PHE694  ASN695  SER759  ASP760  ASP761  ALA762  ILE779  LEU786  VAL792 
 PHE793  MET794  SER795  GLU796  ALA797  LYS798  CYS799  TRP800  GLU811  SER814 

> <Gold.Protein.RotatedAtoms>
  152.5380  134.0334  159.8034 H   0  0  0  0  0  0  0  0  0  0  0  0  # atno 6907 bound_to 6896
  151.0501  133.5623  159.2650 H   0  0  0  0  0  0  0  0  0  0  0  0  # atno 6908 bound_to 6896
  151.2561  135.0646  159.9134 H   0  0  0  0  0  0  0  0  0  0  0  0  # atno 6909 bound_to 6896
  144.7905  139.7336  143.6223 H   0  0  0  0  0  0  0  0  0  0  0  0  # atno 7974 bound_to 7965
  154.8655  140.0425  157.1692 H   0  0  0  0  0  0  0  0  0  0  0  0  # atno 8008 bound_to 7997
  154.8794  140.2970  155.5413 H   0  0  0  0  0  0  0  0  0  0  0  0  # atno 8009 bound_to 7997
  156.2999  140.2414  156.3795 H   0  0  0  0  0  0  0  0  0  0  0  0  # atno 8010 bound_to 7997
  140.4377  143.2526  151.8670 H   0  0  0  0  0  0  0  0  0  0  0  0  # atno 10167 bound_to 10162
  157.1783  130.6791  149.6103 H   0  0  0  0  0  0  0  0  0  0  0  0  # atno 10718 bound_to 10713
  153.8899  135.6813  153.4761 H   0  0  0  0  0  0  0  0  0  0  0  0  # atno 10763 bound_to 10752
  153.1186  135.4750  154.9156 H   0  0  0  0  0  0  0  0  0  0  0  0  # atno 10764 bound_to 10752
  154.7627  135.3215  154.8299 H   0  0  0  0  0  0  0  0  0  0  0  0  # atno 10765 bound_to 10752
  140.3275  134.2475  155.7707 H   0  0  0  0  0  0  0  0  0  0  0  0  # atno 11005 bound_to 11000
  146.2155  139.5542  142.9653 LP  0  0  0  0  0  0  0  0  0  0  0  0  # atno 17320 bound_to 7965
  145.5806  141.0383  143.2124 LP  0  0  0  0  0  0  0  0  0  0  0  0  # atno 17321 bound_to 7965
  139.4788  144.5264  151.8729 LP  0  0  0  0  0  0  0  0  0  0  0  0  # atno 17342 bound_to 10162
  140.4354  144.2058  150.5889 LP  0  0  0  0  0  0  0  0  0  0  0  0  # atno 17343 bound_to 10162
  155.9728  130.4655  150.6257 LP  0  0  0  0  0  0  0  0  0  0  0  0  # atno 17370 bound_to 10713
  157.3977  131.0805  151.1337 LP  0  0  0  0  0  0  0  0  0  0  0  0  # atno 17371 bound_to 10713
  141.2071  133.7813  157.0135 LP  0  0  0  0  0  0  0  0  0  0  0  0  # atno 17394 bound_to 11000
  140.0889  134.9604  157.1744 LP  0  0  0  0  0  0  0  0  0  0  0  0  # atno 17395 bound_to 11000

$$$$
