AV-unprocessed.smi:2568|AV-procd|sdf|10093|dock8
  -GOLD-   2272014113D 1   1.00000     0.00000
 Structure written by MMmdl.
 25 26  0  0  0  0  0  0  0  0  2 V2000
  151.8101  140.7117  158.7707 C   0  0  0  0  0  0  0  0  0  0  0  0
  151.0296  141.1421  157.5759 C   0  0  0  0  0  0  0  0  0  0  0  0
  150.7507  142.4258  157.3555 N   0  0  0  0  0  0  0  0  0  0  0  0
  150.0488  142.3670  156.2043 N   0  0  0  0  0  0  0  0  0  0  0  0
  149.9461  141.0944  155.8133 C   0  0  0  0  0  0  0  0  0  0  0  0
  149.2310  140.7008  154.5594 C   0  0  1  0  0  0  0  0  0  0  0  0
  149.3143  139.1866  154.2852 C   0  0  0  0  0  0  0  0  0  0  0  0
  148.5101  138.8447  153.0958 N   0  3  0  0  0  0  0  0  0  0  0  0
  147.1173  139.3153  153.2317 C   0  0  0  0  0  0  0  0  0  0  0  0
  147.0945  140.8214  153.5466 C   0  0  0  0  0  0  0  0  0  0  0  0
  147.8658  141.0800  154.7155 O   0  0  0  0  0  0  0  0  0  0  0  0
  150.5572  140.2576  156.6470 N   0  0  0  0  0  0  0  0  0  0  0  0
  149.6747  143.1856  155.7459 H   0  0  0  0  0  0  0  0  0  0  0  0
  152.2360  141.5719  159.2885 H   0  0  0  0  0  0  0  0  0  0  0  0
  152.6253  140.0522  158.4721 H   0  0  0  0  0  0  0  0  0  0  0  0
  151.1657  140.1738  159.4662 H   0  0  0  0  0  0  0  0  0  0  0  0
  149.6638  141.2566  153.7252 H   0  0  0  0  0  0  0  0  0  0  0  0
  150.3480  138.8792  154.1247 H   0  0  0  0  0  0  0  0  0  0  0  0
  148.9392  138.6222  155.1403 H   0  0  0  0  0  0  0  0  0  0  0  0
  148.9235  139.2858  152.2866 H   0  0  0  0  0  0  0  0  0  0  0  0
  146.5724  139.1062  152.3110 H   0  0  0  0  0  0  0  0  0  0  0  0
  146.6266  138.7566  154.0299 H   0  0  0  0  0  0  0  0  0  0  0  0
  147.4816  141.4009  152.7070 H   0  0  0  0  0  0  0  0  0  0  0  0
  146.0706  141.1542  153.7176 H   0  0  0  0  0  0  0  0  0  0  0  0
  148.5152  137.8432  152.9635 H   0  0  0  0  0  0  0  0  0  0  0  0
  1  2  1  0  0  0  0
  1 14  1  0  0  0  0
  1 15  1  0  0  0  0
  1 16  1  0  0  0  0
  2 12  1  0  0  0  0
  2  3  2  0  0  0  0
  3  4  1  0  0  0  0
  4 13  1  0  0  0  0
  4  5  1  0  0  0  0
  5  6  1  0  0  0  0
  5 12  2  0  0  0  0
  6 11  1  0  0  0  0
  6  7  1  0  0  0  0
  6 17  1  0  0  0  0
  7  8  1  0  0  0  0
  7 18  1  0  0  0  0
  7 19  1  0  0  0  0
  8  9  1  0  0  0  0
  8 20  1  0  0  0  0
  8 25  1  0  0  0  0
  9 10  1  0  0  0  0
  9 21  1  0  0  0  0
  9 22  1  0  0  0  0
 10 11  1  0  0  0  0
 10 23  1  0  0  0  0
 10 24  1  0  0  0  0
M  CHG  1   8   1
M  END
> <s_m_source_file>
AV-unprocessed.smi

> <i_m_source_file_index>
2568

> <i_lp_mmshare_version>
43012

> <i_f3d_flags>
0

> <s_epik_input>
W0NIM11jMW5bbkhdYyhuMSlbQ0BASF0yW0NIMl1bTkhdW0NIMl1bQ0gyXU8y

> <s_epik_cmdline>
J2VwaWtfcHl0aG9uJywgJy1waCcsICc3LjAnLCAnLXRuJywgJzgnLCAnLW1hJywgJzIwMCcsICctbWV0YWxfYmluZGluZycsICctaW1hZScsICc8aW5maWxlLm1hZT4nLCAnLW9tYWUnLCAnPG91dGZpbGUubWFlPic=

> <r_epik_Ionization_Penalty>
0.166663

> <r_epik_Ionization_Penalty_Charging>
0.125708

> <r_epik_Ionization_Penalty_Neutral>
0.0409555

> <r_epik_State_Penalty>
1.3004

> <r_epik_Charging_Adjusted_Penalty>
1.42611

> <i_epik_Tot_Q>
1

> <i_epik_Tot_abs_Q>
1

> <r_epik_Metal_State_Penalty>
1.60166

> <b_epik_Metal_Only>
0

> <s_lp_Force_Field>
OPLS_2005

> <r_lp_Energy>
12.4533

> <b_lp_Chiralities_Consistent>
1

> <s_lp_Variant>
AV-unprocessed.smi:2568-6

> <Gold.Version>
5.8.1

> <Gold.Id.Protein>
6NUR|6NUR_protein|mol2

> <Gold.PLP.Fitness>
32.4730

> <Gold.PLP.PLP>
-20.7168

> <Gold.PLP.part.hbond>
-2.9398

> <Gold.PLP.part.metal>
0.0000

> <Gold.PLP.part.buried>
-4.7861

> <Gold.PLP.part.nonpolar>
-15.0268

> <Gold.PLP.part.repulsive>
0.4060

> <Gold.PLP.ligand.clash>
0.0000

> <Gold.PLP.ligand.torsion>
0.0121

> <Gold.PLP.Chemscore.Hbond>
3.9265

> <Gold.PLP.Chemscore.CHOScore>
0.0000

> <Gold.PLP.Chemscore.Metal>
0.0000

> <Gold.Chemscore.Hbonds>
donor molecule, donor type, donor heavy atom, donor atom, acceptor molecule, acceptor atom, score
      L1  H     4    13       P1  8028  1.00
      L1  H     8    20       P1  7957  0.94
      L1  H     8    25       P1  7948  1.98

> <Gold.PLP.Chemscore.Internal.Correction>
0.0010

> <Gold.Rescore>
     Score         DG    S(hbond)    S(metal)    S(lipo)     H(rot)  DE(clash)    DE(int)     intcor
     16.66     -16.67       2.91        0.00      34.35       1.00       0.00       0.01       ----

> <Gold.Chemscore.Fitness>
16.6641

> <Gold.Chemscore.DG>
-16.6705

> <Gold.Chemscore.ZeroCoef>
-5.4800

> <Gold.Chemscore.Hbond>
2.9138

> <Gold.Chemscore.Metal>
0.0000

> <Gold.Chemscore.Lipo>
34.3458

> <Gold.Chemscore.Internal_Hbond>
0.0000

> <Gold.Chemscore.DEClash>
0.0000

> <Gold.Chemscore.DEInternal>
0.0063

> <Gold.Chemscore.Rot>
1.0000

> <Gold.Chemscore.Internal.Correction>
   9.000000E+99

> <Gold.Chemscore.Hbonds>
donor molecule, donor type, donor heavy atom, donor atom, acceptor molecule, acceptor atom, score
      L1  H     4    13       P1  8028  0.99
      L1  H     8    20       P1  7957  0.90
      L1  H     8    25       P1  7948  0.91

> <Gold.Chemscore.Hbond.Weighted>
-9.7320

> <Gold.Chemscore.Metal.Weighted>
-0.0000

> <Gold.Chemscore.Lipo.Weighted>
-4.0185

> <Gold.Chemscore.Internal_Hbond.Weighted>
0.0000

> <Gold.Chemscore.DEClash.Weighted>
0.0000

> <Gold.Chemscore.DEInternal.Weighted>
0.0063

> <Gold.Chemscore.Rot.Weighted>
2.5600

> <Gold.Chemscore.Internal.Correction.Weighted>
   9.000000E+99

> <Gold.Protein.RotatedTorsions>
[ 6907 6896 6895 6894 ] final  -92.46 input  -60.11 | X-H torsion
[ 7974 7965 7964 7962 ] final  162.98 input  175.53 | X-H torsion
[ 8008 7997 7996 7995 ] final   35.09 input   59.86 | X-H torsion
[ 10167 10162 10161 10158 ] final  123.38 input  -65.29 | X-H torsion
[ 10718 10713 10712 10709 ] final   22.64 input   66.30 | X-H torsion
[ 10763 10752 10751 10750 ] final  171.93 input  -60.55 | X-H torsion
[ 11005 11000 10999 10996 ] final   37.27 input  -57.11 | X-H torsion

> <Gold.Protein.ActiveResidues>
 VAL166  LYS551  ARG553  GLY616  TRP617  ASP618  TYR619  PRO620  LYS621  CYS622 
 ASP623  PHE694  ASN695  SER759  ASP760  ASP761  ALA762  ILE779  LEU786  VAL792 
 PHE793  MET794  SER795  GLU796  ALA797  LYS798  CYS799  TRP800  GLU811  SER814 

> <Gold.Protein.RotatedAtoms>
  150.6906  134.2119  159.4362 H   0  0  0  0  0  0  0  0  0  0  0  0  # atno 6907 bound_to 6896
  152.0080  134.9889  160.0576 H   0  0  0  0  0  0  0  0  0  0  0  0  # atno 6908 bound_to 6896
  152.1516  133.4490  159.4853 H   0  0  0  0  0  0  0  0  0  0  0  0  # atno 6909 bound_to 6896
  144.7611  139.8118  143.6332 H   0  0  0  0  0  0  0  0  0  0  0  0  # atno 7974 bound_to 7965
  155.1654  140.3287  155.4403 H   0  0  0  0  0  0  0  0  0  0  0  0  # atno 8008 bound_to 7997
  156.2528  140.1953  156.6710 H   0  0  0  0  0  0  0  0  0  0  0  0  # atno 8009 bound_to 7997
  154.6375  140.0574  156.9792 H   0  0  0  0  0  0  0  0  0  0  0  0  # atno 8010 bound_to 7997
  139.5803  144.6983  151.3546 H   0  0  0  0  0  0  0  0  0  0  0  0  # atno 10167 bound_to 10162
  157.1551  130.6692  149.6025 H   0  0  0  0  0  0  0  0  0  0  0  0  # atno 10718 bound_to 10713
  154.4188  135.2757  155.1989 H   0  0  0  0  0  0  0  0  0  0  0  0  # atno 10763 bound_to 10752
  154.3943  135.6059  153.5864 H   0  0  0  0  0  0  0  0  0  0  0  0  # atno 10764 bound_to 10752
  152.9832  135.5911  154.4481 H   0  0  0  0  0  0  0  0  0  0  0  0  # atno 10765 bound_to 10752
  140.2242  134.3604  155.7991 H   0  0  0  0  0  0  0  0  0  0  0  0  # atno 11005 bound_to 11000
  146.1674  139.4811  142.9949 LP  0  0  0  0  0  0  0  0  0  0  0  0  # atno 17320 bound_to 7965
  145.6617  141.0239  143.1705 LP  0  0  0  0  0  0  0  0  0  0  0  0  # atno 17321 bound_to 7965
  140.7082  143.7460  150.7519 LP  0  0  0  0  0  0  0  0  0  0  0  0  # atno 17342 bound_to 10162
  140.0991  143.4805  152.2435 LP  0  0  0  0  0  0  0  0  0  0  0  0  # atno 17343 bound_to 10162
  155.9763  130.4731  150.6521 LP  0  0  0  0  0  0  0  0  0  0  0  0  # atno 17370 bound_to 10713
  157.4184  131.0833  151.1154 LP  0  0  0  0  0  0  0  0  0  0  0  0  # atno 17371 bound_to 10713
  141.2221  133.7210  156.8626 LP  0  0  0  0  0  0  0  0  0  0  0  0  # atno 17394 bound_to 11000
  140.1817  134.9028  157.2957 LP  0  0  0  0  0  0  0  0  0  0  0  0  # atno 17395 bound_to 11000

$$$$
