AV-unprocessed.smi:385|AV-procd|sdf|2472|dock5
  -GOLD-   2262022413D 1   1.00000     0.00000
 Structure written by MMmdl.
 38 39  0  0  0  0  0  0  0  0  3 V2000
  146.7999  141.6051  155.0922 O   0  0  0  0  0  0  0  0  0  0  0  0
  147.6491  140.7448  154.8599 C   0  0  0  0  0  0  0  0  0  0  0  0
  148.8438  140.7079  155.4698 N   0  0  0  0  0  0  0  0  0  0  0  0
  149.3037  141.6563  156.4809 C   0  0  0  0  0  0  0  0  0  0  0  0
  150.8404  141.7189  156.6032 C   0  0  0  0  0  0  0  0  0  0  0  0
  151.3293  142.6790  157.6740 C   0  0  0  0  0  0  0  0  0  0  0  0
  152.1385  142.2537  158.7505 C   0  0  0  0  0  0  0  0  0  0  0  0
  152.5654  143.1981  159.7068 C   0  0  0  0  0  0  0  0  0  0  0  0
  152.1751  144.5460  159.5672 C   0  0  0  0  0  0  0  0  0  0  0  0
  151.3650  144.9156  158.4739 C   0  0  0  0  0  0  0  0  0  0  0  0
  150.9761  143.9811  157.5785 N   0  3  0  0  0  0  0  0  0  0  0  0
  147.3647  139.6326  153.8422 C   0  0  0  0  0  0  0  0  0  0  0  0
  147.1410  140.2122  152.4298 C   0  0  0  0  0  0  0  0  0  0  0  0
  146.8039  139.0998  151.4225 C   0  0  0  0  0  0  0  0  0  0  0  0
  145.6277  138.3245  151.8729 N   0  3  0  0  0  0  0  0  0  0  0  0
  145.8125  137.7225  153.2113 C   0  0  0  0  0  0  0  0  0  0  0  0
  146.1307  138.8045  154.2577 C   0  0  0  0  0  0  0  0  0  0  0  0
  149.4840  139.9698  155.2142 H   0  0  0  0  0  0  0  0  0  0  0  0
  148.9249  142.6380  156.1954 H   0  0  0  0  0  0  0  0  0  0  0  0
  148.8541  141.4238  157.4475 H   0  0  0  0  0  0  0  0  0  0  0  0
  151.2329  140.7232  156.8126 H   0  0  0  0  0  0  0  0  0  0  0  0
  151.2733  142.0136  155.6464 H   0  0  0  0  0  0  0  0  0  0  0  0
  152.4315  141.2176  158.8413 H   0  0  0  0  0  0  0  0  0  0  0  0
  153.1848  142.8919  160.5373 H   0  0  0  0  0  0  0  0  0  0  0  0
  152.4910  145.2850  160.2891 H   0  0  0  0  0  0  0  0  0  0  0  0
  151.0184  145.9222  158.2899 H   0  0  0  0  0  0  0  0  0  0  0  0
  148.2284  138.9659  153.8059 H   0  0  0  0  0  0  0  0  0  0  0  0
  146.3291  140.9414  152.4430 H   0  0  0  0  0  0  0  0  0  0  0  0
  148.0312  140.7480  152.0975 H   0  0  0  0  0  0  0  0  0  0  0  0
  146.5936  139.5281  150.4422 H   0  0  0  0  0  0  0  0  0  0  0  0
  147.6538  138.4268  151.3006 H   0  0  0  0  0  0  0  0  0  0  0  0
  144.8294  138.9427  151.9058 H   0  0  0  0  0  0  0  0  0  0  0  0
  144.9055  137.1840  153.4873 H   0  0  0  0  0  0  0  0  0  0  0  0
  146.6179  136.9882  153.1673 H   0  0  0  0  0  0  0  0  0  0  0  0
  146.3015  138.3356  155.2278 H   0  0  0  0  0  0  0  0  0  0  0  0
  145.2618  139.4539  154.3777 H   0  0  0  0  0  0  0  0  0  0  0  0
  145.4430  137.5897  151.2047 H   0  0  0  0  0  0  0  0  0  0  0  0
  150.3897  144.2713  156.7955 H   0  0  0  0  0  0  0  0  0  0  0  0
  1  2  2  0  0  0  0
  2  3  1  0  0  0  0
  2 12  1  0  0  0  0
  3  4  1  0  0  0  0
  3 18  1  0  0  0  0
  4  5  1  0  0  0  0
  4 19  1  0  0  0  0
  4 20  1  0  0  0  0
  5  6  1  0  0  0  0
  5 21  1  0  0  0  0
  5 22  1  0  0  0  0
  6 11  1  0  0  0  0
  6  7  2  0  0  0  0
  7  8  1  0  0  0  0
  7 23  1  0  0  0  0
  8  9  2  0  0  0  0
  8 24  1  0  0  0  0
  9 10  1  0  0  0  0
  9 25  1  0  0  0  0
 10 11  2  0  0  0  0
 10 26  1  0  0  0  0
 11 38  1  0  0  0  0
 12 17  1  0  0  0  0
 12 13  1  0  0  0  0
 12 27  1  0  0  0  0
 13 14  1  0  0  0  0
 13 28  1  0  0  0  0
 13 29  1  0  0  0  0
 14 15  1  0  0  0  0
 14 30  1  0  0  0  0
 14 31  1  0  0  0  0
 15 16  1  0  0  0  0
 15 32  1  0  0  0  0
 15 37  1  0  0  0  0
 16 17  1  0  0  0  0
 16 33  1  0  0  0  0
 16 34  1  0  0  0  0
 17 35  1  0  0  0  0
 17 36  1  0  0  0  0
M  CHG  1  11   1
M  CHG  1  15   1
M  END
> <s_m_source_file>
AV-unprocessed.smi

> <i_m_source_file_index>
385

> <i_lp_mmshare_version>
43012

> <i_f3d_flags>
0

> <s_epik_input>
W0NIMl0xW0NIMl1bTkhdW0NIMl1bQ0gyXVtDSF0xQyg9TylbTkhdW0NIMl1bQ0gyXWMyW2NIXVtjSF1bY0hdW2NIXW4y

> <s_epik_cmdline>
J2VwaWtfcHl0aG9uJywgJy1waCcsICc3LjAnLCAnLXRuJywgJzgnLCAnLW1hJywgJzIwMCcsICctbWV0YWxfYmluZGluZycsICctaW1hZScsICc8aW5maWxlLm1hZT4nLCAnLW9tYWUnLCAnPG91dGZpbGUubWFlPic=

> <r_epik_Ionization_Penalty>
1.95053

> <r_epik_Ionization_Penalty_Charging>
1.95053

> <r_epik_Ionization_Penalty_Neutral>
3.30626e-08

> <r_epik_State_Penalty>
2.07441

> <r_epik_Charging_Adjusted_Penalty>
4.02494

> <i_epik_Tot_Q>
2

> <i_epik_Tot_abs_Q>
2

> <r_epik_Metal_State_Penalty>
2.09624

> <b_epik_Metal_Only>
0

> <s_lp_Force_Field>
OPLS_2005

> <r_lp_Energy>
22.1472

> <b_lp_Chiralities_Consistent>
1

> <s_lp_Variant>
AV-unprocessed.smi:385-2

> <Gold.Version>
5.8.1

> <Gold.Id.Protein>
6NUR|6NUR_protein|mol2

> <Gold.PLP.Fitness>
46.1024

> <Gold.PLP.PLP>
-34.3806

> <Gold.PLP.part.hbond>
-3.0000

> <Gold.PLP.part.metal>
0.0000

> <Gold.PLP.part.buried>
0.1175

> <Gold.PLP.part.nonpolar>
-30.6923

> <Gold.PLP.part.repulsive>
0.2432

> <Gold.PLP.ligand.clash>
0.0000

> <Gold.PLP.ligand.torsion>
0.1658

> <Gold.PLP.Chemscore.Hbond>
4.0140

> <Gold.PLP.Chemscore.CHOScore>
0.0000

> <Gold.PLP.Chemscore.Metal>
0.0000

> <Gold.Chemscore.Hbonds>
donor molecule, donor type, donor heavy atom, donor atom, acceptor molecule, acceptor atom, score
      L1  H    11    38       P1  8028  2.00
      L1  H    15    32       P1 10175  2.00
      L1  H    15    37       P1 10171  0.01

> <Gold.PLP.Chemscore.Internal.Correction>
0.0112

> <Gold.Rescore>
     Score         DG    S(hbond)    S(metal)    S(lipo)     H(rot)  DE(clash)    DE(int)     intcor
     19.84     -20.35       2.14        0.00     102.50       1.67       0.34       0.17       ----

> <Gold.Chemscore.Fitness>
19.8359

> <Gold.Chemscore.DG>
-20.3479

> <Gold.Chemscore.ZeroCoef>
-5.4800

> <Gold.Chemscore.Hbond>
2.1417

> <Gold.Chemscore.Metal>
0.0000

> <Gold.Chemscore.Lipo>
102.4955

> <Gold.Chemscore.Internal_Hbond>
0.0000

> <Gold.Chemscore.DEClash>
0.3411

> <Gold.Chemscore.DEInternal>
0.1709

> <Gold.Chemscore.Rot>
1.6708

> <Gold.Chemscore.Internal.Correction>
   9.000000E+99

> <Gold.Chemscore.Hbonds>
donor molecule, donor type, donor heavy atom, donor atom, acceptor molecule, acceptor atom, score
      L1  H    11    38       P1  8028  0.97
      L1  H    15    32       P1 10175  0.98
      L1  H    15    37       P1 10171  0.02

> <Gold.Chemscore.Hbond.Weighted>
-7.1531

> <Gold.Chemscore.Metal.Weighted>
-0.0000

> <Gold.Chemscore.Lipo.Weighted>
-11.9920

> <Gold.Chemscore.Internal_Hbond.Weighted>
0.0000

> <Gold.Chemscore.DEClash.Weighted>
0.3411

> <Gold.Chemscore.DEInternal.Weighted>
0.1709

> <Gold.Chemscore.Rot.Weighted>
4.2772

> <Gold.Chemscore.Internal.Correction.Weighted>
   9.000000E+99

> <Gold.Protein.RotatedTorsions>
[ 6907 6896 6895 6894 ] final -156.66 input  -60.11 | X-H torsion
[ 7974 7965 7964 7962 ] final -138.07 input  175.53 | X-H torsion
[ 8008 7997 7996 7995 ] final  -47.76 input   59.86 | X-H torsion
[ 10167 10162 10161 10158 ] final  157.52 input  -65.29 | X-H torsion
[ 10718 10713 10712 10709 ] final   38.63 input   66.30 | X-H torsion
[ 10763 10752 10751 10750 ] final  -64.98 input  -60.55 | X-H torsion
[ 11005 11000 10999 10996 ] final  -75.36 input  -57.11 | X-H torsion

> <Gold.Protein.ActiveResidues>
 VAL166  LYS551  ARG553  GLY616  TRP617  ASP618  TYR619  PRO620  LYS621  CYS622 
 ASP623  PHE694  ASN695  SER759  ASP760  ASP761  ALA762  ILE779  LEU786  VAL792 
 PHE793  MET794  SER795  GLU796  ALA797  LYS798  CYS799  TRP800  GLU811  SER814 

> <Gold.Protein.RotatedAtoms>
  151.2910  133.4165  159.2632 H   0  0  0  0  0  0  0  0  0  0  0  0  # atno 6907 bound_to 6896
  151.0277  134.9517  159.8104 H   0  0  0  0  0  0  0  0  0  0  0  0  # atno 6908 bound_to 6896
  152.5339  134.2872  159.9082 H   0  0  0  0  0  0  0  0  0  0  0  0  # atno 6909 bound_to 6896
  144.8789  140.6478  143.5219 H   0  0  0  0  0  0  0  0  0  0  0  0  # atno 7974 bound_to 7965
  154.4020  140.1338  156.4228 H   0  0  0  0  0  0  0  0  0  0  0  0  # atno 8008 bound_to 7997
  155.7626  140.3485  155.5186 H   0  0  0  0  0  0  0  0  0  0  0  0  # atno 8009 bound_to 7997
  155.8844  140.0992  157.1453 H   0  0  0  0  0  0  0  0  0  0  0  0  # atno 8010 bound_to 7997
  139.4823  144.4910  151.8308 H   0  0  0  0  0  0  0  0  0  0  0  0  # atno 10167 bound_to 10162
  157.3611  130.7650  149.7048 H   0  0  0  0  0  0  0  0  0  0  0  0  # atno 10718 bound_to 10713
  154.3382  135.6162  153.5583 H   0  0  0  0  0  0  0  0  0  0  0  0  # atno 10763 bound_to 10752
  152.9806  135.5763  154.4883 H   0  0  0  0  0  0  0  0  0  0  0  0  # atno 10764 bound_to 10752
  154.4582  135.2855  155.1709 H   0  0  0  0  0  0  0  0  0  0  0  0  # atno 10765 bound_to 10752
  141.1644  133.6944  156.7505 H   0  0  0  0  0  0  0  0  0  0  0  0  # atno 11005 bound_to 11000
  145.3991  139.1601  143.4187 LP  0  0  0  0  0  0  0  0  0  0  0  0  # atno 17320 bound_to 7965
  146.2981  140.4086  142.8714 LP  0  0  0  0  0  0  0  0  0  0  0  0  # atno 17321 bound_to 7965
  140.4394  144.2007  150.5890 LP  0  0  0  0  0  0  0  0  0  0  0  0  # atno 17342 bound_to 10162
  140.4698  143.2417  151.9104 LP  0  0  0  0  0  0  0  0  0  0  0  0  # atno 17343 bound_to 10162
  155.9738  130.4113  150.3976 LP  0  0  0  0  0  0  0  0  0  0  0  0  # atno 17370 bound_to 10713
  157.2053  131.0448  151.2628 LP  0  0  0  0  0  0  0  0  0  0  0  0  # atno 17371 bound_to 10713
  140.2608  134.8468  157.3756 LP  0  0  0  0  0  0  0  0  0  0  0  0  # atno 17394 bound_to 11000
  140.1613  134.4725  155.7892 LP  0  0  0  0  0  0  0  0  0  0  0  0  # atno 17395 bound_to 11000

$$$$
