AV-unprocessed.smi:376|AV-procd|sdf|2455|dock1
  -GOLD-   2262022393D 1   1.00000     0.00000
 Structure written by MMmdl.
 32 33  0  0  0  0  0  0  0  0  1 V2000
  158.7577  142.4841  157.5410 C   0  0  0  0  0  0  0  0  0  0  0  0
  158.6374  141.7087  158.4765 C   0  0  0  0  0  0  0  0  0  0  0  0
  158.4992  140.7617  159.5962 C   0  0  0  0  0  0  0  0  0  0  0  0
  157.1402  140.7062  160.1232 N   0  0  0  0  0  0  0  0  0  0  0  0
  156.1047  140.0822  159.5401 C   0  0  0  0  0  0  0  0  0  0  0  0
  156.1981  139.4752  158.4720 O   0  0  0  0  0  0  0  0  0  0  0  0
  154.7677  140.1625  160.2935 C   0  0  0  0  0  0  0  0  0  0  0  0
  153.7057  140.8692  159.5441 N   0  0  0  0  0  0  0  0  0  0  0  0
  153.2426  140.3067  158.3270 C   0  0  0  0  0  0  0  0  0  0  0  0
  153.6929  139.2386  157.9091 O   0  0  0  0  0  0  0  0  0  0  0  0
  152.2269  141.0845  157.6211 C   0  0  0  0  0  0  0  0  0  0  0  0
  151.7595  140.5688  156.3772 C   0  0  0  0  0  0  0  0  0  0  0  0
  151.3560  140.1573  155.3736 N   0  0  0  0  0  0  0  0  0  0  0  0
  151.7613  142.2439  158.1296 C   0  0  0  0  0  0  0  0  0  0  0  0
  152.1966  142.7529  159.3337 N   0  0  0  0  0  0  0  0  0  0  0  0
  151.8046  144.0606  159.7785 C   0  0  0  0  0  0  0  0  0  0  0  0
  150.7530  144.8455  159.0185 C   0  0  0  0  0  0  0  0  0  0  0  0
  152.2012  145.2652  158.9533 C   0  0  0  0  0  0  0  0  0  0  0  0
  153.2248  142.1016  160.0493 C   0  0  0  0  0  0  0  0  0  0  0  0
  153.6986  142.5938  161.0765 O   0  0  0  0  0  0  0  0  0  0  0  0
  158.8599  143.1600  156.7220 H   0  0  0  0  0  0  0  0  0  0  0  0
  158.7761  139.7721  159.2330 H   0  0  0  0  0  0  0  0  0  0  0  0
  159.2165  141.0302  160.3734 H   0  0  0  0  0  0  0  0  0  0  0  0
  156.9744  141.1784  161.0004 H   0  0  0  0  0  0  0  0  0  0  0  0
  154.4559  139.1492  160.5513 H   0  0  0  0  0  0  0  0  0  0  0  0
  154.9427  140.6378  161.2601 H   0  0  0  0  0  0  0  0  0  0  0  0
  151.0144  142.7944  157.5758 H   0  0  0  0  0  0  0  0  0  0  0  0
  151.8120  144.2038  160.8576 H   0  0  0  0  0  0  0  0  0  0  0  0
  150.3246  144.4005  158.1223 H   0  0  0  0  0  0  0  0  0  0  0  0
  150.0744  145.4662  159.5998 H   0  0  0  0  0  0  0  0  0  0  0  0
  152.4871  146.1681  159.4889 H   0  0  0  0  0  0  0  0  0  0  0  0
  152.7264  145.0943  158.0155 H   0  0  0  0  0  0  0  0  0  0  0  0
  1  2  3  0  0  0  0
  1 21  1  0  0  0  0
  2  3  1  0  0  0  0
  3  4  1  0  0  0  0
  3 22  1  0  0  0  0
  3 23  1  0  0  0  0
  4  5  1  0  0  0  0
  4 24  1  0  0  0  0
  5  6  2  0  0  0  0
  5  7  1  0  0  0  0
  7  8  1  0  0  0  0
  7 25  1  0  0  0  0
  7 26  1  0  0  0  0
  8 19  1  0  0  0  0
  8  9  1  0  0  0  0
  9 10  2  0  0  0  0
  9 11  1  0  0  0  0
 11 12  1  0  0  0  0
 11 14  2  0  0  0  0
 12 13  3  0  0  0  0
 14 15  1  0  0  0  0
 14 27  1  0  0  0  0
 15 16  1  0  0  0  0
 15 19  1  0  0  0  0
 16 18  1  0  0  0  0
 16 17  1  0  0  0  0
 16 28  1  0  0  0  0
 17 18  1  0  0  0  0
 17 29  1  0  0  0  0
 17 30  1  0  0  0  0
 18 31  1  0  0  0  0
 18 32  1  0  0  0  0
 19 20  2  0  0  0  0
M  END
> <s_m_source_file>
AV-unprocessed.smi

> <i_m_source_file_index>
376

> <i_lp_mmshare_version>
43012

> <i_f3d_flags>
0

> <s_epik_input>
W0NIXSNDW0NIMl1bTkhdQyg9TylbQ0gyXW4xYyg9TyljKEMjTilbY0hdbihjMT1PKVtDSF0yW0NIMl1bQ0gyXTI=

> <s_epik_cmdline>
J2VwaWtfcHl0aG9uJywgJy1waCcsICc3LjAnLCAnLXRuJywgJzgnLCAnLW1hJywgJzIwMCcsICctbWV0YWxfYmluZGluZycsICctaW1hZScsICc8aW5maWxlLm1hZT4nLCAnLW9tYWUnLCAnPG91dGZpbGUubWFlPic=

> <r_lp_tautomer_probability>
1

> <r_epik_Ionization_Penalty>
1.51832e-07

> <r_epik_Ionization_Penalty_Charging>
6.72035e-11

> <r_epik_Ionization_Penalty_Neutral>
1.51764e-07

> <r_epik_State_Penalty>
-0

> <r_epik_Charging_Adjusted_Penalty>
6.72035e-11

> <i_epik_Tot_Q>
0

> <i_epik_Tot_abs_Q>
0

> <r_epik_Metal_State_Penalty>
-0

> <b_epik_Metal_Only>
0

> <s_lp_Force_Field>
OPLS_2005

> <r_lp_Energy>
28.1194

> <b_lp_Chiralities_Consistent>
1

> <s_lp_Variant>
AV-unprocessed.smi:376-1

> <Gold.Version>
5.8.1

> <Gold.Id.Protein>
6NUR|6NUR_protein|mol2

> <Gold.PLP.Fitness>
50.4500

> <Gold.PLP.PLP>
-44.3034

> <Gold.PLP.part.hbond>
-3.8020

> <Gold.PLP.part.metal>
0.0000

> <Gold.PLP.part.buried>
-6.0877

> <Gold.PLP.part.nonpolar>
-34.4706

> <Gold.PLP.part.repulsive>
0.1005

> <Gold.PLP.ligand.clash>
0.0000

> <Gold.PLP.ligand.torsion>
0.2503

> <Gold.PLP.Chemscore.Hbond>
2.1411

> <Gold.PLP.Chemscore.CHOScore>
0.0000

> <Gold.PLP.Chemscore.Metal>
0.0000

> <Gold.Chemscore.Hbonds>
donor molecule, donor type, donor heavy atom, donor atom, acceptor molecule, acceptor atom, score
      P1  H  7989  7998       L1    13  1.00
      P1  H  7997  8009       L1     6  0.68
      P1  H  7997  8010       L1    10  0.18

> <Gold.PLP.Chemscore.Internal.Correction>
0.2239

> <Gold.Rescore>
     Score         DG    S(hbond)    S(metal)    S(lipo)     H(rot)  DE(clash)    DE(int)     intcor
     15.77     -17.64       1.95        0.00      90.16       1.92       0.09       1.77       ----

> <Gold.Chemscore.Fitness>
15.7710

> <Gold.Chemscore.DG>
-17.6381

> <Gold.Chemscore.ZeroCoef>
-5.4800

> <Gold.Chemscore.Hbond>
1.9536

> <Gold.Chemscore.Metal>
0.0000

> <Gold.Chemscore.Lipo>
90.1610

> <Gold.Chemscore.Internal_Hbond>
0.0000

> <Gold.Chemscore.DEClash>
0.0922

> <Gold.Chemscore.DEInternal>
1.7749

> <Gold.Chemscore.Rot>
1.9202

> <Gold.Chemscore.Internal.Correction>
   9.000000E+99

> <Gold.Chemscore.Hbonds>
donor molecule, donor type, donor heavy atom, donor atom, acceptor molecule, acceptor atom, score
      P1  H  7989  7998       L1    13  0.91
      P1  H  7997  8009       L1     6  0.68
      P1  H  7997  8010       L1    10  0.01

> <Gold.Chemscore.Hbond.Weighted>
-6.5250

> <Gold.Chemscore.Metal.Weighted>
-0.0000

> <Gold.Chemscore.Lipo.Weighted>
-10.5488

> <Gold.Chemscore.Internal_Hbond.Weighted>
0.0000

> <Gold.Chemscore.DEClash.Weighted>
0.0922

> <Gold.Chemscore.DEInternal.Weighted>
1.7749

> <Gold.Chemscore.Rot.Weighted>
4.9158

> <Gold.Chemscore.Internal.Correction.Weighted>
   9.000000E+99

> <Gold.Protein.RotatedTorsions>
[ 6907 6896 6895 6894 ] final  -69.94 input  -60.11 | X-H torsion
[ 7974 7965 7964 7962 ] final -151.78 input  175.53 | X-H torsion
[ 8008 7997 7996 7995 ] final   77.10 input   59.86 | X-H torsion
[ 10167 10162 10161 10158 ] final   63.89 input  -65.29 | X-H torsion
[ 10718 10713 10712 10709 ] final -139.23 input   66.30 | X-H torsion
[ 10763 10752 10751 10750 ] final  -77.16 input  -60.55 | X-H torsion
[ 11005 11000 10999 10996 ] final -111.23 input  -57.11 | X-H torsion

> <Gold.Protein.ActiveResidues>
 VAL166  LYS551  ARG553  GLY616  TRP617  ASP618  TYR619  PRO620  LYS621  CYS622 
 ASP623  PHE694  ASN695  SER759  ASP760  ASP761  ALA762  ILE779  LEU786  VAL792 
 PHE793  MET794  SER795  GLU796  ALA797  LYS798  CYS799  TRP800  GLU811  SER814 

> <Gold.Protein.RotatedAtoms>
  150.7281  134.5524  159.5800 H   0  0  0  0  0  0  0  0  0  0  0  0  # atno 6907 bound_to 6896
  152.3008  134.7610  160.0367 H   0  0  0  0  0  0  0  0  0  0  0  0  # atno 6908 bound_to 6896
  151.8191  133.3356  159.3615 H   0  0  0  0  0  0  0  0  0  0  0  0  # atno 6909 bound_to 6896
  144.7831  140.4751  143.5825 H   0  0  0  0  0  0  0  0  0  0  0  0  # atno 7974 bound_to 7965
  155.8368  140.3464  155.5607 H   0  0  0  0  0  0  0  0  0  0  0  0  # atno 8008 bound_to 7997
  155.8183  140.0909  157.1884 H   0  0  0  0  0  0  0  0  0  0  0  0  # atno 8009 bound_to 7997
  154.4004  140.1435  156.3456 H   0  0  0  0  0  0  0  0  0  0  0  0  # atno 8010 bound_to 7997
  140.1281  144.4668  150.6880 H   0  0  0  0  0  0  0  0  0  0  0  0  # atno 10167 bound_to 10162
  156.3084  130.7468  151.1537 H   0  0  0  0  0  0  0  0  0  0  0  0  # atno 10718 bound_to 10713
  154.5093  135.5773  153.6592 H   0  0  0  0  0  0  0  0  0  0  0  0  # atno 10763 bound_to 10752
  152.9894  135.6154  154.2901 H   0  0  0  0  0  0  0  0  0  0  0  0  # atno 10764 bound_to 10752
  154.2814  135.2851  155.2675 H   0  0  0  0  0  0  0  0  0  0  0  0  # atno 10765 bound_to 10752
  141.0746  133.9323  157.2416 H   0  0  0  0  0  0  0  0  0  0  0  0  # atno 11005 bound_to 11000
  145.5997  139.1502  143.3136 LP  0  0  0  0  0  0  0  0  0  0  0  0  # atno 17320 bound_to 7965
  146.2049  140.6119  142.9086 LP  0  0  0  0  0  0  0  0  0  0  0  0  # atno 17321 bound_to 7965
  140.6833  143.2337  151.5328 LP  0  0  0  0  0  0  0  0  0  0  0  0  # atno 17342 bound_to 10162
  139.5533  144.2339  152.1569 LP  0  0  0  0  0  0  0  0  0  0  0  0  # atno 17343 bound_to 10162
  157.7385  131.0540  150.5291 LP  0  0  0  0  0  0  0  0  0  0  0  0  # atno 17370 bound_to 10713
  156.5427  130.4212  149.6146 LP  0  0  0  0  0  0  0  0  0  0  0  0  # atno 17371 bound_to 10713
  139.9558  135.0166  156.9125 LP  0  0  0  0  0  0  0  0  0  0  0  0  # atno 17394 bound_to 11000
  140.5601  134.0543  155.7396 LP  0  0  0  0  0  0  0  0  0  0  0  0  # atno 17395 bound_to 11000

$$$$
