AV-unprocessed.smi:1686|AV-procd|sdf|6762|dock8
  -GOLD-   22720 7523D 1   1.00000     0.00000
 Structure written by MMmdl.
 41 43  0  0  0  0  0  0  0  0  1 V2000
  155.2893  136.2930  158.2701 C   0  0  0  0  0  0  0  0  0  0  0  0
  153.8560  136.7380  158.2135 C   0  0  0  0  0  0  0  0  0  0  0  0
  153.0856  136.3231  157.2167 N   0  0  0  0  0  0  0  0  0  0  0  0
  151.8223  136.8848  157.4346 O   0  0  0  0  0  0  0  0  0  0  0  0
  151.9053  137.6190  158.5675 C   0  0  0  0  0  0  0  0  0  0  0  0
  150.5595  138.4734  159.2104 Cl  0  0  0  0  0  0  0  0  0  0  0  0
  153.1525  137.5822  159.1221 C   0  0  0  0  0  0  0  0  0  0  0  0
  153.6620  138.2407  160.3818 C   0  0  0  0  0  0  0  0  0  0  0  0
  154.1033  139.6733  160.0766 C   0  0  0  0  0  0  0  0  0  0  0  0
  154.9065  139.8910  159.1704 O   0  0  0  0  0  0  0  0  0  0  0  0
  153.5529  140.6373  160.8313 N   0  0  0  0  0  0  0  0  0  0  0  0
  153.7015  142.0765  160.6348 C   0  0  2  0  0  0  0  0  0  0  0  0
  153.0718  142.8051  161.8339 C   0  0  0  0  0  0  0  0  0  0  0  0
  153.0587  142.4653  159.2803 C   0  0  2  0  0  0  0  0  0  0  0  0
  153.4411  143.8885  158.7965 C   0  0  0  0  0  0  0  0  0  0  0  0
  152.0786  144.5497  158.5278 C   0  0  1  0  0  0  0  0  0  0  0  0
  151.4224  143.8968  157.2981 C   0  0  0  0  0  0  0  0  0  0  0  0
  151.0020  142.5155  157.8336 C   0  0  0  0  0  0  0  0  0  0  0  0
  151.5112  142.5442  159.2880 C   0  0  2  0  0  0  0  0  0  0  0  0
  151.2406  143.9954  159.6718 C   0  0  0  0  0  0  0  0  0  0  0  0
  155.6221  136.1648  159.3001 H   0  0  0  0  0  0  0  0  0  0  0  0
  155.9432  137.0263  157.7979 H   0  0  0  0  0  0  0  0  0  0  0  0
  155.4337  135.3403  157.7592 H   0  0  0  0  0  0  0  0  0  0  0  0
  152.8978  138.2685  161.1588 H   0  0  0  0  0  0  0  0  0  0  0  0
  154.5027  137.6875  160.8027 H   0  0  0  0  0  0  0  0  0  0  0  0
  152.9128  140.3497  161.5571 H   0  0  0  0  0  0  0  0  0  0  0  0
  154.7614  142.3335  160.5990 H   0  0  0  0  0  0  0  0  0  0  0  0
  153.2218  143.8825  161.7773 H   0  0  0  0  0  0  0  0  0  0  0  0
  153.5175  142.4708  162.7713 H   0  0  0  0  0  0  0  0  0  0  0  0
  151.9989  142.6201  161.8930 H   0  0  0  0  0  0  0  0  0  0  0  0
  153.3802  141.7340  158.5368 H   0  0  0  0  0  0  0  0  0  0  0  0
  153.9717  144.4482  159.5681 H   0  0  0  0  0  0  0  0  0  0  0  0
  154.0779  143.8692  157.9112 H   0  0  0  0  0  0  0  0  0  0  0  0
  152.1238  145.6378  158.4750 H   0  0  0  0  0  0  0  0  0  0  0  0
  150.5495  144.4644  156.9730 H   0  0  0  0  0  0  0  0  0  0  0  0
  152.1100  143.8251  156.4544 H   0  0  0  0  0  0  0  0  0  0  0  0
  149.9167  142.4105  157.8066 H   0  0  0  0  0  0  0  0  0  0  0  0
  151.4292  141.6952  157.2556 H   0  0  0  0  0  0  0  0  0  0  0  0
  151.0183  141.8072  159.9206 H   0  0  0  0  0  0  0  0  0  0  0  0
  151.6205  144.2650  160.6585 H   0  0  0  0  0  0  0  0  0  0  0  0
  150.1861  144.2700  159.6086 H   0  0  0  0  0  0  0  0  0  0  0  0
  1  2  1  0  0  0  0
  1 21  1  0  0  0  0
  1 22  1  0  0  0  0
  1 23  1  0  0  0  0
  2  7  1  0  0  0  0
  2  3  2  0  0  0  0
  3  4  1  0  0  0  0
  4  5  1  0  0  0  0
  5  6  1  0  0  0  0
  5  7  2  0  0  0  0
  7  8  1  0  0  0  0
  8  9  1  0  0  0  0
  8 24  1  0  0  0  0
  8 25  1  0  0  0  0
  9 10  2  0  0  0  0
  9 11  1  0  0  0  0
 11 12  1  0  0  0  0
 11 26  1  0  0  0  0
 12 13  1  0  0  0  0
 12 14  1  0  0  0  0
 12 27  1  0  0  0  0
 13 28  1  0  0  0  0
 13 29  1  0  0  0  0
 13 30  1  0  0  0  0
 14 19  1  0  0  0  0
 14 15  1  0  0  0  0
 14 31  1  0  0  0  0
 15 16  1  0  0  0  0
 15 32  1  0  0  0  0
 15 33  1  0  0  0  0
 16 20  1  0  0  0  0
 16 17  1  0  0  0  0
 16 34  1  0  0  0  0
 17 18  1  0  0  0  0
 17 35  1  0  0  0  0
 17 36  1  0  0  0  0
 18 19  1  0  0  0  0
 18 37  1  0  0  0  0
 18 38  1  0  0  0  0
 19 20  1  0  0  0  0
 19 39  1  0  0  0  0
 20 40  1  0  0  0  0
 20 41  1  0  0  0  0
M  END
> <s_m_source_file>
AV-unprocessed.smi

> <i_m_source_file_index>
1686

> <i_lp_mmshare_version>
43012

> <i_f3d_flags>
0

> <s_epik_input>
W0NIM11jMW5vYyhDbCljMVtDSDJdQyg9TylbTkhdW0NASF0oW0NIM10pW0NASF0oW0NIMl1bQ0BIXTIzKVtDQEhdKFtDSDJdMylbQ0gyXVtDSDJdMg==

> <s_epik_cmdline>
J2VwaWtfcHl0aG9uJywgJy1waCcsICc3LjAnLCAnLXRuJywgJzgnLCAnLW1hJywgJzIwMCcsICctbWV0YWxfYmluZGluZycsICctaW1hZScsICc8aW5maWxlLm1hZT4nLCAnLW9tYWUnLCAnPG91dGZpbGUubWFlPic=

> <r_lp_tautomer_probability>
1

> <r_epik_Ionization_Penalty>
2.01576e-08

> <r_epik_Ionization_Penalty_Charging>
0

> <r_epik_Ionization_Penalty_Neutral>
2.01576e-08

> <r_epik_State_Penalty>
-0

> <r_epik_Charging_Adjusted_Penalty>
0

> <i_epik_Tot_Q>
0

> <i_epik_Tot_abs_Q>
0

> <r_epik_Metal_State_Penalty>
-0

> <b_epik_Metal_Only>
0

> <s_lp_Force_Field>
OPLS_2005

> <r_lp_Energy>
45.7389

> <b_lp_Chiralities_Consistent>
1

> <s_lp_Variant>
AV-unprocessed.smi:1686-5

> <Gold.Version>
5.8.1

> <Gold.Id.Protein>
6NUR|6NUR_protein|mol2

> <Gold.PLP.Fitness>
42.5336

> <Gold.PLP.PLP>
-37.8041

> <Gold.PLP.part.hbond>
-2.0000

> <Gold.PLP.part.metal>
0.0000

> <Gold.PLP.part.buried>
-4.6748

> <Gold.PLP.part.nonpolar>
-30.4129

> <Gold.PLP.part.repulsive>
0.0696

> <Gold.PLP.ligand.clash>
0.0000

> <Gold.PLP.ligand.torsion>
0.6483

> <Gold.PLP.Chemscore.Hbond>
2.0000

> <Gold.PLP.Chemscore.CHOScore>
0.0000

> <Gold.PLP.Chemscore.Metal>
0.0000

> <Gold.Chemscore.Hbonds>
donor molecule, donor type, donor heavy atom, donor atom, acceptor molecule, acceptor atom, score
      P1  H  7997  8009       L1    10  1.00
      P1  H 10752 10763       L1     3  0.54

> <Gold.PLP.Chemscore.Internal.Correction>
0.0261

> <Gold.Rescore>
     Score         DG    S(hbond)    S(metal)    S(lipo)     H(rot)  DE(clash)    DE(int)     intcor
     21.58     -22.83       1.95        0.00     124.75       1.46       0.13       1.11       ----

> <Gold.Chemscore.Fitness>
21.5846

> <Gold.Chemscore.DG>
-22.8313

> <Gold.Chemscore.ZeroCoef>
-5.4800

> <Gold.Chemscore.Hbond>
1.9477

> <Gold.Chemscore.Metal>
0.0000

> <Gold.Chemscore.Lipo>
124.7512

> <Gold.Chemscore.Internal_Hbond>
0.0000

> <Gold.Chemscore.DEClash>
0.1339

> <Gold.Chemscore.DEInternal>
1.1129

> <Gold.Chemscore.Rot>
1.4648

> <Gold.Chemscore.Internal.Correction>
   9.000000E+99

> <Gold.Chemscore.Hbonds>
donor molecule, donor type, donor heavy atom, donor atom, acceptor molecule, acceptor atom, score
      P1  H  7997  8009       L1    10  0.98
      P1  H 10752 10763       L1     3  0.51

> <Gold.Chemscore.Hbond.Weighted>
-6.5054

> <Gold.Chemscore.Metal.Weighted>
-0.0000

> <Gold.Chemscore.Lipo.Weighted>
-14.5959

> <Gold.Chemscore.Internal_Hbond.Weighted>
0.0000

> <Gold.Chemscore.DEClash.Weighted>
0.1339

> <Gold.Chemscore.DEInternal.Weighted>
1.1129

> <Gold.Chemscore.Rot.Weighted>
3.7500

> <Gold.Chemscore.Internal.Correction.Weighted>
   9.000000E+99

> <Gold.Protein.RotatedTorsions>
[ 6907 6896 6895 6894 ] final   17.28 input  -60.11 | X-H torsion
[ 7974 7965 7964 7962 ] final  116.15 input  175.53 | X-H torsion
[ 8008 7997 7996 7995 ] final  108.93 input   59.86 | X-H torsion
[ 10167 10162 10161 10158 ] final  -15.02 input  -65.29 | X-H torsion
[ 10718 10713 10712 10709 ] final   55.36 input   66.30 | X-H torsion
[ 10763 10752 10751 10750 ] final  139.32 input  -60.55 | X-H torsion
[ 11005 11000 10999 10996 ] final  153.79 input  -57.11 | X-H torsion

> <Gold.Protein.ActiveResidues>
 VAL166  LYS551  ARG553  GLY616  TRP617  ASP618  TYR619  PRO620  LYS621  CYS622 
 ASP623  PHE694  ASN695  SER759  ASP760  ASP761  ALA762  ILE779  LEU786  VAL792 
 PHE793  MET794  SER795  GLU796  ALA797  LYS798  CYS799  TRP800  GLU811  SER814 

> <Gold.Protein.RotatedAtoms>
  151.8471  135.0570  160.0454 H   0  0  0  0  0  0  0  0  0  0  0  0  # atno 6907 bound_to 6896
  152.2765  133.5425  159.5479 H   0  0  0  0  0  0  0  0  0  0  0  0  # atno 6908 bound_to 6896
  150.7172  134.0541  159.3851 H   0  0  0  0  0  0  0  0  0  0  0  0  # atno 6909 bound_to 6896
  145.1832  139.3039  143.4407 H   0  0  0  0  0  0  0  0  0  0  0  0  # atno 7974 bound_to 7965
  156.1940  140.3067  155.9390 H   0  0  0  0  0  0  0  0  0  0  0  0  # atno 8008 bound_to 7997
  155.3108  140.0451  157.3052 H   0  0  0  0  0  0  0  0  0  0  0  0  # atno 8009 bound_to 7997
  154.5487  140.2284  155.8529 H   0  0  0  0  0  0  0  0  0  0  0  0  # atno 8010 bound_to 7997
  140.7211  143.5261  150.9575 H   0  0  0  0  0  0  0  0  0  0  0  0  # atno 10167 bound_to 10162
  157.5338  130.8649  149.8725 H   0  0  0  0  0  0  0  0  0  0  0  0  # atno 10718 bound_to 10713
  153.9042  135.3018  155.3448 H   0  0  0  0  0  0  0  0  0  0  0  0  # atno 10763 bound_to 10752
  154.7655  135.4912  153.9550 H   0  0  0  0  0  0  0  0  0  0  0  0  # atno 10764 bound_to 10752
  153.1228  135.6786  153.9407 H   0  0  0  0  0  0  0  0  0  0  0  0  # atno 10765 bound_to 10752
  140.1430  134.8726  157.2355 H   0  0  0  0  0  0  0  0  0  0  0  0  # atno 11005 bound_to 11000
  146.3449  140.2018  142.8589 LP  0  0  0  0  0  0  0  0  0  0  0  0  # atno 17320 bound_to 7965
  145.0115  140.8718  143.5221 LP  0  0  0  0  0  0  0  0  0  0  0  0  # atno 17321 bound_to 7965
  139.8980  143.6870  152.3135 LP  0  0  0  0  0  0  0  0  0  0  0  0  # atno 17342 bound_to 10162
  139.7210  144.7602  151.0955 LP  0  0  0  0  0  0  0  0  0  0  0  0  # atno 17343 bound_to 10162
  156.0443  130.3731  150.1357 LP  0  0  0  0  0  0  0  0  0  0  0  0  # atno 17370 bound_to 10713
  156.9541  130.9784  151.3492 LP  0  0  0  0  0  0  0  0  0  0  0  0  # atno 17371 bound_to 10713
  140.2699  134.3473  155.7377 LP  0  0  0  0  0  0  0  0  0  0  0  0  # atno 17394 bound_to 11000
  141.2188  133.7417  156.9206 LP  0  0  0  0  0  0  0  0  0  0  0  0  # atno 17395 bound_to 11000

$$$$
