AV-unprocessed.smi:101|AV-procd|sdf|927|dock4
  -GOLD-   2262017443D 1   1.00000     0.00000
 Structure written by MMmdl.
 44 46  0  0  0  0  0  0  0  0  1 V2000
  144.1774  137.5204  155.6909 C   0  0  0  0  0  0  0  0  0  0  0  0
  144.9126  137.8395  154.3998 C   0  0  0  0  0  0  0  0  0  0  0  0
  145.9913  138.6625  154.3613 C   0  0  0  0  0  0  0  0  0  0  0  0
  146.6798  138.9773  153.1984 N   0  0  0  0  0  0  0  0  0  0  0  0
  147.8747  139.9056  153.2342 C   0  0  2  0  0  0  0  0  0  0  0  0
  148.7773  139.4212  154.1803 O   0  0  0  0  0  0  0  0  0  0  0  0
  149.3649  140.5181  154.8676 C   0  0  2  0  0  0  0  0  0  0  0  0
  149.9741  140.0685  156.2029 C   0  0  0  0  0  0  0  0  0  0  0  0
  150.4701  141.2057  156.8895 O   0  0  0  0  0  0  0  0  0  0  0  0
  151.6569  141.1465  157.5234 C   0  0  0  0  0  0  0  0  0  0  0  0
  152.4499  140.2107  157.3995 O   0  0  0  0  0  0  0  0  0  0  0  0
  151.9105  142.3316  158.3926 C   0  0  0  0  0  0  0  0  0  0  0  0
  152.4884  142.1432  159.6697 C   0  0  0  0  0  0  0  0  0  0  0  0
  152.7401  143.2431  160.5125 C   0  0  0  0  0  0  0  0  0  0  0  0
  152.4174  144.5453  160.0884 C   0  0  0  0  0  0  0  0  0  0  0  0
  151.8434  144.7464  158.8196 C   0  0  0  0  0  0  0  0  0  0  0  0
  151.5906  143.6476  157.9754 C   0  0  0  0  0  0  0  0  0  0  0  0
  148.2236  141.5393  154.9635 C   0  0  2  0  0  0  0  0  0  0  0  0
  147.3864  141.2649  156.0750 O   0  0  0  0  0  0  0  0  0  0  0  0
  147.5117  141.3561  153.6242 C   0  0  2  0  0  0  0  0  0  0  0  0
  146.1262  141.6559  153.6722 O   0  0  0  0  0  0  0  0  0  0  0  0
  146.2491  138.4330  151.9705 C   0  0  0  0  0  0  0  0  0  0  0  0
  146.7938  138.6823  150.8957 O   0  0  0  0  0  0  0  0  0  0  0  0
  145.1450  137.5830  152.0102 N   0  0  0  0  0  0  0  0  0  0  0  0
  144.4275  137.2334  153.1569 C   0  0  0  0  0  0  0  0  0  0  0  0
  143.4681  136.4695  153.0636 O   0  0  0  0  0  0  0  0  0  0  0  0
  144.8335  137.1900  151.1340 H   0  0  0  0  0  0  0  0  0  0  0  0
  144.6206  138.0325  156.5455 H   0  0  0  0  0  0  0  0  0  0  0  0
  144.2057  136.4488  155.8911 H   0  0  0  0  0  0  0  0  0  0  0  0
  143.1338  137.8293  155.6211 H   0  0  0  0  0  0  0  0  0  0  0  0
  146.3293  139.1000  155.2890 H   0  0  0  0  0  0  0  0  0  0  0  0
  148.3624  139.8484  152.2599 H   0  0  0  0  0  0  0  0  0  0  0  0
  150.1465  140.9362  154.2301 H   0  0  0  0  0  0  0  0  0  0  0  0
  149.2101  139.5895  156.8168 H   0  0  0  0  0  0  0  0  0  0  0  0
  150.7722  139.3429  156.0384 H   0  0  0  0  0  0  0  0  0  0  0  0
  152.7453  141.1529  160.0174 H   0  0  0  0  0  0  0  0  0  0  0  0
  153.1814  143.0866  161.4857 H   0  0  0  0  0  0  0  0  0  0  0  0
  152.6103  145.3885  160.7351 H   0  0  0  0  0  0  0  0  0  0  0  0
  151.5962  145.7456  158.4923 H   0  0  0  0  0  0  0  0  0  0  0  0
  151.1499  143.8376  157.0076 H   0  0  0  0  0  0  0  0  0  0  0  0
  148.6052  142.5547  155.0766 H   0  0  0  0  0  0  0  0  0  0  0  0
  146.4892  141.2387  155.7797 H   0  0  0  0  0  0  0  0  0  0  0  0
  147.9754  142.0108  152.8850 H   0  0  0  0  0  0  0  0  0  0  0  0
  145.6688  141.0533  153.1067 H   0  0  0  0  0  0  0  0  0  0  0  0
  1  2  1  0  0  0  0
  1 28  1  0  0  0  0
  1 29  1  0  0  0  0
  1 30  1  0  0  0  0
  2 25  1  0  0  0  0
  2  3  2  0  0  0  0
  3  4  1  0  0  0  0
  3 31  1  0  0  0  0
  4  5  1  0  0  0  0
  4 22  1  0  0  0  0
  5 20  1  0  0  0  0
  5  6  1  0  0  0  0
  5 32  1  0  0  0  0
  6  7  1  0  0  0  0
  7  8  1  0  0  0  0
  7 18  1  0  0  0  0
  7 33  1  0  0  0  0
  8  9  1  0  0  0  0
  8 34  1  0  0  0  0
  8 35  1  0  0  0  0
  9 10  1  0  0  0  0
 10 11  2  0  0  0  0
 10 12  1  0  0  0  0
 12 17  1  0  0  0  0
 12 13  2  0  0  0  0
 13 14  1  0  0  0  0
 13 36  1  0  0  0  0
 14 15  2  0  0  0  0
 14 37  1  0  0  0  0
 15 16  1  0  0  0  0
 15 38  1  0  0  0  0
 16 17  2  0  0  0  0
 16 39  1  0  0  0  0
 17 40  1  0  0  0  0
 18 19  1  0  0  0  0
 18 20  1  0  0  0  0
 18 41  1  0  0  0  0
 19 42  1  0  0  0  0
 20 21  1  0  0  0  0
 20 43  1  0  0  0  0
 21 44  1  0  0  0  0
 22 23  2  0  0  0  0
 22 24  1  0  0  0  0
 24 27  1  0  0  0  0
 24 25  1  0  0  0  0
 25 26  2  0  0  0  0
M  END
> <s_m_source_file>
AV-unprocessed.smi

> <i_m_source_file_index>
101

> <i_lp_mmshare_version>
43012

> <i_f3d_flags>
0

> <s_epik_input>
Tz1jMVtuSF1jKD1PKW4oW2NIXWMxW0NIM10pW0NAQEhdMk9bQ0BIXShbQ0BASF0oW09IXSlbQ0BIXTJbT0hdKVtDSDJdT0MoPU8pYzNbY0hdW2NIXVtjSF1bY0hdW2NIXTM=

> <s_epik_cmdline>
J2VwaWtfcHl0aG9uJywgJy1waCcsICc3LjAnLCAnLXRuJywgJzgnLCAnLW1hJywgJzIwMCcsICctbWV0YWxfYmluZGluZycsICctaW1hZScsICc8aW5maWxlLm1hZT4nLCAnLW9tYWUnLCAnPG91dGZpbGUubWFlPic=

> <r_lp_tautomer_probability>
0.999537

> <r_epik_Ionization_Penalty>
0.00263537

> <r_epik_Ionization_Penalty_Charging>
0.00263428

> <r_epik_Ionization_Penalty_Neutral>
1.09111e-06

> <r_epik_State_Penalty>
0.00183335

> <r_epik_Charging_Adjusted_Penalty>
0.00446763

> <i_epik_Tot_Q>
0

> <i_epik_Tot_abs_Q>
0

> <r_epik_Metal_State_Penalty>
1.00528

> <b_epik_Metal_Only>
0

> <s_epik_Chemistry_Notes>
This compound has an ester and may undergo hydrolysis at high or low pH. This compound contains an acetal/aminal-like group ( X-CH(R)-Y where X, Y are N, S, or O) that may be acid/base labile, releasing an aldehyde.

> <s_lp_Force_Field>
OPLS_2005

> <r_lp_Energy>
42.5315

> <b_lp_Chiralities_Consistent>
1

> <s_lp_Variant>
AV-unprocessed.smi:101-15

> <Gold.Version>
5.8.1

> <Gold.Id.Protein>
6NUR|6NUR_protein|mol2

> <Gold.PLP.Fitness>
49.2844

> <Gold.PLP.PLP>
-43.3603

> <Gold.PLP.part.hbond>
-4.2205

> <Gold.PLP.part.metal>
0.0000

> <Gold.PLP.part.buried>
-4.5139

> <Gold.PLP.part.nonpolar>
-37.0669

> <Gold.PLP.part.repulsive>
1.2598

> <Gold.PLP.ligand.clash>
0.0000

> <Gold.PLP.ligand.torsion>
1.1535

> <Gold.PLP.Chemscore.Hbond>
2.6850

> <Gold.PLP.Chemscore.CHOScore>
0.0000

> <Gold.PLP.Chemscore.Metal>
0.0000

> <Gold.Chemscore.Hbonds>
donor molecule, donor type, donor heavy atom, donor atom, acceptor molecule, acceptor atom, score
      L1  H    21    44       P1 10175  0.58
      L1  H    24    27       P1 10171  0.21
      P1  H  7954  7966       L1    23  0.91
      P1  H  7997  8008       L1    11  0.89

> <Gold.PLP.Chemscore.Internal.Correction>
0.1761

> <Gold.Rescore>
     Score         DG    S(hbond)    S(metal)    S(lipo)     H(rot)  DE(clash)    DE(int)     intcor
     12.55     -15.92       2.22        0.00      98.38       3.32       2.31       1.07       ----

> <Gold.Chemscore.Fitness>
12.5482

> <Gold.Chemscore.DG>
-15.9241

> <Gold.Chemscore.ZeroCoef>
-5.4800

> <Gold.Chemscore.Hbond>
2.2234

> <Gold.Chemscore.Metal>
0.0000

> <Gold.Chemscore.Lipo>
98.3754

> <Gold.Chemscore.Internal_Hbond>
0.0000

> <Gold.Chemscore.DEClash>
2.3103

> <Gold.Chemscore.DEInternal>
1.0656

> <Gold.Chemscore.Rot>
3.3172

> <Gold.Chemscore.Internal.Correction>
   9.000000E+99

> <Gold.Chemscore.Hbonds>
donor molecule, donor type, donor heavy atom, donor atom, acceptor molecule, acceptor atom, score
      L1  H    21    44       P1 10175  0.20
      L1  H    24    27       P1 10171  0.21
      P1  H  7954  7966       L1    23  0.90
      P1  H  7997  8008       L1    11  0.81

> <Gold.Chemscore.Hbond.Weighted>
-7.4262

> <Gold.Chemscore.Metal.Weighted>
-0.0000

> <Gold.Chemscore.Lipo.Weighted>
-11.5099

> <Gold.Chemscore.Internal_Hbond.Weighted>
0.0000

> <Gold.Chemscore.DEClash.Weighted>
2.3103

> <Gold.Chemscore.DEInternal.Weighted>
1.0656

> <Gold.Chemscore.Rot.Weighted>
8.4920

> <Gold.Chemscore.Internal.Correction.Weighted>
   9.000000E+99

> <Gold.Protein.RotatedTorsions>
[ 6907 6896 6895 6894 ] final  166.32 input  -60.11 | X-H torsion
[ 7974 7965 7964 7962 ] final -107.67 input  175.53 | X-H torsion
[ 8008 7997 7996 7995 ] final  -69.41 input   59.86 | X-H torsion
[ 10167 10162 10161 10158 ] final  -20.05 input  -65.29 | X-H torsion
[ 10718 10713 10712 10709 ] final   86.61 input   66.30 | X-H torsion
[ 10763 10752 10751 10750 ] final -145.66 input  -60.55 | X-H torsion
[ 11005 11000 10999 10996 ] final   58.36 input  -57.11 | X-H torsion

> <Gold.Protein.ActiveResidues>
 VAL166  LYS551  ARG553  GLY616  TRP617  ASP618  TYR619  PRO620  LYS621  CYS622 
 ASP623  PHE694  ASN695  SER759  ASP760  ASP761  ALA762  ILE779  LEU786  VAL792 
 PHE793  MET794  SER795  GLU796  ALA797  LYS798  CYS799  TRP800  GLU811  SER814 

> <Gold.Protein.RotatedAtoms>
  151.8807  133.3494  159.3765 H   0  0  0  0  0  0  0  0  0  0  0  0  # atno 6907 bound_to 6896
  150.7128  134.5022  159.5576 H   0  0  0  0  0  0  0  0  0  0  0  0  # atno 6908 bound_to 6896
  152.2573  134.8072  160.0487 H   0  0  0  0  0  0  0  0  0  0  0  0  # atno 6909 bound_to 6896
  145.2024  140.9062  143.3362 H   0  0  0  0  0  0  0  0  0  0  0  0  # atno 7974 bound_to 7965
  154.4937  140.0854  156.7649 H   0  0  0  0  0  0  0  0  0  0  0  0  # atno 8008 bound_to 7997
  155.4169  140.3444  155.4250 H   0  0  0  0  0  0  0  0  0  0  0  0  # atno 8009 bound_to 7997
  156.1364  140.1516  156.8975 H   0  0  0  0  0  0  0  0  0  0  0  0  # atno 8010 bound_to 7997
  140.7273  143.4760  151.0182 H   0  0  0  0  0  0  0  0  0  0  0  0  # atno 10167 bound_to 10162
  157.6931  131.0222  150.2999 H   0  0  0  0  0  0  0  0  0  0  0  0  # atno 10718 bound_to 10713
  154.8373  135.3407  154.6539 H   0  0  0  0  0  0  0  0  0  0  0  0  # atno 10763 bound_to 10752
  153.7152  135.6961  153.5031 H   0  0  0  0  0  0  0  0  0  0  0  0  # atno 10764 bound_to 10752
  153.2422  135.4381  155.0663 H   0  0  0  0  0  0  0  0  0  0  0  0  # atno 10765 bound_to 10752
  140.0383  134.5911  155.9415 H   0  0  0  0  0  0  0  0  0  0  0  0  # atno 11005 bound_to 11000
  144.9935  139.3666  143.6203 LP  0  0  0  0  0  0  0  0  0  0  0  0  # atno 17320 bound_to 7965
  146.3415  139.9128  142.8778 LP  0  0  0  0  0  0  0  0  0  0  0  0  # atno 17321 bound_to 7965
  139.8455  143.7507  152.3179 LP  0  0  0  0  0  0  0  0  0  0  0  0  # atno 17342 bound_to 10162
  139.7671  144.7488  151.0279 LP  0  0  0  0  0  0  0  0  0  0  0  0  # atno 17343 bound_to 10162
  156.3517  130.3832  149.7324 LP  0  0  0  0  0  0  0  0  0  0  0  0  # atno 17370 bound_to 10713
  156.4800  130.8036  151.3051 LP  0  0  0  0  0  0  0  0  0  0  0  0  # atno 17371 bound_to 10713
  141.1869  133.6558  156.5260 LP  0  0  0  0  0  0  0  0  0  0  0  0  # atno 17394 bound_to 11000
  140.4111  134.7271  157.4836 LP  0  0  0  0  0  0  0  0  0  0  0  0  # atno 17395 bound_to 11000

$$$$
