AV-unprocessed.smi:1930|AV-procd|sdf|7810|dock1
  -GOLD-   22720 9553D 1   1.00000     0.00000
 Structure written by MMmdl.
 42 43  0  0  0  0  0  0  0  0  2 V2000
  154.7886  134.6756  164.4852 C   0  0  0  0  0  0  0  0  0  0  0  0
  156.0434  134.4720  163.1560 S   0  0  0  0  0  0  0  0  0  0  0  0
  157.3722  134.4056  163.7833 O   0  0  0  0  0  0  0  0  0  0  0  0
  155.6012  133.3868  162.2670 O   0  0  0  0  0  0  0  0  0  0  0  0
  155.9476  135.9631  162.2658 N   0  0  0  0  0  0  0  0  0  0  0  0
  154.9956  137.0091  162.7052 C   0  0  0  0  0  0  0  0  0  0  0  0
  153.7606  137.0746  161.7854 C   0  0  0  0  0  0  0  0  0  0  0  0
  154.2118  137.2451  160.3977 N   0  0  0  0  0  0  0  0  0  0  0  0
  154.1596  138.3826  159.6617 C   0  0  0  0  0  0  0  0  0  0  0  0
  154.4426  138.4250  158.4640 O   0  0  0  0  0  0  0  0  0  0  0  0
  153.7238  139.4636  160.3304 N   0  0  0  0  0  0  0  0  0  0  0  0
  153.5467  140.7966  159.7611 C   0  0  0  0  0  0  0  0  0  0  0  0
  152.0760  141.2601  159.7497 C   0  0  0  0  0  0  0  0  0  0  0  0
  151.8860  142.6709  159.2197 C   0  0  0  0  0  0  0  0  0  0  0  0
  152.6421  143.7430  159.7430 C   0  0  0  0  0  0  0  0  0  0  0  0
  152.4409  145.0435  159.2357 C   0  0  0  0  0  0  0  0  0  0  0  0
  151.4877  145.2428  158.2160 C   0  0  0  0  0  0  0  0  0  0  0  0
  150.7833  144.1929  157.7393 N   0  3  0  0  0  0  0  0  0  0  0  0
  150.9474  142.9326  158.1975 C   0  0  0  0  0  0  0  0  0  0  0  0
  154.9688  136.0672  159.9690 C   0  0  0  0  0  0  0  0  0  0  0  0
  156.2517  135.9616  160.8165 C   0  0  0  0  0  0  0  0  0  0  0  0
  154.7733  133.7774  165.1019 H   0  0  0  0  0  0  0  0  0  0  0  0
  153.8035  134.8202  164.0444 H   0  0  0  0  0  0  0  0  0  0  0  0
  155.0472  135.5298  165.1091 H   0  0  0  0  0  0  0  0  0  0  0  0
  154.6898  136.8372  163.7368 H   0  0  0  0  0  0  0  0  0  0  0  0
  155.5113  137.9699  162.6936 H   0  0  0  0  0  0  0  0  0  0  0  0
  153.1804  136.1551  161.8625 H   0  0  0  0  0  0  0  0  0  0  0  0
  153.0904  137.8615  162.1306 H   0  0  0  0  0  0  0  0  0  0  0  0
  153.5030  139.3540  161.3094 H   0  0  0  0  0  0  0  0  0  0  0  0
  154.1381  141.4856  160.3649 H   0  0  0  0  0  0  0  0  0  0  0  0
  153.9654  140.8341  158.7541 H   0  0  0  0  0  0  0  0  0  0  0  0
  151.4806  140.5735  159.1469 H   0  0  0  0  0  0  0  0  0  0  0  0
  151.6644  141.2040  160.7583 H   0  0  0  0  0  0  0  0  0  0  0  0
  153.3671  143.5717  160.5253 H   0  0  0  0  0  0  0  0  0  0  0  0
  153.0104  145.8759  159.6229 H   0  0  0  0  0  0  0  0  0  0  0  0
  151.2693  146.2022  157.7702 H   0  0  0  0  0  0  0  0  0  0  0  0
  150.3238  142.1783  157.7394 H   0  0  0  0  0  0  0  0  0  0  0  0
  154.3531  135.1760  160.0906 H   0  0  0  0  0  0  0  0  0  0  0  0
  155.2274  136.0985  158.9096 H   0  0  0  0  0  0  0  0  0  0  0  0
  156.9020  136.8106  160.6016 H   0  0  0  0  0  0  0  0  0  0  0  0
  156.8129  135.0682  160.5447 H   0  0  0  0  0  0  0  0  0  0  0  0
  150.0999  144.3585  157.0000 H   0  0  0  0  0  0  0  0  0  0  0  0
  1  2  1  0  0  0  0
  1 22  1  0  0  0  0
  1 23  1  0  0  0  0
  1 24  1  0  0  0  0
  2  3  2  0  0  0  0
  2  4  2  0  0  0  0
  2  5  1  0  0  0  0
  5 21  1  0  0  0  0
  5  6  1  0  0  0  0
  6  7  1  0  0  0  0
  6 25  1  0  0  0  0
  6 26  1  0  0  0  0
  7  8  1  0  0  0  0
  7 27  1  0  0  0  0
  7 28  1  0  0  0  0
  8  9  1  0  0  0  0
  8 20  1  0  0  0  0
  9 10  2  0  0  0  0
  9 11  1  0  0  0  0
 11 12  1  0  0  0  0
 11 29  1  0  0  0  0
 12 13  1  0  0  0  0
 12 30  1  0  0  0  0
 12 31  1  0  0  0  0
 13 14  1  0  0  0  0
 13 32  1  0  0  0  0
 13 33  1  0  0  0  0
 14 19  1  0  0  0  0
 14 15  2  0  0  0  0
 15 16  1  0  0  0  0
 15 34  1  0  0  0  0
 16 17  2  0  0  0  0
 16 35  1  0  0  0  0
 17 18  1  0  0  0  0
 17 36  1  0  0  0  0
 18 19  2  0  0  0  0
 18 42  1  0  0  0  0
 19 37  1  0  0  0  0
 20 21  1  0  0  0  0
 20 38  1  0  0  0  0
 20 39  1  0  0  0  0
 21 40  1  0  0  0  0
 21 41  1  0  0  0  0
M  CHG  1  18   1
M  END
> <s_m_source_file>
AV-unprocessed.smi

> <i_m_source_file_index>
1930

> <i_lp_mmshare_version>
43012

> <i_f3d_flags>
0

> <s_epik_input>
W0NIM11TKD1PKSg9TylOMVtDSDJdW0NIMl1OKFtDSDJdW0NIMl0xKUMoPU8pW05IXVtDSDJdW0NIMl1jMltjSF1bY0hdW2NIXW5bY0hdMg==

> <s_epik_cmdline>
J2VwaWtfcHl0aG9uJywgJy1waCcsICc3LjAnLCAnLXRuJywgJzgnLCAnLW1hJywgJzIwMCcsICctbWV0YWxfYmluZGluZycsICctaW1hZScsICc8aW5maWxlLm1hZT4nLCAnLW9tYWUnLCAnPG91dGZpbGUubWFlPic=

> <r_epik_Ionization_Penalty>
2.21237

> <r_epik_Ionization_Penalty_Charging>
2.21233

> <r_epik_Ionization_Penalty_Neutral>
3.86464e-05

> <r_epik_State_Penalty>
2.35665

> <r_epik_Charging_Adjusted_Penalty>
4.56898

> <i_epik_Tot_Q>
1

> <i_epik_Tot_abs_Q>
1

> <r_epik_Metal_State_Penalty>
2.37073

> <b_epik_Metal_Only>
0

> <s_lp_Force_Field>
OPLS_2005

> <r_lp_Energy>
33.224

> <b_lp_Chiralities_Consistent>
1

> <s_lp_Variant>
AV-unprocessed.smi:1930-2

> <Gold.Version>
5.8.1

> <Gold.Id.Protein>
6NUR|6NUR_protein|mol2

> <Gold.PLP.Fitness>
43.4809

> <Gold.PLP.PLP>
-35.0712

> <Gold.PLP.part.hbond>
-2.0000

> <Gold.PLP.part.metal>
0.0000

> <Gold.PLP.part.buried>
-5.1001

> <Gold.PLP.part.nonpolar>
-27.5590

> <Gold.PLP.part.repulsive>
0.1071

> <Gold.PLP.ligand.clash>
0.0000

> <Gold.PLP.ligand.torsion>
1.3664

> <Gold.PLP.Chemscore.Hbond>
3.0000

> <Gold.PLP.Chemscore.CHOScore>
0.0000

> <Gold.PLP.Chemscore.Metal>
0.0000

> <Gold.Chemscore.Hbonds>
donor molecule, donor type, donor heavy atom, donor atom, acceptor molecule, acceptor atom, score
      L1  H    18    42       P1  8028  2.00
      P1  H  7997  8009       L1    10  0.98

> <Gold.PLP.Chemscore.Internal.Correction>
2.1424

> <Gold.Rescore>
     Score         DG    S(hbond)    S(metal)    S(lipo)     H(rot)  DE(clash)    DE(int)     intcor
     18.24     -19.91       1.95        0.00      99.99       1.47       0.26       1.42       ----

> <Gold.Chemscore.Fitness>
18.2394

> <Gold.Chemscore.DG>
-19.9131

> <Gold.Chemscore.ZeroCoef>
-5.4800

> <Gold.Chemscore.Hbond>
1.9464

> <Gold.Chemscore.Metal>
0.0000

> <Gold.Chemscore.Lipo>
99.9889

> <Gold.Chemscore.Internal_Hbond>
0.0000

> <Gold.Chemscore.DEClash>
0.2566

> <Gold.Chemscore.DEInternal>
1.4171

> <Gold.Chemscore.Rot>
1.4714

> <Gold.Chemscore.Internal.Correction>
   9.000000E+99

> <Gold.Chemscore.Hbonds>
donor molecule, donor type, donor heavy atom, donor atom, acceptor molecule, acceptor atom, score
      L1  H    18    42       P1  8028  0.78
      P1  H  7997  8009       L1    10  0.92

> <Gold.Chemscore.Hbond.Weighted>
-6.5011

> <Gold.Chemscore.Metal.Weighted>
-0.0000

> <Gold.Chemscore.Lipo.Weighted>
-11.6987

> <Gold.Chemscore.Internal_Hbond.Weighted>
0.0000

> <Gold.Chemscore.DEClash.Weighted>
0.2566

> <Gold.Chemscore.DEInternal.Weighted>
1.4171

> <Gold.Chemscore.Rot.Weighted>
3.7667

> <Gold.Chemscore.Internal.Correction.Weighted>
   9.000000E+99

> <Gold.Protein.RotatedTorsions>
[ 6907 6896 6895 6894 ] final  -36.95 input  -60.11 | X-H torsion
[ 7974 7965 7964 7962 ] final -150.35 input  175.53 | X-H torsion
[ 8008 7997 7996 7995 ] final  134.68 input   59.86 | X-H torsion
[ 10167 10162 10161 10158 ] final -125.92 input  -65.29 | X-H torsion
[ 10718 10713 10712 10709 ] final  174.50 input   66.30 | X-H torsion
[ 10763 10752 10751 10750 ] final  -53.89 input  -60.55 | X-H torsion
[ 11005 11000 10999 10996 ] final  -42.53 input  -57.11 | X-H torsion

> <Gold.Protein.ActiveResidues>
 VAL166  LYS551  ARG553  GLY616  TRP617  ASP618  TYR619  PRO620  LYS621  CYS622 
 ASP623  PHE694  ASN695  SER759  ASP760  ASP761  ALA762  ILE779  LEU786  VAL792 
 PHE793  MET794  SER795  GLU796  ALA797  LYS798  CYS799  TRP800  GLU811  SER814 

> <Gold.Protein.RotatedAtoms>
  151.0207  134.9467  159.8057 H   0  0  0  0  0  0  0  0  0  0  0  0  # atno 6907 bound_to 6896
  152.5324  134.2907  159.9052 H   0  0  0  0  0  0  0  0  0  0  0  0  # atno 6908 bound_to 6896
  151.2914  133.4121  159.2667 H   0  0  0  0  0  0  0  0  0  0  0  0  # atno 6909 bound_to 6896
  144.7913  140.4944  143.5771 H   0  0  0  0  0  0  0  0  0  0  0  0  # atno 7974 bound_to 7965
  156.3000  140.2490  156.3457 H   0  0  0  0  0  0  0  0  0  0  0  0  # atno 8008 bound_to 7997
  154.9013  140.0406  157.1914 H   0  0  0  0  0  0  0  0  0  0  0  0  # atno 8009 bound_to 7997
  154.8498  140.2904  155.5610 H   0  0  0  0  0  0  0  0  0  0  0  0  # atno 8010 bound_to 7997
  139.9770  143.5783  152.2392 H   0  0  0  0  0  0  0  0  0  0  0  0  # atno 10167 bound_to 10162
  156.9487  131.0024  151.2953 H   0  0  0  0  0  0  0  0  0  0  0  0  # atno 10718 bound_to 10713
  154.1661  135.6467  153.4998 H   0  0  0  0  0  0  0  0  0  0  0  0  # atno 10763 bound_to 10752
  153.0097  135.5372  154.6661 H   0  0  0  0  0  0  0  0  0  0  0  0  # atno 10764 bound_to 10752
  154.5987  135.2941  155.0530 H   0  0  0  0  0  0  0  0  0  0  0  0  # atno 10765 bound_to 10752
  141.0322  133.6815  156.2607 H   0  0  0  0  0  0  0  0  0  0  0  0  # atno 11005 bound_to 11000
  145.5787  139.1487  143.3247 LP  0  0  0  0  0  0  0  0  0  0  0  0  # atno 17320 bound_to 7965
  146.2166  140.5918  142.9036 LP  0  0  0  0  0  0  0  0  0  0  0  0  # atno 17321 bound_to 7965
  139.6438  144.7656  151.2285 LP  0  0  0  0  0  0  0  0  0  0  0  0  # atno 17342 bound_to 10162
  140.7502  143.6273  150.8456 LP  0  0  0  0  0  0  0  0  0  0  0  0  # atno 17343 bound_to 10162
  157.5736  130.8328  149.8425 LP  0  0  0  0  0  0  0  0  0  0  0  0  # atno 17370 bound_to 10713
  156.0372  130.3748  150.1529 LP  0  0  0  0  0  0  0  0  0  0  0  0  # atno 17371 bound_to 10713
  140.6387  134.5188  157.5567 LP  0  0  0  0  0  0  0  0  0  0  0  0  # atno 17394 bound_to 11000
  139.9215  134.8139  156.1196 LP  0  0  0  0  0  0  0  0  0  0  0  0  # atno 17395 bound_to 11000

$$$$
