AV-unprocessed.smi:2902|AV-procd|sdf|11158|dock5
  -GOLD-   2272016 43D 1   1.00000     0.00000
 Structure written by MMmdl.
 47 48  0  0  0  0  0  0  0  0  1 V2000
  149.9957  133.4621  155.7983 C   0  0  0  0  0  0  0  0  0  0  0  0
  149.9931  134.8091  155.0646 C   0  0  0  0  0  0  0  0  0  0  0  0
  148.8072  135.7063  155.4654 C   0  0  1  0  0  0  0  0  0  0  0  0
  149.0650  137.0219  154.9734 O   0  0  0  0  0  0  0  0  0  0  0  0
  150.3796  137.5311  155.1823 C   0  0  0  0  0  0  0  0  0  0  0  0
  150.6394  137.9181  156.6406 C   0  0  0  0  0  0  0  0  0  0  0  0
  151.7748  138.9443  156.5728 C   0  0  0  0  0  0  0  0  0  0  0  0
  151.7136  139.5578  155.1646 C   0  0  0  0  0  0  0  0  0  0  0  0
  150.5571  138.8564  154.4433 C   0  0  0  0  0  0  0  0  0  0  0  0
  147.4832  135.1693  154.8977 C   0  0  0  0  0  0  0  0  0  0  0  0
  146.5699  134.8406  155.6550 O   0  0  0  0  0  0  0  0  0  0  0  0
  147.4071  135.0652  153.5615 N   0  0  0  0  0  0  0  0  0  0  0  0
  146.2728  134.5267  152.8137 C   0  0  1  0  0  0  0  0  0  0  0  0
  145.6439  135.6433  151.9577 C   0  0  0  0  0  0  0  0  0  0  0  0
  146.7211  133.2958  151.9844 C   0  0  1  0  0  0  0  0  0  0  0  0
  147.2973  132.1596  152.8503 C   0  0  0  0  0  0  0  0  0  0  0  0
  145.6393  132.7863  151.1531 N   0  0  0  0  0  0  0  0  0  0  0  0
  145.6301  131.8246  150.2267 C   0  0  0  0  0  0  0  0  0  0  0  0
  144.4439  131.6286  149.6684 N   0  0  0  0  0  0  0  0  0  0  0  0
  143.7170  132.5687  150.3421 C   0  0  0  0  0  0  0  0  0  0  0  0
  144.3854  133.2901  151.2420 N   0  0  0  0  0  0  0  0  0  0  0  0
  150.8407  132.8505  155.4818 H   0  0  0  0  0  0  0  0  0  0  0  0
  149.0837  132.9006  155.5947 H   0  0  0  0  0  0  0  0  0  0  0  0
  150.0723  133.5992  156.8774 H   0  0  0  0  0  0  0  0  0  0  0  0
  150.9348  135.3248  155.2583 H   0  0  0  0  0  0  0  0  0  0  0  0
  149.9629  134.6185  153.9907 H   0  0  0  0  0  0  0  0  0  0  0  0
  148.7492  135.7344  156.5556 H   0  0  0  0  0  0  0  0  0  0  0  0
  151.1465  136.8365  154.8340 H   0  0  0  0  0  0  0  0  0  0  0  0
  149.7480  138.3887  157.0579 H   0  0  0  0  0  0  0  0  0  0  0  0
  150.8873  137.0669  157.2739 H   0  0  0  0  0  0  0  0  0  0  0  0
  151.6771  139.6989  157.3537 H   0  0  0  0  0  0  0  0  0  0  0  0
  152.7355  138.4484  156.7158 H   0  0  0  0  0  0  0  0  0  0  0  0
  151.5649  140.6378  155.1953 H   0  0  0  0  0  0  0  0  0  0  0  0
  152.6519  139.3726  154.6404 H   0  0  0  0  0  0  0  0  0  0  0  0
  150.7450  138.7209  153.3779 H   0  0  0  0  0  0  0  0  0  0  0  0
  149.6517  139.4568  154.5447 H   0  0  0  0  0  0  0  0  0  0  0  0
  148.2074  135.3599  153.0209 H   0  0  0  0  0  0  0  0  0  0  0  0
  145.5172  134.1873  153.5249 H   0  0  0  0  0  0  0  0  0  0  0  0
  144.7345  135.3068  151.4597 H   0  0  0  0  0  0  0  0  0  0  0  0
  146.3357  135.9886  151.1889 H   0  0  0  0  0  0  0  0  0  0  0  0
  145.3715  136.5041  152.5693 H   0  0  0  0  0  0  0  0  0  0  0  0
  147.5177  133.6225  151.3128 H   0  0  0  0  0  0  0  0  0  0  0  0
  148.1892  132.4774  153.3904 H   0  0  0  0  0  0  0  0  0  0  0  0
  147.5821  131.3058  152.2345 H   0  0  0  0  0  0  0  0  0  0  0  0
  146.5704  131.8110  153.5846 H   0  0  0  0  0  0  0  0  0  0  0  0
  146.5082  131.2560  149.9571 H   0  0  0  0  0  0  0  0  0  0  0  0
  142.6635  132.7267  150.1635 H   0  0  0  0  0  0  0  0  0  0  0  0
  1  2  1  0  0  0  0
  1 22  1  0  0  0  0
  1 23  1  0  0  0  0
  1 24  1  0  0  0  0
  2  3  1  0  0  0  0
  2 25  1  0  0  0  0
  2 26  1  0  0  0  0
  3  4  1  0  0  0  0
  3 10  1  0  0  0  0
  3 27  1  0  0  0  0
  4  5  1  0  0  0  0
  5  9  1  0  0  0  0
  5  6  1  0  0  0  0
  5 28  1  0  0  0  0
  6  7  1  0  0  0  0
  6 29  1  0  0  0  0
  6 30  1  0  0  0  0
  7  8  1  0  0  0  0
  7 31  1  0  0  0  0
  7 32  1  0  0  0  0
  8  9  1  0  0  0  0
  8 33  1  0  0  0  0
  8 34  1  0  0  0  0
  9 35  1  0  0  0  0
  9 36  1  0  0  0  0
 10 11  2  0  0  0  0
 10 12  1  0  0  0  0
 12 13  1  0  0  0  0
 12 37  1  0  0  0  0
 13 14  1  0  0  0  0
 13 15  1  0  0  0  0
 13 38  1  0  0  0  0
 14 39  1  0  0  0  0
 14 40  1  0  0  0  0
 14 41  1  0  0  0  0
 15 16  1  0  0  0  0
 15 17  1  0  0  0  0
 15 42  1  0  0  0  0
 16 43  1  0  0  0  0
 16 44  1  0  0  0  0
 16 45  1  0  0  0  0
 17 21  1  0  0  0  0
 17 18  1  0  0  0  0
 18 19  2  0  0  0  0
 18 46  1  0  0  0  0
 19 20  1  0  0  0  0
 20 21  2  0  0  0  0
 20 47  1  0  0  0  0
M  END
> <s_m_source_file>
AV-unprocessed.smi

> <i_m_source_file_index>
2902

> <i_lp_mmshare_version>
43012

> <i_f3d_flags>
0

> <s_epik_input>
W0NIMl0xW0NIMl1bQ0gyXVtDSDJdW0NIXTFPW0NAQEhdKFtDSDJdW0NIM10pQyg9TylbTkhdW0NASF0oW0NIM10pW0NASF0oW0NIM10pbjJbY0hdbltjSF1uMg==

> <s_epik_cmdline>
J2VwaWtfcHl0aG9uJywgJy1waCcsICc3LjAnLCAnLXRuJywgJzgnLCAnLW1hJywgJzIwMCcsICctbWV0YWxfYmluZGluZycsICctaW1hZScsICc8aW5maWxlLm1hZT4nLCAnLW9tYWUnLCAnPG91dGZpbGUubWFlPic=

> <r_lp_tautomer_probability>
1

> <r_epik_Ionization_Penalty>
6.95617e-05

> <r_epik_Ionization_Penalty_Charging>
0

> <r_epik_Ionization_Penalty_Neutral>
6.95617e-05

> <r_epik_State_Penalty>
-0

> <r_epik_Charging_Adjusted_Penalty>
0

> <i_epik_Tot_Q>
0

> <i_epik_Tot_abs_Q>
0

> <r_epik_Metal_State_Penalty>
-0

> <b_epik_Metal_Only>
0

> <s_lp_Force_Field>
OPLS_2005

> <r_lp_Energy>
30.3462

> <b_lp_Chiralities_Consistent>
1

> <s_lp_Variant>
AV-unprocessed.smi:2902-8

> <Gold.Version>
5.8.1

> <Gold.Id.Protein>
6NUR|6NUR_protein|mol2

> <Gold.PLP.Fitness>
41.2623

> <Gold.PLP.PLP>
-31.6633

> <Gold.PLP.part.hbond>
-1.8251

> <Gold.PLP.part.metal>
0.0000

> <Gold.PLP.part.buried>
-3.0353

> <Gold.PLP.part.nonpolar>
-28.0987

> <Gold.PLP.part.repulsive>
0.4574

> <Gold.PLP.ligand.clash>
0.0000

> <Gold.PLP.ligand.torsion>
0.2951

> <Gold.PLP.Chemscore.Hbond>
1.3328

> <Gold.PLP.Chemscore.CHOScore>
1.9994

> <Gold.PLP.Chemscore.Metal>
0.0000

> <Gold.Chemscore.Hbonds>
donor molecule, donor type, donor heavy atom, donor atom, acceptor molecule, acceptor atom, score
      L1  H    12    37       P1  7948  1.00
      P1  H 10785 10796       L1    19  0.36
      L1  C    18    46       P1 10747  1.00
      L1  C    20    47       P1 10186  1.00

> <Gold.PLP.Chemscore.Internal.Correction>
0.1928

> <Gold.Rescore>
     Score         DG    S(hbond)    S(metal)    S(lipo)     H(rot)  DE(clash)    DE(int)     intcor
      9.53     -11.39       1.60        0.00      63.89       2.69       0.01       1.85       ----

> <Gold.Chemscore.Fitness>
9.5269

> <Gold.Chemscore.DG>
-11.3877

> <Gold.Chemscore.ZeroCoef>
-5.4800

> <Gold.Chemscore.Hbond>
1.5950

> <Gold.Chemscore.Metal>
0.0000

> <Gold.Chemscore.Lipo>
63.8947

> <Gold.Chemscore.Internal_Hbond>
0.0000

> <Gold.Chemscore.DEClash>
0.0126

> <Gold.Chemscore.DEInternal>
1.8483

> <Gold.Chemscore.Rot>
2.6935

> <Gold.Chemscore.Internal.Correction>
   9.000000E+99

> <Gold.Chemscore.Hbonds>
donor molecule, donor type, donor heavy atom, donor atom, acceptor molecule, acceptor atom, score
      L1  H    12    37       P1  7948  0.96
      P1  H 10785 10796       L1    19  0.31

> <Gold.Chemscore.Hbond.Weighted>
-5.3274

> <Gold.Chemscore.Metal.Weighted>
-0.0000

> <Gold.Chemscore.Lipo.Weighted>
-7.4757

> <Gold.Chemscore.Internal_Hbond.Weighted>
0.0000

> <Gold.Chemscore.DEClash.Weighted>
0.0126

> <Gold.Chemscore.DEInternal.Weighted>
1.8483

> <Gold.Chemscore.Rot.Weighted>
6.8954

> <Gold.Chemscore.Internal.Correction.Weighted>
   9.000000E+99

> <Gold.Protein.RotatedTorsions>
[ 6907 6896 6895 6894 ] final   55.16 input  -60.11 | X-H torsion
[ 7974 7965 7964 7962 ] final  -50.79 input  175.53 | X-H torsion
[ 8008 7997 7996 7995 ] final   42.75 input   59.86 | X-H torsion
[ 10167 10162 10161 10158 ] final  -99.48 input  -65.29 | X-H torsion
[ 10718 10713 10712 10709 ] final   16.91 input   66.30 | X-H torsion
[ 10763 10752 10751 10750 ] final   42.35 input  -60.55 | X-H torsion
[ 11005 11000 10999 10996 ] final -150.20 input  -57.11 | X-H torsion

> <Gold.Protein.ActiveResidues>
 VAL166  LYS551  ARG553  GLY616  TRP617  ASP618  TYR619  PRO620  LYS621  CYS622 
 ASP623  PHE694  ASN695  SER759  ASP760  ASP761  ALA762  ILE779  LEU786  VAL792 
 PHE793  MET794  SER795  GLU796  ALA797  LYS798  CYS799  TRP800  GLU811  SER814 

> <Gold.Protein.RotatedAtoms>
  152.3511  134.7004  160.0235 H   0  0  0  0  0  0  0  0  0  0  0  0  # atno 6907 bound_to 6896
  151.7357  133.3314  159.3360 H   0  0  0  0  0  0  0  0  0  0  0  0  # atno 6908 bound_to 6896
  150.7541  134.6257  159.6204 H   0  0  0  0  0  0  0  0  0  0  0  0  # atno 6909 bound_to 6896
  145.9260  140.7791  142.9623 H   0  0  0  0  0  0  0  0  0  0  0  0  # atno 7974 bound_to 7965
  155.2913  140.3379  155.4252 H   0  0  0  0  0  0  0  0  0  0  0  0  # atno 8008 bound_to 7997
  156.2044  140.1745  156.7870 H   0  0  0  0  0  0  0  0  0  0  0  0  # atno 8009 bound_to 7997
  154.5602  140.0689  156.8791 H   0  0  0  0  0  0  0  0  0  0  0  0  # atno 8010 bound_to 7997
  140.2620  143.3401  152.0617 H   0  0  0  0  0  0  0  0  0  0  0  0  # atno 10167 bound_to 10162
  157.0746  130.6362  149.5813 H   0  0  0  0  0  0  0  0  0  0  0  0  # atno 10718 bound_to 10713
  152.9885  135.6134  154.2935 H   0  0  0  0  0  0  0  0  0  0  0  0  # atno 10763 bound_to 10752
  154.2659  135.2781  155.2760 H   0  0  0  0  0  0  0  0  0  0  0  0  # atno 10764 bound_to 10752
  154.5165  135.5827  153.6703 H   0  0  0  0  0  0  0  0  0  0  0  0  # atno 10765 bound_to 10752
  140.7427  134.3496  157.5144 H   0  0  0  0  0  0  0  0  0  0  0  0  # atno 11005 bound_to 11000
  144.6758  140.2052  143.7383 LP  0  0  0  0  0  0  0  0  0  0  0  0  # atno 17320 bound_to 7965
  145.8488  139.2165  143.1784 LP  0  0  0  0  0  0  0  0  0  0  0  0  # atno 17321 bound_to 7965
  139.5014  144.6713  151.6236 LP  0  0  0  0  0  0  0  0  0  0  0  0  # atno 17342 bound_to 10162
  140.5959  143.9698  150.6354 LP  0  0  0  0  0  0  0  0  0  0  0  0  # atno 17343 bound_to 10162
  155.9941  130.5003  150.7405 LP  0  0  0  0  0  0  0  0  0  0  0  0  # atno 17370 bound_to 10713
  157.4850  131.0906  151.0493 LP  0  0  0  0  0  0  0  0  0  0  0  0  # atno 17371 bound_to 10713
  139.8803  134.9091  156.2983 LP  0  0  0  0  0  0  0  0  0  0  0  0  # atno 17394 bound_to 11000
  140.9822  133.7260  156.0689 LP  0  0  0  0  0  0  0  0  0  0  0  0  # atno 17395 bound_to 11000

$$$$
