AV-unprocessed.smi:72|AV-procd|sdf|705|dock9
  -GOLD-   2262017 23D 1   1.00000     0.00000
 Structure written by MMmdl.
 30 31  0  0  0  0  0  0  0  0  2 V2000
  150.3957  144.8849  158.5574 N   0  0  0  0  0  0  0  0  0  0  0  0
  150.9560  143.6409  158.3537 C   0  0  0  0  0  0  0  0  0  0  0  0
  150.5952  142.9529  157.2089 N   0  3  0  0  0  0  0  0  0  0  0  0
  151.0485  141.7403  156.8625 C   0  0  0  0  0  0  0  0  0  0  0  0
  151.9053  141.1275  157.6542 N   0  0  0  0  0  0  0  0  0  0  0  0
  152.4535  139.7591  157.3269 C   0  0  2  0  0  0  0  0  0  0  0  0
  152.6123  139.6635  155.9433 O   0  0  0  0  0  0  0  0  0  0  0  0
  151.6119  138.8127  155.3916 C   0  0  1  0  0  0  0  0  0  0  0  0
  152.0454  138.2559  154.0247 C   0  0  0  0  0  0  0  0  0  0  0  0
  151.4563  136.9904  153.8145 O   0  0  0  0  0  0  0  0  0  0  0  0
  151.4035  137.7723  156.4982 C   0  0  1  0  0  0  0  0  0  0  0  0
  152.4159  136.7827  156.4688 O   0  0  0  0  0  0  0  0  0  0  0  0
  151.5149  138.6088  157.7661 C   0  0  2  0  0  0  0  0  0  0  0  0
  150.2240  139.0417  158.1620 O   0  0  0  0  0  0  0  0  0  0  0  0
  152.3326  141.7534  158.8537 C   0  0  0  0  0  0  0  0  0  0  0  0
  153.1255  141.1851  159.6037 O   0  0  0  0  0  0  0  0  0  0  0  0
  151.8047  143.0236  159.1280 N   0  0  0  0  0  0  0  0  0  0  0  0
  153.4439  139.7151  157.7831 H   0  0  0  0  0  0  0  0  0  0  0  0
  150.6819  139.3737  155.2848 H   0  0  0  0  0  0  0  0  0  0  0  0
  150.4397  137.2690  156.4081 H   0  0  0  0  0  0  0  0  0  0  0  0
  151.9651  138.0588  158.5937 H   0  0  0  0  0  0  0  0  0  0  0  0
  150.6017  145.4584  159.3634 H   0  0  0  0  0  0  0  0  0  0  0  0
  149.7392  145.3197  157.9250 H   0  0  0  0  0  0  0  0  0  0  0  0
  150.7029  141.2930  155.9404 H   0  0  0  0  0  0  0  0  0  0  0  0
  151.7815  138.9355  153.2137 H   0  0  0  0  0  0  0  0  0  0  0  0
  153.1270  138.1205  153.9999 H   0  0  0  0  0  0  0  0  0  0  0  0
  151.0755  136.9758  152.9494 H   0  0  0  0  0  0  0  0  0  0  0  0
  153.1518  137.0869  156.9779 H   0  0  0  0  0  0  0  0  0  0  0  0
  149.6068  138.3499  157.9763 H   0  0  0  0  0  0  0  0  0  0  0  0
  149.9391  143.4031  156.5867 H   0  0  0  0  0  0  0  0  0  0  0  0
  1  2  1  0  0  0  0
  1 22  1  0  0  0  0
  1 23  1  0  0  0  0
  2 17  2  0  0  0  0
  2  3  1  0  0  0  0
  3  4  2  0  0  0  0
  3 30  1  0  0  0  0
  4  5  1  0  0  0  0
  4 24  1  0  0  0  0
  5  6  1  0  0  0  0
  5 15  1  0  0  0  0
  6 18  1  0  0  0  0
  6 13  1  0  0  0  0
  6  7  1  0  0  0  0
  7  8  1  0  0  0  0
  8 19  1  0  0  0  0
  8  9  1  0  0  0  0
  8 11  1  0  0  0  0
  9 10  1  0  0  0  0
  9 25  1  0  0  0  0
  9 26  1  0  0  0  0
 10 27  1  0  0  0  0
 11 20  1  0  0  0  0
 11 12  1  0  0  0  0
 11 13  1  0  0  0  0
 12 28  1  0  0  0  0
 13 21  1  0  0  0  0
 13 14  1  0  0  0  0
 14 29  1  0  0  0  0
 15 16  2  0  0  0  0
 15 17  1  0  0  0  0
M  CHG  1   3   1
M  END
> <s_m_source_file>
AV-unprocessed.smi

> <i_m_source_file_index>
72

> <i_lp_mmshare_version>
43012

> <i_f3d_flags>
0

> <s_epik_input>
W05IMl1jMW5bY0hdbihjKD1PKW4xKVtDQEBIXTJPW0NASF0oW0NIMl1bT0hdKVtDQEBIXShbT0hdKVtDQEhdMltPSF0=

> <s_epik_cmdline>
J2VwaWtfcHl0aG9uJywgJy1waCcsICc3LjAnLCAnLXRuJywgJzgnLCAnLW1hJywgJzIwMCcsICctbWV0YWxfYmluZGluZycsICctaW1hZScsICc8aW5maWxlLm1hZT4nLCAnLW9tYWUnLCAnPG91dGZpbGUubWFlPic=

> <r_lp_tautomer_probability>
4.77166e-05

> <r_epik_Ionization_Penalty>
0.104979

> <r_epik_Ionization_Penalty_Charging>
0.0999619

> <r_epik_Ionization_Penalty_Neutral>
0.00501745

> <r_epik_State_Penalty>
2.51541

> <r_epik_Charging_Adjusted_Penalty>
2.61537

> <i_epik_Tot_Q>
1

> <i_epik_Tot_abs_Q>
1

> <r_epik_Metal_State_Penalty>
3.53763

> <b_epik_Metal_Only>
0

> <s_epik_Chemistry_Notes>
This compound contains an acetal/aminal-like group ( X-CH(R)-Y where X, Y are N, S, or O) that may be acid/base labile, releasing an aldehyde.

> <s_lp_Force_Field>
OPLS_2005

> <r_lp_Energy>
35.1753

> <b_lp_Chiralities_Consistent>
1

> <s_lp_Variant>
AV-unprocessed.smi:72-43

> <Gold.Version>
5.8.1

> <Gold.Id.Protein>
6NUR|6NUR_protein|mol2

> <Gold.PLP.Fitness>
41.4343

> <Gold.PLP.PLP>
-23.9197

> <Gold.PLP.part.hbond>
-6.4048

> <Gold.PLP.part.metal>
0.0000

> <Gold.PLP.part.buried>
-5.6543

> <Gold.PLP.part.nonpolar>
-12.0378

> <Gold.PLP.part.repulsive>
0.1828

> <Gold.PLP.ligand.clash>
0.0000

> <Gold.PLP.ligand.torsion>
1.0182

> <Gold.PLP.Chemscore.Hbond>
6.4857

> <Gold.PLP.Chemscore.CHOScore>
0.0000

> <Gold.PLP.Chemscore.Metal>
0.0000

> <Gold.Chemscore.Hbonds>
donor molecule, donor type, donor heavy atom, donor atom, acceptor molecule, acceptor atom, score
      L1  H     1    23       P1  8029  0.79
      L1  H     3    30       P1  8028  2.00
      L1  H    10    27       P1  7949  0.77
      P1  H  7997  8008       L1     7  0.70
      P1  H 10752 10764       L1    10  0.33
      P1  H 10752 10765       L1    12  0.52

> <Gold.PLP.Chemscore.Internal.Correction>
0.0938

> <Gold.Rescore>
     Score         DG    S(hbond)    S(metal)    S(lipo)     H(rot)  DE(clash)    DE(int)     intcor
      7.33      -8.41       3.14        0.00      24.60       4.08       0.18       0.91       ----

> <Gold.Chemscore.Fitness>
7.3253

> <Gold.Chemscore.DG>
-8.4130

> <Gold.Chemscore.ZeroCoef>
-5.4800

> <Gold.Chemscore.Hbond>
3.1422

> <Gold.Chemscore.Metal>
0.0000

> <Gold.Chemscore.Lipo>
24.6013

> <Gold.Chemscore.Internal_Hbond>
0.0000

> <Gold.Chemscore.DEClash>
0.1819

> <Gold.Chemscore.DEInternal>
0.9058

> <Gold.Chemscore.Rot>
4.0783

> <Gold.Chemscore.Internal.Correction>
   9.000000E+99

> <Gold.Chemscore.Hbonds>
donor molecule, donor type, donor heavy atom, donor atom, acceptor molecule, acceptor atom, score
      L1  H     1    23       P1  8029  0.11
      L1  H     3    30       P1  8028  0.99
      L1  H    10    27       P1  7949  0.26
      P1  H  7997  8008       L1     7  0.07
      P1  H 10752 10764       L1    10  0.05
      P1  H 10752 10765       L1    12  0.06

> <Gold.Chemscore.Hbond.Weighted>
-10.4950

> <Gold.Chemscore.Metal.Weighted>
-0.0000

> <Gold.Chemscore.Lipo.Weighted>
-2.8783

> <Gold.Chemscore.Internal_Hbond.Weighted>
0.0000

> <Gold.Chemscore.DEClash.Weighted>
0.1819

> <Gold.Chemscore.DEInternal.Weighted>
0.9058

> <Gold.Chemscore.Rot.Weighted>
10.4404

> <Gold.Chemscore.Internal.Correction.Weighted>
   9.000000E+99

> <Gold.Protein.RotatedTorsions>
[ 6907 6896 6895 6894 ] final -134.09 input  -60.11 | X-H torsion
[ 7974 7965 7964 7962 ] final  115.21 input  175.53 | X-H torsion
[ 8008 7997 7996 7995 ] final  -19.93 input   59.86 | X-H torsion
[ 10167 10162 10161 10158 ] final  -27.82 input  -65.29 | X-H torsion
[ 10718 10713 10712 10709 ] final  -11.14 input   66.30 | X-H torsion
[ 10763 10752 10751 10750 ] final -121.90 input  -60.55 | X-H torsion
[ 11005 11000 10999 10996 ] final   18.30 input  -57.11 | X-H torsion

> <Gold.Protein.ActiveResidues>
 VAL166  LYS551  ARG553  GLY616  TRP617  ASP618  TYR619  PRO620  LYS621  CYS622 
 ASP623  PHE694  ASN695  SER759  ASP760  ASP761  ALA762  ILE779  LEU786  VAL792 
 PHE793  MET794  SER795  GLU796  ALA797  LYS798  CYS799  TRP800  GLU811  SER814 

> <Gold.Protein.RotatedAtoms>
  150.9818  133.6238  159.2721 H   0  0  0  0  0  0  0  0  0  0  0  0  # atno 6907 bound_to 6896
  151.3490  135.0879  159.9406 H   0  0  0  0  0  0  0  0  0  0  0  0  # atno 6908 bound_to 6896
  152.5218  133.9414  159.7682 H   0  0  0  0  0  0  0  0  0  0  0  0  # atno 6909 bound_to 6896
  145.1948  139.2982  143.4349 H   0  0  0  0  0  0  0  0  0  0  0  0  # atno 7974 bound_to 7965
  154.4803  140.2075  155.9779 H   0  0  0  0  0  0  0  0  0  0  0  0  # atno 8008 bound_to 7997
  156.1155  140.3222  155.8102 H   0  0  0  0  0  0  0  0  0  0  0  0  # atno 8009 bound_to 7997
  155.4560  140.0520  157.2987 H   0  0  0  0  0  0  0  0  0  0  0  0  # atno 8010 bound_to 7997
  140.7274  143.4061  151.1183 H   0  0  0  0  0  0  0  0  0  0  0  0  # atno 10167 bound_to 10162
  156.6634  130.4988  149.6023 H   0  0  0  0  0  0  0  0  0  0  0  0  # atno 10718 bound_to 10713
  154.8678  135.4151  154.2695 H   0  0  0  0  0  0  0  0  0  0  0  0  # atno 10763 bound_to 10752
  153.3608  135.7003  153.6719 H   0  0  0  0  0  0  0  0  0  0  0  0  # atno 10764 bound_to 10752
  153.5621  135.3608  155.2776 H   0  0  0  0  0  0  0  0  0  0  0  0  # atno 10765 bound_to 10752
  140.4263  134.1466  155.7677 H   0  0  0  0  0  0  0  0  0  0  0  0  # atno 11005 bound_to 11000
  146.3429  140.2173  142.8591 LP  0  0  0  0  0  0  0  0  0  0  0  0  # atno 17320 bound_to 7965
  145.0005  140.8628  143.5284 LP  0  0  0  0  0  0  0  0  0  0  0  0  # atno 17321 bound_to 7965
  139.7688  143.8525  152.3116 LP  0  0  0  0  0  0  0  0  0  0  0  0  # atno 17342 bound_to 10162
  139.8437  144.7198  150.9300 LP  0  0  0  0  0  0  0  0  0  0  0  0  # atno 17343 bound_to 10162
  156.1994  130.6610  151.1150 LP  0  0  0  0  0  0  0  0  0  0  0  0  # atno 17370 bound_to 10713
  157.7102  131.0738  150.6527 LP  0  0  0  0  0  0  0  0  0  0  0  0  # atno 17371 bound_to 10713
  141.1764  133.8506  157.1408 LP  0  0  0  0  0  0  0  0  0  0  0  0  # atno 17394 bound_to 11000
  140.0165  134.9965  157.0504 LP  0  0  0  0  0  0  0  0  0  0  0  0  # atno 17395 bound_to 11000

$$$$
