AV-unprocessed.smi:2446|AV-procd|sdf|9644|dock2
  -GOLD-   2272013273D 1   1.00000     0.00000
 Structure written by MMmdl.
 39 40  0  0  0  0  0  0  0  0  1 V2000
  150.9949  137.3924  154.4515 C   0  0  0  0  0  0  0  0  0  0  0  0
  150.3772  138.7700  154.6198 C   0  0  0  0  0  0  0  0  0  0  0  0
  151.1504  139.8290  155.1421 C   0  0  0  0  0  0  0  0  0  0  0  0
  150.6765  141.0784  155.3263 N   0  0  0  0  0  0  0  0  0  0  0  0
  149.3914  141.3187  154.9953 C   0  0  0  0  0  0  0  0  0  0  0  0
  148.5306  140.3375  154.4656 C   0  0  0  0  0  0  0  0  0  0  0  0
  149.0330  139.0302  154.2579 C   0  0  0  0  0  0  0  0  0  0  0  0
  148.2490  137.9597  153.7435 N   0  0  0  0  0  0  0  0  0  0  0  0
  146.9576  137.6564  153.9808 C   0  0  0  0  0  0  0  0  0  0  0  0
  146.2177  138.2754  154.7421 O   0  0  0  0  0  0  0  0  0  0  0  0
  146.5063  136.5949  153.2877 N   0  0  0  0  0  0  0  0  0  0  0  0
  145.1686  135.9923  153.2992 C   0  0  1  0  0  0  0  0  0  0  0  0
  144.2601  136.7049  152.2794 C   0  0  0  0  0  0  0  0  0  0  0  0
  144.6541  136.3861  150.8273 C   0  0  0  0  0  0  0  0  0  0  0  0
  144.6869  134.8710  150.5751 C   0  0  0  0  0  0  0  0  0  0  0  0
  145.6290  134.1492  151.5613 C   0  0  2  0  0  0  0  0  0  0  0  0
  145.6815  132.6293  151.3032 C   0  0  0  0  0  0  0  0  0  0  0  0
  146.4923  132.0274  152.1737 F   0  0  0  0  0  0  0  0  0  0  0  0
  144.4615  132.1042  151.4165 F   0  0  0  0  0  0  0  0  0  0  0  0
  146.1234  132.3918  150.0681 F   0  0  0  0  0  0  0  0  0  0  0  0
  145.2228  134.4736  153.0167 C   0  0  0  0  0  0  0  0  0  0  0  0
  152.0227  137.3726  154.8151 H   0  0  0  0  0  0  0  0  0  0  0  0
  151.0031  137.1053  153.3998 H   0  0  0  0  0  0  0  0  0  0  0  0
  150.4265  136.6479  155.0097 H   0  0  0  0  0  0  0  0  0  0  0  0
  152.1811  139.6710  155.4238 H   0  0  0  0  0  0  0  0  0  0  0  0
  149.0342  142.3237  155.1640 H   0  0  0  0  0  0  0  0  0  0  0  0
  147.5093  140.6053  154.2444 H   0  0  0  0  0  0  0  0  0  0  0  0
  148.7053  137.3950  153.0425 H   0  0  0  0  0  0  0  0  0  0  0  0
  147.1766  136.1462  152.6801 H   0  0  0  0  0  0  0  0  0  0  0  0
  144.7289  136.1496  154.2856 H   0  0  0  0  0  0  0  0  0  0  0  0
  143.2276  136.3934  152.4428 H   0  0  0  0  0  0  0  0  0  0  0  0
  144.2797  137.7830  152.4438 H   0  0  0  0  0  0  0  0  0  0  0  0
  143.9505  136.8592  150.1418 H   0  0  0  0  0  0  0  0  0  0  0  0
  145.6320  136.8153  150.6059 H   0  0  0  0  0  0  0  0  0  0  0  0
  143.6778  134.4668  150.6642 H   0  0  0  0  0  0  0  0  0  0  0  0
  145.0031  134.6837  149.5486 H   0  0  0  0  0  0  0  0  0  0  0  0
  146.6361  134.5368  151.4003 H   0  0  0  0  0  0  0  0  0  0  0  0
  145.9058  133.9857  153.7119 H   0  0  0  0  0  0  0  0  0  0  0  0
  144.2404  134.0445  153.2178 H   0  0  0  0  0  0  0  0  0  0  0  0
  1  2  1  0  0  0  0
  1 22  1  0  0  0  0
  1 23  1  0  0  0  0
  1 24  1  0  0  0  0
  2  7  1  0  0  0  0
  2  3  2  0  0  0  0
  3  4  1  0  0  0  0
  3 25  1  0  0  0  0
  4  5  2  0  0  0  0
  5  6  1  0  0  0  0
  5 26  1  0  0  0  0
  6  7  2  0  0  0  0
  6 27  1  0  0  0  0
  7  8  1  0  0  0  0
  8  9  1  0  0  0  0
  8 28  1  0  0  0  0
  9 10  2  0  0  0  0
  9 11  1  0  0  0  0
 11 12  1  0  0  0  0
 11 29  1  0  0  0  0
 12 21  1  0  0  0  0
 12 13  1  0  0  0  0
 12 30  1  0  0  0  0
 13 14  1  0  0  0  0
 13 31  1  0  0  0  0
 13 32  1  0  0  0  0
 14 15  1  0  0  0  0
 14 33  1  0  0  0  0
 14 34  1  0  0  0  0
 15 16  1  0  0  0  0
 15 35  1  0  0  0  0
 15 36  1  0  0  0  0
 16 17  1  0  0  0  0
 16 21  1  0  0  0  0
 16 37  1  0  0  0  0
 17 18  1  0  0  0  0
 17 19  1  0  0  0  0
 17 20  1  0  0  0  0
 21 38  1  0  0  0  0
 21 39  1  0  0  0  0
M  END
> <s_m_source_file>
AV-unprocessed.smi

> <i_m_source_file_index>
2446

> <i_lp_mmshare_version>
43012

> <i_f3d_flags>
0

> <s_epik_input>
W0NIM11jMVtjSF1uW2NIXVtjSF1jMVtOSF1DKD1PKVtOSF1bQ0BASF0yW0NIMl1bQ0gyXVtDSDJdW0NAQEhdKEMoRikoRilGKVtDSDJdMg==

> <s_epik_cmdline>
J2VwaWtfcHl0aG9uJywgJy1waCcsICc3LjAnLCAnLXRuJywgJzgnLCAnLW1hJywgJzIwMCcsICctbWV0YWxfYmluZGluZycsICctaW1hZScsICc8aW5maWxlLm1hZT4nLCAnLW9tYWUnLCAnPG91dGZpbGUubWFlPic=

> <r_epik_Ionization_Penalty>
0.20168

> <r_epik_Ionization_Penalty_Charging>
0

> <r_epik_Ionization_Penalty_Neutral>
0.20168

> <r_epik_State_Penalty>
0.191514

> <r_epik_Charging_Adjusted_Penalty>
0.191514

> <i_epik_Tot_Q>
0

> <i_epik_Tot_abs_Q>
0

> <r_epik_Metal_State_Penalty>
0.142371

> <b_epik_Metal_Only>
0

> <s_lp_Force_Field>
OPLS_2005

> <r_lp_Energy>
25.5489

> <b_lp_Chiralities_Consistent>
1

> <s_lp_Variant>
AV-unprocessed.smi:2446-4

> <Gold.Version>
5.8.1

> <Gold.Id.Protein>
6NUR|6NUR_protein|mol2

> <Gold.PLP.Fitness>
41.8267

> <Gold.PLP.PLP>
-34.2887

> <Gold.PLP.part.hbond>
-3.0000

> <Gold.PLP.part.metal>
0.0000

> <Gold.PLP.part.buried>
3.3464

> <Gold.PLP.part.nonpolar>
-34.2496

> <Gold.PLP.part.repulsive>
0.1641

> <Gold.PLP.ligand.clash>
0.0000

> <Gold.PLP.ligand.torsion>
0.6836

> <Gold.PLP.Chemscore.Hbond>
1.9600

> <Gold.PLP.Chemscore.CHOScore>
1.0000

> <Gold.PLP.Chemscore.Metal>
0.0000

> <Gold.Chemscore.Hbonds>
donor molecule, donor type, donor heavy atom, donor atom, acceptor molecule, acceptor atom, score
      L1  H     8    28       P1  7948  1.00
      L1  H    11    29       P1  7948  0.94
      L1  C     5    26       P1  8028  1.00

> <Gold.PLP.Chemscore.Internal.Correction>
0.0251

> <Gold.Rescore>
     Score         DG    S(hbond)    S(metal)    S(lipo)     H(rot)  DE(clash)    DE(int)     intcor
     15.73     -18.05       1.96        0.00      73.47       1.00       1.65       0.67       ----

> <Gold.Chemscore.Fitness>
15.7330

> <Gold.Chemscore.DG>
-18.0538

> <Gold.Chemscore.ZeroCoef>
-5.4800

> <Gold.Chemscore.Hbond>
1.9574

> <Gold.Chemscore.Metal>
0.0000

> <Gold.Chemscore.Lipo>
73.4717

> <Gold.Chemscore.Internal_Hbond>
0.0000

> <Gold.Chemscore.DEClash>
1.6496

> <Gold.Chemscore.DEInternal>
0.6711

> <Gold.Chemscore.Rot>
1.0000

> <Gold.Chemscore.Internal.Correction>
   9.000000E+99

> <Gold.Chemscore.Hbonds>
donor molecule, donor type, donor heavy atom, donor atom, acceptor molecule, acceptor atom, score
      L1  H     8    28       P1  7948  1.00
      L1  H    11    29       P1  7948  0.90

> <Gold.Chemscore.Hbond.Weighted>
-6.5376

> <Gold.Chemscore.Metal.Weighted>
-0.0000

> <Gold.Chemscore.Lipo.Weighted>
-8.5962

> <Gold.Chemscore.Internal_Hbond.Weighted>
0.0000

> <Gold.Chemscore.DEClash.Weighted>
1.6496

> <Gold.Chemscore.DEInternal.Weighted>
0.6711

> <Gold.Chemscore.Rot.Weighted>
2.5600

> <Gold.Chemscore.Internal.Correction.Weighted>
   9.000000E+99

> <Gold.Protein.RotatedTorsions>
[ 6907 6896 6895 6894 ] final   17.49 input  -60.11 | X-H torsion
[ 7974 7965 7964 7962 ] final   77.25 input  175.53 | X-H torsion
[ 8008 7997 7996 7995 ] final   33.04 input   59.86 | X-H torsion
[ 10167 10162 10161 10158 ] final  177.34 input  -65.29 | X-H torsion
[ 10718 10713 10712 10709 ] final   89.64 input   66.30 | X-H torsion
[ 10763 10752 10751 10750 ] final  -77.85 input  -60.55 | X-H torsion
[ 11005 11000 10999 10996 ] final  176.10 input  -57.11 | X-H torsion

> <Gold.Protein.ActiveResidues>
 VAL166  LYS551  ARG553  GLY616  TRP617  ASP618  TYR619  PRO620  LYS621  CYS622 
 ASP623  PHE694  ASN695  SER759  ASP760  ASP761  ALA762  ILE779  LEU786  VAL792 
 PHE793  MET794  SER795  GLU796  ALA797  LYS798  CYS799  TRP800  GLU811  SER814 

> <Gold.Protein.RotatedAtoms>
  151.8504  135.0559  160.0458 H   0  0  0  0  0  0  0  0  0  0  0  0  # atno 6907 bound_to 6896
  152.2741  133.5404  159.5465 H   0  0  0  0  0  0  0  0  0  0  0  0  # atno 6908 bound_to 6896
  150.7163  134.0573  159.3861 H   0  0  0  0  0  0  0  0  0  0  0  0  # atno 6909 bound_to 6896
  145.6925  139.2557  143.1752 H   0  0  0  0  0  0  0  0  0  0  0  0  # atno 7974 bound_to 7965
  155.1322  140.3258  155.4471 H   0  0  0  0  0  0  0  0  0  0  0  0  # atno 8008 bound_to 7997
  156.2631  140.2008  156.6389 H   0  0  0  0  0  0  0  0  0  0  0  0  # atno 8009 bound_to 7997
  154.6604  140.0548  157.0043 H   0  0  0  0  0  0  0  0  0  0  0  0  # atno 8010 bound_to 7997
  139.5249  144.2810  152.0547 H   0  0  0  0  0  0  0  0  0  0  0  0  # atno 10167 bound_to 10162
  157.6956  131.0341  150.3457 H   0  0  0  0  0  0  0  0  0  0  0  0  # atno 10718 bound_to 10713
  154.5183  135.5750  153.6660 H   0  0  0  0  0  0  0  0  0  0  0  0  # atno 10763 bound_to 10752
  152.9911  135.6175  154.2788 H   0  0  0  0  0  0  0  0  0  0  0  0  # atno 10764 bound_to 10752
  154.2708  135.2853  155.2719 H   0  0  0  0  0  0  0  0  0  0  0  0  # atno 10765 bound_to 10752
  140.3695  134.7042  157.4383 H   0  0  0  0  0  0  0  0  0  0  0  0  # atno 11005 bound_to 11000
  146.0869  140.7700  142.9614 LP  0  0  0  0  0  0  0  0  0  0  0  0  # atno 17320 bound_to 7965
  144.6992  140.3577  143.7170 LP  0  0  0  0  0  0  0  0  0  0  0  0  # atno 17321 bound_to 7965
  140.2265  144.4413  150.6319 LP  0  0  0  0  0  0  0  0  0  0  0  0  # atno 17342 bound_to 10162
  140.6384  143.2199  151.6344 LP  0  0  0  0  0  0  0  0  0  0  0  0  # atno 17343 bound_to 10162
  156.3912  130.3898  149.7028 LP  0  0  0  0  0  0  0  0  0  0  0  0  # atno 17370 bound_to 10713
  156.4378  130.7846  151.2867 LP  0  0  0  0  0  0  0  0  0  0  0  0  # atno 17371 bound_to 10713
  140.0563  134.6059  155.8801 LP  0  0  0  0  0  0  0  0  0  0  0  0  # atno 17394 bound_to 11000
  141.1959  133.6589  156.5666 LP  0  0  0  0  0  0  0  0  0  0  0  0  # atno 17395 bound_to 11000

$$$$
