AV-unprocessed.smi:2573|AV-procd|sdf|10113|dock4
  -GOLD-   2272014133D 1   1.00000     0.00000
 Structure written by MMmdl.
 38 39  0  0  0  0  0  0  0  0  1 V2000
  155.4205  140.1173  162.0459 C   0  0  0  0  0  0  0  0  0  0  0  0
  154.8991  140.7394  160.7464 C   0  0  0  0  0  0  0  0  0  0  0  0
  153.5110  140.2082  160.3566 C   0  0  0  0  0  0  0  0  0  0  0  0
  152.7960  141.1636  159.5142 N   0  0  0  0  0  0  0  0  0  0  0  0
  152.3667  140.9603  158.2465 C   0  0  0  0  0  0  0  0  0  0  0  0
  152.5163  139.9307  157.5889 O   0  0  0  0  0  0  0  0  0  0  0  0
  151.7393  142.0854  157.8288 N   0  0  0  0  0  0  0  0  0  0  0  0
  151.1148  142.2952  156.5224 C   0  0  0  0  0  0  0  0  0  0  0  0
  149.7254  141.6328  156.4193 C   0  0  1  0  0  0  0  0  0  0  0  0
  148.8265  142.4290  157.1641 O   0  0  0  0  0  0  0  0  0  0  0  0
  149.2183  141.4946  154.9664 C   0  0  0  0  0  0  0  0  0  0  0  0
  147.7295  141.1256  154.8378 C   0  0  0  0  0  0  0  0  0  0  0  0
  147.5051  139.9924  155.5020 F   0  0  0  0  0  0  0  0  0  0  0  0
  146.9679  142.0841  155.3648 F   0  0  0  0  0  0  0  0  0  0  0  0
  147.3850  140.9421  153.5633 F   0  0  0  0  0  0  0  0  0  0  0  0
  151.7579  143.0322  158.8645 C   0  0  0  0  0  0  0  0  0  0  0  0
  151.2487  144.3411  158.9345 C   0  0  0  0  0  0  0  0  0  0  0  0
  151.4382  145.0455  160.1465 C   0  0  0  0  0  0  0  0  0  0  0  0
  152.1147  144.4438  161.2391 C   0  0  0  0  0  0  0  0  0  0  0  0
  152.6197  143.1263  161.1415 C   0  0  0  0  0  0  0  0  0  0  0  0
  152.4212  142.4506  159.9248 C   0  0  0  0  0  0  0  0  0  0  0  0
  156.4057  140.5105  162.2971 H   0  0  0  0  0  0  0  0  0  0  0  0
  155.5079  139.0343  161.9557 H   0  0  0  0  0  0  0  0  0  0  0  0
  154.7532  140.3322  162.8807 H   0  0  0  0  0  0  0  0  0  0  0  0
  154.8600  141.8237  160.8580 H   0  0  0  0  0  0  0  0  0  0  0  0
  155.6092  140.5373  159.9434 H   0  0  0  0  0  0  0  0  0  0  0  0
  153.6047  139.2590  159.8282 H   0  0  0  0  0  0  0  0  0  0  0  0
  152.9262  139.9966  161.2533 H   0  0  0  0  0  0  0  0  0  0  0  0
  151.0226  143.3704  156.3587 H   0  0  0  0  0  0  0  0  0  0  0  0
  151.7675  141.9324  155.7282 H   0  0  0  0  0  0  0  0  0  0  0  0
  149.7620  140.6493  156.8887 H   0  0  0  0  0  0  0  0  0  0  0  0
  148.5288  143.1400  156.6167 H   0  0  0  0  0  0  0  0  0  0  0  0
  149.4196  142.4156  154.4174 H   0  0  0  0  0  0  0  0  0  0  0  0
  149.7902  140.7161  154.4613 H   0  0  0  0  0  0  0  0  0  0  0  0
  150.7360  144.7976  158.1011 H   0  0  0  0  0  0  0  0  0  0  0  0
  151.0626  146.0536  160.2415 H   0  0  0  0  0  0  0  0  0  0  0  0
  152.2470  144.9988  162.1561 H   0  0  0  0  0  0  0  0  0  0  0  0
  153.1355  142.6634  161.9696 H   0  0  0  0  0  0  0  0  0  0  0  0
  1  2  1  0  0  0  0
  1 22  1  0  0  0  0
  1 23  1  0  0  0  0
  1 24  1  0  0  0  0
  2  3  1  0  0  0  0
  2 25  1  0  0  0  0
  2 26  1  0  0  0  0
  3  4  1  0  0  0  0
  3 27  1  0  0  0  0
  3 28  1  0  0  0  0
  4 21  1  0  0  0  0
  4  5  1  0  0  0  0
  5  6  2  0  0  0  0
  5  7  1  0  0  0  0
  7  8  1  0  0  0  0
  7 16  1  0  0  0  0
  8  9  1  0  0  0  0
  8 29  1  0  0  0  0
  8 30  1  0  0  0  0
  9 10  1  0  0  0  0
  9 11  1  0  0  0  0
  9 31  1  0  0  0  0
 10 32  1  0  0  0  0
 11 12  1  0  0  0  0
 11 33  1  0  0  0  0
 11 34  1  0  0  0  0
 12 13  1  0  0  0  0
 12 14  1  0  0  0  0
 12 15  1  0  0  0  0
 16 21  2  0  0  0  0
 16 17  1  0  0  0  0
 17 18  2  0  0  0  0
 17 35  1  0  0  0  0
 18 19  1  0  0  0  0
 18 36  1  0  0  0  0
 19 20  2  0  0  0  0
 19 37  1  0  0  0  0
 20 21  1  0  0  0  0
 20 38  1  0  0  0  0
M  END
> <s_m_source_file>
AV-unprocessed.smi

> <i_m_source_file_index>
2573

> <i_lp_mmshare_version>
43012

> <i_f3d_flags>
0

> <s_epik_input>
W2NIXTFbY0hdW2NIXVtjSF1jKGMxMiluKFtDSDJdW0NIMl1bQ0gzXSljKD1PKW4yW0NIMl1bQ0BIXShbT0hdKVtDSDJdQyhGKShGKUY=

> <s_epik_cmdline>
J2VwaWtfcHl0aG9uJywgJy1waCcsICc3LjAnLCAnLXRuJywgJzgnLCAnLW1hJywgJzIwMCcsICctbWV0YWxfYmluZGluZycsICctaW1hZScsICc8aW5maWxlLm1hZT4nLCAnLW9tYWUnLCAnPG91dGZpbGUubWFlPic=

> <r_lp_tautomer_probability>
1

> <r_epik_Ionization_Penalty>
2.4024e-06

> <r_epik_Ionization_Penalty_Charging>
3.10219e-09

> <r_epik_Ionization_Penalty_Neutral>
2.3993e-06

> <r_epik_State_Penalty>
-0

> <r_epik_Charging_Adjusted_Penalty>
3.10219e-09

> <i_epik_Tot_Q>
0

> <i_epik_Tot_abs_Q>
0

> <r_epik_Metal_State_Penalty>
-0

> <b_epik_Metal_Only>
0

> <s_lp_Force_Field>
OPLS_2005

> <r_lp_Energy>
39.6684

> <b_lp_Chiralities_Consistent>
1

> <s_lp_Variant>
AV-unprocessed.smi:2573-2

> <Gold.Version>
5.8.1

> <Gold.Id.Protein>
6NUR|6NUR_protein|mol2

> <Gold.PLP.Fitness>
52.3866

> <Gold.PLP.PLP>
-47.5300

> <Gold.PLP.part.hbond>
-2.0000

> <Gold.PLP.part.metal>
0.0000

> <Gold.PLP.part.buried>
-5.2206

> <Gold.PLP.part.nonpolar>
-41.0059

> <Gold.PLP.part.repulsive>
0.0000

> <Gold.PLP.ligand.clash>
0.0000

> <Gold.PLP.ligand.torsion>
0.6086

> <Gold.PLP.Chemscore.Hbond>
1.9913

> <Gold.PLP.Chemscore.CHOScore>
0.0000

> <Gold.PLP.Chemscore.Metal>
0.0000

> <Gold.Chemscore.Hbonds>
donor molecule, donor type, donor heavy atom, donor atom, acceptor molecule, acceptor atom, score
      L1  H    10    32       P1  8028  1.00
      P1  H  7997  8010       L1     6  0.84

> <Gold.PLP.Chemscore.Internal.Correction>
0.0999

> <Gold.Rescore>
     Score         DG    S(hbond)    S(metal)    S(lipo)     H(rot)  DE(clash)    DE(int)     intcor
     15.99     -18.20       1.56        0.00     118.47       2.48       0.07       2.14       ----

> <Gold.Chemscore.Fitness>
15.9894

> <Gold.Chemscore.DG>
-18.2039

> <Gold.Chemscore.ZeroCoef>
-5.4800

> <Gold.Chemscore.Hbond>
1.5612

> <Gold.Chemscore.Metal>
0.0000

> <Gold.Chemscore.Lipo>
118.4732

> <Gold.Chemscore.Internal_Hbond>
0.0000

> <Gold.Chemscore.DEClash>
0.0722

> <Gold.Chemscore.DEInternal>
2.1424

> <Gold.Chemscore.Rot>
2.4812

> <Gold.Chemscore.Internal.Correction>
   9.000000E+99

> <Gold.Chemscore.Hbonds>
donor molecule, donor type, donor heavy atom, donor atom, acceptor molecule, acceptor atom, score
      L1  H    10    32       P1  8028  0.67
      P1  H  7997  8010       L1     6  0.49

> <Gold.Chemscore.Hbond.Weighted>
-5.2144

> <Gold.Chemscore.Metal.Weighted>
-0.0000

> <Gold.Chemscore.Lipo.Weighted>
-13.8614

> <Gold.Chemscore.Internal_Hbond.Weighted>
0.0000

> <Gold.Chemscore.DEClash.Weighted>
0.0722

> <Gold.Chemscore.DEInternal.Weighted>
2.1424

> <Gold.Chemscore.Rot.Weighted>
6.3518

> <Gold.Chemscore.Internal.Correction.Weighted>
   9.000000E+99

> <Gold.Protein.RotatedTorsions>
[ 6907 6896 6895 6894 ] final    5.13 input  -60.11 | X-H torsion
[ 7974 7965 7964 7962 ] final -177.83 input  175.53 | X-H torsion
[ 8008 7997 7996 7995 ] final   61.46 input   59.86 | X-H torsion
[ 10167 10162 10161 10158 ] final  111.53 input  -65.29 | X-H torsion
[ 10718 10713 10712 10709 ] final -175.38 input   66.30 | X-H torsion
[ 10763 10752 10751 10750 ] final  -19.17 input  -60.55 | X-H torsion
[ 11005 11000 10999 10996 ] final  -40.15 input  -57.11 | X-H torsion

> <Gold.Protein.ActiveResidues>
 VAL166  LYS551  ARG553  GLY616  TRP617  ASP618  TYR619  PRO620  LYS621  CYS622 
 ASP623  PHE694  ASN695  SER759  ASP760  ASP761  ALA762  ILE779  LEU786  VAL792 
 PHE793  MET794  SER795  GLU796  ALA797  LYS798  CYS799  TRP800  GLU811  SER814 

> <Gold.Protein.RotatedAtoms>
  151.6525  135.0999  160.0163 H   0  0  0  0  0  0  0  0  0  0  0  0  # atno 6907 bound_to 6896
  152.3992  133.6789  159.6311 H   0  0  0  0  0  0  0  0  0  0  0  0  # atno 6908 bound_to 6896
  150.7895  133.8737  159.3307 H   0  0  0  0  0  0  0  0  0  0  0  0  # atno 6909 bound_to 6896
  144.7129  140.0960  143.6419 H   0  0  0  0  0  0  0  0  0  0  0  0  # atno 7974 bound_to 7965
  155.5987  140.3493  155.4587 H   0  0  0  0  0  0  0  0  0  0  0  0  # atno 8008 bound_to 7997
  156.0245  140.1261  157.0348 H   0  0  0  0  0  0  0  0  0  0  0  0  # atno 8009 bound_to 7997
  154.4328  140.1056  156.5997 H   0  0  0  0  0  0  0  0  0  0  0  0  # atno 8010 bound_to 7997
  139.6604  144.7129  151.1876 H   0  0  0  0  0  0  0  0  0  0  0  0  # atno 10167 bound_to 10162
  156.7991  130.9545  151.3119 H   0  0  0  0  0  0  0  0  0  0  0  0  # atno 10718 bound_to 10713
  153.6006  135.6999  153.5386 H   0  0  0  0  0  0  0  0  0  0  0  0  # atno 10763 bound_to 10752
  153.3100  135.4104  155.1327 H   0  0  0  0  0  0  0  0  0  0  0  0  # atno 10764 bound_to 10752
  154.8583  135.3670  154.5542 H   0  0  0  0  0  0  0  0  0  0  0  0  # atno 10765 bound_to 10752
  141.0154  133.6888  156.2282 H   0  0  0  0  0  0  0  0  0  0  0  0  # atno 11005 bound_to 11000
  145.9579  139.2779  143.1173 LP  0  0  0  0  0  0  0  0  0  0  0  0  # atno 17320 bound_to 7965
  145.9253  140.9087  143.0384 LP  0  0  0  0  0  0  0  0  0  0  0  0  # atno 17321 bound_to 7965
  140.7577  143.6004  150.8706 LP  0  0  0  0  0  0  0  0  0  0  0  0  # atno 17342 bound_to 10162
  139.9660  143.6110  152.2988 LP  0  0  0  0  0  0  0  0  0  0  0  0  # atno 17343 bound_to 10162
  157.6563  130.8927  149.9735 LP  0  0  0  0  0  0  0  0  0  0  0  0  # atno 17370 bound_to 10713
  156.1112  130.3650  150.0046 LP  0  0  0  0  0  0  0  0  0  0  0  0  # atno 17371 bound_to 10713
  140.6664  134.4914  157.5585 LP  0  0  0  0  0  0  0  0  0  0  0  0  # atno 17394 bound_to 11000
  139.9114  134.8338  156.1517 LP  0  0  0  0  0  0  0  0  0  0  0  0  # atno 17395 bound_to 11000

$$$$
