AV-unprocessed.smi:2823|AV-procd|sdf|10884|dock3
  -GOLD-   2272015323D 1   1.00000     0.00000
 Structure written by MMmdl.
 42 43  0  0  0  0  0  0  0  0  1 V2000
  144.2706  132.8541  149.7715 C   0  0  0  0  0  0  0  0  0  0  0  0
  144.5616  133.8120  150.8754 C   0  0  0  0  0  0  0  0  0  0  0  0
  143.6138  134.1784  151.7308 N   0  0  0  0  0  0  0  0  0  0  0  0
  144.2781  135.0640  152.5924 O   0  0  0  0  0  0  0  0  0  0  0  0
  145.5553  135.1184  152.1410 C   0  0  0  0  0  0  0  0  0  0  0  0
  146.5603  135.9109  152.7458 N   0  0  0  0  0  0  0  0  0  0  0  0
  146.4514  136.6239  153.8779 C   0  0  0  0  0  0  0  0  0  0  0  0
  145.4370  136.6967  154.5718 O   0  0  0  0  0  0  0  0  0  0  0  0
  147.5996  137.2515  154.1706 N   0  0  0  0  0  0  0  0  0  0  0  0
  147.8419  138.0857  155.3487 C   0  0  0  0  0  0  0  0  0  0  0  0
  148.2098  139.5600  154.9960 C   0  0  0  0  0  0  0  0  0  0  0  0
  149.7550  139.8081  155.0851 C   0  0  0  0  0  0  0  0  0  0  0  0
  150.3254  140.2437  154.0818 O   0  0  0  0  0  0  0  0  0  0  0  0
  150.4747  139.5685  156.2153 N   0  0  0  0  0  0  0  0  0  0  0  0
  151.9277  139.7689  156.2000 C   0  0  0  0  0  0  0  0  0  0  0  0
  149.9841  139.1307  157.5253 C   0  0  0  0  0  0  0  0  0  0  0  0
  147.6035  140.0520  153.6562 C   0  0  0  0  0  0  0  0  0  0  0  0
  147.4518  141.5747  153.7683 C   0  0  0  0  0  0  0  0  0  0  0  0
  147.3558  141.8754  155.2656 C   0  0  0  0  0  0  0  0  0  0  0  0
  147.4412  140.5106  155.9567 C   0  0  0  0  0  0  0  0  0  0  0  0
  145.7922  134.3617  151.0741 N   0  0  0  0  0  0  0  0  0  0  0  0
  143.5110  133.2648  149.1059 H   0  0  0  0  0  0  0  0  0  0  0  0
  143.9047  131.9104  150.1771 H   0  0  0  0  0  0  0  0  0  0  0  0
  145.1689  132.6529  149.1869 H   0  0  0  0  0  0  0  0  0  0  0  0
  147.4511  135.9303  152.2720 H   0  0  0  0  0  0  0  0  0  0  0  0
  148.3771  137.1309  153.5380 H   0  0  0  0  0  0  0  0  0  0  0  0
  146.9494  138.0216  155.9639 H   0  0  0  0  0  0  0  0  0  0  0  0
  148.6249  137.6426  155.9664 H   0  0  0  0  0  0  0  0  0  0  0  0
  152.3914  139.2028  155.3904 H   0  0  0  0  0  0  0  0  0  0  0  0
  152.4027  139.4449  157.1272 H   0  0  0  0  0  0  0  0  0  0  0  0
  152.1666  140.8241  156.0604 H   0  0  0  0  0  0  0  0  0  0  0  0
  148.9087  139.1595  157.6558 H   0  0  0  0  0  0  0  0  0  0  0  0
  150.4027  139.7592  158.3121 H   0  0  0  0  0  0  0  0  0  0  0  0
  150.3068  138.1063  157.7137 H   0  0  0  0  0  0  0  0  0  0  0  0
  148.1664  139.7996  152.7620 H   0  0  0  0  0  0  0  0  0  0  0  0
  146.6153  139.6085  153.5255 H   0  0  0  0  0  0  0  0  0  0  0  0
  148.3257  142.0733  153.3470 H   0  0  0  0  0  0  0  0  0  0  0  0
  146.5775  141.9292  153.2217 H   0  0  0  0  0  0  0  0  0  0  0  0
  148.1873  142.5107  155.5729 H   0  0  0  0  0  0  0  0  0  0  0  0
  146.4327  142.3958  155.5227 H   0  0  0  0  0  0  0  0  0  0  0  0
  146.4246  140.1410  156.1001 H   0  0  0  0  0  0  0  0  0  0  0  0
  147.8698  140.5844  156.9571 H   0  0  0  0  0  0  0  0  0  0  0  0
  1  2  1  0  0  0  0
  1 22  1  0  0  0  0
  1 23  1  0  0  0  0
  1 24  1  0  0  0  0
  2 21  1  0  0  0  0
  2  3  2  0  0  0  0
  3  4  1  0  0  0  0
  4  5  1  0  0  0  0
  5  6  1  0  0  0  0
  5 21  2  0  0  0  0
  6  7  1  0  0  0  0
  6 25  1  0  0  0  0
  7  8  2  0  0  0  0
  7  9  1  0  0  0  0
  9 10  1  0  0  0  0
  9 26  1  0  0  0  0
 10 11  1  0  0  0  0
 10 27  1  0  0  0  0
 10 28  1  0  0  0  0
 11 20  1  0  0  0  0
 11 12  1  0  0  0  0
 11 17  1  0  0  0  0
 12 13  2  0  0  0  0
 12 14  1  0  0  0  0
 14 15  1  0  0  0  0
 14 16  1  0  0  0  0
 15 29  1  0  0  0  0
 15 30  1  0  0  0  0
 15 31  1  0  0  0  0
 16 32  1  0  0  0  0
 16 33  1  0  0  0  0
 16 34  1  0  0  0  0
 17 18  1  0  0  0  0
 17 35  1  0  0  0  0
 17 36  1  0  0  0  0
 18 19  1  0  0  0  0
 18 37  1  0  0  0  0
 18 38  1  0  0  0  0
 19 20  1  0  0  0  0
 19 39  1  0  0  0  0
 19 40  1  0  0  0  0
 20 41  1  0  0  0  0
 20 42  1  0  0  0  0
M  END
> <s_m_source_file>
AV-unprocessed.smi

> <i_m_source_file_index>
2823

> <i_lp_mmshare_version>
43012

> <i_f3d_flags>
0

> <s_epik_input>
W0NIM11jMW5vYyhuMSlbTkhdQyg9TylbTkhdW0NIMl1DMihDKD1PKU4oW0NIM10pW0NIM10pW0NIMl1bQ0gyXVtDSDJdW0NIMl0y

> <s_epik_cmdline>
J2VwaWtfcHl0aG9uJywgJy1waCcsICc3LjAnLCAnLXRuJywgJzgnLCAnLW1hJywgJzIwMCcsICctbWV0YWxfYmluZGluZycsICctaW1hZScsICc8aW5maWxlLm1hZT4nLCAnLW9tYWUnLCAnPG91dGZpbGUubWFlPic=

> <r_lp_tautomer_probability>
1

> <r_epik_Ionization_Penalty>
4.1201e-05

> <r_epik_Ionization_Penalty_Charging>
0

> <r_epik_Ionization_Penalty_Neutral>
4.1201e-05

> <r_epik_State_Penalty>
-0

> <r_epik_Charging_Adjusted_Penalty>
0

> <i_epik_Tot_Q>
0

> <i_epik_Tot_abs_Q>
0

> <r_epik_Metal_State_Penalty>
0.0212056

> <b_epik_Metal_Only>
0

> <s_lp_Force_Field>
OPLS_2005

> <r_lp_Energy>
33.0432

> <b_lp_Chiralities_Consistent>
1

> <s_lp_Variant>
AV-unprocessed.smi:2823-1

> <Gold.Version>
5.8.1

> <Gold.Id.Protein>
6NUR|6NUR_protein|mol2

> <Gold.PLP.Fitness>
31.8323

> <Gold.PLP.PLP>
-24.6133

> <Gold.PLP.part.hbond>
-2.9120

> <Gold.PLP.part.metal>
0.0000

> <Gold.PLP.part.buried>
-5.2708

> <Gold.PLP.part.nonpolar>
-18.1093

> <Gold.PLP.part.repulsive>
1.2861

> <Gold.PLP.ligand.clash>
0.0000

> <Gold.PLP.ligand.torsion>
0.8732

> <Gold.PLP.Chemscore.Hbond>
2.9200

> <Gold.PLP.Chemscore.CHOScore>
0.0000

> <Gold.PLP.Chemscore.Metal>
0.0000

> <Gold.Chemscore.Hbonds>
donor molecule, donor type, donor heavy atom, donor atom, acceptor molecule, acceptor atom, score
      L1  H     6    25       P1  7948  1.00
      L1  H     9    26       P1  7948  0.90
      P1  H  7989  7998       L1    13  0.98

> <Gold.PLP.Chemscore.Internal.Correction>
0.2053

> <Gold.Rescore>
     Score         DG    S(hbond)    S(metal)    S(lipo)     H(rot)  DE(clash)    DE(int)     intcor
     13.66     -15.90       2.92        0.00      43.56       1.74       0.01       2.23       ----

> <Gold.Chemscore.Fitness>
13.6638

> <Gold.Chemscore.DG>
-15.9012

> <Gold.Chemscore.ZeroCoef>
-5.4800

> <Gold.Chemscore.Hbond>
2.9247

> <Gold.Chemscore.Metal>
0.0000

> <Gold.Chemscore.Lipo>
43.5622

> <Gold.Chemscore.Internal_Hbond>
0.0000

> <Gold.Chemscore.DEClash>
0.0108

> <Gold.Chemscore.DEInternal>
2.2266

> <Gold.Chemscore.Rot>
1.7360

> <Gold.Chemscore.Internal.Correction>
   9.000000E+99

> <Gold.Chemscore.Hbonds>
donor molecule, donor type, donor heavy atom, donor atom, acceptor molecule, acceptor atom, score
      L1  H     6    25       P1  7948  0.97
      L1  H     9    26       P1  7948  0.84
      P1  H  7989  7998       L1    13  0.88

> <Gold.Chemscore.Hbond.Weighted>
-9.7687

> <Gold.Chemscore.Metal.Weighted>
-0.0000

> <Gold.Chemscore.Lipo.Weighted>
-5.0968

> <Gold.Chemscore.Internal_Hbond.Weighted>
0.0000

> <Gold.Chemscore.DEClash.Weighted>
0.0108

> <Gold.Chemscore.DEInternal.Weighted>
2.2266

> <Gold.Chemscore.Rot.Weighted>
4.4443

> <Gold.Chemscore.Internal.Correction.Weighted>
   9.000000E+99

> <Gold.Protein.RotatedTorsions>
[ 6907 6896 6895 6894 ] final  -38.77 input  -60.11 | X-H torsion
[ 7974 7965 7964 7962 ] final  -10.66 input  175.53 | X-H torsion
[ 8008 7997 7996 7995 ] final  140.37 input   59.86 | X-H torsion
[ 10167 10162 10161 10158 ] final   12.25 input  -65.29 | X-H torsion
[ 10718 10713 10712 10709 ] final   17.32 input   66.30 | X-H torsion
[ 10763 10752 10751 10750 ] final   39.54 input  -60.55 | X-H torsion
[ 11005 11000 10999 10996 ] final  -83.72 input  -57.11 | X-H torsion

> <Gold.Protein.ActiveResidues>
 VAL166  LYS551  ARG553  GLY616  TRP617  ASP618  TYR619  PRO620  LYS621  CYS622 
 ASP623  PHE694  ASN695  SER759  ASP760  ASP761  ALA762  ILE779  LEU786  VAL792 
 PHE793  MET794  SER795  GLU796  ALA797  LYS798  CYS799  TRP800  GLU811  SER814 

> <Gold.Protein.RotatedAtoms>
  150.9984  134.9302  159.7939 H   0  0  0  0  0  0  0  0  0  0  0  0  # atno 6907 bound_to 6896
  152.5271  134.3187  159.9150 H   0  0  0  0  0  0  0  0  0  0  0  0  # atno 6908 bound_to 6896
  151.3192  133.4005  159.2687 H   0  0  0  0  0  0  0  0  0  0  0  0  # atno 6909 bound_to 6896
  146.2213  140.2797  142.8361 H   0  0  0  0  0  0  0  0  0  0  0  0  # atno 7974 bound_to 7965
  156.2980  140.2343  156.4390 H   0  0  0  0  0  0  0  0  0  0  0  0  # atno 8008 bound_to 7997
  154.8203  140.0438  157.1426 H   0  0  0  0  0  0  0  0  0  0  0  0  # atno 8009 bound_to 7997
  154.9323  140.3018  155.5165 H   0  0  0  0  0  0  0  0  0  0  0  0  # atno 8010 bound_to 7997
  140.6080  143.8468  150.7034 H   0  0  0  0  0  0  0  0  0  0  0  0  # atno 10167 bound_to 10162
  157.0804  130.6385  149.5825 H   0  0  0  0  0  0  0  0  0  0  0  0  # atno 10718 bound_to 10713
  152.9964  135.6217  154.2482 H   0  0  0  0  0  0  0  0  0  0  0  0  # atno 10763 bound_to 10752
  154.2221  135.2795  155.2922 H   0  0  0  0  0  0  0  0  0  0  0  0  # atno 10764 bound_to 10752
  154.5520  135.5730  153.6988 H   0  0  0  0  0  0  0  0  0  0  0  0  # atno 10765 bound_to 10752
  141.1656  133.7309  156.8762 H   0  0  0  0  0  0  0  0  0  0  0  0  # atno 11005 bound_to 11000
  144.9206  140.7863  143.5750 LP  0  0  0  0  0  0  0  0  0  0  0  0  # atno 17320 bound_to 7965
  145.2734  139.1946  143.4829 LP  0  0  0  0  0  0  0  0  0  0  0  0  # atno 17321 bound_to 7965
  140.2030  143.3944  152.1777 LP  0  0  0  0  0  0  0  0  0  0  0  0  # atno 17342 bound_to 10162
  139.5339  144.7189  151.4960 LP  0  0  0  0  0  0  0  0  0  0  0  0  # atno 17343 bound_to 10162
  155.9925  130.4983  150.7343 LP  0  0  0  0  0  0  0  0  0  0  0  0  # atno 17370 bound_to 10713
  157.4805  131.0902  151.0542 LP  0  0  0  0  0  0  0  0  0  0  0  0  # atno 17371 bound_to 10713
  140.1746  134.9076  157.2875 LP  0  0  0  0  0  0  0  0  0  0  0  0  # atno 17394 bound_to 11000
  140.2463  134.3736  155.7460 LP  0  0  0  0  0  0  0  0  0  0  0  0  # atno 17395 bound_to 11000

$$$$
