#       Name:                AV-unprocessed.smi:155
#       Creating user name   scv26
#       Creation time:       Thu Mar 26 18:55:44 2020


#       File generated by GOLD software.
#

@<TRIPOS>MOLECULE
AV-unprocessed.smi:155
    71    74     1
SMALL
NO_CHARGES


@<TRIPOS>ATOM
      1 ****        -6.2312   0.2071  -0.7532 C.3            1 S1                 0.0000
      2 ****        -5.8138   1.1598  -1.8084 N.4            1 S1                 1.0000
      3 ****        -6.3575   2.5137  -1.5574 C.3            1 S1                 0.0000
      4 ****        -4.3457   1.1775  -2.0389 C.3            1 S1                 0.0000
      5 ****        -3.8592  -0.0356  -2.8611 C.3            1 S1                 0.0000
      6 ****        -2.3812  -0.0720  -3.0305 N.4            1 S1                 1.0000
      7 ****        -1.8484   1.1017  -3.7836 C.3            1 S1                 0.0000
      8 ****        -0.4007   0.9356  -4.2891 C.3            1 S1                 0.0000
      9 ****         0.6132   0.5693  -3.1931 C.3            1 S1                 0.0000
     10 ****         0.2469  -0.6263  -2.4322 N.pl3          1 S1                 0.0000
     11 ****         1.1533  -0.9520  -1.4775 C.ar           1 S1                 0.0000
     12 ****         1.8737  -2.0994  -1.5909 N.ar           1 S1                 0.0000
     13 ****         2.7829  -2.4178  -0.6640 C.ar           1 S1                 0.0000
     14 ****         3.1235  -1.7446   0.4370 N.ar           1 S1                 0.0000
     15 ****         2.4001  -0.5950   0.5568 C.ar           1 S1                 0.0000
     16 ****         1.4047  -0.1268  -0.3462 C.ar           1 S1                 0.0000
     17 ****         0.8752   1.0743   0.1119 N.2            1 S1                 0.0000
     18 ****         1.5297   1.3088   1.2172 C.2            1 S1                 0.0000
     19 ****         2.4600   0.3541   1.5607 N.pl3          1 S1                 0.0000
     20 ****         3.3179   0.3562   2.7322 C.3            1 S1                 0.0000
     21 ****         2.8238  -0.6185   3.8225 C.3            1 S1                 0.0000
     22 ****         1.5015  -0.3017   4.2115 O.3            1 S1                 0.0000
     23 ****         3.7155  -0.6697   5.0805 C.3            1 S1                 0.0000
     24 ****         4.9986  -1.4843   4.9053 C.3            1 S1                 0.0000
     25 ****         5.8853  -0.8922   5.9766 C.3            1 S1                 0.0000
     26 ****         5.5173   0.5860   5.9000 C.3            1 S1                 0.0000
     27 ****         4.1597   0.6301   5.4685 O.3            1 S1                 0.0000
     28 ****        -0.4545  -1.7297  -3.0989 C.3            1 S1                 0.0000
     29 ****        -1.8983  -1.3845  -3.5461 C.3            1 S1                 0.0000
     30 ****        -5.7914   0.4717   0.2094 H              1 S1                 0.0000
     31 ****        -5.9376  -0.8139  -0.9936 H              1 S1                 0.0000
     32 ****        -7.3161   0.2120  -0.6407 H              1 S1                 0.0000
     33 ****        -5.9361   2.9425  -0.6471 H              1 S1                 0.0000
     34 ****        -7.4422   2.4808  -1.4491 H              1 S1                 0.0000
     35 ****        -6.1333   3.1838  -2.3882 H              1 S1                 0.0000
     36 ****        -4.0980   2.0897  -2.5821 H              1 S1                 0.0000
     37 ****        -3.8225   1.2343  -1.0830 H              1 S1                 0.0000
     38 ****        -4.1651  -0.9490  -2.3522 H              1 S1                 0.0000
     39 ****        -4.3402  -0.0498  -3.8404 H              1 S1                 0.0000
     40 ****        -2.4909   1.3018  -4.6422 H              1 S1                 0.0000
     41 ****        -1.8963   1.9820  -3.1425 H              1 S1                 0.0000
     42 ****        -0.3593   0.2001  -5.0929 H              1 S1                 0.0000
     43 ****        -0.0852   1.8707  -4.7528 H              1 S1                 0.0000
     44 ****         1.5963   0.4195  -3.6423 H              1 S1                 0.0000
     45 ****         0.7088   1.4166  -2.5146 H              1 S1                 0.0000
     46 ****         3.3141  -3.3439  -0.8283 H              1 S1                 0.0000
     47 ****         1.3465   2.1864   1.8207 H              1 S1                 0.0000
     48 ****         4.3274   0.0970   2.4127 H              1 S1                 0.0000
     49 ****         3.3663   1.3743   3.1205 H              1 S1                 0.0000
     50 ****         2.7764  -1.6239   3.4021 H              1 S1                 0.0000
     51 ****         0.9463  -0.3506   3.4487 H              1 S1                 0.0000
     52 ****         3.1613  -1.0982   5.9178 H              1 S1                 0.0000
     53 ****         4.8399  -2.5562   5.0270 H              1 S1                 0.0000
     54 ****         5.4416  -1.3157   3.9233 H              1 S1                 0.0000
     55 ****         5.6152  -1.2975   6.9526 H              1 S1                 0.0000
     56 ****         6.9467  -1.0774   5.8094 H              1 S1                 0.0000
     57 ****         5.6492   1.0969   6.8539 H              1 S1                 0.0000
     58 ****         6.1319   1.0937   5.1556 H              1 S1                 0.0000
     59 ****         0.1323  -2.0666  -3.9545 H              1 S1                 0.0000
     60 ****        -0.5138  -2.5807  -2.4184 H              1 S1                 0.0000
     61 ****        -2.5449  -2.1888  -3.1936 H              1 S1                 0.0000
     62 ****        -1.9849  -1.4058  -4.6335 H              1 S1                 0.0000
     63 ****        -6.2398   0.8488  -2.6701 H              1 S1                 0.0000
     64 ****        -1.9937  -0.0078  -2.0995 H              1 S1                 0.0000
     65 ****         1.7229  -2.7074  -2.3705 LP             1 S1                 0.0000
     66 ****         3.8192  -2.0445   1.0896 LP             1 S1                 0.0000
     67 ****         0.1582   1.6305  -0.3083 LP             1 S1                 0.0000
     68 ****         1.4735   0.6231   4.5908 LP             1 S1                 0.0000
     69 ****         1.1867  -0.9543   4.9007 LP             1 S1                 0.0000
     70 ****         3.5871   0.9635   6.2174 LP             1 S1                 0.0000
     71 ****         4.0825   1.2507   4.6882 LP             1 S1                 0.0000
@<TRIPOS>BOND
    1    1    2 1     
    2    1   30 1     
    3    1   31 1     
    4    1   32 1     
    5    2    3 1     
    6    2    4 1     
    7    2   63 1     
    8    3   33 1     
    9    3   34 1     
   10    3   35 1     
   11    4    5 1     
   12    4   36 1     
   13    4   37 1     
   14    5    6 1     
   15    5   38 1     
   16    5   39 1     
   17    6   29 1     
   18    6    7 1     
   19    6   64 1     
   20    7    8 1     
   21    7   40 1     
   22    7   41 1     
   23    8    9 1     
   24    8   42 1     
   25    8   43 1     
   26    9   10 1     
   27    9   44 1     
   28    9   45 1     
   29   10   11 1     
   30   10   28 1     
   31   11   16 ar    
   32   11   12 ar    
   33   12   13 ar    
   34   13   14 ar    
   35   13   46 1     
   36   14   15 ar    
   37   15   19 1     
   38   15   16 ar    
   39   16   17 1     
   40   17   18 2     
   41   18   19 1     
   42   18   47 1     
   43   19   20 1     
   44   20   21 1     
   45   20   48 1     
   46   20   49 1     
   47   21   22 1     
   48   21   23 1     
   49   21   50 1     
   50   22   51 1     
   51   23   27 1     
   52   23   24 1     
   53   23   52 1     
   54   24   25 1     
   55   24   53 1     
   56   24   54 1     
   57   25   26 1     
   58   25   55 1     
   59   25   56 1     
   60   26   27 1     
   61   26   57 1     
   62   26   58 1     
   63   28   29 1     
   64   28   59 1     
   65   28   60 1     
   66   29   61 1     
   67   29   62 1     
   68   12   65 1     
   69   14   66 1     
   70   17   67 1     
   71   22   68 1     
   72   22   69 1     
   73   27   70 1     
   74   27   71 1     
@<TRIPOS>SUBSTRUCTURE
      1 S1             1
@<TRIPOS>SET
LONE_PAIRS      STATIC     ATOMS    <user>   **** ""
7 65 66 67 68 69 70 71
DONOR_HYDROGENS      STATIC     ATOMS    <user>   **** ""
3 63 64 51
ATOM$BLUE        STATIC     ATOMS    COLORGROUP SYSTEM
7 65 66 67 68 69 70 71
ATOM$RED        STATIC     ATOMS    COLORGROUP SYSTEM
3 63 64 51
