AV-unprocessed.smi:626|AV-procd|sdf|3111|dock3
  -GOLD-   22720 0 33D 1   1.00000     0.00000
 Structure written by MMmdl.
 34 36  0  0  0  0  0  0  0  0  1 V2000
  147.4662  140.3004  153.2419 C   0  0  0  0  0  0  0  0  0  0  0  0
  148.6651  139.7381  153.8444 N   0  0  0  0  0  0  0  0  0  0  0  0
  149.8023  140.4212  154.0415 C   0  0  0  0  0  0  0  0  0  0  0  0
  149.9448  141.6020  153.7230 O   0  0  0  0  0  0  0  0  0  0  0  0
  150.9564  139.6582  154.6960 C   0  0  0  0  0  0  0  0  0  0  0  0
  151.3338  140.2839  156.0004 C   0  0  0  0  0  0  0  0  0  0  0  0
  152.5040  140.0324  156.5751 N   0  0  0  0  0  0  0  0  0  0  0  0
  152.4676  140.8148  157.7380 O   0  0  0  0  0  0  0  0  0  0  0  0
  151.2563  141.4231  157.7436 C   0  0  0  0  0  0  0  0  0  0  0  0
  150.9679  142.4180  158.8300 C   0  0  2  0  0  0  0  0  0  0  0  0
  150.5736  143.8318  158.3451 C   0  0  0  0  0  0  0  0  0  0  0  0
  151.5277  144.7387  159.1466 C   0  0  2  0  0  0  0  0  0  0  0  0
  152.9549  144.6018  158.5821 C   0  0  0  0  0  0  0  0  0  0  0  0
  153.3867  143.2088  159.0788 C   0  0  0  0  0  0  0  0  0  0  0  0
  152.1272  142.7059  159.8133 C   0  0  1  0  0  0  0  0  0  0  0  0
  151.6421  143.9940  160.4723 C   0  0  0  0  0  0  0  0  0  0  0  0
  150.5273  141.1607  156.6592 N   0  0  0  0  0  0  0  0  0  0  0  0
  146.7164  139.5204  153.1083 H   0  0  0  0  0  0  0  0  0  0  0  0
  147.6844  140.7334  152.2646 H   0  0  0  0  0  0  0  0  0  0  0  0
  147.0417  141.0764  153.8800 H   0  0  0  0  0  0  0  0  0  0  0  0
  148.6267  138.7716  154.1349 H   0  0  0  0  0  0  0  0  0  0  0  0
  150.6873  138.6126  154.8546 H   0  0  0  0  0  0  0  0  0  0  0  0
  151.8161  139.6642  154.0248 H   0  0  0  0  0  0  0  0  0  0  0  0
  150.1312  142.0191  159.4063 H   0  0  0  0  0  0  0  0  0  0  0  0
  150.6919  143.9782  157.2710 H   0  0  0  0  0  0  0  0  0  0  0  0
  149.5318  144.0428  158.5897 H   0  0  0  0  0  0  0  0  0  0  0  0
  151.1860  145.7713  159.2243 H   0  0  0  0  0  0  0  0  0  0  0  0
  152.9776  144.6798  157.4945 H   0  0  0  0  0  0  0  0  0  0  0  0
  153.6113  145.3732  158.9869 H   0  0  0  0  0  0  0  0  0  0  0  0
  153.7132  142.5524  158.2732 H   0  0  0  0  0  0  0  0  0  0  0  0
  154.2206  143.2999  159.7761 H   0  0  0  0  0  0  0  0  0  0  0  0
  152.3281  141.8845  160.5017 H   0  0  0  0  0  0  0  0  0  0  0  0
  152.3710  144.4344  161.1551 H   0  0  0  0  0  0  0  0  0  0  0  0
  150.6880  143.8850  160.9909 H   0  0  0  0  0  0  0  0  0  0  0  0
  1  2  1  0  0  0  0
  1 18  1  0  0  0  0
  1 19  1  0  0  0  0
  1 20  1  0  0  0  0
  2  3  1  0  0  0  0
  2 21  1  0  0  0  0
  3  4  2  0  0  0  0
  3  5  1  0  0  0  0
  5  6  1  0  0  0  0
  5 22  1  0  0  0  0
  5 23  1  0  0  0  0
  6 17  1  0  0  0  0
  6  7  2  0  0  0  0
  7  8  1  0  0  0  0
  8  9  1  0  0  0  0
  9 10  1  0  0  0  0
  9 17  2  0  0  0  0
 10 15  1  0  0  0  0
 10 11  1  0  0  0  0
 10 24  1  0  0  0  0
 11 12  1  0  0  0  0
 11 25  1  0  0  0  0
 11 26  1  0  0  0  0
 12 16  1  0  0  0  0
 12 13  1  0  0  0  0
 12 27  1  0  0  0  0
 13 14  1  0  0  0  0
 13 28  1  0  0  0  0
 13 29  1  0  0  0  0
 14 15  1  0  0  0  0
 14 30  1  0  0  0  0
 14 31  1  0  0  0  0
 15 16  1  0  0  0  0
 15 32  1  0  0  0  0
 16 33  1  0  0  0  0
 16 34  1  0  0  0  0
M  END
> <s_m_source_file>
AV-unprocessed.smi

> <i_m_source_file_index>
626

> <i_lp_mmshare_version>
43012

> <i_f3d_flags>
0

> <s_epik_input>
W0NIM11bTkhdQyg9TylbQ0gyXWMxbm9jKG4xKVtDQEhdKFtDSDJdW0NAQEhdMjMpW0NAQEhdKFtDSDJdMylbQ0gyXVtDSDJdMg==

> <s_epik_cmdline>
J2VwaWtfcHl0aG9uJywgJy1waCcsICc3LjAnLCAnLXRuJywgJzgnLCAnLW1hJywgJzIwMCcsICctbWV0YWxfYmluZGluZycsICctaW1hZScsICc8aW5maWxlLm1hZT4nLCAnLW9tYWUnLCAnPG91dGZpbGUubWFlPic=

> <r_lp_tautomer_probability>
1

> <r_epik_Ionization_Penalty>
1.02916e-07

> <r_epik_Ionization_Penalty_Charging>
0

> <r_epik_Ionization_Penalty_Neutral>
1.02916e-07

> <r_epik_State_Penalty>
-0

> <r_epik_Charging_Adjusted_Penalty>
0

> <i_epik_Tot_Q>
0

> <i_epik_Tot_abs_Q>
0

> <r_epik_Metal_State_Penalty>
-0

> <b_epik_Metal_Only>
0

> <s_lp_Force_Field>
OPLS_2005

> <r_lp_Energy>
49.4755

> <b_lp_Chiralities_Consistent>
1

> <s_lp_Variant>
AV-unprocessed.smi:626-3

> <Gold.Version>
5.8.1

> <Gold.Id.Protein>
6NUR|6NUR_protein|mol2

> <Gold.PLP.Fitness>
40.6363

> <Gold.PLP.PLP>
-35.7167

> <Gold.PLP.part.hbond>
-3.6651

> <Gold.PLP.part.metal>
0.0000

> <Gold.PLP.part.buried>
-0.8732

> <Gold.PLP.part.nonpolar>
-30.7496

> <Gold.PLP.part.repulsive>
1.0280

> <Gold.PLP.ligand.clash>
0.0000

> <Gold.PLP.ligand.torsion>
0.3703

> <Gold.PLP.Chemscore.Hbond>
1.8587

> <Gold.PLP.Chemscore.CHOScore>
0.0000

> <Gold.PLP.Chemscore.Metal>
0.0000

> <Gold.Chemscore.Hbonds>
donor molecule, donor type, donor heavy atom, donor atom, acceptor molecule, acceptor atom, score
      P1  H  7997  8009       L1     7  0.85
      P1  H  8011  8017       L1     4  0.64

> <Gold.PLP.Chemscore.Internal.Correction>
0.0841

> <Gold.Rescore>
     Score         DG    S(hbond)    S(metal)    S(lipo)     H(rot)  DE(clash)    DE(int)     intcor
     12.78     -15.48       1.14        0.00      88.21       1.61       0.46       2.24       ----

> <Gold.Chemscore.Fitness>
12.7796

> <Gold.Chemscore.DG>
-15.4803

> <Gold.Chemscore.ZeroCoef>
-5.4800

> <Gold.Chemscore.Hbond>
1.1397

> <Gold.Chemscore.Metal>
0.0000

> <Gold.Chemscore.Lipo>
88.2072

> <Gold.Chemscore.Internal_Hbond>
0.0000

> <Gold.Chemscore.DEClash>
0.4646

> <Gold.Chemscore.DEInternal>
2.2360

> <Gold.Chemscore.Rot>
1.6119

> <Gold.Chemscore.Internal.Correction>
   9.000000E+99

> <Gold.Chemscore.Hbonds>
donor molecule, donor type, donor heavy atom, donor atom, acceptor molecule, acceptor atom, score
      P1  H  7997  8009       L1     7  0.14
      P1  H  8011  8017       L1     4  0.63

> <Gold.Chemscore.Hbond.Weighted>
-3.8066

> <Gold.Chemscore.Metal.Weighted>
-0.0000

> <Gold.Chemscore.Lipo.Weighted>
-10.3202

> <Gold.Chemscore.Internal_Hbond.Weighted>
0.0000

> <Gold.Chemscore.DEClash.Weighted>
0.4646

> <Gold.Chemscore.DEInternal.Weighted>
2.2360

> <Gold.Chemscore.Rot.Weighted>
4.1266

> <Gold.Chemscore.Internal.Correction.Weighted>
   9.000000E+99

> <Gold.Protein.RotatedTorsions>
[ 6907 6896 6895 6894 ] final   34.54 input  -60.11 | X-H torsion
[ 7974 7965 7964 7962 ] final  -72.69 input  175.53 | X-H torsion
[ 8008 7997 7996 7995 ] final -156.79 input   59.86 | X-H torsion
[ 10167 10162 10161 10158 ] final   44.34 input  -65.29 | X-H torsion
[ 10718 10713 10712 10709 ] final  172.45 input   66.30 | X-H torsion
[ 10763 10752 10751 10750 ] final   88.40 input  -60.55 | X-H torsion
[ 11005 11000 10999 10996 ] final  159.80 input  -57.11 | X-H torsion

> <Gold.Protein.ActiveResidues>
 VAL166  LYS551  ARG553  GLY616  TRP617  ASP618  TYR619  PRO620  LYS621  CYS622 
 ASP623  PHE694  ASN695  SER759  ASP760  ASP761  ALA762  ILE779  LEU786  VAL792 
 PHE793  MET794  SER795  GLU796  ALA797  LYS798  CYS799  TRP800  GLU811  SER814 

> <Gold.Protein.RotatedAtoms>
  152.1039  134.9322  160.0568 H   0  0  0  0  0  0  0  0  0  0  0  0  # atno 6907 bound_to 6896
  152.0526  133.4021  159.4392 H   0  0  0  0  0  0  0  0  0  0  0  0  # atno 6908 bound_to 6896
  150.6840  134.3211  159.4830 H   0  0  0  0  0  0  0  0  0  0  0  0  # atno 6909 bound_to 6896
  145.6618  140.9250  143.0929 H   0  0  0  0  0  0  0  0  0  0  0  0  # atno 7974 bound_to 7965
  155.7226  140.0792  157.2324 H   0  0  0  0  0  0  0  0  0  0  0  0  # atno 8008 bound_to 7997
  154.4043  140.1610  156.2474 H   0  0  0  0  0  0  0  0  0  0  0  0  # atno 8009 bound_to 7997
  155.9182  140.3399  155.6155 H   0  0  0  0  0  0  0  0  0  0  0  0  # atno 8010 bound_to 7997
  140.3353  144.2538  150.6162 H   0  0  0  0  0  0  0  0  0  0  0  0  # atno 10167 bound_to 10162
  156.9787  131.0112  151.2887 H   0  0  0  0  0  0  0  0  0  0  0  0  # atno 10718 bound_to 10713
  153.1765  135.4508  154.9972 H   0  0  0  0  0  0  0  0  0  0  0  0  # atno 10763 bound_to 10752
  154.8001  135.3252  154.7573 H   0  0  0  0  0  0  0  0  0  0  0  0  # atno 10764 bound_to 10752
  153.8042  135.6960  153.4906 H   0  0  0  0  0  0  0  0  0  0  0  0  # atno 10765 bound_to 10752
  140.1997  134.8347  157.3004 H   0  0  0  0  0  0  0  0  0  0  0  0  # atno 11005 bound_to 11000
  144.7086  139.8459  143.7422 LP  0  0  0  0  0  0  0  0  0  0  0  0  # atno 17320 bound_to 7965
  146.1119  139.4124  143.0282 LP  0  0  0  0  0  0  0  0  0  0  0  0  # atno 17321 bound_to 7965
  140.5359  143.2233  151.8163 LP  0  0  0  0  0  0  0  0  0  0  0  0  # atno 17342 bound_to 10162
  139.4849  144.4661  151.9482 LP  0  0  0  0  0  0  0  0  0  0  0  0  # atno 17343 bound_to 10162
  157.5541  130.8202  149.8182 LP  0  0  0  0  0  0  0  0  0  0  0  0  # atno 17370 bound_to 10713
  156.0253  130.3781  150.1842 LP  0  0  0  0  0  0  0  0  0  0  0  0  # atno 17371 bound_to 10713
  140.2068  134.4187  155.7633 LP  0  0  0  0  0  0  0  0  0  0  0  0  # atno 17394 bound_to 11000
  141.2227  133.7099  156.8273 LP  0  0  0  0  0  0  0  0  0  0  0  0  # atno 17395 bound_to 11000

$$$$
