AV-unprocessed.smi:3056|AV-procd|sdf|11645|dock10
  -GOLD-   2272017 43D 1   1.00000     0.00000
 Structure written by MMmdl.
 48 49  0  0  0  0  0  0  0  0  2 V2000
  151.8111  143.2222  158.4536 C   0  0  0  0  0  0  0  0  0  0  0  0
  151.2793  142.1622  157.5323 C   0  0  0  0  0  0  0  0  0  0  0  0
  151.2076  140.7593  157.7605 C   0  0  0  0  0  0  0  0  0  0  0  0
  150.6770  140.1007  156.7432 N   0  0  0  0  0  0  0  0  0  0  0  0
  150.4057  141.0505  155.8212 N   0  0  0  0  0  0  0  0  0  0  0  0
  149.7766  140.6606  154.5617 C   0  0  2  0  0  0  0  0  0  0  0  0
  148.4189  141.3608  154.3672 C   0  0  0  0  0  0  0  0  0  0  0  0
  149.6742  139.1180  154.3999 C   0  0  2  0  0  0  0  0  0  0  0  0
  151.0380  138.4160  154.2714 C   0  0  0  0  0  0  0  0  0  0  0  0
  148.8392  138.7569  153.2284 N   0  3  0  0  0  0  0  0  0  0  0  0
  147.3778  138.6920  153.4674 C   0  0  0  0  0  0  0  0  0  0  0  0
  146.5817  138.1803  152.2537 C   0  0  0  0  0  0  0  0  0  0  0  0
  146.8092  138.6694  151.1456 O   0  0  0  0  0  0  0  0  0  0  0  0
  145.6528  137.2117  152.4381 N   0  0  0  0  0  0  0  0  0  0  0  0
  145.3279  136.5559  153.7085 C   0  0  0  0  0  0  0  0  0  0  0  0
  145.6847  135.0640  153.5881 C   0  0  0  0  0  0  0  0  0  0  0  0
  144.9761  134.4889  152.4930 O   0  0  0  0  0  0  0  0  0  0  0  0
  145.2533  135.1200  151.2438 C   0  0  1  0  0  0  0  0  0  0  0  0
  144.4571  134.3953  150.1532 C   0  0  0  0  0  0  0  0  0  0  0  0
  144.8855  136.6147  151.3410 C   0  0  0  0  0  0  0  0  0  0  0  0
  150.7475  142.3079  156.2828 C   0  0  0  0  0  0  0  0  0  0  0  0
  152.3429  142.7928  159.3031 H   0  0  0  0  0  0  0  0  0  0  0  0
  151.0110  143.8438  158.8557 H   0  0  0  0  0  0  0  0  0  0  0  0
  152.5088  143.8862  157.9427 H   0  0  0  0  0  0  0  0  0  0  0  0
  151.5199  140.2040  158.6328 H   0  0  0  0  0  0  0  0  0  0  0  0
  150.4117  141.0480  153.7640 H   0  0  0  0  0  0  0  0  0  0  0  0
  148.0087  141.1471  153.3800 H   0  0  0  0  0  0  0  0  0  0  0  0
  148.5221  142.4434  154.4484 H   0  0  0  0  0  0  0  0  0  0  0  0
  147.6805  141.0434  155.1032 H   0  0  0  0  0  0  0  0  0  0  0  0
  149.1914  138.7121  155.2900 H   0  0  0  0  0  0  0  0  0  0  0  0
  151.6832  138.6347  155.1220 H   0  0  0  0  0  0  0  0  0  0  0  0
  151.5665  138.7134  153.3653 H   0  0  0  0  0  0  0  0  0  0  0  0
  150.9127  137.3335  154.2326 H   0  0  0  0  0  0  0  0  0  0  0  0
  149.0231  139.4342  152.5015 H   0  0  0  0  0  0  0  0  0  0  0  0
  147.1680  138.0810  154.3451 H   0  0  0  0  0  0  0  0  0  0  0  0
  147.0413  139.7051  153.6895 H   0  0  0  0  0  0  0  0  0  0  0  0
  145.8336  136.9854  154.5713 H   0  0  0  0  0  0  0  0  0  0  0  0
  144.2608  136.6685  153.9056 H   0  0  0  0  0  0  0  0  0  0  0  0
  146.7588  134.9300  153.4501 H   0  0  0  0  0  0  0  0  0  0  0  0
  145.4108  134.5353  154.5012 H   0  0  0  0  0  0  0  0  0  0  0  0
  146.3175  135.0177  151.0236 H   0  0  0  0  0  0  0  0  0  0  0  0
  144.6519  134.8285  149.1719 H   0  0  0  0  0  0  0  0  0  0  0  0
  143.3845  134.4565  150.3398 H   0  0  0  0  0  0  0  0  0  0  0  0
  144.7277  133.3400  150.1100 H   0  0  0  0  0  0  0  0  0  0  0  0
  143.8192  136.7323  151.5410 H   0  0  0  0  0  0  0  0  0  0  0  0
  145.0681  137.1023  150.3825 H   0  0  0  0  0  0  0  0  0  0  0  0
  150.5879  143.1989  155.6938 H   0  0  0  0  0  0  0  0  0  0  0  0
  149.1281  137.8465  152.8995 H   0  0  0  0  0  0  0  0  0  0  0  0
  1  2  1  0  0  0  0
  1 22  1  0  0  0  0
  1 23  1  0  0  0  0
  1 24  1  0  0  0  0
  2 21  2  0  0  0  0
  2  3  1  0  0  0  0
  3  4  2  0  0  0  0
  3 25  1  0  0  0  0
  4  5  1  0  0  0  0
  5  6  1  0  0  0  0
  5 21  1  0  0  0  0
  6  7  1  0  0  0  0
  6  8  1  0  0  0  0
  6 26  1  0  0  0  0
  7 27  1  0  0  0  0
  7 28  1  0  0  0  0
  7 29  1  0  0  0  0
  8  9  1  0  0  0  0
  8 10  1  0  0  0  0
  8 30  1  0  0  0  0
  9 31  1  0  0  0  0
  9 32  1  0  0  0  0
  9 33  1  0  0  0  0
 10 11  1  0  0  0  0
 10 34  1  0  0  0  0
 10 48  1  0  0  0  0
 11 12  1  0  0  0  0
 11 35  1  0  0  0  0
 11 36  1  0  0  0  0
 12 13  2  0  0  0  0
 12 14  1  0  0  0  0
 14 20  1  0  0  0  0
 14 15  1  0  0  0  0
 15 16  1  0  0  0  0
 15 37  1  0  0  0  0
 15 38  1  0  0  0  0
 16 17  1  0  0  0  0
 16 39  1  0  0  0  0
 16 40  1  0  0  0  0
 17 18  1  0  0  0  0
 18 19  1  0  0  0  0
 18 20  1  0  0  0  0
 18 41  1  0  0  0  0
 19 42  1  0  0  0  0
 19 43  1  0  0  0  0
 19 44  1  0  0  0  0
 20 45  1  0  0  0  0
 20 46  1  0  0  0  0
 21 47  1  0  0  0  0
M  CHG  1  10   1
M  END
> <s_m_source_file>
AV-unprocessed.smi

> <i_m_source_file_index>
3056

> <i_lp_mmshare_version>
43012

> <i_f3d_flags>
0

> <s_epik_input>
W0NIM11jMVtjSF1ubihbY0hdMSlbQ0BIXShbQ0gzXSlbQ0BIXShbQ0gzXSlbTkhdW0NIMl1DKD1PKU4yW0NIMl1bQ0gyXU9bQ0BASF0oW0NIM10pW0NIMl0y

> <s_epik_cmdline>
J2VwaWtfcHl0aG9uJywgJy1waCcsICc3LjAnLCAnLXRuJywgJzgnLCAnLW1hJywgJzIwMCcsICctbWV0YWxfYmluZGluZycsICctaW1hZScsICc8aW5maWxlLm1hZT4nLCAnLW9tYWUnLCAnPG91dGZpbGUubWFlPic=

> <r_lp_tautomer_probability>
1

> <r_epik_Ionization_Penalty>
0.233715

> <r_epik_Ionization_Penalty_Charging>
0.233698

> <r_epik_Ionization_Penalty_Neutral>
1.68157e-05

> <r_epik_State_Penalty>
0.225221

> <r_epik_Charging_Adjusted_Penalty>
0.458919

> <i_epik_Tot_Q>
1

> <i_epik_Tot_abs_Q>
1

> <r_epik_Metal_State_Penalty>
0.225535

> <b_epik_Metal_Only>
0

> <s_lp_Force_Field>
OPLS_2005

> <r_lp_Energy>
27.9094

> <b_lp_Chiralities_Consistent>
1

> <s_lp_Variant>
AV-unprocessed.smi:3056-1

> <Gold.Version>
5.8.1

> <Gold.Id.Protein>
6NUR|6NUR_protein|mol2

> <Gold.PLP.Fitness>
51.2803

> <Gold.PLP.PLP>
-37.4629

> <Gold.PLP.part.hbond>
-3.0000

> <Gold.PLP.part.metal>
0.0000

> <Gold.PLP.part.buried>
0.7976

> <Gold.PLP.part.nonpolar>
-35.5128

> <Gold.PLP.part.repulsive>
0.8843

> <Gold.PLP.ligand.clash>
0.0000

> <Gold.PLP.ligand.torsion>
0.6553

> <Gold.PLP.Chemscore.Hbond>
4.0000

> <Gold.PLP.Chemscore.CHOScore>
1.0000

> <Gold.PLP.Chemscore.Metal>
0.0000

> <Gold.Chemscore.Hbonds>
donor molecule, donor type, donor heavy atom, donor atom, acceptor molecule, acceptor atom, score
      L1  H    10    34       P1  7957  1.00
      L1  H    10    48       P1  7948  2.00
      P1  H  7954  7966       L1    13  1.00
      L1  C    21    47       P1  8028  1.00

> <Gold.PLP.Chemscore.Internal.Correction>
0.1281

> <Gold.Rescore>
     Score         DG    S(hbond)    S(metal)    S(lipo)     H(rot)  DE(clash)    DE(int)     intcor
     17.33     -21.19       2.96        0.00      87.71       1.74       1.88       1.98       ----

> <Gold.Chemscore.Fitness>
17.3262

> <Gold.Chemscore.DG>
-21.1870

> <Gold.Chemscore.ZeroCoef>
-5.4800

> <Gold.Chemscore.Hbond>
2.9602

> <Gold.Chemscore.Metal>
0.0000

> <Gold.Chemscore.Lipo>
87.7133

> <Gold.Chemscore.Internal_Hbond>
0.0000

> <Gold.Chemscore.DEClash>
1.8776

> <Gold.Chemscore.DEInternal>
1.9832

> <Gold.Chemscore.Rot>
1.7354

> <Gold.Chemscore.Internal.Correction>
   9.000000E+99

> <Gold.Chemscore.Hbonds>
donor molecule, donor type, donor heavy atom, donor atom, acceptor molecule, acceptor atom, score
      L1  H    10    34       P1  7957  0.97
      L1  H    10    48       P1  7948  0.97
      P1  H  7954  7966       L1    13  0.89

> <Gold.Chemscore.Hbond.Weighted>
-9.8872

> <Gold.Chemscore.Metal.Weighted>
-0.0000

> <Gold.Chemscore.Lipo.Weighted>
-10.2625

> <Gold.Chemscore.Internal_Hbond.Weighted>
0.0000

> <Gold.Chemscore.DEClash.Weighted>
1.8776

> <Gold.Chemscore.DEInternal.Weighted>
1.9832

> <Gold.Chemscore.Rot.Weighted>
4.4426

> <Gold.Chemscore.Internal.Correction.Weighted>
   9.000000E+99

> <Gold.Protein.RotatedTorsions>
[ 6907 6896 6895 6894 ] final  123.52 input  -60.11 | X-H torsion
[ 7974 7965 7964 7962 ] final   30.74 input  175.53 | X-H torsion
[ 8008 7997 7996 7995 ] final  142.24 input   59.86 | X-H torsion
[ 10167 10162 10161 10158 ] final  179.02 input  -65.29 | X-H torsion
[ 10718 10713 10712 10709 ] final   83.28 input   66.30 | X-H torsion
[ 10763 10752 10751 10750 ] final   30.20 input  -60.55 | X-H torsion
[ 11005 11000 10999 10996 ] final   -6.77 input  -57.11 | X-H torsion

> <Gold.Protein.ActiveResidues>
 VAL166  LYS551  ARG553  GLY616  TRP617  ASP618  TYR619  PRO620  LYS621  CYS622 
 ASP623  PHE694  ASN695  SER759  ASP760  ASP761  ALA762  ILE779  LEU786  VAL792 
 PHE793  MET794  SER795  GLU796  ALA797  LYS798  CYS799  TRP800  GLU811  SER814 

> <Gold.Protein.RotatedAtoms>
  152.4155  133.7031  159.6434 H   0  0  0  0  0  0  0  0  0  0  0  0  # atno 6907 bound_to 6896
  150.8032  133.8548  159.3224 H   0  0  0  0  0  0  0  0  0  0  0  0  # atno 6908 bound_to 6896
  151.6279  135.1027  160.0167 H   0  0  0  0  0  0  0  0  0  0  0  0  # atno 6909 bound_to 6896
  146.1593  139.6749  142.9044 H   0  0  0  0  0  0  0  0  0  0  0  0  # atno 7974 bound_to 7965
  156.2953  140.2294  156.4695 H   0  0  0  0  0  0  0  0  0  0  0  0  # atno 8008 bound_to 7997
  154.7948  140.0452  157.1249 H   0  0  0  0  0  0  0  0  0  0  0  0  # atno 8009 bound_to 7997
  154.9603  140.3053  155.5037 H   0  0  0  0  0  0  0  0  0  0  0  0  # atno 8010 bound_to 7997
  139.5318  144.2610  152.0707 H   0  0  0  0  0  0  0  0  0  0  0  0  # atno 10167 bound_to 10162
  157.6875  131.0084  150.2500 H   0  0  0  0  0  0  0  0  0  0  0  0  # atno 10718 bound_to 10713
  153.0386  135.6470  154.1007 H   0  0  0  0  0  0  0  0  0  0  0  0  # atno 10763 bound_to 10752
  154.0718  135.2880  155.3308 H   0  0  0  0  0  0  0  0  0  0  0  0  # atno 10764 bound_to 10752
  154.6589  135.5399  153.8058 H   0  0  0  0  0  0  0  0  0  0  0  0  # atno 10765 bound_to 10752
  140.7055  133.8953  155.8714 H   0  0  0  0  0  0  0  0  0  0  0  0  # atno 11005 bound_to 11000
  145.4628  141.0433  143.2742 LP  0  0  0  0  0  0  0  0  0  0  0  0  # atno 17320 bound_to 7965
  144.8006  139.6149  143.7073 LP  0  0  0  0  0  0  0  0  0  0  0  0  # atno 17321 bound_to 7965
  140.2075  144.4596  150.6401 LP  0  0  0  0  0  0  0  0  0  0  0  0  # atno 17342 bound_to 10162
  140.6502  143.2223  151.6095 LP  0  0  0  0  0  0  0  0  0  0  0  0  # atno 17343 bound_to 10162
  156.3098  130.3770  149.7672 LP  0  0  0  0  0  0  0  0  0  0  0  0  # atno 17370 bound_to 10713
  156.5276  130.8243  151.3225 LP  0  0  0  0  0  0  0  0  0  0  0  0  # atno 17371 bound_to 10713
  141.0128  134.0997  157.4204 LP  0  0  0  0  0  0  0  0  0  0  0  0  # atno 17394 bound_to 11000
  139.8885  135.0098  156.6625 LP  0  0  0  0  0  0  0  0  0  0  0  0  # atno 17395 bound_to 11000

$$$$
