#       Name:                AV-unprocessed.smi:2923
#       Creating user name   scv26
#       Creation time:       Fri Mar 27 16:10:46 2020


#       File generated by GOLD software.
#

@<TRIPOS>MOLECULE
AV-unprocessed.smi:2923
    51    53     1
SMALL
NO_CHARGES


@<TRIPOS>ATOM
      1 ****        -6.9707   0.2744  -0.6810 C.3            1 S1                 0.0000
      2 ****        -6.1199   1.3128  -0.1133 N.pl3          1 S1                 0.0000
      3 ****        -6.7006   2.5898   0.2890 C.3            1 S1                 0.0000
      4 ****        -4.7285   1.0996   0.0185 C.ar           1 S1                 0.0000
      5 ****        -4.1265  -0.1213  -0.3748 C.ar           1 S1                 0.0000
      6 ****        -2.7357  -0.2853  -0.2280 C.ar           1 S1                 0.0000
      7 ****        -1.9733   0.7732   0.3171 C.ar           1 S1                 0.0000
      8 ****        -0.5631   0.7423   0.4924 N.am           1 S1                 0.0000
      9 ****         0.2568  -0.3221   0.5238 C.2            1 S1                 0.0000
     10 ****        -0.0993  -1.4993   0.4766 O.2            1 S1                 0.0000
     11 ****         1.5370   0.0564   0.6306 N.am           1 S1                 0.0000
     12 ****         2.6673  -0.8642   0.6622 C.3            1 S1                 0.0000
     13 ****         4.0097  -0.1396   0.7623 C.3            1 S1                 0.0000
     14 ****         5.0755  -0.0516   1.7955 C.3            1 S1                 0.0000
     15 ****         6.2949  -0.2782   0.8621 C.3            1 S1                 0.0000
     16 ****         5.7482  -0.7050  -0.4096 O.3            1 S1                 0.0000
     17 ****         4.5185  -1.3067  -0.0610 C.3            1 S1                 0.0000
     18 ****         3.1481  -1.3218  -0.7668 C.3            1 S1                 0.0000
     19 ****         2.6593  -2.7009  -1.2107 C.3            1 S1                 0.0000
     20 ****         2.9535  -0.3843  -1.9762 C.3            1 S1                 0.0000
     21 ****        -2.6574   1.9524   0.6702 C.ar           1 S1                 0.0000
     22 ****        -3.9897   2.1135   0.5315 N.ar           1 S1                 0.0000
     23 ****        -6.6531   0.0310  -1.6952 H              1 S1                 0.0000
     24 ****        -8.0118   0.5944  -0.7273 H              1 S1                 0.0000
     25 ****        -6.9281  -0.6305  -0.0742 H              1 S1                 0.0000
     26 ****        -6.2654   3.4068  -0.2874 H              1 S1                 0.0000
     27 ****        -6.5187   2.7760   1.3480 H              1 S1                 0.0000
     28 ****        -7.7786   2.6062   0.1284 H              1 S1                 0.0000
     29 ****        -4.7008  -0.9345  -0.7916 H              1 S1                 0.0000
     30 ****        -2.2865  -1.2110  -0.5511 H              1 S1                 0.0000
     31 ****        -0.1267   1.6417   0.6330 H              1 S1                 0.0000
     32 ****         1.7463   1.0430   0.6726 H              1 S1                 0.0000
     33 ****         2.5642  -1.6782   1.3858 H              1 S1                 0.0000
     34 ****         3.9770   0.7979   0.2023 H              1 S1                 0.0000
     35 ****         5.1043   0.9171   2.2946 H              1 S1                 0.0000
     36 ****         4.9828  -0.8379   2.5461 H              1 S1                 0.0000
     37 ****         6.8751   0.6340   0.7212 H              1 S1                 0.0000
     38 ****         6.9584  -1.0427   1.2682 H              1 S1                 0.0000
     39 ****         4.6876  -2.2195   0.5217 H              1 S1                 0.0000
     40 ****         3.2477  -3.0842  -2.0447 H              1 S1                 0.0000
     41 ****         1.6158  -2.6750  -1.5259 H              1 S1                 0.0000
     42 ****         2.7307  -3.4303  -0.4033 H              1 S1                 0.0000
     43 ****         3.5431  -0.7193  -2.8300 H              1 S1                 0.0000
     44 ****         3.2442   0.6466  -1.7842 H              1 S1                 0.0000
     45 ****         1.9108  -0.3599  -2.2947 H              1 S1                 0.0000
     46 ****        -2.1212   2.7963   1.0789 H              1 S1                 0.0000
     47 ****        -1.0711  -1.7254   0.4089 LP             1 S1                 0.0000
     48 ****         0.5831  -2.2297   0.5059 LP             1 S1                 0.0000
     49 ****         6.3541  -1.3643  -0.8550 LP             1 S1                 0.0000
     50 ****         5.6033   0.0769  -1.0159 LP             1 S1                 0.0000
     51 ****        -4.4269   2.9706   0.8039 LP             1 S1                 0.0000
@<TRIPOS>BOND
    1    1    2 1     
    2    1   23 1     
    3    1   24 1     
    4    1   25 1     
    5    2    3 1     
    6    2    4 1     
    7    3   26 1     
    8    3   27 1     
    9    3   28 1     
   10    4   22 ar    
   11    4    5 ar    
   12    5    6 ar    
   13    5   29 1     
   14    6    7 ar    
   15    6   30 1     
   16    7    8 1     
   17    7   21 ar    
   18    8    9 am    
   19    8   31 1     
   20    9   10 2     
   21    9   11 am    
   22   11   12 1     
   23   11   32 1     
   24   12   18 1     
   25   12   13 1     
   26   12   33 1     
   27   13   17 1     
   28   13   14 1     
   29   13   34 1     
   30   14   15 1     
   31   14   35 1     
   32   14   36 1     
   33   15   16 1     
   34   15   37 1     
   35   15   38 1     
   36   16   17 1     
   37   17   18 1     
   38   17   39 1     
   39   18   19 1     
   40   18   20 1     
   41   19   40 1     
   42   19   41 1     
   43   19   42 1     
   44   20   43 1     
   45   20   44 1     
   46   20   45 1     
   47   21   22 ar    
   48   21   46 1     
   49   10   47 1     
   50   10   48 1     
   51   16   49 1     
   52   16   50 1     
   53   22   51 1     
@<TRIPOS>SUBSTRUCTURE
      1 S1             1
@<TRIPOS>SET
LONE_PAIRS      STATIC     ATOMS    <user>   **** ""
5 47 48 49 50 51
DONOR_HYDROGENS      STATIC     ATOMS    <user>   **** ""
2 31 32
ATOM$BLUE        STATIC     ATOMS    COLORGROUP SYSTEM
5 47 48 49 50 51
ATOM$RED        STATIC     ATOMS    COLORGROUP SYSTEM
2 31 32
