AV-unprocessed.smi:12|AV-procd|sdf|65|dock3
  -GOLD-   2262015183D 1   1.00000     0.00000
 Structure written by MMmdl.
 41 44  0  0  0  0  0  0  0  0  1 V2000
  145.7029  136.5592  152.0239 C   0  0  0  0  0  0  0  0  0  0  0  0
  145.8248  137.7164  152.9994 C   0  0  0  0  0  0  0  0  0  0  0  0
  146.8011  138.6468  152.8809 C   0  0  0  0  0  0  0  0  0  0  0  0
  146.8708  139.6657  153.7892 N   0  0  0  0  0  0  0  0  0  0  0  0
  145.9119  139.7488  154.8243 C   0  0  0  0  0  0  0  0  0  0  0  0
  144.9483  138.8996  155.0029 N   0  0  0  0  0  0  0  0  0  0  0  0
  144.8424  137.8175  154.1078 C   0  0  0  0  0  0  0  0  0  0  0  0
  143.9516  136.9800  154.2440 O   0  0  0  0  0  0  0  0  0  0  0  0
  146.1629  140.8582  155.5746 O   0  0  0  0  0  0  0  0  0  0  0  0
  147.3255  141.5270  155.0644 C   0  0  1  0  0  0  0  0  0  0  0  0
  148.5208  141.4883  156.0209 C   0  0  1  0  0  0  0  0  0  0  0  0
  148.3627  140.5132  157.0372 O   0  0  0  0  0  0  0  0  0  0  0  0
  149.6862  141.1181  155.0911 C   0  0  1  0  0  0  0  0  0  0  0  0
  150.9096  140.4507  155.7391 C   0  0  0  0  0  0  0  0  0  0  0  0
  151.3409  141.2224  156.8486 O   0  0  0  0  0  0  0  0  0  0  0  0
  152.2659  140.7258  157.6936 C   0  0  0  0  0  0  0  0  0  0  0  0
  152.8293  139.6420  157.5276 O   0  0  0  0  0  0  0  0  0  0  0  0
  152.5401  141.6256  158.8510 C   0  0  0  0  0  0  0  0  0  0  0  0
  152.0037  142.9345  158.8519 C   0  0  0  0  0  0  0  0  0  0  0  0
  152.2409  143.8068  159.9318 C   0  0  0  0  0  0  0  0  0  0  0  0
  153.0185  143.3811  161.0243 C   0  0  0  0  0  0  0  0  0  0  0  0
  153.5588  142.0819  161.0352 C   0  0  0  0  0  0  0  0  0  0  0  0
  153.3227  141.2079  159.9559 C   0  0  0  0  0  0  0  0  0  0  0  0
  149.0896  140.2618  154.1280 O   0  0  0  0  0  0  0  0  0  0  0  0
  147.8303  140.7691  153.8231 C   0  0  1  0  0  0  0  0  0  0  0  0
  146.4794  136.6018  151.2597 H   0  0  0  0  0  0  0  0  0  0  0  0
  144.7350  136.5823  151.5221 H   0  0  0  0  0  0  0  0  0  0  0  0
  145.7976  135.6073  152.5473 H   0  0  0  0  0  0  0  0  0  0  0  0
  147.5280  138.5936  152.0835 H   0  0  0  0  0  0  0  0  0  0  0  0
  147.0839  142.5495  154.7717 H   0  0  0  0  0  0  0  0  0  0  0  0
  148.6838  142.4543  156.4998 H   0  0  0  0  0  0  0  0  0  0  0  0
  149.1562  140.0029  157.0915 H   0  0  0  0  0  0  0  0  0  0  0  0
  150.0120  142.0156  154.5617 H   0  0  0  0  0  0  0  0  0  0  0  0
  150.6797  139.4302  156.0481 H   0  0  0  0  0  0  0  0  0  0  0  0
  151.7201  140.3900  155.0116 H   0  0  0  0  0  0  0  0  0  0  0  0
  151.4030  143.2836  158.0243 H   0  0  0  0  0  0  0  0  0  0  0  0
  151.8246  144.8034  159.9219 H   0  0  0  0  0  0  0  0  0  0  0  0
  153.1997  144.0497  161.8529 H   0  0  0  0  0  0  0  0  0  0  0  0
  154.1551  141.7543  161.8738 H   0  0  0  0  0  0  0  0  0  0  0  0
  153.7522  140.2174  159.9962 H   0  0  0  0  0  0  0  0  0  0  0  0
  147.7447  141.2952  152.8717 H   0  0  0  0  0  0  0  0  0  0  0  0
  1  2  1  0  0  0  0
  1 26  1  0  0  0  0
  1 27  1  0  0  0  0
  1 28  1  0  0  0  0
  2  7  1  0  0  0  0
  2  3  2  0  0  0  0
  3  4  1  0  0  0  0
  3 29  1  0  0  0  0
  4 25  1  0  0  0  0
  4  5  1  0  0  0  0
  5  6  2  0  0  0  0
  5  9  1  0  0  0  0
  6  7  1  0  0  0  0
  7  8  2  0  0  0  0
  9 10  1  0  0  0  0
 10 25  1  0  0  0  0
 10 11  1  0  0  0  0
 10 30  1  0  0  0  0
 11 12  1  0  0  0  0
 11 13  1  0  0  0  0
 11 31  1  0  0  0  0
 12 32  1  0  0  0  0
 13 14  1  0  0  0  0
 13 24  1  0  0  0  0
 13 33  1  0  0  0  0
 14 15  1  0  0  0  0
 14 34  1  0  0  0  0
 14 35  1  0  0  0  0
 15 16  1  0  0  0  0
 16 17  2  0  0  0  0
 16 18  1  0  0  0  0
 18 23  1  0  0  0  0
 18 19  2  0  0  0  0
 19 20  1  0  0  0  0
 19 36  1  0  0  0  0
 20 21  2  0  0  0  0
 20 37  1  0  0  0  0
 21 22  1  0  0  0  0
 21 38  1  0  0  0  0
 22 23  2  0  0  0  0
 22 39  1  0  0  0  0
 23 40  1  0  0  0  0
 24 25  1  0  0  0  0
 25 41  1  0  0  0  0
M  END
> <s_m_source_file>
AV-unprocessed.smi

> <i_m_source_file_index>
12

> <i_lp_mmshare_version>
43012

> <i_f3d_flags>
0

> <s_epik_input>
W0NIM11jKFtjSF0xKWMoPU8pbmMobjEyKU9bQ0BIXTNbQ0BASF0yT1tDQEBIXShbQ0BASF0zW09IXSlbQ0gyXU9DKD1PKWM0W2NIXVtjSF1bY0hdW2NIXVtjSF00

> <s_epik_cmdline>
J2VwaWtfcHl0aG9uJywgJy1waCcsICc3LjAnLCAnLXRuJywgJzgnLCAnLW1hJywgJzIwMCcsICctbWV0YWxfYmluZGluZycsICctaW1hZScsICc8aW5maWxlLm1hZT4nLCAnLW9tYWUnLCAnPG91dGZpbGUubWFlPic=

> <r_lp_tautomer_probability>
0.933681

> <r_epik_Ionization_Penalty>
0.00399549

> <r_epik_Ionization_Penalty_Charging>
3.09373e-09

> <r_epik_Ionization_Penalty_Neutral>
0.00399549

> <r_epik_State_Penalty>
0.00284953

> <r_epik_Charging_Adjusted_Penalty>
0.00284953

> <i_epik_Tot_Q>
0

> <i_epik_Tot_abs_Q>
0

> <r_epik_Metal_State_Penalty>
-0

> <b_epik_Metal_Only>
0

> <s_epik_Chemistry_Notes>
This compound has an ester and may undergo hydrolysis at high or low pH. This compound contains an acetal/aminal-like group ( X-CH(R)-Y where X, Y are N, S, or O) that may be acid/base labile, releasing an aldehyde.

> <s_lp_Force_Field>
OPLS_2005

> <r_lp_Energy>
52.4365

> <b_lp_Chiralities_Consistent>
1

> <s_lp_Variant>
AV-unprocessed.smi:12-5

> <Gold.Version>
5.8.1

> <Gold.Id.Protein>
6NUR|6NUR_protein|mol2

> <Gold.PLP.Fitness>
47.0862

> <Gold.PLP.PLP>
-40.5948

> <Gold.PLP.part.hbond>
-1.0000

> <Gold.PLP.part.metal>
0.0000

> <Gold.PLP.part.buried>
-4.6042

> <Gold.PLP.part.nonpolar>
-37.2670

> <Gold.PLP.part.repulsive>
1.2663

> <Gold.PLP.ligand.clash>
0.0000

> <Gold.PLP.ligand.torsion>
0.1289

> <Gold.PLP.Chemscore.Hbond>
1.0000

> <Gold.PLP.Chemscore.CHOScore>
1.2440

> <Gold.PLP.Chemscore.Metal>
0.0000

> <Gold.Chemscore.Hbonds>
donor molecule, donor type, donor heavy atom, donor atom, acceptor molecule, acceptor atom, score
      P1  H  7997  8010       L1    17  1.00
      L1  C     3    29       P1  7948  0.36
      L1  C     3    29       P1  7957  0.67

> <Gold.PLP.Chemscore.Internal.Correction>
0.0172

> <Gold.Rescore>
     Score         DG    S(hbond)    S(metal)    S(lipo)     H(rot)  DE(clash)    DE(int)     intcor
     15.43     -15.58       0.97        0.00     106.29       2.18       0.07       0.07       ----

> <Gold.Chemscore.Fitness>
15.4349

> <Gold.Chemscore.DG>
-15.5754

> <Gold.Chemscore.ZeroCoef>
-5.4800

> <Gold.Chemscore.Hbond>
0.9701

> <Gold.Chemscore.Metal>
0.0000

> <Gold.Chemscore.Lipo>
106.2891

> <Gold.Chemscore.Internal_Hbond>
0.0000

> <Gold.Chemscore.DEClash>
0.0679

> <Gold.Chemscore.DEInternal>
0.0726

> <Gold.Chemscore.Rot>
2.1800

> <Gold.Chemscore.Internal.Correction>
   9.000000E+99

> <Gold.Chemscore.Hbonds>
donor molecule, donor type, donor heavy atom, donor atom, acceptor molecule, acceptor atom, score
      P1  H  7997  8010       L1    17  0.50

> <Gold.Chemscore.Hbond.Weighted>
-3.2403

> <Gold.Chemscore.Metal.Weighted>
-0.0000

> <Gold.Chemscore.Lipo.Weighted>
-12.4358

> <Gold.Chemscore.Internal_Hbond.Weighted>
0.0000

> <Gold.Chemscore.DEClash.Weighted>
0.0679

> <Gold.Chemscore.DEInternal.Weighted>
0.0726

> <Gold.Chemscore.Rot.Weighted>
5.5807

> <Gold.Chemscore.Internal.Correction.Weighted>
   9.000000E+99

> <Gold.Protein.RotatedTorsions>
[ 6907 6896 6895 6894 ] final  154.30 input  -60.11 | X-H torsion
[ 7974 7965 7964 7962 ] final   84.54 input  175.53 | X-H torsion
[ 8008 7997 7996 7995 ] final   51.96 input   59.86 | X-H torsion
[ 10167 10162 10161 10158 ] final   63.48 input  -65.29 | X-H torsion
[ 10718 10713 10712 10709 ] final -106.20 input   66.30 | X-H torsion
[ 10763 10752 10751 10750 ] final  156.83 input  -60.55 | X-H torsion
[ 11005 11000 10999 10996 ] final -153.32 input  -57.11 | X-H torsion

> <Gold.Protein.ActiveResidues>
 VAL166  LYS551  ARG553  GLY616  TRP617  ASP618  TYR619  PRO620  LYS621  CYS622 
 ASP623  PHE694  ASN695  SER759  ASP760  ASP761  ALA762  ILE779  LEU786  VAL792 
 PHE793  MET794  SER795  GLU796  ALA797  LYS798  CYS799  TRP800  GLU811  SER814 

> <Gold.Protein.RotatedAtoms>
  152.0605  133.4060  159.4415 H   0  0  0  0  0  0  0  0  0  0  0  0  # atno 6907 bound_to 6896
  150.6866  134.3206  159.4794 H   0  0  0  0  0  0  0  0  0  0  0  0  # atno 6908 bound_to 6896
  152.1026  134.9330  160.0620 H   0  0  0  0  0  0  0  0  0  0  0  0  # atno 6909 bound_to 6896
  145.5974  139.2347  143.2265 H   0  0  0  0  0  0  0  0  0  0  0  0  # atno 7974 bound_to 7965
  155.4439  140.3455  155.4293 H   0  0  0  0  0  0  0  0  0  0  0  0  # atno 8008 bound_to 7997
  156.1262  140.1501  156.9163 H   0  0  0  0  0  0  0  0  0  0  0  0  # atno 8009 bound_to 7997
  154.4860  140.0855  156.7466 H   0  0  0  0  0  0  0  0  0  0  0  0  # atno 8010 bound_to 7997
  140.1326  144.4629  150.6856 H   0  0  0  0  0  0  0  0  0  0  0  0  # atno 10167 bound_to 10162
  156.0379  130.5601  150.7647 H   0  0  0  0  0  0  0  0  0  0  0  0  # atno 10718 bound_to 10713
  154.1906  135.2795  155.3023 H   0  0  0  0  0  0  0  0  0  0  0  0  # atno 10763 bound_to 10752
  154.5932  135.5553  153.7303 H   0  0  0  0  0  0  0  0  0  0  0  0  # atno 10764 bound_to 10752
  153.0113  135.6373  154.2044 H   0  0  0  0  0  0  0  0  0  0  0  0  # atno 10765 bound_to 10752
  140.7094  134.3850  157.5200 H   0  0  0  0  0  0  0  0  0  0  0  0  # atno 11005 bound_to 11000
  146.1602  140.6799  142.9281 LP  0  0  0  0  0  0  0  0  0  0  0  0  # atno 17320 bound_to 7965
  144.7325  140.4713  143.6928 LP  0  0  0  0  0  0  0  0  0  0  0  0  # atno 17321 bound_to 7965
  140.6808  143.2326  151.5389 LP  0  0  0  0  0  0  0  0  0  0  0  0  # atno 17342 bound_to 10162
  139.5512  144.2391  152.1533 LP  0  0  0  0  0  0  0  0  0  0  0  0  # atno 17343 bound_to 10162
  157.5157  131.0928  151.0142 LP  0  0  0  0  0  0  0  0  0  0  0  0  # atno 17370 bound_to 10713
  157.0486  130.5778  149.5367 LP  0  0  0  0  0  0  0  0  0  0  0  0  # atno 17371 bound_to 10713
  139.8876  134.8879  156.2522 LP  0  0  0  0  0  0  0  0  0  0  0  0  # atno 17394 bound_to 11000
  141.0097  133.7103  156.1092 LP  0  0  0  0  0  0  0  0  0  0  0  0  # atno 17395 bound_to 11000

$$$$
