#       Name:                AV-unprocessed.smi:2846
#       Creating user name   scv26
#       Creation time:       Fri Mar 27 15:40:28 2020


#       File generated by GOLD software.
#

@<TRIPOS>MOLECULE
AV-unprocessed.smi:2846
    51    53     1
SMALL
NO_CHARGES


@<TRIPOS>ATOM
      1 ****         0.0764   1.6570   0.2937 O.2            1 S1                 0.0000
      2 ****        -0.3019   0.5806   0.7572 C.2            1 S1                 0.0000
      3 ****        -1.7784   0.3448   1.0846 C.3            1 S1                 0.0000
      4 ****        -2.7077   1.5339   0.9035 C.2            1 S1                 0.0000
      5 ****        -3.3470   1.7731  -0.2581 C.2            1 S1                 0.0000
      6 ****        -4.2947   2.9376  -0.4844 C.3            1 S1                 0.0000
      7 ****        -4.7238   3.6062   0.8326 C.3            1 S1                 0.0000
      8 ****        -3.5281   3.7901   1.7758 C.3            1 S1                 0.0000
      9 ****        -2.8665   2.4424   2.1167 C.3            1 S1                 0.0000
     10 ****         0.5233  -0.4484   1.0008 N.am           1 S1                 0.0000
     11 ****         1.9637  -0.4610   0.7524 C.3            1 S1                 0.0000
     12 ****         2.3569  -1.2377  -0.5354 C.3            1 S1                 0.0000
     13 ****         1.7760  -2.6592  -0.4844 C.ar           1 S1                 0.0000
     14 ****         2.4033  -3.6630   0.2888 C.ar           1 S1                 0.0000
     15 ****         1.8320  -4.9501   0.3309 C.ar           1 S1                 0.0000
     16 ****         0.7019  -5.2819  -0.3271 N.ar           1 S1                 0.0000
     17 ****         0.0958  -4.3222  -1.0563 C.ar           1 S1                 0.0000
     18 ****         0.5842  -3.0051  -1.1643 C.ar           1 S1                 0.0000
     19 ****         1.9561  -0.4672  -1.8141 C.3            1 S1                 0.0000
     20 ****         3.0187   0.6169  -2.0137 C.3            1 S1                 0.0000
     21 ****         4.2847   0.0860  -1.3328 C.3            1 S1                 0.0000
     22 ****         3.8925  -1.2503  -0.6890 C.3            1 S1                 0.0000
     23 ****        -2.1272  -0.4630   0.4394 H              1 S1                 0.0000
     24 ****        -1.8701  -0.0253   2.1066 H              1 S1                 0.0000
     25 ****        -3.1869   1.1186  -1.1025 H              1 S1                 0.0000
     26 ****        -3.7921   3.6600  -1.1281 H              1 S1                 0.0000
     27 ****        -5.1734   2.5865  -1.0259 H              1 S1                 0.0000
     28 ****        -5.1976   4.5663   0.6264 H              1 S1                 0.0000
     29 ****        -5.4765   2.9900   1.3260 H              1 S1                 0.0000
     30 ****        -2.7957   4.4434   1.2995 H              1 S1                 0.0000
     31 ****        -3.8404   4.2930   2.6914 H              1 S1                 0.0000
     32 ****        -3.4626   1.9110   2.8592 H              1 S1                 0.0000
     33 ****        -1.8897   2.6229   2.5669 H              1 S1                 0.0000
     34 ****         0.1224  -1.2950   1.3783 H              1 S1                 0.0000
     35 ****         2.3636   0.5539   0.7410 H              1 S1                 0.0000
     36 ****         2.4230  -0.9426   1.6163 H              1 S1                 0.0000
     37 ****         3.3044  -3.4582   0.8474 H              1 S1                 0.0000
     38 ****         2.2943  -5.7332   0.9136 H              1 S1                 0.0000
     39 ****        -0.8112  -4.6106  -1.5664 H              1 S1                 0.0000
     40 ****         0.0396  -2.2842  -1.7550 H              1 S1                 0.0000
     41 ****         2.0090  -1.1376  -2.6737 H              1 S1                 0.0000
     42 ****         0.9440  -0.0640  -1.7914 H              1 S1                 0.0000
     43 ****         3.1791   0.8337  -3.0702 H              1 S1                 0.0000
     44 ****         2.7014   1.5441  -1.5345 H              1 S1                 0.0000
     45 ****         5.1029  -0.0437  -2.0418 H              1 S1                 0.0000
     46 ****         4.6211   0.7916  -0.5723 H              1 S1                 0.0000
     47 ****         4.4199  -1.4325   0.2478 H              1 S1                 0.0000
     48 ****         4.1801  -2.0487  -1.3754 H              1 S1                 0.0000
     49 ****        -0.5838   2.3894   0.1271 LP             1 S1                 0.0000
     50 ****         1.0439   1.7987   0.0840 LP             1 S1                 0.0000
     51 ****         0.3265  -6.2073  -0.2761 LP             1 S1                 0.0000
@<TRIPOS>BOND
    1    1    2 2     
    2    2    3 1     
    3    2   10 am    
    4    3    4 1     
    5    3   23 1     
    6    3   24 1     
    7    4    9 1     
    8    4    5 2     
    9    5    6 1     
   10    5   25 1     
   11    6    7 1     
   12    6   26 1     
   13    6   27 1     
   14    7    8 1     
   15    7   28 1     
   16    7   29 1     
   17    8    9 1     
   18    8   30 1     
   19    8   31 1     
   20    9   32 1     
   21    9   33 1     
   22   10   11 1     
   23   10   34 1     
   24   11   12 1     
   25   11   35 1     
   26   11   36 1     
   27   12   22 1     
   28   12   13 1     
   29   12   19 1     
   30   13   18 ar    
   31   13   14 ar    
   32   14   15 ar    
   33   14   37 1     
   34   15   16 ar    
   35   15   38 1     
   36   16   17 ar    
   37   17   18 ar    
   38   17   39 1     
   39   18   40 1     
   40   19   20 1     
   41   19   41 1     
   42   19   42 1     
   43   20   21 1     
   44   20   43 1     
   45   20   44 1     
   46   21   22 1     
   47   21   45 1     
   48   21   46 1     
   49   22   47 1     
   50   22   48 1     
   51    1   49 1     
   52    1   50 1     
   53   16   51 1     
@<TRIPOS>SUBSTRUCTURE
      1 S1             1
@<TRIPOS>SET
LONE_PAIRS      STATIC     ATOMS    <user>   **** ""
3 49 50 51
DONOR_HYDROGENS      STATIC     ATOMS    <user>   **** ""
1 34
ATOM$BLUE        STATIC     ATOMS    COLORGROUP SYSTEM
3 49 50 51
ATOM$RED        STATIC     ATOMS    COLORGROUP SYSTEM
1 34
