AV-unprocessed.smi:283|AV-procd|sdf|2132|dock9
  -GOLD-   2262021453D 1   1.00000     0.00000
 Structure written by MMmdl.
 48 51  0  0  0  0  0  0  0  0  1 V2000
  153.4490  138.9028  158.6205 C   0  0  0  0  0  0  0  0  0  0  0  0
  152.0569  139.5187  158.4286 C   0  0  1  0  0  0  0  0  0  0  0  0
  151.0605  138.7232  159.1441 N   0  0  0  0  0  0  0  0  0  0  0  0
  150.1770  137.9618  158.4615 C   0  0  0  0  0  0  0  0  0  0  0  0
  150.3404  136.6225  158.5767 N   0  0  0  0  0  0  0  0  0  0  0  0
  149.4904  135.7896  157.9704 C   0  0  0  0  0  0  0  0  0  0  0  0
  148.4330  136.0841  157.2128 N   0  0  0  0  0  0  0  0  0  0  0  0
  148.2721  137.4318  157.0727 C   0  0  0  0  0  0  0  0  0  0  0  0
  149.0988  138.4343  157.6568 C   0  0  0  0  0  0  0  0  0  0  0  0
  148.6328  139.6890  157.2821 N   0  0  0  0  0  0  0  0  0  0  0  0
  147.5876  139.4401  156.5427 C   0  0  0  0  0  0  0  0  0  0  0  0
  147.2937  138.1075  156.3691 N   0  0  0  0  0  0  0  0  0  0  0  0
  146.1542  137.5282  155.5893 C   0  0  1  0  0  0  0  0  0  0  0  0
  145.5913  138.5100  154.7715 O   0  0  0  0  0  0  0  0  0  0  0  0
  145.2349  137.9696  153.4963 C   0  0  1  0  0  0  0  0  0  0  0  0
  146.0493  138.7183  152.4214 C   0  0  0  0  0  0  0  0  0  0  0  0
  145.9464  138.0667  151.1725 O   0  0  0  0  0  0  0  0  0  0  0  0
  145.5004  136.4569  153.6166 C   0  0  1  0  0  0  0  0  0  0  0  0
  145.8471  135.7912  152.4166 O   0  0  0  0  0  0  0  0  0  0  0  0
  146.5732  136.3606  154.6882 C   0  0  1  0  0  0  0  0  0  0  0  0
  147.8883  136.4881  154.1719 O   0  0  0  0  0  0  0  0  0  0  0  0
  152.0754  141.0046  158.8015 C   0  0  0  0  0  0  0  0  0  0  0  0
  152.7112  141.4222  159.9943 C   0  0  0  0  0  0  0  0  0  0  0  0
  152.7268  142.7798  160.3637 C   0  0  0  0  0  0  0  0  0  0  0  0
  152.1141  143.7393  159.5380 C   0  0  0  0  0  0  0  0  0  0  0  0
  151.4945  143.3387  158.3401 C   0  0  0  0  0  0  0  0  0  0  0  0
  151.4762  141.9802  157.9650 C   0  0  0  0  0  0  0  0  0  0  0  0
  150.7131  141.5503  156.4739 Cl  0  0  0  0  0  0  0  0  0  0  0  0
  145.4202  137.2324  156.3403 H   0  0  0  0  0  0  0  0  0  0  0  0
  144.1720  138.1542  153.3346 H   0  0  0  0  0  0  0  0  0  0  0  0
  144.5938  135.9879  154.0020 H   0  0  0  0  0  0  0  0  0  0  0  0
  146.5127  135.4263  155.2471 H   0  0  0  0  0  0  0  0  0  0  0  0
  154.1950  139.4285  158.0237 H   0  0  0  0  0  0  0  0  0  0  0  0
  153.4619  137.8564  158.3142 H   0  0  0  0  0  0  0  0  0  0  0  0
  153.7643  138.9496  159.6634 H   0  0  0  0  0  0  0  0  0  0  0  0
  151.8163  139.4191  157.3718 H   0  0  0  0  0  0  0  0  0  0  0  0
  150.8657  139.0445  160.0812 H   0  0  0  0  0  0  0  0  0  0  0  0
  149.6813  134.7367  158.1170 H   0  0  0  0  0  0  0  0  0  0  0  0
  146.9945  140.2297  156.1047 H   0  0  0  0  0  0  0  0  0  0  0  0
  145.6553  139.7271  152.2949 H   0  0  0  0  0  0  0  0  0  0  0  0
  147.0967  138.8202  152.7044 H   0  0  0  0  0  0  0  0  0  0  0  0
  145.0381  138.0636  150.9102 H   0  0  0  0  0  0  0  0  0  0  0  0
  146.6476  136.1725  152.0885 H   0  0  0  0  0  0  0  0  0  0  0  0
  147.9120  136.0919  153.3140 H   0  0  0  0  0  0  0  0  0  0  0  0
  153.1879  140.6988  160.6394 H   0  0  0  0  0  0  0  0  0  0  0  0
  153.2091  143.0842  161.2808 H   0  0  0  0  0  0  0  0  0  0  0  0
  152.1241  144.7817  159.8202 H   0  0  0  0  0  0  0  0  0  0  0  0
  151.0319  144.0793  157.7046 H   0  0  0  0  0  0  0  0  0  0  0  0
  1  2  1  0  0  0  0
  1 33  1  0  0  0  0
  1 34  1  0  0  0  0
  1 35  1  0  0  0  0
  2  3  1  0  0  0  0
  2 22  1  0  0  0  0
  2 36  1  0  0  0  0
  3  4  1  0  0  0  0
  3 37  1  0  0  0  0
  4  9  1  0  0  0  0
  4  5  2  0  0  0  0
  5  6  1  0  0  0  0
  6  7  2  0  0  0  0
  6 38  1  0  0  0  0
  7  8  1  0  0  0  0
  8 12  1  0  0  0  0
  8  9  2  0  0  0  0
  9 10  1  0  0  0  0
 10 11  2  0  0  0  0
 11 12  1  0  0  0  0
 11 39  1  0  0  0  0
 12 13  1  0  0  0  0
 13 29  1  0  0  0  0
 13 20  1  0  0  0  0
 13 14  1  0  0  0  0
 14 15  1  0  0  0  0
 15 30  1  0  0  0  0
 15 16  1  0  0  0  0
 15 18  1  0  0  0  0
 16 17  1  0  0  0  0
 16 40  1  0  0  0  0
 16 41  1  0  0  0  0
 17 42  1  0  0  0  0
 18 31  1  0  0  0  0
 18 19  1  0  0  0  0
 18 20  1  0  0  0  0
 19 43  1  0  0  0  0
 20 32  1  0  0  0  0
 20 21  1  0  0  0  0
 21 44  1  0  0  0  0
 22 27  1  0  0  0  0
 22 23  2  0  0  0  0
 23 24  1  0  0  0  0
 23 45  1  0  0  0  0
 24 25  2  0  0  0  0
 24 46  1  0  0  0  0
 25 26  1  0  0  0  0
 25 47  1  0  0  0  0
 26 27  2  0  0  0  0
 26 48  1  0  0  0  0
 27 28  1  0  0  0  0
M  END
> <s_m_source_file>
AV-unprocessed.smi

> <i_m_source_file_index>
283

> <i_lp_mmshare_version>
43012

> <i_f3d_flags>
0

> <s_epik_input>
Q2xjMVtjSF1bY0hdW2NIXVtjSF1jMVtDQEhdKFtDSDNdKVtOSF1jKG5bY0hdbjIpYyhjMjMpbltjSF1uM1tDQEBIXTRPW0NASF0oW0NIMl1bT0hdKVtDQEBIXShbT0hdKVtDQEhdNFtPSF0=

> <s_epik_cmdline>
J2VwaWtfcHl0aG9uJywgJy1waCcsICc3LjAnLCAnLXRuJywgJzgnLCAnLW1hJywgJzIwMCcsICctbWV0YWxfYmluZGluZycsICctaW1hZScsICc8aW5maWxlLm1hZT4nLCAnLW9tYWUnLCAnPG91dGZpbGUubWFlPic=

> <r_lp_tautomer_probability>
1

> <r_epik_Ionization_Penalty>
0.000266407

> <r_epik_Ionization_Penalty_Charging>
0

> <r_epik_Ionization_Penalty_Neutral>
0.000266407

> <r_epik_State_Penalty>
-0

> <r_epik_Charging_Adjusted_Penalty>
0

> <i_epik_Tot_Q>
0

> <i_epik_Tot_abs_Q>
0

> <r_epik_Metal_State_Penalty>
-0

> <b_epik_Metal_Only>
0

> <s_epik_Chemistry_Notes>
This compound contains an acetal/aminal-like group ( X-CH(R)-Y where X, Y are N, S, or O) that may be acid/base labile, releasing an aldehyde.

> <s_lp_Force_Field>
OPLS_2005

> <r_lp_Energy>
55.3457

> <b_lp_Chiralities_Consistent>
1

> <s_lp_Variant>
AV-unprocessed.smi:283-8

> <Gold.Version>
5.8.1

> <Gold.Id.Protein>
6NUR|6NUR_protein|mol2

> <Gold.PLP.Fitness>
47.9836

> <Gold.PLP.PLP>
-38.5392

> <Gold.PLP.part.hbond>
-5.1873

> <Gold.PLP.part.metal>
0.0000

> <Gold.PLP.part.buried>
-6.3399

> <Gold.PLP.part.nonpolar>
-28.6475

> <Gold.PLP.part.repulsive>
0.2843

> <Gold.PLP.ligand.clash>
0.0000

> <Gold.PLP.ligand.torsion>
1.5633

> <Gold.PLP.Chemscore.Hbond>
4.1597

> <Gold.PLP.Chemscore.CHOScore>
0.0000

> <Gold.PLP.Chemscore.Metal>
0.0000

> <Gold.Chemscore.Hbonds>
donor molecule, donor type, donor heavy atom, donor atom, acceptor molecule, acceptor atom, score
      L1  H    17    42       P1 10171  0.94
      L1  H    19    43       P1  7948  0.34
      L1  H    21    44       P1  7948  0.72
      P1  H  6896  6907       L1     5  0.46

> <Gold.PLP.Chemscore.Internal.Correction>
0.0920

> <Gold.Rescore>
     Score         DG    S(hbond)    S(metal)    S(lipo)     H(rot)  DE(clash)    DE(int)     intcor
     17.93     -19.79       3.83        0.00     102.64       4.10       0.14       1.71       ----

> <Gold.Chemscore.Fitness>
17.9340

> <Gold.Chemscore.DG>
-19.7905

> <Gold.Chemscore.ZeroCoef>
-5.4800

> <Gold.Chemscore.Hbond>
3.8292

> <Gold.Chemscore.Metal>
0.0000

> <Gold.Chemscore.Lipo>
102.6404

> <Gold.Chemscore.Internal_Hbond>
0.0000

> <Gold.Chemscore.DEClash>
0.1444

> <Gold.Chemscore.DEInternal>
1.7121

> <Gold.Chemscore.Rot>
4.0968

> <Gold.Chemscore.Internal.Correction>
   9.000000E+99

> <Gold.Chemscore.Hbonds>
donor molecule, donor type, donor heavy atom, donor atom, acceptor molecule, acceptor atom, score
      L1  H    17    42       P1 10171  0.91
      L1  H    19    43       P1  7948  0.32
      L1  H    21    44       P1  7948  0.72
      P1  H  6896  6907       L1     5  0.06

> <Gold.Chemscore.Hbond.Weighted>
-12.7895

> <Gold.Chemscore.Metal.Weighted>
-0.0000

> <Gold.Chemscore.Lipo.Weighted>
-12.0089

> <Gold.Chemscore.Internal_Hbond.Weighted>
0.0000

> <Gold.Chemscore.DEClash.Weighted>
0.1444

> <Gold.Chemscore.DEInternal.Weighted>
1.7121

> <Gold.Chemscore.Rot.Weighted>
10.4879

> <Gold.Chemscore.Internal.Correction.Weighted>
   9.000000E+99

> <Gold.Protein.RotatedTorsions>
[ 6907 6896 6895 6894 ] final  -21.83 input  -60.11 | X-H torsion
[ 7974 7965 7964 7962 ] final  155.43 input  175.53 | X-H torsion
[ 8008 7997 7996 7995 ] final  -18.17 input   59.86 | X-H torsion
[ 10167 10162 10161 10158 ] final -115.38 input  -65.29 | X-H torsion
[ 10718 10713 10712 10709 ] final   40.48 input   66.30 | X-H torsion
[ 10763 10752 10751 10750 ] final   39.15 input  -60.55 | X-H torsion
[ 11005 11000 10999 10996 ] final -125.11 input  -57.11 | X-H torsion

> <Gold.Protein.ActiveResidues>
 VAL166  LYS551  ARG553  GLY616  TRP617  ASP618  TYR619  PRO620  LYS621  CYS622 
 ASP623  PHE694  ASN695  SER759  ASP760  ASP761  ALA762  ILE779  LEU786  VAL792 
 PHE793  MET794  SER795  GLU796  ALA797  LYS798  CYS799  TRP800  GLU811  SER814 

> <Gold.Protein.RotatedAtoms>
  151.2276  135.0542  159.8974 H   0  0  0  0  0  0  0  0  0  0  0  0  # atno 6907 bound_to 6896
  152.5408  134.0572  159.8146 H   0  0  0  0  0  0  0  0  0  0  0  0  # atno 6908 bound_to 6896
  151.0747  133.5389  159.2656 H   0  0  0  0  0  0  0  0  0  0  0  0  # atno 6909 bound_to 6896
  144.8025  139.7067  143.6176 H   0  0  0  0  0  0  0  0  0  0  0  0  # atno 7974 bound_to 7965
  154.4925  140.2123  155.9517 H   0  0  0  0  0  0  0  0  0  0  0  0  # atno 8008 bound_to 7997
  156.1325  140.3194  155.8339 H   0  0  0  0  0  0  0  0  0  0  0  0  # atno 8009 bound_to 7997
  155.4270  140.0501  157.3012 H   0  0  0  0  0  0  0  0  0  0  0  0  # atno 8010 bound_to 7997
  140.0907  143.4702  152.1871 H   0  0  0  0  0  0  0  0  0  0  0  0  # atno 10167 bound_to 10162
  157.3826  130.7762  149.7205 H   0  0  0  0  0  0  0  0  0  0  0  0  # atno 10718 bound_to 10713
  152.9977  135.6229  154.2419 H   0  0  0  0  0  0  0  0  0  0  0  0  # atno 10763 bound_to 10752
  154.2159  135.2798  155.2943 H   0  0  0  0  0  0  0  0  0  0  0  0  # atno 10764 bound_to 10752
  154.5568  135.5717  153.7030 H   0  0  0  0  0  0  0  0  0  0  0  0  # atno 10765 bound_to 10752
  140.9788  134.0702  157.3788 H   0  0  0  0  0  0  0  0  0  0  0  0  # atno 11005 bound_to 11000
  146.2310  139.5813  142.9555 LP  0  0  0  0  0  0  0  0  0  0  0  0  # atno 17320 bound_to 7965
  145.5518  141.0412  143.2274 LP  0  0  0  0  0  0  0  0  0  0  0  0  # atno 17321 bound_to 7965
  139.5726  144.7471  151.3850 LP  0  0  0  0  0  0  0  0  0  0  0  0  # atno 17342 bound_to 10162
  140.7030  143.7585  150.7434 LP  0  0  0  0  0  0  0  0  0  0  0  0  # atno 17343 bound_to 10162
  155.9779  130.4057  150.3681 LP  0  0  0  0  0  0  0  0  0  0  0  0  # atno 17370 bound_to 10713
  157.1786  131.0386  151.2759 LP  0  0  0  0  0  0  0  0  0  0  0  0  # atno 17371 bound_to 10713
  139.8941  135.0134  156.6936 LP  0  0  0  0  0  0  0  0  0  0  0  0  # atno 17394 bound_to 11000
  140.7218  133.9134  155.8152 LP  0  0  0  0  0  0  0  0  0  0  0  0  # atno 17395 bound_to 11000

$$$$
