AV-unprocessed.smi:3278|AV-procd|sdf|12540|dock3
  -GOLD-   2272018453D 1   1.00000     0.00000
 Structure written by MMmdl.
 39 40  0  0  0  0  0  0  0  0  2 V2000
  140.9726  137.7677  153.7940 C   0  0  0  0  0  0  0  0  0  0  0  0
  142.0549  136.8468  153.5201 N   0  0  0  0  0  0  0  0  0  0  0  0
  143.1809  137.0460  152.7515 C   0  0  0  0  0  0  0  0  0  0  0  0
  143.9176  135.8935  152.7885 C   0  0  0  0  0  0  0  0  0  0  0  0
  145.2423  135.5820  152.1251 C   0  0  1  0  0  0  0  0  0  0  0  0
  145.0519  135.4806  150.6022 C   0  0  0  0  0  0  0  0  0  0  0  0
  146.1919  136.6120  152.3319 O   0  0  0  0  0  0  0  0  0  0  0  0
  145.8526  134.2776  152.6833 C   0  0  0  0  0  0  0  0  0  0  0  0
  147.0660  133.8769  151.9350 N   0  3  0  0  0  0  0  0  0  0  0  0
  147.7792  132.6928  152.4617 C   0  0  2  0  0  0  0  0  0  0  0  0
  146.7669  131.5538  152.6935 C   0  0  0  0  0  0  0  0  0  0  0  0
  147.4311  130.2487  153.1625 C   0  0  0  0  0  0  0  0  0  0  0  0
  148.1682  130.4144  154.4982 C   0  0  0  0  0  0  0  0  0  0  0  0
  149.5099  131.6243  154.3561 S   0  0  0  0  0  0  0  0  0  0  0  0
  148.5415  133.0363  153.7582 C   0  0  0  0  0  0  0  0  0  0  0  0
  143.1326  135.0357  153.6141 C   0  0  0  0  0  0  0  0  0  0  0  0
  142.0262  135.6099  154.0548 N   0  0  0  0  0  0  0  0  0  0  0  0
  141.1516  138.7171  153.2883 H   0  0  0  0  0  0  0  0  0  0  0  0
  140.9014  137.9456  154.8674 H   0  0  0  0  0  0  0  0  0  0  0  0
  140.0314  137.3484  153.4365 H   0  0  0  0  0  0  0  0  0  0  0  0
  143.3649  137.9838  152.2478 H   0  0  0  0  0  0  0  0  0  0  0  0
  144.3530  134.6850  150.3412 H   0  0  0  0  0  0  0  0  0  0  0  0
  145.9932  135.2677  150.0938 H   0  0  0  0  0  0  0  0  0  0  0  0
  144.6578  136.4104  150.1892 H   0  0  0  0  0  0  0  0  0  0  0  0
  147.0462  136.2918  152.0836 H   0  0  0  0  0  0  0  0  0  0  0  0
  146.1219  134.4186  153.7313 H   0  0  0  0  0  0  0  0  0  0  0  0
  145.1144  133.4758  152.6560 H   0  0  0  0  0  0  0  0  0  0  0  0
  146.8216  133.7154  150.9683 H   0  0  0  0  0  0  0  0  0  0  0  0
  148.4908  132.3621  151.7032 H   0  0  0  0  0  0  0  0  0  0  0  0
  146.0184  131.8636  153.4245 H   0  0  0  0  0  0  0  0  0  0  0  0
  146.2239  131.3567  151.7682 H   0  0  0  0  0  0  0  0  0  0  0  0
  146.6694  129.4756  153.2671 H   0  0  0  0  0  0  0  0  0  0  0  0
  148.1250  129.8911  152.4004 H   0  0  0  0  0  0  0  0  0  0  0  0
  147.4775  130.7379  155.2778 H   0  0  0  0  0  0  0  0  0  0  0  0
  148.5889  129.4611  154.8188 H   0  0  0  0  0  0  0  0  0  0  0  0
  149.2328  133.8640  153.6020 H   0  0  0  0  0  0  0  0  0  0  0  0
  147.8474  133.3448  154.5411 H   0  0  0  0  0  0  0  0  0  0  0  0
  143.3389  134.0176  153.9100 H   0  0  0  0  0  0  0  0  0  0  0  0
  147.7041  134.6591  151.9727 H   0  0  0  0  0  0  0  0  0  0  0  0
  1  2  1  0  0  0  0
  1 18  1  0  0  0  0
  1 19  1  0  0  0  0
  1 20  1  0  0  0  0
  2 17  1  0  0  0  0
  2  3  1  0  0  0  0
  3  4  2  0  0  0  0
  3 21  1  0  0  0  0
  4  5  1  0  0  0  0
  4 16  1  0  0  0  0
  5  6  1  0  0  0  0
  5  7  1  0  0  0  0
  5  8  1  0  0  0  0
  6 22  1  0  0  0  0
  6 23  1  0  0  0  0
  6 24  1  0  0  0  0
  7 25  1  0  0  0  0
  8  9  1  0  0  0  0
  8 26  1  0  0  0  0
  8 27  1  0  0  0  0
  9 10  1  0  0  0  0
  9 28  1  0  0  0  0
  9 39  1  0  0  0  0
 10 15  1  0  0  0  0
 10 11  1  0  0  0  0
 10 29  1  0  0  0  0
 11 12  1  0  0  0  0
 11 30  1  0  0  0  0
 11 31  1  0  0  0  0
 12 13  1  0  0  0  0
 12 32  1  0  0  0  0
 12 33  1  0  0  0  0
 13 14  1  0  0  0  0
 13 34  1  0  0  0  0
 13 35  1  0  0  0  0
 14 15  1  0  0  0  0
 15 36  1  0  0  0  0
 15 37  1  0  0  0  0
 16 17  2  0  0  0  0
 16 38  1  0  0  0  0
M  CHG  1   9   1
M  END
> <s_m_source_file>
AV-unprocessed.smi

> <i_m_source_file_index>
3278

> <i_lp_mmshare_version>
43012

> <i_f3d_flags>
0

> <s_epik_input>
W0NIM11uMVtjSF1jKFtjSF1uMSlbQ0BAXShbQ0gzXSkoW09IXSlbQ0gyXVtOSF1bQ0BASF0yW0NIMl1bQ0gyXVtDSDJdU1tDSDJdMg==

> <s_epik_cmdline>
J2VwaWtfcHl0aG9uJywgJy1waCcsICc3LjAnLCAnLXRuJywgJzgnLCAnLW1hJywgJzIwMCcsICctbWV0YWxfYmluZGluZycsICctaW1hZScsICc8aW5maWxlLm1hZT4nLCAnLW9tYWUnLCAnPG91dGZpbGUubWFlPic=

> <r_lp_tautomer_probability>
1

> <r_epik_Ionization_Penalty>
0.0185703

> <r_epik_Ionization_Penalty_Charging>
0.0185619

> <r_epik_Ionization_Penalty_Neutral>
8.47286e-06

> <r_epik_State_Penalty>
0.0147768

> <r_epik_Charging_Adjusted_Penalty>
0.0333386

> <i_epik_Tot_Q>
1

> <i_epik_Tot_abs_Q>
1

> <r_epik_Metal_State_Penalty>
0.0147782

> <b_epik_Metal_Only>
0

> <s_lp_Force_Field>
OPLS_2005

> <r_lp_Energy>
8.27039

> <b_lp_Chiralities_Consistent>
1

> <s_lp_Variant>
AV-unprocessed.smi:3278-1

> <Gold.Version>
5.8.1

> <Gold.Id.Protein>
6NUR|6NUR_protein|mol2

> <Gold.PLP.Fitness>
47.1577

> <Gold.PLP.PLP>
-30.3831

> <Gold.PLP.part.hbond>
-2.0000

> <Gold.PLP.part.metal>
0.0000

> <Gold.PLP.part.buried>
-5.0848

> <Gold.PLP.part.nonpolar>
-24.5522

> <Gold.PLP.part.repulsive>
0.1262

> <Gold.PLP.ligand.clash>
0.0000

> <Gold.PLP.ligand.torsion>
0.4735

> <Gold.PLP.Chemscore.Hbond>
3.0000

> <Gold.PLP.Chemscore.CHOScore>
2.8961

> <Gold.PLP.Chemscore.Metal>
0.0000

> <Gold.Chemscore.Hbonds>
donor molecule, donor type, donor heavy atom, donor atom, acceptor molecule, acceptor atom, score
      L1  H     7    25       P1  7948  1.00
      L1  H     9    39       P1  7948  2.00
      L1  C     3    21       P1 10171  0.97
      L1  C     3    21       P1 10175  1.00
      L1  C    16    38       P1 10957  1.00

> <Gold.PLP.Chemscore.Internal.Correction>
0.0334

> <Gold.Rescore>
     Score         DG    S(hbond)    S(metal)    S(lipo)     H(rot)  DE(clash)    DE(int)     intcor
     13.25     -13.91       1.81        0.00      64.16       2.00       0.08       0.59       ----

> <Gold.Chemscore.Fitness>
13.2477

> <Gold.Chemscore.DG>
-13.9099

> <Gold.Chemscore.ZeroCoef>
-5.4800

> <Gold.Chemscore.Hbond>
1.8122

> <Gold.Chemscore.Metal>
0.0000

> <Gold.Chemscore.Lipo>
64.1605

> <Gold.Chemscore.Internal_Hbond>
0.0000

> <Gold.Chemscore.DEClash>
0.0766

> <Gold.Chemscore.DEInternal>
0.5856

> <Gold.Chemscore.Rot>
2.0038

> <Gold.Chemscore.Internal.Correction>
   9.000000E+99

> <Gold.Chemscore.Hbonds>
donor molecule, donor type, donor heavy atom, donor atom, acceptor molecule, acceptor atom, score
      L1  H     7    25       P1  7948  1.00
      L1  H     9    39       P1  7948  0.49

> <Gold.Chemscore.Hbond.Weighted>
-6.0527

> <Gold.Chemscore.Metal.Weighted>
-0.0000

> <Gold.Chemscore.Lipo.Weighted>
-7.5068

> <Gold.Chemscore.Internal_Hbond.Weighted>
0.0000

> <Gold.Chemscore.DEClash.Weighted>
0.0766

> <Gold.Chemscore.DEInternal.Weighted>
0.5856

> <Gold.Chemscore.Rot.Weighted>
5.1296

> <Gold.Chemscore.Internal.Correction.Weighted>
   9.000000E+99

> <Gold.Protein.RotatedTorsions>
[ 6907 6896 6895 6894 ] final   74.23 input  -60.11 | X-H torsion
[ 7974 7965 7964 7962 ] final  149.75 input  175.53 | X-H torsion
[ 8008 7997 7996 7995 ] final   26.96 input   59.86 | X-H torsion
[ 10167 10162 10161 10158 ] final -157.21 input  -65.29 | X-H torsion
[ 10718 10713 10712 10709 ] final  145.53 input   66.30 | X-H torsion
[ 10763 10752 10751 10750 ] final  116.58 input  -60.55 | X-H torsion
[ 11005 11000 10999 10996 ] final  -81.74 input  -57.11 | X-H torsion

> <Gold.Protein.ActiveResidues>
 VAL166  LYS551  ARG553  GLY616  TRP617  ASP618  TYR619  PRO620  LYS621  CYS622 
 ASP623  PHE694  ASN695  SER759  ASP760  ASP761  ALA762  ILE779  LEU786  VAL792 
 PHE793  MET794  SER795  GLU796  ALA797  LYS798  CYS799  TRP800  GLU811  SER814 

> <Gold.Protein.RotatedAtoms>
  152.4965  134.4302  159.9509 H   0  0  0  0  0  0  0  0  0  0  0  0  # atno 6907 bound_to 6896
  151.4280  133.3672  159.2773 H   0  0  0  0  0  0  0  0  0  0  0  0  # atno 6908 bound_to 6896
  150.9175  134.8615  159.7526 H   0  0  0  0  0  0  0  0  0  0  0  0  # atno 6909 bound_to 6896
  144.8415  139.6320  143.6014 H   0  0  0  0  0  0  0  0  0  0  0  0  # atno 7974 bound_to 7965
  155.0354  140.3163  155.4743 H   0  0  0  0  0  0  0  0  0  0  0  0  # atno 8008 bound_to 7997
  156.2865  140.2172  156.5419 H   0  0  0  0  0  0  0  0  0  0  0  0  # atno 8009 bound_to 7997
  154.7335  140.0479  157.0735 H   0  0  0  0  0  0  0  0  0  0  0  0  # atno 8010 bound_to 7997
  139.6788  143.9617  152.2325 H   0  0  0  0  0  0  0  0  0  0  0  0  # atno 10167 bound_to 10162
  157.3442  131.0940  151.1056 H   0  0  0  0  0  0  0  0  0  0  0  0  # atno 10718 bound_to 10713
  153.5394  135.3562  155.2712 H   0  0  0  0  0  0  0  0  0  0  0  0  # atno 10763 bound_to 10752
  154.8719  135.4087  154.3061 H   0  0  0  0  0  0  0  0  0  0  0  0  # atno 10764 bound_to 10752
  153.3765  135.7066  153.6666 H   0  0  0  0  0  0  0  0  0  0  0  0  # atno 10765 bound_to 10752
  141.1665  133.7211  156.8468 H   0  0  0  0  0  0  0  0  0  0  0  0  # atno 11005 bound_to 11000
  146.2707  139.6628  142.9298 LP  0  0  0  0  0  0  0  0  0  0  0  0  # atno 17320 bound_to 7965
  145.4684  141.0435  143.2712 LP  0  0  0  0  0  0  0  0  0  0  0  0  # atno 17321 bound_to 7965
  139.9401  144.6687  150.8275 LP  0  0  0  0  0  0  0  0  0  0  0  0  # atno 17342 bound_to 10162
  140.7645  143.3250  151.2536 LP  0  0  0  0  0  0  0  0  0  0  0  0  # atno 17343 bound_to 10162
  157.2257  130.6502  149.5829 LP  0  0  0  0  0  0  0  0  0  0  0  0  # atno 17370 bound_to 10713
  155.9712  130.4615  150.6111 LP  0  0  0  0  0  0  0  0  0  0  0  0  # atno 17371 bound_to 10713
  140.1944  134.8942  157.3098 LP  0  0  0  0  0  0  0  0  0  0  0  0  # atno 17394 bound_to 11000
  140.2255  134.3972  155.7546 LP  0  0  0  0  0  0  0  0  0  0  0  0  # atno 17395 bound_to 11000

$$$$
