AV-unprocessed.smi:2520|AV-procd|sdf|9908|dock1
  -GOLD-   2272013543D 1   1.00000     0.00000
 Structure written by MMmdl.
 41 44  0  0  0  0  0  0  0  0  1 V2000
  145.5514  136.8759  154.5663 O   0  0  0  0  0  0  0  0  0  0  0  0
  146.4907  136.7130  153.7896 C   0  0  0  0  0  0  0  0  0  0  0  0
  146.3817  135.8913  152.7235 N   0  0  0  0  0  0  0  0  0  0  0  0
  145.2984  135.0875  152.2593 C   0  0  0  0  0  0  0  0  0  0  0  0
  145.5690  134.3512  151.0858 C   0  0  0  0  0  0  0  0  0  0  0  0
  144.5569  133.5288  150.5620 C   0  0  0  0  0  0  0  0  0  0  0  0
  143.3328  133.4966  151.2511 C   0  0  0  0  0  0  0  0  0  0  0  0
  143.1141  134.2173  152.3719 N   0  0  0  0  0  0  0  0  0  0  0  0
  144.0833  134.9961  152.8633 N   0  0  0  0  0  0  0  0  0  0  0  0
  147.6711  137.3312  153.9406 N   0  0  0  0  0  0  0  0  0  0  0  0
  148.0117  138.2747  155.0098 C   0  0  1  0  0  0  0  0  0  0  0  0
  149.5172  138.3510  155.2678 C   0  0  1  0  0  0  0  0  0  0  0  0
  150.6828  137.4746  154.9827 C   0  0  0  0  0  0  0  0  0  0  0  0
  151.6615  138.5901  154.5302 C   0  0  0  0  0  0  0  0  0  0  0  0
  150.8634  139.7948  154.4075 O   0  0  0  0  0  0  0  0  0  0  0  0
  149.5657  139.3201  154.1035 C   0  0  2  0  0  0  0  0  0  0  0  0
  148.1588  139.7797  154.5549 C   0  0  0  0  0  0  0  0  0  0  0  0
  147.2158  140.2999  153.4644 C   0  0  0  0  0  0  0  0  0  0  0  0
  147.0888  141.8077  153.6534 C   0  0  0  0  0  0  0  0  0  0  0  0
  147.1615  141.9852  155.1630 C   0  0  0  0  0  0  0  0  0  0  0  0
  148.1018  140.8754  155.6397 C   0  0  0  0  0  0  0  0  0  0  0  0
  147.2211  135.8183  152.1674 H   0  0  0  0  0  0  0  0  0  0  0  0
  146.5299  134.4125  150.5958 H   0  0  0  0  0  0  0  0  0  0  0  0
  144.7130  132.9449  149.6671 H   0  0  0  0  0  0  0  0  0  0  0  0
  142.5157  132.8840  150.8995 H   0  0  0  0  0  0  0  0  0  0  0  0
  148.3903  137.1414  153.2572 H   0  0  0  0  0  0  0  0  0  0  0  0
  147.4281  138.1460  155.9227 H   0  0  0  0  0  0  0  0  0  0  0  0
  149.6730  138.8512  156.2293 H   0  0  0  0  0  0  0  0  0  0  0  0
  151.0351  136.9364  155.8628 H   0  0  0  0  0  0  0  0  0  0  0  0
  150.4782  136.7617  154.1825 H   0  0  0  0  0  0  0  0  0  0  0  0
  152.4591  138.7519  155.2558 H   0  0  0  0  0  0  0  0  0  0  0  0
  152.1196  138.3385  153.5729 H   0  0  0  0  0  0  0  0  0  0  0  0
  149.5573  138.8448  153.1171 H   0  0  0  0  0  0  0  0  0  0  0  0
  147.5630  140.0558  152.4599 H   0  0  0  0  0  0  0  0  0  0  0  0
  146.2303  139.8467  153.5764 H   0  0  0  0  0  0  0  0  0  0  0  0
  147.9340  142.3102  153.1814 H   0  0  0  0  0  0  0  0  0  0  0  0
  146.1722  142.2124  153.2234 H   0  0  0  0  0  0  0  0  0  0  0  0
  147.5020  142.9798  155.4530 H   0  0  0  0  0  0  0  0  0  0  0  0
  146.1710  141.8346  155.5946 H   0  0  0  0  0  0  0  0  0  0  0  0
  147.7692  140.4832  156.6013 H   0  0  0  0  0  0  0  0  0  0  0  0
  149.0943  141.2970  155.8040 H   0  0  0  0  0  0  0  0  0  0  0  0
  1  2  2  0  0  0  0
  2  3  1  0  0  0  0
  2 10  1  0  0  0  0
  3  4  1  0  0  0  0
  3 22  1  0  0  0  0
  4  9  1  0  0  0  0
  4  5  2  0  0  0  0
  5  6  1  0  0  0  0
  5 23  1  0  0  0  0
  6  7  2  0  0  0  0
  6 24  1  0  0  0  0
  7  8  1  0  0  0  0
  7 25  1  0  0  0  0
  8  9  2  0  0  0  0
 10 11  1  0  0  0  0
 10 26  1  0  0  0  0
 11 17  1  0  0  0  0
 11 12  1  0  0  0  0
 11 27  1  0  0  0  0
 12 16  1  0  0  0  0
 12 13  1  0  0  0  0
 12 28  1  0  0  0  0
 13 14  1  0  0  0  0
 13 29  1  0  0  0  0
 13 30  1  0  0  0  0
 14 15  1  0  0  0  0
 14 31  1  0  0  0  0
 14 32  1  0  0  0  0
 15 16  1  0  0  0  0
 16 17  1  0  0  0  0
 16 33  1  0  0  0  0
 17 21  1  0  0  0  0
 17 18  1  0  0  0  0
 18 19  1  0  0  0  0
 18 34  1  0  0  0  0
 18 35  1  0  0  0  0
 19 20  1  0  0  0  0
 19 36  1  0  0  0  0
 19 37  1  0  0  0  0
 20 21  1  0  0  0  0
 20 38  1  0  0  0  0
 20 39  1  0  0  0  0
 21 40  1  0  0  0  0
 21 41  1  0  0  0  0
M  END
> <s_m_source_file>
AV-unprocessed.smi

> <i_m_source_file_index>
2520

> <i_lp_mmshare_version>
43012

> <i_f3d_flags>
0

> <s_epik_input>
bjFuW2NIXVtjSF1bY0hdYzFbTkhdQyg9TylbTkhdW0NAQEhdMltDQEBIXShbQ0gyXVtDSDJdTzMpW0NASF0zQzI0W0NIMl1bQ0gyXVtDSDJdW0NIMl00

> <s_epik_cmdline>
J2VwaWtfcHl0aG9uJywgJy1waCcsICc3LjAnLCAnLXRuJywgJzgnLCAnLW1hJywgJzIwMCcsICctbWV0YWxfYmluZGluZycsICctaW1hZScsICc8aW5maWxlLm1hZT4nLCAnLW9tYWUnLCAnPG91dGZpbGUubWFlPic=

> <r_lp_tautomer_probability>
1

> <r_epik_Ionization_Penalty>
0.00552561

> <r_epik_Ionization_Penalty_Charging>
0

> <r_epik_Ionization_Penalty_Neutral>
0.00552561

> <r_epik_State_Penalty>
-0

> <r_epik_Charging_Adjusted_Penalty>
0

> <i_epik_Tot_Q>
0

> <i_epik_Tot_abs_Q>
0

> <r_epik_Metal_State_Penalty>
-0

> <b_epik_Metal_Only>
0

> <s_lp_Force_Field>
OPLS_2005

> <r_lp_Energy>
86.562

> <b_lp_Chiralities_Consistent>
1

> <s_lp_Variant>
AV-unprocessed.smi:2520-2

> <Gold.Version>
5.8.1

> <Gold.Id.Protein>
6NUR|6NUR_protein|mol2

> <Gold.PLP.Fitness>
38.9575

> <Gold.PLP.PLP>
-28.6328

> <Gold.PLP.part.hbond>
-3.0000

> <Gold.PLP.part.metal>
0.0000

> <Gold.PLP.part.buried>
-2.7829

> <Gold.PLP.part.nonpolar>
-22.7582

> <Gold.PLP.part.repulsive>
0.4536

> <Gold.PLP.ligand.clash>
0.0000

> <Gold.PLP.ligand.torsion>
0.2247

> <Gold.PLP.Chemscore.Hbond>
3.0000

> <Gold.PLP.Chemscore.CHOScore>
0.4985

> <Gold.PLP.Chemscore.Metal>
0.0000

> <Gold.Chemscore.Hbonds>
donor molecule, donor type, donor heavy atom, donor atom, acceptor molecule, acceptor atom, score
      L1  H     3    22       P1  7948  1.00
      L1  H    10    26       P1  7948  1.00
      P1  H  7989  7998       L1    15  1.00
      L1  C     7    25       P1 10186  0.53

> <Gold.PLP.Chemscore.Internal.Correction>
0.2787

> <Gold.Rescore>
     Score         DG    S(hbond)    S(metal)    S(lipo)     H(rot)  DE(clash)    DE(int)     intcor
     19.28     -20.82       2.76        0.00      74.28       1.00       0.11       1.42       ----

> <Gold.Chemscore.Fitness>
19.2849

> <Gold.Chemscore.DG>
-20.8207

> <Gold.Chemscore.ZeroCoef>
-5.4800

> <Gold.Chemscore.Hbond>
2.7576

> <Gold.Chemscore.Metal>
0.0000

> <Gold.Chemscore.Lipo>
74.2772

> <Gold.Chemscore.Internal_Hbond>
0.0000

> <Gold.Chemscore.DEClash>
0.1119

> <Gold.Chemscore.DEInternal>
1.4239

> <Gold.Chemscore.Rot>
1.0000

> <Gold.Chemscore.Internal.Correction>
   9.000000E+99

> <Gold.Chemscore.Hbonds>
donor molecule, donor type, donor heavy atom, donor atom, acceptor molecule, acceptor atom, score
      L1  H     3    22       P1  7948  0.96
      L1  H    10    26       P1  7948  0.94
      P1  H  7989  7998       L1    15  0.73

> <Gold.Chemscore.Hbond.Weighted>
-9.2103

> <Gold.Chemscore.Metal.Weighted>
-0.0000

> <Gold.Chemscore.Lipo.Weighted>
-8.6904

> <Gold.Chemscore.Internal_Hbond.Weighted>
0.0000

> <Gold.Chemscore.DEClash.Weighted>
0.1119

> <Gold.Chemscore.DEInternal.Weighted>
1.4239

> <Gold.Chemscore.Rot.Weighted>
2.5600

> <Gold.Chemscore.Internal.Correction.Weighted>
   9.000000E+99

> <Gold.Protein.RotatedTorsions>
[ 6907 6896 6895 6894 ] final    7.21 input  -60.11 | X-H torsion
[ 7974 7965 7964 7962 ] final   -5.45 input  175.53 | X-H torsion
[ 8008 7997 7996 7995 ] final -152.39 input   59.86 | X-H torsion
[ 10167 10162 10161 10158 ] final  -82.36 input  -65.29 | X-H torsion
[ 10718 10713 10712 10709 ] final  -79.00 input   66.30 | X-H torsion
[ 10763 10752 10751 10750 ] final   97.67 input  -60.55 | X-H torsion
[ 11005 11000 10999 10996 ] final  -27.06 input  -57.11 | X-H torsion

> <Gold.Protein.ActiveResidues>
 VAL166  LYS551  ARG553  GLY616  TRP617  ASP618  TYR619  PRO620  LYS621  CYS622 
 ASP623  PHE694  ASN695  SER759  ASP760  ASP761  ALA762  ILE779  LEU786  VAL792 
 PHE793  MET794  SER795  GLU796  ALA797  LYS798  CYS799  TRP800  GLU811  SER814 

> <Gold.Protein.RotatedAtoms>
  151.6862  135.0954  160.0224 H   0  0  0  0  0  0  0  0  0  0  0  0  # atno 6907 bound_to 6896
  152.3806  133.6537  159.6167 H   0  0  0  0  0  0  0  0  0  0  0  0  # atno 6908 bound_to 6896
  150.7744  133.9037  159.3390 H   0  0  0  0  0  0  0  0  0  0  0  0  # atno 6909 bound_to 6896
  146.2352  140.2023  142.8334 H   0  0  0  0  0  0  0  0  0  0  0  0  # atno 7974 bound_to 7965
  155.6544  140.0715  157.2576 H   0  0  0  0  0  0  0  0  0  0  0  0  # atno 8008 bound_to 7997
  154.4155  140.1727  156.1759 H   0  0  0  0  0  0  0  0  0  0  0  0  # atno 8009 bound_to 7997
  155.9750  140.3358  155.6613 H   0  0  0  0  0  0  0  0  0  0  0  0  # atno 8010 bound_to 7997
  140.4326  143.2543  151.8737 H   0  0  0  0  0  0  0  0  0  0  0  0  # atno 10167 bound_to 10162
  156.0103  130.4533  150.3582 H   0  0  0  0  0  0  0  0  0  0  0  0  # atno 10718 bound_to 10713
  153.2797  135.4175  155.1067 H   0  0  0  0  0  0  0  0  0  0  0  0  # atno 10763 bound_to 10752
  154.8485  135.3492  154.6129 H   0  0  0  0  0  0  0  0  0  0  0  0  # atno 10764 bound_to 10752
  153.6550  135.7051  153.5254 H   0  0  0  0  0  0  0  0  0  0  0  0  # atno 10765 bound_to 10752
  140.9085  133.7476  156.0638 H   0  0  0  0  0  0  0  0  0  0  0  0  # atno 11005 bound_to 11000
  144.9772  140.8425  143.5419 LP  0  0  0  0  0  0  0  0  0  0  0  0  # atno 17320 bound_to 7965
  145.2012  139.2251  143.5192 LP  0  0  0  0  0  0  0  0  0  0  0  0  # atno 17321 bound_to 7965
  139.4785  144.5317  151.8656 LP  0  0  0  0  0  0  0  0  0  0  0  0  # atno 17342 bound_to 10162
  140.4409  144.1987  150.5891 LP  0  0  0  0  0  0  0  0  0  0  0  0  # atno 17343 bound_to 10162
  157.1672  131.0360  151.2813 LP  0  0  0  0  0  0  0  0  0  0  0  0  # atno 17370 bound_to 10713
  157.4260  130.7464  149.6951 LP  0  0  0  0  0  0  0  0  0  0  0  0  # atno 17371 bound_to 10713
  140.8140  134.3366  157.5403 LP  0  0  0  0  0  0  0  0  0  0  0  0  # atno 17394 bound_to 11000
  139.8753  134.9271  156.3416 LP  0  0  0  0  0  0  0  0  0  0  0  0  # atno 17395 bound_to 11000

$$$$
