AV-unprocessed.smi:1047|AV-procd|sdf|4567|dock7
  -GOLD-   22720 3 13D 1   1.00000     0.00000
 Structure written by MMmdl.
 57 59  0  0  0  0  0  0  0  0  3 V2000
  144.2314  143.3372  162.0910 C   0  0  0  0  0  0  0  0  0  0  0  0
  144.6072  142.2868  161.0359 C   0  0  0  0  0  0  0  0  0  0  0  0
  144.9003  142.8874  159.7102 N   0  3  2  0  0  0  0  0  0  0  0  0
  143.7200  143.5706  159.1287 C   0  0  0  0  0  0  0  0  0  0  0  0
  144.0843  144.2330  157.7895 C   0  0  0  0  0  0  0  0  0  0  0  0
  144.6015  143.2550  156.8951 O   0  0  0  0  0  0  0  0  0  0  0  0
  145.7809  142.6358  157.3968 C   0  0  2  0  0  0  0  0  0  0  0  0
  146.3485  141.6968  156.3179 C   0  0  0  0  0  0  0  0  0  0  0  0
  146.9025  142.4387  155.1659 N   0  3  0  0  0  0  0  0  0  0  0  0
  147.4305  141.5757  154.0899 C   0  0  0  0  0  0  0  0  0  0  0  0
  148.5940  140.7076  154.5953 C   0  0  1  0  0  0  0  0  0  0  0  0
  148.8801  139.7198  153.6229 O   0  0  0  0  0  0  0  0  0  0  0  0
  149.8599  141.5414  154.8731 C   0  0  0  0  0  0  0  0  0  0  0  0
  150.6526  140.9998  155.9625 N   0  0  0  0  0  0  0  0  0  0  0  0
  151.0860  139.7314  156.0958 C   0  0  0  0  0  0  0  0  0  0  0  0
  151.8088  139.4449  157.1743 N   0  0  0  0  0  0  0  0  0  0  0  0
  151.8463  140.6696  157.8185 C   0  0  0  0  0  0  0  0  0  0  0  0
  152.4622  141.0487  159.0312 C   0  0  0  0  0  0  0  0  0  0  0  0
  152.3683  142.3755  159.5083 C   0  0  0  0  0  0  0  0  0  0  0  0
  153.0443  142.7378  160.8191 C   0  0  0  0  0  0  0  0  0  0  0  0
  151.6474  143.3471  158.7685 C   0  0  0  0  0  0  0  0  0  0  0  0
  151.5258  144.7766  159.2653 C   0  0  0  0  0  0  0  0  0  0  0  0
  151.0296  142.9864  157.5527 C   0  0  0  0  0  0  0  0  0  0  0  0
  151.1300  141.6629  157.0884 C   0  0  0  0  0  0  0  0  0  0  0  0
  145.4731  141.9275  158.7335 C   0  0  0  0  0  0  0  0  0  0  0  0
  143.9215  142.8541  163.0181 H   0  0  0  0  0  0  0  0  0  0  0  0
  143.4028  143.9595  161.7517 H   0  0  0  0  0  0  0  0  0  0  0  0
  145.0682  143.9911  162.3346 H   0  0  0  0  0  0  0  0  0  0  0  0
  145.4549  141.6891  161.3740 H   0  0  0  0  0  0  0  0  0  0  0  0
  143.7656  141.6002  160.9345 H   0  0  0  0  0  0  0  0  0  0  0  0
  142.9136  142.8499  158.9830 H   0  0  0  0  0  0  0  0  0  0  0  0
  143.3508  144.3283  159.8211 H   0  0  0  0  0  0  0  0  0  0  0  0
  143.1998  144.6871  157.3423 H   0  0  0  0  0  0  0  0  0  0  0  0
  144.8122  145.0328  157.9354 H   0  0  0  0  0  0  0  0  0  0  0  0
  146.5263  143.4124  157.5782 H   0  0  0  0  0  0  0  0  0  0  0  0
  147.1362  141.0785  156.7506 H   0  0  0  0  0  0  0  0  0  0  0  0
  145.5685  141.0186  155.9692 H   0  0  0  0  0  0  0  0  0  0  0  0
  146.1808  143.0282  154.7764 H   0  0  0  0  0  0  0  0  0  0  0  0
  146.6326  140.9490  153.6883 H   0  0  0  0  0  0  0  0  0  0  0  0
  147.7746  142.2154  153.2761 H   0  0  0  0  0  0  0  0  0  0  0  0
  148.2949  140.2027  155.5152 H   0  0  0  0  0  0  0  0  0  0  0  0
  149.0552  140.1464  152.7976 H   0  0  0  0  0  0  0  0  0  0  0  0
  150.4844  141.6001  153.9808 H   0  0  0  0  0  0  0  0  0  0  0  0
  149.5878  142.5664  155.1285 H   0  0  0  0  0  0  0  0  0  0  0  0
  150.8609  138.9762  155.3568 H   0  0  0  0  0  0  0  0  0  0  0  0
  153.0092  140.3077  159.5954 H   0  0  0  0  0  0  0  0  0  0  0  0
  152.3006  143.0136  161.5665 H   0  0  0  0  0  0  0  0  0  0  0  0
  153.7260  143.5772  160.6817 H   0  0  0  0  0  0  0  0  0  0  0  0
  153.6222  141.9015  161.2129 H   0  0  0  0  0  0  0  0  0  0  0  0
  150.8921  145.3734  158.6089 H   0  0  0  0  0  0  0  0  0  0  0  0
  152.5065  145.2508  159.3074 H   0  0  0  0  0  0  0  0  0  0  0  0
  151.0862  144.7989  160.2629 H   0  0  0  0  0  0  0  0  0  0  0  0
  150.4801  143.7185  156.9798 H   0  0  0  0  0  0  0  0  0  0  0  0
  146.3905  141.4909  159.1270 H   0  0  0  0  0  0  0  0  0  0  0  0
  144.7684  141.1088  158.5810 H   0  0  0  0  0  0  0  0  0  0  0  0
  147.6558  143.0273  155.4941 H   0  0  0  0  0  0  0  0  0  0  0  0
  145.5941  143.6047  159.8674 H   0  0  0  0  0  0  0  0  0  0  0  0
  1  2  1  0  0  0  0
  1 26  1  0  0  0  0
  1 27  1  0  0  0  0
  1 28  1  0  0  0  0
  2  3  1  0  0  0  0
  2 29  1  0  0  0  0
  2 30  1  0  0  0  0
  3 25  1  0  0  0  0
  3  4  1  0  0  0  0
  3 57  1  0  0  0  0
  4  5  1  0  0  0  0
  4 31  1  0  0  0  0
  4 32  1  0  0  0  0
  5  6  1  0  0  0  0
  5 33  1  0  0  0  0
  5 34  1  0  0  0  0
  6  7  1  0  0  0  0
  7  8  1  0  0  0  0
  7 25  1  0  0  0  0
  7 35  1  0  0  0  0
  8  9  1  0  0  0  0
  8 36  1  0  0  0  0
  8 37  1  0  0  0  0
  9 10  1  0  0  0  0
  9 38  1  0  0  0  0
  9 56  1  0  0  0  0
 10 11  1  0  0  0  0
 10 39  1  0  0  0  0
 10 40  1  0  0  0  0
 11 12  1  0  0  0  0
 11 13  1  0  0  0  0
 11 41  1  0  0  0  0
 12 42  1  0  0  0  0
 13 14  1  0  0  0  0
 13 43  1  0  0  0  0
 13 44  1  0  0  0  0
 14 24  1  0  0  0  0
 14 15  1  0  0  0  0
 15 16  2  0  0  0  0
 15 45  1  0  0  0  0
 16 17  1  0  0  0  0
 17 24  2  0  0  0  0
 17 18  1  0  0  0  0
 18 19  2  0  0  0  0
 18 46  1  0  0  0  0
 19 20  1  0  0  0  0
 19 21  1  0  0  0  0
 20 47  1  0  0  0  0
 20 48  1  0  0  0  0
 20 49  1  0  0  0  0
 21 22  1  0  0  0  0
 21 23  2  0  0  0  0
 22 50  1  0  0  0  0
 22 51  1  0  0  0  0
 22 52  1  0  0  0  0
 23 24  1  0  0  0  0
 23 53  1  0  0  0  0
 25 54  1  0  0  0  0
 25 55  1  0  0  0  0
M  CHG  1   3   1
M  CHG  1   9   1
M  END
> <s_m_source_file>
AV-unprocessed.smi

> <i_m_source_file_index>
1047

> <i_lp_mmshare_version>
43012

> <i_f3d_flags>
0

> <s_epik_input>
W0NIM11bQ0gyXU4xW0NIMl1bQ0gyXU9bQ0BIXShbQ0gyXTEpW0NIMl1bTkhdW0NIMl1bQ0BIXShbT0hdKVtDSDJdbihbY0hdbjIpYyhjMjMpW2NIXWMoW0NIM10pYyhbY0hdMylbQ0gzXQ==

> <s_epik_cmdline>
J2VwaWtfcHl0aG9uJywgJy1waCcsICc3LjAnLCAnLXRuJywgJzgnLCAnLW1hJywgJzIwMCcsICctbWV0YWxfYmluZGluZycsICctaW1hZScsICc8aW5maWxlLm1hZT4nLCAnLW9tYWUnLCAnPG91dGZpbGUubWFlPic=

> <r_epik_Ionization_Penalty>
0.528991

> <r_epik_Ionization_Penalty_Charging>
0.438567

> <r_epik_Ionization_Penalty_Neutral>
0.0904237

> <r_epik_State_Penalty>
0.533036

> <r_epik_Charging_Adjusted_Penalty>
0.971603

> <i_epik_Tot_Q>
2

> <i_epik_Tot_abs_Q>
2

> <r_epik_Metal_State_Penalty>
0.448985

> <b_epik_Metal_Only>
0

> <s_lp_Force_Field>
OPLS_2005

> <r_lp_Energy>
32.051

> <b_lp_Chiralities_Consistent>
1

> <s_lp_Variant>
AV-unprocessed.smi:1047-8

> <Gold.Version>
5.8.1

> <Gold.Id.Protein>
6NUR|6NUR_protein|mol2

> <Gold.PLP.Fitness>
56.5264

> <Gold.PLP.PLP>
-48.6011

> <Gold.PLP.part.hbond>
-2.0000

> <Gold.PLP.part.metal>
0.0000

> <Gold.PLP.part.buried>
-5.4154

> <Gold.PLP.part.nonpolar>
-41.0529

> <Gold.PLP.part.repulsive>
0.2516

> <Gold.PLP.ligand.clash>
0.0000

> <Gold.PLP.ligand.torsion>
0.6209

> <Gold.PLP.Chemscore.Hbond>
3.0000

> <Gold.PLP.Chemscore.CHOScore>
0.0000

> <Gold.PLP.Chemscore.Metal>
0.0000

> <Gold.Chemscore.Hbonds>
donor molecule, donor type, donor heavy atom, donor atom, acceptor molecule, acceptor atom, score
      L1  H     9    56       P1  8028  1.82
      L1  H    12    42       P1  7957  0.98

> <Gold.PLP.Chemscore.Internal.Correction>
0.1671

> <Gold.Rescore>
     Score         DG    S(hbond)    S(metal)    S(lipo)     H(rot)  DE(clash)    DE(int)     intcor
     16.51     -18.18       1.72        0.00     118.44       2.70       1.09       0.59       ----

> <Gold.Chemscore.Fitness>
16.5058

> <Gold.Chemscore.DG>
-18.1801

> <Gold.Chemscore.ZeroCoef>
-5.4800

> <Gold.Chemscore.Hbond>
1.7217

> <Gold.Chemscore.Metal>
0.0000

> <Gold.Chemscore.Lipo>
118.4423

> <Gold.Chemscore.Internal_Hbond>
0.0000

> <Gold.Chemscore.DEClash>
1.0888

> <Gold.Chemscore.DEInternal>
0.5855

> <Gold.Chemscore.Rot>
2.6985

> <Gold.Chemscore.Internal.Correction>
   9.000000E+99

> <Gold.Chemscore.Hbonds>
donor molecule, donor type, donor heavy atom, donor atom, acceptor molecule, acceptor atom, score
      L1  H     9    56       P1  8028  0.39
      L1  H    12    42       P1  7957  0.93

> <Gold.Chemscore.Hbond.Weighted>
-5.7505

> <Gold.Chemscore.Metal.Weighted>
-0.0000

> <Gold.Chemscore.Lipo.Weighted>
-13.8578

> <Gold.Chemscore.Internal_Hbond.Weighted>
0.0000

> <Gold.Chemscore.DEClash.Weighted>
1.0888

> <Gold.Chemscore.DEInternal.Weighted>
0.5855

> <Gold.Chemscore.Rot.Weighted>
6.9081

> <Gold.Chemscore.Internal.Correction.Weighted>
   9.000000E+99

> <Gold.Protein.RotatedTorsions>
[ 6907 6896 6895 6894 ] final   39.90 input  -60.11 | X-H torsion
[ 7974 7965 7964 7962 ] final  -67.15 input  175.53 | X-H torsion
[ 8008 7997 7996 7995 ] final  -86.21 input   59.86 | X-H torsion
[ 10167 10162 10161 10158 ] final  174.23 input  -65.29 | X-H torsion
[ 10718 10713 10712 10709 ] final  143.61 input   66.30 | X-H torsion
[ 10763 10752 10751 10750 ] final -178.37 input  -60.55 | X-H torsion
[ 11005 11000 10999 10996 ] final -168.28 input  -57.11 | X-H torsion

> <Gold.Protein.ActiveResidues>
 VAL166  LYS551  ARG553  GLY616  TRP617  ASP618  TYR619  PRO620  LYS621  CYS622 
 ASP623  PHE694  ASN695  SER759  ASP760  ASP761  ALA762  ILE779  LEU786  VAL792 
 PHE793  MET794  SER795  GLU796  ALA797  LYS798  CYS799  TRP800  GLU811  SER814 

> <Gold.Protein.RotatedAtoms>
  152.1756  134.8798  160.0530 H   0  0  0  0  0  0  0  0  0  0  0  0  # atno 6907 bound_to 6896
  151.9741  133.3731  159.4090 H   0  0  0  0  0  0  0  0  0  0  0  0  # atno 6908 bound_to 6896
  150.6909  134.4031  159.5172 H   0  0  0  0  0  0  0  0  0  0  0  0  # atno 6909 bound_to 6896
  145.7328  140.8989  143.0571 H   0  0  0  0  0  0  0  0  0  0  0  0  # atno 7974 bound_to 7965
  154.6493  140.0581  156.9937 H   0  0  0  0  0  0  0  0  0  0  0  0  # atno 8008 bound_to 7997
  155.1396  140.3264  155.4436 H   0  0  0  0  0  0  0  0  0  0  0  0  # atno 8009 bound_to 7997
  156.2568  140.1966  156.6512 H   0  0  0  0  0  0  0  0  0  0  0  0  # atno 8010 bound_to 7997
  139.5134  144.3171  152.0238 H   0  0  0  0  0  0  0  0  0  0  0  0  # atno 10167 bound_to 10162
  157.3669  131.0973  151.0864 H   0  0  0  0  0  0  0  0  0  0  0  0  # atno 10718 bound_to 10713
  154.5485  135.2811  155.1030 H   0  0  0  0  0  0  0  0  0  0  0  0  # atno 10763 bound_to 10752
  154.2485  135.6344  153.5235 H   0  0  0  0  0  0  0  0  0  0  0  0  # atno 10764 bound_to 10752
  152.9997  135.5577  154.6045 H   0  0  0  0  0  0  0  0  0  0  0  0  # atno 10765 bound_to 10752
  140.5437  134.5497  157.5106 H   0  0  0  0  0  0  0  0  0  0  0  0  # atno 11005 bound_to 11000
  144.6889  139.9354  143.7473 LP  0  0  0  0  0  0  0  0  0  0  0  0  # atno 17320 bound_to 7965
  146.0521  139.3521  143.0633 LP  0  0  0  0  0  0  0  0  0  0  0  0  # atno 17321 bound_to 7965
  140.2614  144.4063  150.6184 LP  0  0  0  0  0  0  0  0  0  0  0  0  # atno 17342 bound_to 10162
  140.6155  143.2172  151.6801 LP  0  0  0  0  0  0  0  0  0  0  0  0  # atno 17343 bound_to 10162
  157.1983  130.6383  149.5729 LP  0  0  0  0  0  0  0  0  0  0  0  0  # atno 17370 bound_to 10713
  155.9748  130.4699  150.6412 LP  0  0  0  0  0  0  0  0  0  0  0  0  # atno 17371 bound_to 10713
  139.9490  134.7650  156.0492 LP  0  0  0  0  0  0  0  0  0  0  0  0  # atno 17394 bound_to 11000
  141.1212  133.6612  156.3219 LP  0  0  0  0  0  0  0  0  0  0  0  0  # atno 17395 bound_to 11000

$$$$
