AV-unprocessed.smi:1639|AV-procd|sdf|6551|dock6
  -GOLD-   22720 7233D 1   1.00000     0.00000
 Structure written by MMmdl.
 38 39  0  0  0  0  0  0  0  0  2 V2000
  153.2405  142.5068  160.0915 C   0  0  0  0  0  0  0  0  0  0  0  0
  152.8753  143.3601  158.8692 C   0  0  0  0  0  0  0  0  0  0  0  0
  151.5880  143.0298  158.3651 O   0  0  0  0  0  0  0  0  0  0  0  0
  151.5407  141.8704  157.5428 C   0  0  1  0  0  0  0  0  0  0  0  0
  151.5605  140.6201  158.4395 C   0  0  0  0  0  0  0  0  0  0  0  0
  151.3470  139.3564  157.5911 C   0  0  0  0  0  0  0  0  0  0  0  0
  150.0596  139.4686  156.7558 C   0  0  0  0  0  0  0  0  0  0  0  0
  150.0675  140.6876  155.9511 N   0  0  0  0  0  0  0  0  0  0  0  0
  148.9954  140.7549  155.0536 C   0  0  0  0  0  0  0  0  0  0  0  0
  148.0902  141.8370  155.0116 C   0  0  0  0  0  0  0  0  0  0  0  0
  147.0640  141.7671  154.0533 C   0  0  0  0  0  0  0  0  0  0  0  0
  146.0338  142.8674  153.9098 C   0  0  0  0  0  0  0  0  0  0  0  0
  146.9511  140.7156  153.2165 N   0  0  0  0  0  0  0  0  0  0  0  0
  147.8412  139.7212  153.3077 C   0  0  0  0  0  0  0  0  0  0  0  0
  147.7170  138.6550  152.4496 N   0  0  0  0  0  0  0  0  0  0  0  0
  148.8469  139.7165  154.1948 N   0  3  0  0  0  0  0  0  0  0  0  0
  150.2436  141.9190  156.7167 C   0  0  0  0  0  0  0  0  0  0  0  0
  154.2010  142.8159  160.5041 H   0  0  0  0  0  0  0  0  0  0  0  0
  153.3166  141.4494  159.8388 H   0  0  0  0  0  0  0  0  0  0  0  0
  152.4917  142.6106  160.8771 H   0  0  0  0  0  0  0  0  0  0  0  0
  152.8557  144.4097  159.1630 H   0  0  0  0  0  0  0  0  0  0  0  0
  153.6304  143.2733  158.0864 H   0  0  0  0  0  0  0  0  0  0  0  0
  152.3877  141.8281  156.8548 H   0  0  0  0  0  0  0  0  0  0  0  0
  152.5039  140.5549  158.9820 H   0  0  0  0  0  0  0  0  0  0  0  0
  150.7730  140.6926  159.1906 H   0  0  0  0  0  0  0  0  0  0  0  0
  152.2015  139.2127  156.9284 H   0  0  0  0  0  0  0  0  0  0  0  0
  151.3009  138.4768  158.2335 H   0  0  0  0  0  0  0  0  0  0  0  0
  149.9635  138.5983  156.1052 H   0  0  0  0  0  0  0  0  0  0  0  0
  149.1910  139.4721  157.4159 H   0  0  0  0  0  0  0  0  0  0  0  0
  148.1809  142.6793  155.6821 H   0  0  0  0  0  0  0  0  0  0  0  0
  146.2135  143.6711  154.6246 H   0  0  0  0  0  0  0  0  0  0  0  0
  145.0315  142.4750  154.0839 H   0  0  0  0  0  0  0  0  0  0  0  0
  146.0673  143.2914  152.9059 H   0  0  0  0  0  0  0  0  0  0  0  0
  146.9699  138.6309  151.7706 H   0  0  0  0  0  0  0  0  0  0  0  0
  148.3730  137.8881  152.4832 H   0  0  0  0  0  0  0  0  0  0  0  0
  149.3892  142.0610  157.3798 H   0  0  0  0  0  0  0  0  0  0  0  0
  150.2683  142.7734  156.0388 H   0  0  0  0  0  0  0  0  0  0  0  0
  149.5081  138.9407  154.2341 H   0  0  0  0  0  0  0  0  0  0  0  0
  1  2  1  0  0  0  0
  1 18  1  0  0  0  0
  1 19  1  0  0  0  0
  1 20  1  0  0  0  0
  2  3  1  0  0  0  0
  2 21  1  0  0  0  0
  2 22  1  0  0  0  0
  3  4  1  0  0  0  0
  4 17  1  0  0  0  0
  4  5  1  0  0  0  0
  4 23  1  0  0  0  0
  5  6  1  0  0  0  0
  5 24  1  0  0  0  0
  5 25  1  0  0  0  0
  6  7  1  0  0  0  0
  6 26  1  0  0  0  0
  6 27  1  0  0  0  0
  7  8  1  0  0  0  0
  7 28  1  0  0  0  0
  7 29  1  0  0  0  0
  8  9  1  0  0  0  0
  8 17  1  0  0  0  0
  9 16  1  0  0  0  0
  9 10  2  0  0  0  0
 10 11  1  0  0  0  0
 10 30  1  0  0  0  0
 11 12  1  0  0  0  0
 11 13  2  0  0  0  0
 12 31  1  0  0  0  0
 12 32  1  0  0  0  0
 12 33  1  0  0  0  0
 13 14  1  0  0  0  0
 14 15  1  0  0  0  0
 14 16  2  0  0  0  0
 15 34  1  0  0  0  0
 15 35  1  0  0  0  0
 16 38  1  0  0  0  0
 17 36  1  0  0  0  0
 17 37  1  0  0  0  0
M  CHG  1  16   1
M  END
> <s_m_source_file>
AV-unprocessed.smi

> <i_m_source_file_index>
1639

> <i_lp_mmshare_version>
43012

> <i_f3d_flags>
0

> <s_epik_input>
W0NIM11bQ0gyXU9bQ0BASF0xW0NIMl1bQ0gyXVtDSDJdTihbQ0gyXTEpYzJbY0hdYyhbQ0gzXSluYyhuMilbTkgyXQ==

> <s_epik_cmdline>
J2VwaWtfcHl0aG9uJywgJy1waCcsICc3LjAnLCAnLXRuJywgJzgnLCAnLW1hJywgJzIwMCcsICctbWV0YWxfYmluZGluZycsICctaW1hZScsICc8aW5maWxlLm1hZT4nLCAnLW9tYWUnLCAnPG91dGZpbGUubWFlPic=

> <r_lp_tautomer_probability>
0.424989

> <r_epik_Ionization_Penalty>
0.443088

> <r_epik_Ionization_Penalty_Charging>
0.443085

> <r_epik_Ionization_Penalty_Neutral>
3.21819e-06

> <r_epik_State_Penalty>
1.26241

> <r_epik_Charging_Adjusted_Penalty>
1.70549

> <i_epik_Tot_Q>
1

> <i_epik_Tot_abs_Q>
1

> <r_epik_Metal_State_Penalty>
1.59997

> <b_epik_Metal_Only>
0

> <s_lp_Force_Field>
OPLS_2005

> <r_lp_Energy>
15.005

> <b_lp_Chiralities_Consistent>
1

> <s_lp_Variant>
AV-unprocessed.smi:1639-4

> <Gold.Version>
5.8.1

> <Gold.Id.Protein>
6NUR|6NUR_protein|mol2

> <Gold.PLP.Fitness>
36.7954

> <Gold.PLP.PLP>
-31.4007

> <Gold.PLP.part.hbond>
-2.7464

> <Gold.PLP.part.metal>
0.0000

> <Gold.PLP.part.buried>
-1.7059

> <Gold.PLP.part.nonpolar>
-27.6802

> <Gold.PLP.part.repulsive>
0.4464

> <Gold.PLP.ligand.clash>
0.0735

> <Gold.PLP.ligand.torsion>
0.3360

> <Gold.PLP.Chemscore.Hbond>
2.0000

> <Gold.PLP.Chemscore.CHOScore>
0.0000

> <Gold.PLP.Chemscore.Metal>
0.0000

> <Gold.Chemscore.Hbonds>
donor molecule, donor type, donor heavy atom, donor atom, acceptor molecule, acceptor atom, score
      L1  H    15    35       P1  7948  2.00

> <Gold.PLP.Chemscore.Internal.Correction>
0.1402

> <Gold.Rescore>
     Score         DG    S(hbond)    S(metal)    S(lipo)     H(rot)  DE(clash)    DE(int)     intcor
     12.56     -13.21       0.89        0.00      72.39       1.46       0.17       0.47       ----

> <Gold.Chemscore.Fitness>
12.5617

> <Gold.Chemscore.DG>
-13.2060

> <Gold.Chemscore.ZeroCoef>
-5.4800

> <Gold.Chemscore.Hbond>
0.8933

> <Gold.Chemscore.Metal>
0.0000

> <Gold.Chemscore.Lipo>
72.3907

> <Gold.Chemscore.Internal_Hbond>
0.0000

> <Gold.Chemscore.DEClash>
0.1736

> <Gold.Chemscore.DEInternal>
0.4707

> <Gold.Chemscore.Rot>
1.4560

> <Gold.Chemscore.Internal.Correction>
   9.000000E+99

> <Gold.Chemscore.Hbonds>
donor molecule, donor type, donor heavy atom, donor atom, acceptor molecule, acceptor atom, score
      L1  H    15    35       P1  7948  0.94

> <Gold.Chemscore.Hbond.Weighted>
-2.9835

> <Gold.Chemscore.Metal.Weighted>
-0.0000

> <Gold.Chemscore.Lipo.Weighted>
-8.4697

> <Gold.Chemscore.Internal_Hbond.Weighted>
0.0000

> <Gold.Chemscore.DEClash.Weighted>
0.1736

> <Gold.Chemscore.DEInternal.Weighted>
0.4707

> <Gold.Chemscore.Rot.Weighted>
3.7272

> <Gold.Chemscore.Internal.Correction.Weighted>
   9.000000E+99

> <Gold.Protein.RotatedTorsions>
[ 6907 6896 6895 6894 ] final  -23.29 input  -60.11 | X-H torsion
[ 7974 7965 7964 7962 ] final  142.03 input  175.53 | X-H torsion
[ 8008 7997 7996 7995 ] final  -34.93 input   59.86 | X-H torsion
[ 10167 10162 10161 10158 ] final  -39.14 input  -65.29 | X-H torsion
[ 10718 10713 10712 10709 ] final  154.70 input   66.30 | X-H torsion
[ 10763 10752 10751 10750 ] final  -24.73 input  -60.55 | X-H torsion
[ 11005 11000 10999 10996 ] final   51.86 input  -57.11 | X-H torsion

> <Gold.Protein.ActiveResidues>
 VAL166  LYS551  ARG553  GLY616  TRP617  ASP618  TYR619  PRO620  LYS621  CYS622 
 ASP623  PHE694  ASN695  SER759  ASP760  ASP761  ALA762  ILE779  LEU786  VAL792 
 PHE793  MET794  SER795  GLU796  ALA797  LYS798  CYS799  TRP800  GLU811  SER814 

> <Gold.Protein.RotatedAtoms>
  151.2062  135.0463  159.8892 H   0  0  0  0  0  0  0  0  0  0  0  0  # atno 6907 bound_to 6896
  152.5428  134.0795  159.8239 H   0  0  0  0  0  0  0  0  0  0  0  0  # atno 6908 bound_to 6896
  151.0942  133.5244  159.2645 H   0  0  0  0  0  0  0  0  0  0  0  0  # atno 6909 bound_to 6896
  144.9044  139.5379  143.5738 H   0  0  0  0  0  0  0  0  0  0  0  0  # atno 7974 bound_to 7965
  154.4108  140.1671  156.2129 H   0  0  0  0  0  0  0  0  0  0  0  0  # atno 8008 bound_to 7997
  155.9429  140.3406  155.6319 H   0  0  0  0  0  0  0  0  0  0  0  0  # atno 8009 bound_to 7997
  155.6966  140.0740  157.2417 H   0  0  0  0  0  0  0  0  0  0  0  0  # atno 8010 bound_to 7997
  140.7073  143.3233  151.2740 H   0  0  0  0  0  0  0  0  0  0  0  0  # atno 10167 bound_to 10162
  157.2282  131.0733  151.1870 H   0  0  0  0  0  0  0  0  0  0  0  0  # atno 10718 bound_to 10713
  153.6885  135.6963  153.5097 H   0  0  0  0  0  0  0  0  0  0  0  0  # atno 10763 bound_to 10752
  153.2431  135.4299  155.0718 H   0  0  0  0  0  0  0  0  0  0  0  0  # atno 10764 bound_to 10752
  154.8380  135.3513  154.6427 H   0  0  0  0  0  0  0  0  0  0  0  0  # atno 10765 bound_to 10752
  140.0898  134.5225  155.8864 H   0  0  0  0  0  0  0  0  0  0  0  0  # atno 11005 bound_to 11000
  146.3125  139.7799  142.9008 LP  0  0  0  0  0  0  0  0  0  0  0  0  # atno 17320 bound_to 7965
  145.3562  141.0317  143.3311 LP  0  0  0  0  0  0  0  0  0  0  0  0  # atno 17321 bound_to 7965
  139.6694  144.0048  152.2743 LP  0  0  0  0  0  0  0  0  0  0  0  0  # atno 17342 bound_to 10162
  139.9641  144.6538  150.8051 LP  0  0  0  0  0  0  0  0  0  0  0  0  # atno 17343 bound_to 10162
  157.3506  130.7080  149.6438 LP  0  0  0  0  0  0  0  0  0  0  0  0  # atno 17370 bound_to 10713
  155.9677  130.4254  150.4650 LP  0  0  0  0  0  0  0  0  0  0  0  0  # atno 17371 bound_to 10713
  141.2074  133.6664  156.6304 LP  0  0  0  0  0  0  0  0  0  0  0  0  # atno 17394 bound_to 11000
  140.3369  134.7882  157.4368 LP  0  0  0  0  0  0  0  0  0  0  0  0  # atno 17395 bound_to 11000

$$$$
