#       Name:                AV-unprocessed.smi:809
#       Creating user name   scv26
#       Creation time:       Fri Mar 27 01:24:48 2020


#       File generated by GOLD software.
#

@<TRIPOS>MOLECULE
AV-unprocessed.smi:809
    45    46     1
SMALL
NO_CHARGES


@<TRIPOS>ATOM
      1 ****        -5.2233   4.0802  -1.8360 C.3            1 S1                 0.0000
      2 ****        -4.5495   3.0028  -1.0461 C.2            1 S1                 0.0000
      3 ****        -5.0587   1.7708  -0.7276 C.2            1 S1                 0.0000
      4 ****        -3.9322   0.8329   0.2109 S.3            1 S1                 0.0000
      5 ****        -2.7775   2.1658   0.1354 C.2            1 S1                 0.0000
      6 ****        -1.5593   2.1599   0.7006 N.pl3          1 S1                -1.0000
      7 ****        -0.5288   1.5479   0.0762 C.2            1 S1                 0.0000
      8 ****        -0.5749   0.9763  -1.0154 O.2            1 S1                 0.0000
      9 ****         0.6187   1.5884   0.7695 N.am           1 S1                 0.0000
     10 ****         1.8858   0.9597   0.3996 C.3            1 S1                 0.0000
     11 ****         2.2485  -0.2455   1.3102 C.3            1 S1                 0.0000
     12 ****         2.7175   0.3014   2.5285 O.3            1 S1                 0.0000
     13 ****         1.0846  -1.2139   1.6281 C.3            1 S1                 0.0000
     14 ****         0.6857  -2.0534   0.4024 C.3            1 S1                 0.0000
     15 ****         1.8462  -2.8170  -0.1176 N.4            1 S1                 1.0000
     16 ****         1.4702  -3.7232  -1.2239 C.3            1 S1                 0.0000
     17 ****         2.9855  -1.9347  -0.4732 C.3            1 S1                 0.0000
     18 ****         3.4186  -1.0667   0.7249 C.3            1 S1                 0.0000
     19 ****        -3.2622   3.2104  -0.5450 N.2            1 S1                 0.0000
     20 ****        -6.0991   3.6998  -2.3621 H              1 S1                 0.0000
     21 ****        -4.5499   4.5026  -2.5823 H              1 S1                 0.0000
     22 ****        -5.5534   4.8927  -1.1885 H              1 S1                 0.0000
     23 ****        -6.0230   1.3594  -0.9847 H              1 S1                 0.0000
     24 ****         0.6006   2.0739   1.6549 H              1 S1                 0.0000
     25 ****         1.8523   0.6499  -0.6442 H              1 S1                 0.0000
     26 ****         2.6693   1.7174   0.4436 H              1 S1                 0.0000
     27 ****         2.9426  -0.4056   3.1132 H              1 S1                 0.0000
     28 ****         1.3889  -1.8953   2.4244 H              1 S1                 0.0000
     29 ****         0.2169  -0.6822   2.0189 H              1 S1                 0.0000
     30 ****        -0.1087  -2.7461   0.6830 H              1 S1                 0.0000
     31 ****         0.2836  -1.4190  -0.3870 H              1 S1                 0.0000
     32 ****         1.1091  -3.1593  -2.0850 H              1 S1                 0.0000
     33 ****         0.6829  -4.4092  -0.9094 H              1 S1                 0.0000
     34 ****         2.3257  -4.3211  -1.5398 H              1 S1                 0.0000
     35 ****         3.8280  -2.5482  -0.7946 H              1 S1                 0.0000
     36 ****         2.7145  -1.3122  -1.3264 H              1 S1                 0.0000
     37 ****         4.2358  -0.4071   0.4300 H              1 S1                 0.0000
     38 ****         3.8248  -1.7254   1.4947 H              1 S1                 0.0000
     39 ****         2.1630  -3.4053   0.6396 H              1 S1                 0.0000
     40 ****        -1.4148   2.6080   1.5828 LP             1 S1                 0.0000
     41 ****        -1.4355   0.9367  -1.5231 LP             1 S1                 0.0000
     42 ****         0.2483   0.5522  -1.3929 LP             1 S1                 0.0000
     43 ****         2.0017   0.8642   2.9418 LP             1 S1                 0.0000
     44 ****         3.5257   0.8642   2.3551 LP             1 S1                 0.0000
     45 ****        -2.7516   4.0592  -0.6819 LP             1 S1                 0.0000
@<TRIPOS>BOND
    1    1    2 1     
    2    1   20 1     
    3    1   21 1     
    4    1   22 1     
    5    2   19 1     
    6    2    3 2     
    7    3    4 1     
    8    3   23 1     
    9    4    5 1     
   10    5    6 1     
   11    5   19 2     
   12    6    7 1     
   13    7    8 2     
   14    7    9 am    
   15    9   10 1     
   16    9   24 1     
   17   10   11 1     
   18   10   25 1     
   19   10   26 1     
   20   11   18 1     
   21   11   12 1     
   22   11   13 1     
   23   12   27 1     
   24   13   14 1     
   25   13   28 1     
   26   13   29 1     
   27   14   15 1     
   28   14   30 1     
   29   14   31 1     
   30   15   16 1     
   31   15   17 1     
   32   15   39 1     
   33   16   32 1     
   34   16   33 1     
   35   16   34 1     
   36   17   18 1     
   37   17   35 1     
   38   17   36 1     
   39   18   37 1     
   40   18   38 1     
   41    6   40 1     
   42    8   41 1     
   43    8   42 1     
   44   12   43 1     
   45   12   44 1     
   46   19   45 1     
@<TRIPOS>SUBSTRUCTURE
      1 S1             1
@<TRIPOS>SET
LONE_PAIRS      STATIC     ATOMS    <user>   **** ""
6 40 41 42 43 44 45
DONOR_HYDROGENS      STATIC     ATOMS    <user>   **** ""
3 24 27 39
ATOM$BLUE        STATIC     ATOMS    COLORGROUP SYSTEM
6 40 41 42 43 44 45
ATOM$RED        STATIC     ATOMS    COLORGROUP SYSTEM
3 24 27 39
