AV-unprocessed.smi:3159|AV-procd|sdf|12050|dock1
  -GOLD-   2272017473D 1   1.00000     0.00000
 Structure written by MMmdl.
 35 36  0  0  0  0  0  0  0  0  1 V2000
  151.0372  142.1087  156.3084 C   0  0  0  0  0  0  0  0  0  0  0  0
  150.6665  140.8986  155.5029 C   0  0  0  0  0  0  0  0  0  0  0  0
  149.4502  140.6490  154.8036 C   0  0  0  0  0  0  0  0  0  0  0  0
  149.6634  139.4122  154.2583 C   0  0  0  0  0  0  0  0  0  0  0  0
  148.8307  138.6687  153.4815 N   0  0  0  0  0  0  0  0  0  0  0  0
  147.5063  138.8065  153.2946 C   0  0  0  0  0  0  0  0  0  0  0  0
  146.7977  139.6686  153.8144 O   0  0  0  0  0  0  0  0  0  0  0  0
  147.0371  137.8690  152.4585 N   0  0  0  0  0  0  0  0  0  0  0  0
  145.6448  137.7235  152.0437 C   0  0  0  0  0  0  0  0  0  0  0  0
  145.2117  136.2461  151.9937 C   0  0  1  0  0  0  0  0  0  0  0  0
  143.7139  136.0090  152.0260 C   0  0  0  0  0  0  0  0  0  0  0  0
  143.6035  134.5883  151.4802 C   0  0  0  0  0  0  0  0  0  0  0  0
  144.7080  134.4205  150.5956 O   0  0  0  0  0  0  0  0  0  0  0  0
  145.5853  135.5383  150.6921 C   0  0  0  0  0  0  0  0  0  0  0  0
  150.9208  138.9777  154.6209 N   0  0  0  0  0  0  0  0  0  0  0  0
  151.6145  137.7443  154.3026 C   0  0  0  0  0  0  0  0  0  0  0  0
  151.5356  139.9008  155.3909 N   0  0  0  0  0  0  0  0  0  0  0  0
  150.3007  142.9033  156.1872 H   0  0  0  0  0  0  0  0  0  0  0  0
  152.0053  142.5054  156.0016 H   0  0  0  0  0  0  0  0  0  0  0  0
  151.0951  141.8691  157.3704 H   0  0  0  0  0  0  0  0  0  0  0  0
  148.5812  141.2851  154.7286 H   0  0  0  0  0  0  0  0  0  0  0  0
  149.2727  137.9106  152.9829 H   0  0  0  0  0  0  0  0  0  0  0  0
  147.6926  137.2014  152.0792 H   0  0  0  0  0  0  0  0  0  0  0  0
  144.9825  138.2983  152.6936 H   0  0  0  0  0  0  0  0  0  0  0  0
  145.5493  138.1623  151.0503 H   0  0  0  0  0  0  0  0  0  0  0  0
  145.6689  135.7052  152.8242 H   0  0  0  0  0  0  0  0  0  0  0  0
  143.2819  136.1134  153.0218 H   0  0  0  0  0  0  0  0  0  0  0  0
  143.2047  136.7058  151.3586 H   0  0  0  0  0  0  0  0  0  0  0  0
  143.6952  133.8618  152.2882 H   0  0  0  0  0  0  0  0  0  0  0  0
  142.6554  134.4116  150.9719 H   0  0  0  0  0  0  0  0  0  0  0  0
  145.4088  136.1882  149.8338 H   0  0  0  0  0  0  0  0  0  0  0  0
  146.6298  135.2269  150.6700 H   0  0  0  0  0  0  0  0  0  0  0  0
  151.0082  137.1168  153.6495 H   0  0  0  0  0  0  0  0  0  0  0  0
  151.8267  137.1953  155.2205 H   0  0  0  0  0  0  0  0  0  0  0  0
  152.5540  137.9715  153.7979 H   0  0  0  0  0  0  0  0  0  0  0  0
  1  2  1  0  0  0  0
  1 18  1  0  0  0  0
  1 19  1  0  0  0  0
  1 20  1  0  0  0  0
  2 17  2  0  0  0  0
  2  3  1  0  0  0  0
  3  4  2  0  0  0  0
  3 21  1  0  0  0  0
  4  5  1  0  0  0  0
  4 15  1  0  0  0  0
  5  6  1  0  0  0  0
  5 22  1  0  0  0  0
  6  7  2  0  0  0  0
  6  8  1  0  0  0  0
  8  9  1  0  0  0  0
  8 23  1  0  0  0  0
  9 10  1  0  0  0  0
  9 24  1  0  0  0  0
  9 25  1  0  0  0  0
 10 14  1  0  0  0  0
 10 11  1  0  0  0  0
 10 26  1  0  0  0  0
 11 12  1  0  0  0  0
 11 27  1  0  0  0  0
 11 28  1  0  0  0  0
 12 13  1  0  0  0  0
 12 29  1  0  0  0  0
 12 30  1  0  0  0  0
 13 14  1  0  0  0  0
 14 31  1  0  0  0  0
 14 32  1  0  0  0  0
 15 16  1  0  0  0  0
 15 17  1  0  0  0  0
 16 33  1  0  0  0  0
 16 34  1  0  0  0  0
 16 35  1  0  0  0  0
M  END
> <s_m_source_file>
AV-unprocessed.smi

> <i_m_source_file_index>
3159

> <i_lp_mmshare_version>
43012

> <i_f3d_flags>
0

> <s_epik_input>
W0NIM11jMVtjSF1jKG4objEpW0NIM10pW05IXUMoPU8pW05IXVtDSDJdW0NAQEhdMltDSDJdW0NIMl1PW0NIMl0y

> <s_epik_cmdline>
J2VwaWtfcHl0aG9uJywgJy1waCcsICc3LjAnLCAnLXRuJywgJzgnLCAnLW1hJywgJzIwMCcsICctbWV0YWxfYmluZGluZycsICctaW1hZScsICc8aW5maWxlLm1hZT4nLCAnLW9tYWUnLCAnPG91dGZpbGUubWFlPic=

> <r_lp_tautomer_probability>
1

> <r_epik_Ionization_Penalty>
9.40319e-05

> <r_epik_Ionization_Penalty_Charging>
0

> <r_epik_Ionization_Penalty_Neutral>
9.40319e-05

> <r_epik_State_Penalty>
-0

> <r_epik_Charging_Adjusted_Penalty>
0

> <i_epik_Tot_Q>
0

> <i_epik_Tot_abs_Q>
0

> <r_epik_Metal_State_Penalty>
-0

> <b_epik_Metal_Only>
0

> <s_lp_Force_Field>
OPLS_2005

> <r_lp_Energy>
19.8906

> <b_lp_Chiralities_Consistent>
1

> <s_lp_Variant>
AV-unprocessed.smi:3159-2

> <Gold.Version>
5.8.1

> <Gold.Id.Protein>
6NUR|6NUR_protein|mol2

> <Gold.PLP.Fitness>
37.8784

> <Gold.PLP.PLP>
-32.9269

> <Gold.PLP.part.hbond>
-3.9092

> <Gold.PLP.part.metal>
0.0000

> <Gold.PLP.part.buried>
-4.4190

> <Gold.PLP.part.nonpolar>
-26.0950

> <Gold.PLP.part.repulsive>
0.4416

> <Gold.PLP.ligand.clash>
0.0000

> <Gold.PLP.ligand.torsion>
0.4070

> <Gold.PLP.Chemscore.Hbond>
1.9199

> <Gold.PLP.Chemscore.CHOScore>
0.0000

> <Gold.PLP.Chemscore.Metal>
0.0000

> <Gold.Chemscore.Hbonds>
donor molecule, donor type, donor heavy atom, donor atom, acceptor molecule, acceptor atom, score
      L1  H     5    22       P1  7948  0.93
      L1  H     8    23       P1  7948  1.00

> <Gold.PLP.Chemscore.Internal.Correction>
0.0057

> <Gold.Rescore>
     Score         DG    S(hbond)    S(metal)    S(lipo)     H(rot)  DE(clash)    DE(int)     intcor
     14.14     -15.47       1.93        0.00      57.68       1.25       0.16       1.17       ----

> <Gold.Chemscore.Fitness>
14.1405

> <Gold.Chemscore.DG>
-15.4723

> <Gold.Chemscore.ZeroCoef>
-5.4800

> <Gold.Chemscore.Hbond>
1.9275

> <Gold.Chemscore.Metal>
0.0000

> <Gold.Chemscore.Lipo>
57.6837

> <Gold.Chemscore.Internal_Hbond>
0.0000

> <Gold.Chemscore.DEClash>
0.1587

> <Gold.Chemscore.DEInternal>
1.1731

> <Gold.Chemscore.Rot>
1.2478

> <Gold.Chemscore.Internal.Correction>
   9.000000E+99

> <Gold.Chemscore.Hbonds>
donor molecule, donor type, donor heavy atom, donor atom, acceptor molecule, acceptor atom, score
      L1  H     5    22       P1  7948  0.83
      L1  H     8    23       P1  7948  0.98

> <Gold.Chemscore.Hbond.Weighted>
-6.4377

> <Gold.Chemscore.Metal.Weighted>
-0.0000

> <Gold.Chemscore.Lipo.Weighted>
-6.7490

> <Gold.Chemscore.Internal_Hbond.Weighted>
0.0000

> <Gold.Chemscore.DEClash.Weighted>
0.1587

> <Gold.Chemscore.DEInternal.Weighted>
1.1731

> <Gold.Chemscore.Rot.Weighted>
3.1944

> <Gold.Chemscore.Internal.Correction.Weighted>
   9.000000E+99

> <Gold.Protein.RotatedTorsions>
[ 6907 6896 6895 6894 ] final   86.71 input  -60.11 | X-H torsion
[ 7974 7965 7964 7962 ] final  -76.89 input  175.53 | X-H torsion
[ 8008 7997 7996 7995 ] final  -35.46 input   59.86 | X-H torsion
[ 10167 10162 10161 10158 ] final   80.76 input  -65.29 | X-H torsion
[ 10718 10713 10712 10709 ] final  134.74 input   66.30 | X-H torsion
[ 10763 10752 10751 10750 ] final  -25.79 input  -60.55 | X-H torsion
[ 11005 11000 10999 10996 ] final -164.65 input  -57.11 | X-H torsion

> <Gold.Protein.ActiveResidues>
 VAL166  LYS551  ARG553  GLY616  TRP617  ASP618  TYR619  PRO620  LYS621  CYS622 
 ASP623  PHE694  ASN695  SER759  ASP760  ASP761  ALA762  ILE779  LEU786  VAL792 
 PHE793  MET794  SER795  GLU796  ALA797  LYS798  CYS799  TRP800  GLU811  SER814 

> <Gold.Protein.RotatedAtoms>
  152.5399  134.2390  159.8854 H   0  0  0  0  0  0  0  0  0  0  0  0  # atno 6907 bound_to 6896
  151.2358  133.4419  159.2613 H   0  0  0  0  0  0  0  0  0  0  0  0  # atno 6908 bound_to 6896
  151.0673  134.9789  159.8347 H   0  0  0  0  0  0  0  0  0  0  0  0  # atno 6909 bound_to 6896
  145.6069  140.9396  143.1210 H   0  0  0  0  0  0  0  0  0  0  0  0  # atno 7974 bound_to 7965
  154.4095  140.1656  156.2216 H   0  0  0  0  0  0  0  0  0  0  0  0  # atno 8008 bound_to 7997
  155.9359  140.3411  155.6264 H   0  0  0  0  0  0  0  0  0  0  0  0  # atno 8009 bound_to 7997
  155.7049  140.0749  157.2386 H   0  0  0  0  0  0  0  0  0  0  0  0  # atno 8010 bound_to 7997
  139.9464  144.6055  150.8203 H   0  0  0  0  0  0  0  0  0  0  0  0  # atno 10167 bound_to 10162
  157.4641  131.1075  150.9883 H   0  0  0  0  0  0  0  0  0  0  0  0  # atno 10718 bound_to 10713
  153.7055  135.6954  153.5051 H   0  0  0  0  0  0  0  0  0  0  0  0  # atno 10763 bound_to 10752
  153.2311  135.4337  155.0595 H   0  0  0  0  0  0  0  0  0  0  0  0  # atno 10764 bound_to 10752
  154.8331  135.3484  154.6593 H   0  0  0  0  0  0  0  0  0  0  0  0  # atno 10765 bound_to 10752
  140.5846  134.5107  157.5183 H   0  0  0  0  0  0  0  0  0  0  0  0  # atno 11005 bound_to 11000
  144.7286  139.7796  143.7355 LP  0  0  0  0  0  0  0  0  0  0  0  0  # atno 17320 bound_to 7965
  146.1534  139.4624  143.0034 LP  0  0  0  0  0  0  0  0  0  0  0  0  # atno 17321 bound_to 7965
  140.7596  143.3132  151.2795 LP  0  0  0  0  0  0  0  0  0  0  0  0  # atno 17342 bound_to 10162
  139.6663  144.0099  152.2725 LP  0  0  0  0  0  0  0  0  0  0  0  0  # atno 17343 bound_to 10162
  157.0670  130.5848  149.5396 LP  0  0  0  0  0  0  0  0  0  0  0  0  # atno 17370 bound_to 10713
  156.0042  130.5126  150.7772 LP  0  0  0  0  0  0  0  0  0  0  0  0  # atno 17371 bound_to 10713
  139.9302  134.7979  156.0954 LP  0  0  0  0  0  0  0  0  0  0  0  0  # atno 17394 bound_to 11000
  141.0974  133.6690  156.2677 LP  0  0  0  0  0  0  0  0  0  0  0  0  # atno 17395 bound_to 11000

$$$$
