AV-unprocessed.smi:3228|AV-procd|sdf|12324|dock1
  -GOLD-   2272018173D 1   1.00000     0.00000
 Structure written by MMmdl.
 30 31  0  0  0  0  0  0  0  0  2 V2000
  148.4181  138.0620  159.1292 O   0  0  0  0  0  0  0  0  0  0  0  0
  148.9068  136.9867  158.7749 C   0  0  0  0  0  0  0  0  0  0  0  0
  149.4691  136.8775  157.5641 N   0  0  0  0  0  0  0  0  0  0  0  0
  149.5605  137.9502  156.5815 C   0  0  0  0  0  0  0  0  0  0  0  0
  151.0256  138.2133  156.1856 C   0  0  1  0  0  0  0  0  0  0  0  0
  151.5187  137.4353  154.9580 C   0  0  0  0  0  0  0  0  0  0  0  0
  152.7177  138.2284  154.4157 C   0  0  0  0  0  0  0  0  0  0  0  0
  152.7240  139.5759  155.1552 C   0  0  0  0  0  0  0  0  0  0  0  0
  151.3694  139.6752  155.8649 C   0  0  1  0  0  0  0  0  0  0  0  0
  150.4273  140.2493  154.9776 O   0  0  0  0  0  0  0  0  0  0  0  0
  148.9437  135.8445  159.4985 N   0  5  0  0  0  0  0  0  0  0  0  0
  148.2585  135.7563  160.6502 C   0  0  0  0  0  0  0  0  0  0  0  0
  147.9388  136.8228  161.3923 N   0  0  0  0  0  0  0  0  0  0  0  0
  147.2324  136.5004  162.5525 C   0  0  0  0  0  0  0  0  0  0  0  0
  147.0164  135.1563  162.7017 C   0  0  0  0  0  0  0  0  0  0  0  0
  147.6987  134.2496  161.3816 S   0  0  0  0  0  0  0  0  0  0  0  0
  149.8583  135.9821  157.3077 H   0  0  0  0  0  0  0  0  0  0  0  0
  148.9679  137.6789  155.7066 H   0  0  0  0  0  0  0  0  0  0  0  0
  149.1221  138.8579  156.9991 H   0  0  0  0  0  0  0  0  0  0  0  0
  151.6547  137.9193  157.0280 H   0  0  0  0  0  0  0  0  0  0  0  0
  151.7816  136.4057  155.2028 H   0  0  0  0  0  0  0  0  0  0  0  0
  150.7348  137.3999  154.2001 H   0  0  0  0  0  0  0  0  0  0  0  0
  153.6537  137.6951  154.5852 H   0  0  0  0  0  0  0  0  0  0  0  0
  152.6171  138.3744  153.3398 H   0  0  0  0  0  0  0  0  0  0  0  0
  153.5175  139.5652  155.9037 H   0  0  0  0  0  0  0  0  0  0  0  0
  152.9216  140.4193  154.4920 H   0  0  0  0  0  0  0  0  0  0  0  0
  151.4249  140.2882  156.7650 H   0  0  0  0  0  0  0  0  0  0  0  0
  149.5651  140.1492  155.3516 H   0  0  0  0  0  0  0  0  0  0  0  0
  146.9230  137.2928  163.2173 H   0  0  0  0  0  0  0  0  0  0  0  0
  146.5024  134.6462  163.5022 H   0  0  0  0  0  0  0  0  0  0  0  0
  1  2  2  0  0  0  0
  2  3  1  0  0  0  0
  2 11  1  0  0  0  0
  3  4  1  0  0  0  0
  3 17  1  0  0  0  0
  4  5  1  0  0  0  0
  4 18  1  0  0  0  0
  4 19  1  0  0  0  0
  5  9  1  0  0  0  0
  5  6  1  0  0  0  0
  5 20  1  0  0  0  0
  6  7  1  0  0  0  0
  6 21  1  0  0  0  0
  6 22  1  0  0  0  0
  7  8  1  0  0  0  0
  7 23  1  0  0  0  0
  7 24  1  0  0  0  0
  8  9  1  0  0  0  0
  8 25  1  0  0  0  0
  8 26  1  0  0  0  0
  9 10  1  0  0  0  0
  9 27  1  0  0  0  0
 10 28  1  0  0  0  0
 11 12  1  0  0  0  0
 12 16  1  0  0  0  0
 12 13  2  0  0  0  0
 13 14  1  0  0  0  0
 14 15  2  0  0  0  0
 14 29  1  0  0  0  0
 15 16  1  0  0  0  0
 15 30  1  0  0  0  0
M  CHG  1  11  -1
M  END
> <s_m_source_file>
AV-unprocessed.smi

> <i_m_source_file_index>
3228

> <i_lp_mmshare_version>
43012

> <i_f3d_flags>
0

> <s_epik_input>
czFbY0hdW2NIXW5jMVtOSF1DKD1PKVtOSF1bQ0gyXVtDQEBIXTJbQ0gyXVtDSDJdW0NIMl1bQ0BIXTJbT0hd

> <s_epik_cmdline>
J2VwaWtfcHl0aG9uJywgJy1waCcsICc3LjAnLCAnLXRuJywgJzgnLCAnLW1hJywgJzIwMCcsICctbWV0YWxfYmluZGluZycsICctaW1hZScsICc8aW5maWxlLm1hZT4nLCAnLW9tYWUnLCAnPG91dGZpbGUubWFlPic=

> <r_lp_tautomer_probability>
0.999

> <r_epik_Ionization_Penalty>
8.49756

> <r_epik_Ionization_Penalty_Charging>
6.79645

> <r_epik_Ionization_Penalty_Neutral>
1.70111

> <r_epik_State_Penalty>
6.79662

> <r_epik_Charging_Adjusted_Penalty>
13.5931

> <i_epik_Tot_Q>
-1

> <i_epik_Tot_abs_Q>
1

> <r_epik_Metal_State_Penalty>
2.71629

> <b_epik_Metal_Only>
1

> <s_lp_Force_Field>
OPLS_2005

> <r_lp_Energy>
20.5315

> <b_lp_Chiralities_Consistent>
1

> <s_lp_Variant>
AV-unprocessed.smi:3228-6

> <Gold.Version>
5.8.1

> <Gold.Id.Protein>
6NUR|6NUR_protein|mol2

> <Gold.PLP.Fitness>
38.8264

> <Gold.PLP.PLP>
-28.3742

> <Gold.PLP.part.hbond>
-5.1099

> <Gold.PLP.part.metal>
0.0000

> <Gold.PLP.part.buried>
-0.1463

> <Gold.PLP.part.nonpolar>
-23.1441

> <Gold.PLP.part.repulsive>
0.0445

> <Gold.PLP.ligand.clash>
0.0000

> <Gold.PLP.ligand.torsion>
0.5883

> <Gold.PLP.Chemscore.Hbond>
3.8694

> <Gold.PLP.Chemscore.CHOScore>
0.0000

> <Gold.PLP.Chemscore.Metal>
0.0000

> <Gold.Chemscore.Hbonds>
donor molecule, donor type, donor heavy atom, donor atom, acceptor molecule, acceptor atom, score
      P1  H  6896  6909       L1    11  1.59
      P1  H  6931  6943       L1    13  1.00
      P1  H  6934  6947       L1    13  0.12
      P1  H  7989  7998       L1    10  1.00

> <Gold.PLP.Chemscore.Internal.Correction>
0.0205

> <Gold.Rescore>
     Score         DG    S(hbond)    S(metal)    S(lipo)     H(rot)  DE(clash)    DE(int)     intcor
     12.83     -16.65       2.52        0.00      63.81       1.85       1.61       2.21       ----

> <Gold.Chemscore.Fitness>
12.8332

> <Gold.Chemscore.DG>
-16.6480

> <Gold.Chemscore.ZeroCoef>
-5.4800

> <Gold.Chemscore.Hbond>
2.5249

> <Gold.Chemscore.Metal>
0.0000

> <Gold.Chemscore.Lipo>
63.8125

> <Gold.Chemscore.Internal_Hbond>
0.0000

> <Gold.Chemscore.DEClash>
1.6099

> <Gold.Chemscore.DEInternal>
2.2050

> <Gold.Chemscore.Rot>
1.8481

> <Gold.Chemscore.Internal.Correction>
   9.000000E+99

> <Gold.Chemscore.Hbonds>
donor molecule, donor type, donor heavy atom, donor atom, acceptor molecule, acceptor atom, score
      P1  H  6896  6909       L1    11  0.57
      P1  H  6931  6943       L1    13  0.45
      P1  H  6934  6947       L1    13  0.05
      P1  H  7989  7998       L1    10  0.28

> <Gold.Chemscore.Hbond.Weighted>
-8.4332

> <Gold.Chemscore.Metal.Weighted>
-0.0000

> <Gold.Chemscore.Lipo.Weighted>
-7.4661

> <Gold.Chemscore.Internal_Hbond.Weighted>
0.0000

> <Gold.Chemscore.DEClash.Weighted>
1.6099

> <Gold.Chemscore.DEInternal.Weighted>
2.2050

> <Gold.Chemscore.Rot.Weighted>
4.7313

> <Gold.Chemscore.Internal.Correction.Weighted>
   9.000000E+99

> <Gold.Protein.RotatedTorsions>
[ 6907 6896 6895 6894 ] final   61.39 input  -60.11 | X-H torsion
[ 7974 7965 7964 7962 ] final    6.72 input  175.53 | X-H torsion
[ 8008 7997 7996 7995 ] final  136.04 input   59.86 | X-H torsion
[ 10167 10162 10161 10158 ] final    8.18 input  -65.29 | X-H torsion
[ 10718 10713 10712 10709 ] final  167.57 input   66.30 | X-H torsion
[ 10763 10752 10751 10750 ] final   96.49 input  -60.55 | X-H torsion
[ 11005 11000 10999 10996 ] final  -99.81 input  -57.11 | X-H torsion

> <Gold.Protein.ActiveResidues>
 VAL166  LYS551  ARG553  GLY616  TRP617  ASP618  TYR619  PRO620  LYS621  CYS622 
 ASP623  PHE694  ASN695  SER759  ASP760  ASP761  ALA762  ILE779  LEU786  VAL792 
 PHE793  MET794  SER795  GLU796  ALA797  LYS798  CYS799  TRP800  GLU811  SER814 

> <Gold.Protein.RotatedAtoms>
  152.4085  134.6166  160.0039 H   0  0  0  0  0  0  0  0  0  0  0  0  # atno 6907 bound_to 6896
  151.6350  133.3324  159.3125 H   0  0  0  0  0  0  0  0  0  0  0  0  # atno 6908 bound_to 6896
  150.7977  134.7090  159.6638 H   0  0  0  0  0  0  0  0  0  0  0  0  # atno 6909 bound_to 6896
  146.2432  140.0192  142.8399 H   0  0  0  0  0  0  0  0  0  0  0  0  # atno 7974 bound_to 7965
  156.3004  140.2455  156.3680 H   0  0  0  0  0  0  0  0  0  0  0  0  # atno 8008 bound_to 7997
  154.8815  140.0412  157.1805 H   0  0  0  0  0  0  0  0  0  0  0  0  # atno 8009 bound_to 7997
  154.8691  140.2932  155.5496 H   0  0  0  0  0  0  0  0  0  0  0  0  # atno 8010 bound_to 7997
  140.6329  143.7953  150.7320 H   0  0  0  0  0  0  0  0  0  0  0  0  # atno 10167 bound_to 10162
  157.0496  131.0309  151.2685 H   0  0  0  0  0  0  0  0  0  0  0  0  # atno 10718 bound_to 10713
  153.2656  135.4217  155.0937 H   0  0  0  0  0  0  0  0  0  0  0  0  # atno 10763 bound_to 10752
  154.8437  135.3459  154.6316 H   0  0  0  0  0  0  0  0  0  0  0  0  # atno 10764 bound_to 10752
  153.6736  135.7042  153.5196 H   0  0  0  0  0  0  0  0  0  0  0  0  # atno 10765 bound_to 10752
  141.1294  133.8350  157.1020 H   0  0  0  0  0  0  0  0  0  0  0  0  # atno 11005 bound_to 11000
  145.1257  140.9488  143.4574 LP  0  0  0  0  0  0  0  0  0  0  0  0  # atno 17320 bound_to 7965
  145.0437  139.3239  143.5963 LP  0  0  0  0  0  0  0  0  0  0  0  0  # atno 17321 bound_to 7965
  140.1568  143.4310  152.2094 LP  0  0  0  0  0  0  0  0  0  0  0  0  # atno 17342 bound_to 10162
  139.5541  144.7360  151.4345 LP  0  0  0  0  0  0  0  0  0  0  0  0  # atno 17343 bound_to 10162
  157.5041  130.7898  149.7635 LP  0  0  0  0  0  0  0  0  0  0  0  0  # atno 17370 bound_to 10713
  156.0012  130.3879  150.2600 LP  0  0  0  0  0  0  0  0  0  0  0  0  # atno 17371 bound_to 10713
  140.0327  134.9893  157.0812 LP  0  0  0  0  0  0  0  0  0  0  0  0  # atno 17394 bound_to 11000
  140.4259  134.1831  155.7166 LP  0  0  0  0  0  0  0  0  0  0  0  0  # atno 17395 bound_to 11000

$$$$
