#       Name:                AV-unprocessed.smi:2955
#       Creating user name   scv26
#       Creation time:       Fri Mar 27 16:19:51 2020


#       File generated by GOLD software.
#

@<TRIPOS>MOLECULE
AV-unprocessed.smi:2955
    50    52     1
SMALL
NO_CHARGES


@<TRIPOS>ATOM
      1 ****         5.3118   5.9610  -4.4594 C.3            1 S1                 0.0000
      2 ****         5.9956   6.2192  -3.1328 C.ar           1 S1                 0.0000
      3 ****         6.8625   7.3191  -2.9792 C.ar           1 S1                 0.0000
      4 ****         7.4928   7.5481  -1.7424 C.ar           1 S1                 0.0000
      5 ****         7.2586   6.6828  -0.6563 C.ar           1 S1                 0.0000
      6 ****         6.3847   5.5754  -0.7968 C.ar           1 S1                 0.0000
      7 ****         6.0932   4.6847   0.2140 O.3            1 S1                 0.0000
      8 ****         6.7596   4.8389   1.4599 C.3            1 S1                 0.0000
      9 ****         6.2810   3.7626   2.4442 C.3            1 S1                 0.0000
     10 ****         4.8667   3.9013   2.7667 N.pl3          1 S1                 0.0000
     11 ****         3.7840   3.3434   2.1608 C.2            1 S1                 0.0000
     12 ****         3.8870   2.4254   0.9679 C.3            1 S1                 0.0000
     13 ****         3.1057   2.9567  -0.2424 C.3            1 S1                 0.0000
     14 ****         3.3900   1.1087   1.3529 N.am           1 S1                 0.0000
     15 ****         4.1045   0.2033   2.0325 C.2            1 S1                 0.0000
     16 ****         5.2608   0.3965   2.3988 O.2            1 S1                 0.0000
     17 ****         2.6034   3.6394   2.7115 N.2            1 S1                 0.0000
     18 ****         2.9466   4.4870   3.7445 C.ar           1 S1                 0.0000
     19 ****         2.1380   5.1541   4.6923 C.ar           1 S1                 0.0000
     20 ****         2.7229   5.9852   5.6700 C.ar           1 S1                 0.0000
     21 ****         4.1211   6.1594   5.7145 C.ar           1 S1                 0.0000
     22 ****         4.9443   5.5016   4.7802 C.ar           1 S1                 0.0000
     23 ****         4.3554   4.6739   3.8053 C.ar           1 S1                 0.0000
     24 ****         5.7619   5.3564  -2.0430 C.ar           1 S1                 0.0000
     25 ****         5.7047   6.6104  -5.2423 H              1 S1                 0.0000
     26 ****         4.2402   6.1405  -4.3719 H              1 S1                 0.0000
     27 ****         5.4635   4.9268  -4.7692 H              1 S1                 0.0000
     28 ****         7.0473   7.9892  -3.8061 H              1 S1                 0.0000
     29 ****         8.1576   8.3910  -1.6254 H              1 S1                 0.0000
     30 ****         7.7605   6.8933   0.2756 H              1 S1                 0.0000
     31 ****         7.8373   4.7466   1.3175 H              1 S1                 0.0000
     32 ****         6.5590   5.8256   1.8805 H              1 S1                 0.0000
     33 ****         6.4845   2.7618   2.0662 H              1 S1                 0.0000
     34 ****         6.8501   3.8428   3.3709 H              1 S1                 0.0000
     35 ****         4.9237   2.3228   0.6523 H              1 S1                 0.0000
     36 ****         3.4521   3.9508  -0.5237 H              1 S1                 0.0000
     37 ****         2.0383   3.0283  -0.0308 H              1 S1                 0.0000
     38 ****         3.2297   2.3048  -1.1075 H              1 S1                 0.0000
     39 ****         2.4428   0.8767   1.0916 H              1 S1                 0.0000
     40 ****         3.5320  -0.7198   2.2144 H              1 S1                 0.0000
     41 ****         1.0659   5.0273   4.6658 H              1 S1                 0.0000
     42 ****         2.0959   6.4917   6.3890 H              1 S1                 0.0000
     43 ****         4.5617   6.7978   6.4663 H              1 S1                 0.0000
     44 ****         6.0154   5.6341   4.8121 H              1 S1                 0.0000
     45 ****         5.0974   4.5137  -2.1647 H              1 S1                 0.0000
     46 ****         6.3092   3.7695  -0.1262 LP             1 S1                 0.0000
     47 ****         5.1116   4.7506   0.3930 LP             1 S1                 0.0000
     48 ****         5.7126   1.2642   2.1915 LP             1 S1                 0.0000
     49 ****         5.7504  -0.3139   2.9043 LP             1 S1                 0.0000
     50 ****         1.6938   3.3238   2.4412 LP             1 S1                 0.0000
@<TRIPOS>BOND
    1    1    2 1     
    2    1   25 1     
    3    1   26 1     
    4    1   27 1     
    5    2   24 ar    
    6    2    3 ar    
    7    3    4 ar    
    8    3   28 1     
    9    4    5 ar    
   10    4   29 1     
   11    5    6 ar    
   12    5   30 1     
   13    6    7 1     
   14    6   24 ar    
   15    7    8 1     
   16    8    9 1     
   17    8   31 1     
   18    8   32 1     
   19    9   10 1     
   20    9   33 1     
   21    9   34 1     
   22   10   23 1     
   23   10   11 1     
   24   11   12 1     
   25   11   17 2     
   26   12   13 1     
   27   12   14 1     
   28   12   35 1     
   29   13   36 1     
   30   13   37 1     
   31   13   38 1     
   32   14   15 am    
   33   14   39 1     
   34   15   16 2     
   35   15   40 1     
   36   17   18 1     
   37   18   23 ar    
   38   18   19 ar    
   39   19   20 ar    
   40   19   41 1     
   41   20   21 ar    
   42   20   42 1     
   43   21   22 ar    
   44   21   43 1     
   45   22   23 ar    
   46   22   44 1     
   47   24   45 1     
   48    7   46 1     
   49    7   47 1     
   50   16   48 1     
   51   16   49 1     
   52   17   50 1     
@<TRIPOS>SUBSTRUCTURE
      1 S1             1
@<TRIPOS>SET
LONE_PAIRS      STATIC     ATOMS    <user>   **** ""
5 46 47 48 49 50
DONOR_HYDROGENS      STATIC     ATOMS    <user>   **** ""
1 39
ATOM$BLUE        STATIC     ATOMS    COLORGROUP SYSTEM
5 46 47 48 49 50
ATOM$RED        STATIC     ATOMS    COLORGROUP SYSTEM
1 39
