AV-unprocessed.smi:2403|AV-procd|sdf|9509|dock8
  -GOLD-   2272013133D 1   1.00000     0.00000
 Structure written by MMmdl.
 47 49  0  0  0  0  0  0  0  0  1 V2000
  145.5331  135.5851  150.5706 C   0  0  0  0  0  0  0  0  0  0  0  0
  145.1837  134.1271  150.8104 C   0  0  0  0  0  0  0  0  0  0  0  0
  144.1279  133.5306  150.0903 C   0  0  0  0  0  0  0  0  0  0  0  0
  143.8236  132.1775  150.3339 C   0  0  0  0  0  0  0  0  0  0  0  0
  144.4881  131.4196  151.2300 N   0  0  0  0  0  0  0  0  0  0  0  0
  145.4994  131.9917  151.9170 C   0  0  0  0  0  0  0  0  0  0  0  0
  145.9013  133.3394  151.7423 C   0  0  0  0  0  0  0  0  0  0  0  0
  146.9532  133.9347  152.4921 N   0  0  0  0  0  0  0  0  0  0  0  0
  147.3912  133.5911  153.7147 C   0  0  0  0  0  0  0  0  0  0  0  0
  146.9373  132.6723  154.3966 O   0  0  0  0  0  0  0  0  0  0  0  0
  148.4284  134.3598  154.0914 N   0  0  0  0  0  0  0  0  0  0  0  0
  149.2141  134.2779  155.3375 C   0  0  0  0  0  0  0  0  0  0  0  0
  150.2621  135.4202  155.4739 C   0  0  0  0  0  0  0  0  0  0  0  0
  151.0173  135.4480  156.4469 O   0  0  0  0  0  0  0  0  0  0  0  0
  150.2990  136.3655  154.5206 N   0  0  0  0  0  0  0  0  0  0  0  0
  151.2188  137.4916  154.4930 C   0  0  0  0  0  0  0  0  0  0  0  0
  150.6251  138.7461  153.8880 C   0  0  0  0  0  0  0  0  0  0  0  0
  150.5451  140.0232  154.6901 C   0  0  0  0  0  0  0  0  0  0  0  0
  149.2832  139.2693  154.3440 C   0  0  0  0  0  0  0  0  0  0  0  0
  148.2324  134.3626  156.5318 C   0  0  0  0  0  0  0  0  0  0  0  0
  148.7736  133.4198  157.6047 C   0  0  0  0  0  0  0  0  0  0  0  0
  149.3525  132.2577  156.8094 C   0  0  0  0  0  0  0  0  0  0  0  0
  149.8712  132.8712  155.5027 C   0  0  0  0  0  0  0  0  0  0  0  0
  144.9087  136.0194  149.7893 H   0  0  0  0  0  0  0  0  0  0  0  0
  146.5741  135.6820  150.2610 H   0  0  0  0  0  0  0  0  0  0  0  0
  145.3874  136.1657  151.4817 H   0  0  0  0  0  0  0  0  0  0  0  0
  143.5593  134.0943  149.3651 H   0  0  0  0  0  0  0  0  0  0  0  0
  143.0209  131.6928  149.7983 H   0  0  0  0  0  0  0  0  0  0  0  0
  145.9766  131.3476  152.6396 H   0  0  0  0  0  0  0  0  0  0  0  0
  147.4870  134.6415  152.0078 H   0  0  0  0  0  0  0  0  0  0  0  0
  148.7187  135.0783  153.4448 H   0  0  0  0  0  0  0  0  0  0  0  0
  149.6520  136.2842  153.7498 H   0  0  0  0  0  0  0  0  0  0  0  0
  151.5596  137.7027  155.5079 H   0  0  0  0  0  0  0  0  0  0  0  0
  152.1008  137.2183  153.9116 H   0  0  0  0  0  0  0  0  0  0  0  0
  150.8563  138.8726  152.8318 H   0  0  0  0  0  0  0  0  0  0  0  0
  150.8796  139.9940  155.7252 H   0  0  0  0  0  0  0  0  0  0  0  0
  150.7315  140.9581  154.1656 H   0  0  0  0  0  0  0  0  0  0  0  0
  148.6300  139.6996  153.5877 H   0  0  0  0  0  0  0  0  0  0  0  0
  148.7785  138.7396  155.1495 H   0  0  0  0  0  0  0  0  0  0  0  0
  148.1032  135.3757  156.9166 H   0  0  0  0  0  0  0  0  0  0  0  0
  147.2407  134.0166  156.2349 H   0  0  0  0  0  0  0  0  0  0  0  0
  149.5645  133.9127  158.1711 H   0  0  0  0  0  0  0  0  0  0  0  0
  148.0062  133.1031  158.3117 H   0  0  0  0  0  0  0  0  0  0  0  0
  150.1296  131.7249  157.3584 H   0  0  0  0  0  0  0  0  0  0  0  0
  148.5600  131.5427  156.5846 H   0  0  0  0  0  0  0  0  0  0  0  0
  149.6417  132.1960  154.6779 H   0  0  0  0  0  0  0  0  0  0  0  0
  150.9600  132.9338  155.5342 H   0  0  0  0  0  0  0  0  0  0  0  0
  1  2  1  0  0  0  0
  1 24  1  0  0  0  0
  1 25  1  0  0  0  0
  1 26  1  0  0  0  0
  2  7  1  0  0  0  0
  2  3  2  0  0  0  0
  3  4  1  0  0  0  0
  3 27  1  0  0  0  0
  4  5  2  0  0  0  0
  4 28  1  0  0  0  0
  5  6  1  0  0  0  0
  6  7  2  0  0  0  0
  6 29  1  0  0  0  0
  7  8  1  0  0  0  0
  8  9  1  0  0  0  0
  8 30  1  0  0  0  0
  9 10  2  0  0  0  0
  9 11  1  0  0  0  0
 11 12  1  0  0  0  0
 11 31  1  0  0  0  0
 12 23  1  0  0  0  0
 12 13  1  0  0  0  0
 12 20  1  0  0  0  0
 13 14  2  0  0  0  0
 13 15  1  0  0  0  0
 15 16  1  0  0  0  0
 15 32  1  0  0  0  0
 16 17  1  0  0  0  0
 16 33  1  0  0  0  0
 16 34  1  0  0  0  0
 17 19  1  0  0  0  0
 17 18  1  0  0  0  0
 17 35  1  0  0  0  0
 18 19  1  0  0  0  0
 18 36  1  0  0  0  0
 18 37  1  0  0  0  0
 19 38  1  0  0  0  0
 19 39  1  0  0  0  0
 20 21  1  0  0  0  0
 20 40  1  0  0  0  0
 20 41  1  0  0  0  0
 21 22  1  0  0  0  0
 21 42  1  0  0  0  0
 21 43  1  0  0  0  0
 22 23  1  0  0  0  0
 22 44  1  0  0  0  0
 22 45  1  0  0  0  0
 23 46  1  0  0  0  0
 23 47  1  0  0  0  0
M  END
> <s_m_source_file>
AV-unprocessed.smi

> <i_m_source_file_index>
2403

> <i_lp_mmshare_version>
43012

> <i_f3d_flags>
0

> <s_epik_input>
W0NIM11jMVtjSF1bY0hdbltjSF1jMVtOSF1DKD1PKVtOSF1DMihbQ0gyXVtDSDJdW0NIMl1bQ0gyXTIpQyg9TylbTkhdW0NIMl1bQ0hdM1tDSDJdW0NIMl0z

> <s_epik_cmdline>
J2VwaWtfcHl0aG9uJywgJy1waCcsICc3LjAnLCAnLXRuJywgJzgnLCAnLW1hJywgJzIwMCcsICctbWV0YWxfYmluZGluZycsICctaW1hZScsICc8aW5maWxlLm1hZT4nLCAnLW9tYWUnLCAnPG91dGZpbGUubWFlPic=

> <r_epik_Ionization_Penalty>
0.0192934

> <r_epik_Ionization_Penalty_Charging>
0

> <r_epik_Ionization_Penalty_Neutral>
0.0192934

> <r_epik_State_Penalty>
0.0153733

> <r_epik_Charging_Adjusted_Penalty>
0.0153733

> <i_epik_Tot_Q>
0

> <i_epik_Tot_abs_Q>
0

> <r_epik_Metal_State_Penalty>
0.014888

> <b_epik_Metal_Only>
0

> <s_lp_Force_Field>
OPLS_2005

> <r_lp_Energy>
32.7874

> <b_lp_Chiralities_Consistent>
1

> <s_lp_Variant>
AV-unprocessed.smi:2403-1

> <Gold.Version>
5.8.1

> <Gold.Id.Protein>
6NUR|6NUR_protein|mol2

> <Gold.PLP.Fitness>
53.3834

> <Gold.PLP.PLP>
-40.6593

> <Gold.PLP.part.hbond>
-5.0000

> <Gold.PLP.part.metal>
0.0000

> <Gold.PLP.part.buried>
-6.2011

> <Gold.PLP.part.nonpolar>
-30.0037

> <Gold.PLP.part.repulsive>
0.2948

> <Gold.PLP.ligand.clash>
0.0000

> <Gold.PLP.ligand.torsion>
0.8618

> <Gold.PLP.Chemscore.Hbond>
4.0000

> <Gold.PLP.Chemscore.CHOScore>
0.6005

> <Gold.PLP.Chemscore.Metal>
0.0000

> <Gold.Chemscore.Hbonds>
donor molecule, donor type, donor heavy atom, donor atom, acceptor molecule, acceptor atom, score
      L1  H     8    30       P1  7948  0.78
      L1  H    11    31       P1  7948  1.00
      L1  H    15    32       P1  7948  1.00
      L1  C     4    28       P1 10952  0.85

> <Gold.PLP.Chemscore.Internal.Correction>
0.6461

> <Gold.Rescore>
     Score         DG    S(hbond)    S(metal)    S(lipo)     H(rot)  DE(clash)    DE(int)     intcor
     19.06     -22.70       3.02        0.00      95.93       1.59       0.59       3.05       ----

> <Gold.Chemscore.Fitness>
19.0567

> <Gold.Chemscore.DG>
-22.7033

> <Gold.Chemscore.ZeroCoef>
-5.4800

> <Gold.Chemscore.Hbond>
3.0180

> <Gold.Chemscore.Metal>
0.0000

> <Gold.Chemscore.Lipo>
95.9333

> <Gold.Chemscore.Internal_Hbond>
0.0000

> <Gold.Chemscore.DEClash>
0.5918

> <Gold.Chemscore.DEInternal>
3.0549

> <Gold.Chemscore.Rot>
1.5941

> <Gold.Chemscore.Internal.Correction>
   9.000000E+99

> <Gold.Chemscore.Hbonds>
donor molecule, donor type, donor heavy atom, donor atom, acceptor molecule, acceptor atom, score
      L1  H     8    30       P1  7948  0.53
      L1  H    11    31       P1  7948  0.69
      L1  H    15    32       P1  7948  0.48

> <Gold.Chemscore.Hbond.Weighted>
-10.0801

> <Gold.Chemscore.Metal.Weighted>
-0.0000

> <Gold.Chemscore.Lipo.Weighted>
-11.2242

> <Gold.Chemscore.Internal_Hbond.Weighted>
0.0000

> <Gold.Chemscore.DEClash.Weighted>
0.5918

> <Gold.Chemscore.DEInternal.Weighted>
3.0549

> <Gold.Chemscore.Rot.Weighted>
4.0809

> <Gold.Chemscore.Internal.Correction.Weighted>
   9.000000E+99

> <Gold.Protein.RotatedTorsions>
[ 6907 6896 6895 6894 ] final  145.70 input  -60.11 | X-H torsion
[ 7974 7965 7964 7962 ] final   -3.32 input  175.53 | X-H torsion
[ 8008 7997 7996 7995 ] final -110.60 input   59.86 | X-H torsion
[ 10167 10162 10161 10158 ] final  105.75 input  -65.29 | X-H torsion
[ 10718 10713 10712 10709 ] final   61.48 input   66.30 | X-H torsion
[ 10763 10752 10751 10750 ] final  -24.06 input  -60.55 | X-H torsion
[ 11005 11000 10999 10996 ] final  -16.05 input  -57.11 | X-H torsion

> <Gold.Protein.ActiveResidues>
 VAL166  LYS551  ARG553  GLY616  TRP617  ASP618  TYR619  PRO620  LYS621  CYS622 
 ASP623  PHE694  ASN695  SER759  ASP760  ASP761  ALA762  ILE779  LEU786  VAL792 
 PHE793  MET794  SER795  GLU796  ALA797  LYS798  CYS799  TRP800  GLU811  SER814 

> <Gold.Protein.RotatedAtoms>
  152.1775  133.4685  159.4940 H   0  0  0  0  0  0  0  0  0  0  0  0  # atno 6907 bound_to 6896
  150.6929  134.1875  159.4281 H   0  0  0  0  0  0  0  0  0  0  0  0  # atno 6908 bound_to 6896
  151.9785  135.0040  160.0607 H   0  0  0  0  0  0  0  0  0  0  0  0  # atno 6909 bound_to 6896
  146.2391  140.1703  142.8332 H   0  0  0  0  0  0  0  0  0  0  0  0  # atno 7974 bound_to 7965
  154.9770  140.0397  157.2260 H   0  0  0  0  0  0  0  0  0  0  0  0  # atno 8008 bound_to 7997
  154.7749  140.2808  155.6086 H   0  0  0  0  0  0  0  0  0  0  0  0  # atno 8009 bound_to 7997
  156.2927  140.2603  156.2561 H   0  0  0  0  0  0  0  0  0  0  0  0  # atno 8010 bound_to 7997
  139.7066  144.7085  151.1095 H   0  0  0  0  0  0  0  0  0  0  0  0  # atno 10167 bound_to 10162
  157.5831  130.8997  149.9467 H   0  0  0  0  0  0  0  0  0  0  0  0  # atno 10718 bound_to 10713
  153.6777  135.6968  153.5127 H   0  0  0  0  0  0  0  0  0  0  0  0  # atno 10763 bound_to 10752
  153.2509  135.4275  155.0795 H   0  0  0  0  0  0  0  0  0  0  0  0  # atno 10764 bound_to 10752
  154.8409  135.3531  154.6321 H   0  0  0  0  0  0  0  0  0  0  0  0  # atno 10765 bound_to 10752
  140.8028  133.8200  155.9487 H   0  0  0  0  0  0  0  0  0  0  0  0  # atno 11005 bound_to 11000
  145.0017  140.8637  143.5278 LP  0  0  0  0  0  0  0  0  0  0  0  0  # atno 17320 bound_to 7965
  145.1724  139.2397  143.5335 LP  0  0  0  0  0  0  0  0  0  0  0  0  # atno 17321 bound_to 7965
  140.7723  143.5349  150.9379 LP  0  0  0  0  0  0  0  0  0  0  0  0  # atno 17342 bound_to 10162
  139.9033  143.6809  152.3128 LP  0  0  0  0  0  0  0  0  0  0  0  0  # atno 17343 bound_to 10162
  156.0878  130.3666  150.0453 LP  0  0  0  0  0  0  0  0  0  0  0  0  # atno 17370 bound_to 10713
  156.8589  130.9484  151.3619 LP  0  0  0  0  0  0  0  0  0  0  0  0  # atno 17371 bound_to 10713
  140.9277  134.2061  157.4885 LP  0  0  0  0  0  0  0  0  0  0  0  0  # atno 17394 bound_to 11000
  139.8720  134.9819  156.5137 LP  0  0  0  0  0  0  0  0  0  0  0  0  # atno 17395 bound_to 11000

$$$$
