#       Name:                AV-unprocessed.smi:1328
#       Creating user name   scv26
#       Creation time:       Fri Mar 27 05:05:30 2020


#       File generated by GOLD software.
#

@<TRIPOS>MOLECULE
AV-unprocessed.smi:1328
    45    46     1
SMALL
NO_CHARGES


@<TRIPOS>ATOM
      1 ****        -2.6462   2.3041  -2.9001 C.3            1 S1                 0.0000
      2 ****        -2.9378   2.5489  -1.4473 C.2            1 S1                 0.0000
      3 ****        -3.4851   3.6930  -1.0721 N.2            1 S1                 0.0000
      4 ****        -3.6232   3.6137   0.3171 O.3            1 S1                 0.0000
      5 ****        -3.1474   2.4109   0.7281 C.2            1 S1                 0.0000
      6 ****        -3.2005   2.1350   2.1926 C.3            1 S1                 0.0000
      7 ****        -2.7015   1.6836  -0.3413 C.2            1 S1                 0.0000
      8 ****        -2.0991   0.3006  -0.3564 C.3            1 S1                 0.0000
      9 ****        -0.5708   0.3569  -0.2503 C.2            1 S1                 0.0000
     10 ****        -0.0114   1.2921   0.3244 O.2            1 S1                 0.0000
     11 ****         0.0931  -0.6704  -0.8031 N.am           1 S1                 0.0000
     12 ****         1.5438  -0.8461  -0.8053 C.3            1 S1                 0.0000
     13 ****         1.9543  -1.4797  -2.1434 C.3            1 S1                 0.0000
     14 ****         1.9736  -1.7036   0.4044 C.3            1 S1                 0.0000
     15 ****         3.4806  -1.9164   0.5355 C.3            1 S1                 0.0000
     16 ****         3.6366  -2.2971   1.9953 C.3            1 S1                 0.0000
     17 ****         2.4329  -1.6364   2.6728 C.3            1 S1                 0.0000
     18 ****         1.6686  -1.0473   1.6269 O.3            1 S1                 0.0000
     19 ****        -3.2673   1.4981  -3.2907 H              1 S1                 0.0000
     20 ****        -1.6038   2.0203  -3.0454 H              1 S1                 0.0000
     21 ****        -2.8345   3.1909  -3.5067 H              1 S1                 0.0000
     22 ****        -2.4240   1.4272   2.4833 H              1 S1                 0.0000
     23 ****        -4.1660   1.7122   2.4700 H              1 S1                 0.0000
     24 ****        -3.0520   3.0494   2.7672 H              1 S1                 0.0000
     25 ****        -2.4740  -0.3013   0.4720 H              1 S1                 0.0000
     26 ****        -2.3771  -0.2319  -1.2670 H              1 S1                 0.0000
     27 ****        -0.4502  -1.3956  -1.2484 H              1 S1                 0.0000
     28 ****         2.0299   0.1290  -0.7390 H              1 S1                 0.0000
     29 ****         3.0376  -1.5670  -2.2266 H              1 S1                 0.0000
     30 ****         1.6136  -0.8750  -2.9846 H              1 S1                 0.0000
     31 ****         1.5300  -2.4778  -2.2574 H              1 S1                 0.0000
     32 ****         1.4647  -2.6695   0.3887 H              1 S1                 0.0000
     33 ****         3.8657  -2.6791  -0.1418 H              1 S1                 0.0000
     34 ****         4.0125  -0.9848   0.3376 H              1 S1                 0.0000
     35 ****         3.5826  -3.3801   2.1125 H              1 S1                 0.0000
     36 ****         4.5878  -1.9602   2.4084 H              1 S1                 0.0000
     37 ****         1.8298  -2.3761   3.2005 H              1 S1                 0.0000
     38 ****         2.7338  -0.8704   3.3880 H              1 S1                 0.0000
     39 ****        -3.7465   4.4578  -1.6610 LP             1 S1                 0.0000
     40 ****        -4.5881   3.6978   0.5658 LP             1 S1                 0.0000
     41 ****        -3.1020   4.3488   0.7506 LP             1 S1                 0.0000
     42 ****        -0.5551   2.0273   0.7292 LP             1 S1                 0.0000
     43 ****         0.9864   1.3160   0.3862 LP             1 S1                 0.0000
     44 ****         0.6939  -1.1472   1.8269 LP             1 S1                 0.0000
     45 ****         1.8957  -0.0763   1.5518 LP             1 S1                 0.0000
@<TRIPOS>BOND
    1    1    2 1     
    2    1   19 1     
    3    1   20 1     
    4    1   21 1     
    5    2    7 1     
    6    2    3 2     
    7    3    4 1     
    8    4    5 1     
    9    5    6 1     
   10    5    7 2     
   11    6   22 1     
   12    6   23 1     
   13    6   24 1     
   14    7    8 1     
   15    8    9 1     
   16    8   25 1     
   17    8   26 1     
   18    9   10 2     
   19    9   11 am    
   20   11   12 1     
   21   11   27 1     
   22   12   13 1     
   23   12   14 1     
   24   12   28 1     
   25   13   29 1     
   26   13   30 1     
   27   13   31 1     
   28   14   18 1     
   29   14   15 1     
   30   14   32 1     
   31   15   16 1     
   32   15   33 1     
   33   15   34 1     
   34   16   17 1     
   35   16   35 1     
   36   16   36 1     
   37   17   18 1     
   38   17   37 1     
   39   17   38 1     
   40    3   39 1     
   41    4   40 1     
   42    4   41 1     
   43   10   42 1     
   44   10   43 1     
   45   18   44 1     
   46   18   45 1     
@<TRIPOS>SUBSTRUCTURE
      1 S1             1
@<TRIPOS>SET
LONE_PAIRS      STATIC     ATOMS    <user>   **** ""
7 39 40 41 42 43 44 45
DONOR_HYDROGENS      STATIC     ATOMS    <user>   **** ""
1 27
ATOM$BLUE        STATIC     ATOMS    COLORGROUP SYSTEM
7 39 40 41 42 43 44 45
ATOM$RED        STATIC     ATOMS    COLORGROUP SYSTEM
1 27
