AV-unprocessed.smi:2442|AV-procd|sdf|9624|dock10
  -GOLD-   2272013253D 1   1.00000     0.00000
 Structure written by MMmdl.
 46 47  0  0  0  0  0  0  0  0  1 V2000
  151.1777  138.1305  154.4032 C   0  0  0  0  0  0  0  0  0  0  0  0
  150.2818  139.1901  154.1064 O   0  0  0  0  0  0  0  0  0  0  0  0
  149.1014  139.2000  154.9042 C   0  0  1  0  0  0  0  0  0  0  0  0
  149.2493  140.1817  156.0863 C   0  0  0  0  0  0  0  0  0  0  0  0
  149.3605  141.6396  155.6103 C   0  0  0  0  0  0  0  0  0  0  0  0
  148.1677  142.0279  154.7237 C   0  0  0  0  0  0  0  0  0  0  0  0
  148.0205  141.0640  153.5361 C   0  0  0  0  0  0  0  0  0  0  0  0
  147.9049  139.6015  154.0082 C   0  0  1  0  0  0  0  0  0  0  0  0
  147.7860  138.7155  152.8527 N   0  0  0  0  0  0  0  0  0  0  0  0
  146.7098  137.9757  152.5533 C   0  0  0  0  0  0  0  0  0  0  0  0
  145.6735  137.9625  153.2186 O   0  0  0  0  0  0  0  0  0  0  0  0
  146.9006  137.2427  151.4477 N   0  0  0  0  0  0  0  0  0  0  0  0
  145.9226  136.3159  150.8909 C   0  0  0  0  0  0  0  0  0  0  0  0
  145.3205  135.4151  151.9819 C   0  0  0  0  0  0  0  0  0  0  0  0
  145.0821  133.9974  151.4875 C   0  0  0  0  0  0  0  0  0  0  0  0
  143.8329  133.6571  150.9272 C   0  0  0  0  0  0  0  0  0  0  0  0
  143.6283  132.3375  150.4790 C   0  0  0  0  0  0  0  0  0  0  0  0
  144.5695  131.3742  150.5571 N   0  0  0  0  0  0  0  0  0  0  0  0
  145.7631  131.7017  151.0952 C   0  0  0  0  0  0  0  0  0  0  0  0
  146.0760  132.9914  151.5773 C   0  0  0  0  0  0  0  0  0  0  0  0
  147.4479  133.2638  152.1686 C   0  0  0  0  0  0  0  0  0  0  0  0
  152.0403  138.1898  153.7399 H   0  0  0  0  0  0  0  0  0  0  0  0
  150.7049  137.1599  154.2478 H   0  0  0  0  0  0  0  0  0  0  0  0
  151.5433  138.1823  155.4285 H   0  0  0  0  0  0  0  0  0  0  0  0
  148.9191  138.1983  155.2976 H   0  0  0  0  0  0  0  0  0  0  0  0
  148.3793  140.0862  156.7370 H   0  0  0  0  0  0  0  0  0  0  0  0
  150.1103  139.9243  156.7020 H   0  0  0  0  0  0  0  0  0  0  0  0
  149.4160  142.3070  156.4706 H   0  0  0  0  0  0  0  0  0  0  0  0
  150.2897  141.7743  155.0549 H   0  0  0  0  0  0  0  0  0  0  0  0
  147.2527  142.0189  155.3172 H   0  0  0  0  0  0  0  0  0  0  0  0
  148.2912  143.0489  154.3611 H   0  0  0  0  0  0  0  0  0  0  0  0
  147.1423  141.3388  152.9509 H   0  0  0  0  0  0  0  0  0  0  0  0
  148.8795  141.1741  152.8727 H   0  0  0  0  0  0  0  0  0  0  0  0
  146.9896  139.5159  154.5972 H   0  0  0  0  0  0  0  0  0  0  0  0
  148.5912  138.6513  152.2474 H   0  0  0  0  0  0  0  0  0  0  0  0
  147.7859  137.3188  150.9684 H   0  0  0  0  0  0  0  0  0  0  0  0
  145.1385  136.8714  150.3738 H   0  0  0  0  0  0  0  0  0  0  0  0
  146.4170  135.7060  150.1345 H   0  0  0  0  0  0  0  0  0  0  0  0
  145.9926  135.3802  152.8405 H   0  0  0  0  0  0  0  0  0  0  0  0
  144.3880  135.8368  152.3567 H   0  0  0  0  0  0  0  0  0  0  0  0
  143.0441  134.3902  150.8431 H   0  0  0  0  0  0  0  0  0  0  0  0
  142.6821  132.0477  150.0462 H   0  0  0  0  0  0  0  0  0  0  0  0
  146.4919  130.9059  151.1423 H   0  0  0  0  0  0  0  0  0  0  0  0
  148.0213  132.3426  152.2761 H   0  0  0  0  0  0  0  0  0  0  0  0
  147.3625  133.7195  153.1550 H   0  0  0  0  0  0  0  0  0  0  0  0
  148.0117  133.9376  151.5232 H   0  0  0  0  0  0  0  0  0  0  0  0
  1  2  1  0  0  0  0
  1 22  1  0  0  0  0
  1 23  1  0  0  0  0
  1 24  1  0  0  0  0
  2  3  1  0  0  0  0
  3  8  1  0  0  0  0
  3  4  1  0  0  0  0
  3 25  1  0  0  0  0
  4  5  1  0  0  0  0
  4 26  1  0  0  0  0
  4 27  1  0  0  0  0
  5  6  1  0  0  0  0
  5 28  1  0  0  0  0
  5 29  1  0  0  0  0
  6  7  1  0  0  0  0
  6 30  1  0  0  0  0
  6 31  1  0  0  0  0
  7  8  1  0  0  0  0
  7 32  1  0  0  0  0
  7 33  1  0  0  0  0
  8  9  1  0  0  0  0
  8 34  1  0  0  0  0
  9 10  1  0  0  0  0
  9 35  1  0  0  0  0
 10 11  2  0  0  0  0
 10 12  1  0  0  0  0
 12 13  1  0  0  0  0
 12 36  1  0  0  0  0
 13 14  1  0  0  0  0
 13 37  1  0  0  0  0
 13 38  1  0  0  0  0
 14 15  1  0  0  0  0
 14 39  1  0  0  0  0
 14 40  1  0  0  0  0
 15 20  1  0  0  0  0
 15 16  2  0  0  0  0
 16 17  1  0  0  0  0
 16 41  1  0  0  0  0
 17 18  2  0  0  0  0
 17 42  1  0  0  0  0
 18 19  1  0  0  0  0
 19 20  2  0  0  0  0
 19 43  1  0  0  0  0
 20 21  1  0  0  0  0
 21 44  1  0  0  0  0
 21 45  1  0  0  0  0
 21 46  1  0  0  0  0
M  END
> <s_m_source_file>
AV-unprocessed.smi

> <i_m_source_file_index>
2442

> <i_lp_mmshare_version>
43012

> <i_f3d_flags>
0

> <s_epik_input>
W0NIM11PW0NAQEhdMVtDSDJdW0NIMl1bQ0gyXVtDSDJdW0NASF0xW05IXUMoPU8pW05IXVtDSDJdW0NIMl1jMltjSF1bY0hdbltjSF1jMltDSDNd

> <s_epik_cmdline>
J2VwaWtfcHl0aG9uJywgJy1waCcsICc3LjAnLCAnLXRuJywgJzgnLCAnLW1hJywgJzIwMCcsICctbWV0YWxfYmluZGluZycsICctaW1hZScsICc8aW5maWxlLm1hZT4nLCAnLW9tYWUnLCAnPG91dGZpbGUubWFlPic=

> <r_epik_Ionization_Penalty>
0.106136

> <r_epik_Ionization_Penalty_Charging>
0

> <r_epik_Ionization_Penalty_Neutral>
0.106136

> <r_epik_State_Penalty>
0.0959393

> <r_epik_Charging_Adjusted_Penalty>
0.0959393

> <i_epik_Tot_Q>
0

> <i_epik_Tot_abs_Q>
0

> <r_epik_Metal_State_Penalty>
0.0812517

> <b_epik_Metal_Only>
0

> <s_lp_Force_Field>
OPLS_2005

> <r_lp_Energy>
9.97505

> <b_lp_Chiralities_Consistent>
1

> <s_lp_Variant>
AV-unprocessed.smi:2442-2

> <Gold.Version>
5.8.1

> <Gold.Id.Protein>
6NUR|6NUR_protein|mol2

> <Gold.PLP.Fitness>
43.4450

> <Gold.PLP.PLP>
-35.0497

> <Gold.PLP.part.hbond>
-3.8878

> <Gold.PLP.part.metal>
0.0000

> <Gold.PLP.part.buried>
0.9413

> <Gold.PLP.part.nonpolar>
-32.7400

> <Gold.PLP.part.repulsive>
1.7730

> <Gold.PLP.ligand.clash>
0.0000

> <Gold.PLP.ligand.torsion>
1.2556

> <Gold.PLP.Chemscore.Hbond>
1.6278

> <Gold.PLP.Chemscore.CHOScore>
1.9980

> <Gold.PLP.Chemscore.Metal>
0.0000

> <Gold.Chemscore.Hbonds>
donor molecule, donor type, donor heavy atom, donor atom, acceptor molecule, acceptor atom, score
      L1  H     9    35       P1  7957  0.67
      L1  H    12    36       P1  7948  0.16
      P1  H  7989  7998       L1     2  0.50
      L1  C    17    42       P1 10952  0.92
      L1  C    19    43       P1 10747  0.76

> <Gold.PLP.Chemscore.Internal.Correction>
0.0290

> <Gold.Rescore>
     Score         DG    S(hbond)    S(metal)    S(lipo)     H(rot)  DE(clash)    DE(int)     intcor
     12.68     -15.89       0.93        0.00      98.36       1.64       0.77       2.44       ----

> <Gold.Chemscore.Fitness>
12.6800

> <Gold.Chemscore.DG>
-15.8937

> <Gold.Chemscore.ZeroCoef>
-5.4800

> <Gold.Chemscore.Hbond>
0.9280

> <Gold.Chemscore.Metal>
0.0000

> <Gold.Chemscore.Lipo>
98.3557

> <Gold.Chemscore.Internal_Hbond>
0.0000

> <Gold.Chemscore.DEClash>
0.7745

> <Gold.Chemscore.DEInternal>
2.4392

> <Gold.Chemscore.Rot>
1.6380

> <Gold.Chemscore.Internal.Correction>
   9.000000E+99

> <Gold.Chemscore.Hbonds>
donor molecule, donor type, donor heavy atom, donor atom, acceptor molecule, acceptor atom, score
      L1  H     9    35       P1  7957  0.57
      L1  H    12    36       P1  7948  0.16
      P1  H  7989  7998       L1     2  0.22

> <Gold.Chemscore.Hbond.Weighted>
-3.0995

> <Gold.Chemscore.Metal.Weighted>
-0.0000

> <Gold.Chemscore.Lipo.Weighted>
-11.5076

> <Gold.Chemscore.Internal_Hbond.Weighted>
0.0000

> <Gold.Chemscore.DEClash.Weighted>
0.7745

> <Gold.Chemscore.DEInternal.Weighted>
2.4392

> <Gold.Chemscore.Rot.Weighted>
4.1934

> <Gold.Chemscore.Internal.Correction.Weighted>
   9.000000E+99

> <Gold.Protein.RotatedTorsions>
[ 6907 6896 6895 6894 ] final   62.10 input  -60.11 | X-H torsion
[ 7974 7965 7964 7962 ] final -147.97 input  175.53 | X-H torsion
[ 8008 7997 7996 7995 ] final  134.36 input   59.86 | X-H torsion
[ 10167 10162 10161 10158 ] final   39.84 input  -65.29 | X-H torsion
[ 10718 10713 10712 10709 ] final  -51.96 input   66.30 | X-H torsion
[ 10763 10752 10751 10750 ] final -163.91 input  -60.55 | X-H torsion
[ 11005 11000 10999 10996 ] final -166.65 input  -57.11 | X-H torsion

> <Gold.Protein.ActiveResidues>
 VAL166  LYS551  ARG553  GLY616  TRP617  ASP618  TYR619  PRO620  LYS621  CYS622 
 ASP623  PHE694  ASN695  SER759  ASP760  ASP761  ALA762  ILE779  LEU786  VAL792 
 PHE793  MET794  SER795  GLU796  ALA797  LYS798  CYS799  TRP800  GLU811  SER814 

> <Gold.Protein.RotatedAtoms>
  152.4144  134.6068  160.0014 H   0  0  0  0  0  0  0  0  0  0  0  0  # atno 6907 bound_to 6896
  151.6236  133.3331  159.3101 H   0  0  0  0  0  0  0  0  0  0  0  0  # atno 6908 bound_to 6896
  150.8033  134.7181  159.6687 H   0  0  0  0  0  0  0  0  0  0  0  0  # atno 6909 bound_to 6896
  144.8059  140.5257  143.5675 H   0  0  0  0  0  0  0  0  0  0  0  0  # atno 7974 bound_to 7965
  156.2998  140.2498  156.3404 H   0  0  0  0  0  0  0  0  0  0  0  0  # atno 8008 bound_to 7997
  154.9060  140.0405  157.1939 H   0  0  0  0  0  0  0  0  0  0  0  0  # atno 8009 bound_to 7997
  154.8452  140.2897  155.5637 H   0  0  0  0  0  0  0  0  0  0  0  0  # atno 8010 bound_to 7997
  140.3800  144.1992  150.6131 H   0  0  0  0  0  0  0  0  0  0  0  0  # atno 10167 bound_to 10162
  156.1663  130.4149  149.9715 H   0  0  0  0  0  0  0  0  0  0  0  0  # atno 10718 bound_to 10713
  154.7079  135.3000  154.9243 H   0  0  0  0  0  0  0  0  0  0  0  0  # atno 10763 bound_to 10752
  154.0154  135.6689  153.4772 H   0  0  0  0  0  0  0  0  0  0  0  0  # atno 10764 bound_to 10752
  153.0731  135.5049  154.8260 H   0  0  0  0  0  0  0  0  0  0  0  0  # atno 10765 bound_to 10752
  140.5621  134.5322  157.5145 H   0  0  0  0  0  0  0  0  0  0  0  0  # atno 11005 bound_to 11000
  145.5440  139.1475  143.3431 LP  0  0  0  0  0  0  0  0  0  0  0  0  # atno 17320 bound_to 7965
  146.2350  140.5579  142.8959 LP  0  0  0  0  0  0  0  0  0  0  0  0  # atno 17321 bound_to 7965
  140.4947  143.2336  151.8767 LP  0  0  0  0  0  0  0  0  0  0  0  0  # atno 17342 bound_to 10162
  139.4796  144.5127  151.8910 LP  0  0  0  0  0  0  0  0  0  0  0  0  # atno 17343 bound_to 10162
  156.7529  130.9122  151.3638 LP  0  0  0  0  0  0  0  0  0  0  0  0  # atno 17370 bound_to 10713
  157.6770  130.9104  150.0175 LP  0  0  0  0  0  0  0  0  0  0  0  0  # atno 17371 bound_to 10713
  139.9402  134.7800  156.0697 LP  0  0  0  0  0  0  0  0  0  0  0  0  # atno 17394 bound_to 11000
  141.1108  133.6644  156.2974 LP  0  0  0  0  0  0  0  0  0  0  0  0  # atno 17395 bound_to 11000

$$$$
