AV-unprocessed.smi:69|AV-procd|sdf|653|dock9
  -GOLD-   2262016553D 1   1.00000     0.00000
 Structure written by MMmdl.
 32 34  0  0  0  0  0  0  0  0  1 V2000
  142.8095  134.6615  153.3688 N   0  0  0  0  0  0  0  0  0  0  0  0
  143.8236  135.3422  152.8173 C   0  0  0  0  0  0  0  0  0  0  0  0
  144.1110  135.1221  151.5132 N   0  0  0  0  0  0  0  0  0  0  0  0
  145.1183  135.7888  150.9406 C   0  0  0  0  0  0  0  0  0  0  0  0
  145.9369  136.6931  151.4842 N   0  0  0  0  0  0  0  0  0  0  0  0
  145.6467  136.9150  152.7996 C   0  0  0  0  0  0  0  0  0  0  0  0
  144.6085  136.2793  153.5359 C   0  0  0  0  0  0  0  0  0  0  0  0
  144.6036  136.7419  154.8444 N   0  0  0  0  0  0  0  0  0  0  0  0
  145.5860  137.6017  154.8759 C   0  0  0  0  0  0  0  0  0  0  0  0
  146.2713  137.7662  153.6915 N   0  0  0  0  0  0  0  0  0  0  0  0
  147.4362  138.6779  153.4399 C   0  0  2  0  0  0  0  0  0  0  0  0
  148.3791  138.5230  154.4585 O   0  0  0  0  0  0  0  0  0  0  0  0
  148.5835  139.7548  155.1486 C   0  0  1  0  0  0  0  0  0  0  0  0
  150.0189  139.8488  155.6950 C   0  0  0  0  0  0  0  0  0  0  0  0
  150.9473  139.7917  154.6333 O   0  0  0  0  0  0  0  0  0  0  0  0
  148.1923  140.8278  154.1223 C   0  0  1  0  0  0  0  0  0  0  0  0
  149.2617  141.1107  153.2374 O   0  0  0  0  0  0  0  0  0  0  0  0
  147.0463  140.1687  153.3715 C   0  0  2  0  0  0  0  0  0  0  0  0
  145.8062  140.4707  153.9867 O   0  0  0  0  0  0  0  0  0  0  0  0
  147.8739  138.3169  152.5081 H   0  0  0  0  0  0  0  0  0  0  0  0
  147.8722  139.8159  155.9733 H   0  0  0  0  0  0  0  0  0  0  0  0
  147.8963  141.7620  154.6018 H   0  0  0  0  0  0  0  0  0  0  0  0
  146.9904  140.4867  152.3296 H   0  0  0  0  0  0  0  0  0  0  0  0
  142.5761  134.8075  154.3404 H   0  0  0  0  0  0  0  0  0  0  0  0
  142.2798  134.0076  152.8110 H   0  0  0  0  0  0  0  0  0  0  0  0
  145.2947  135.5660  149.8988 H   0  0  0  0  0  0  0  0  0  0  0  0
  145.8420  138.1437  155.7745 H   0  0  0  0  0  0  0  0  0  0  0  0
  150.1654  140.7599  156.2759 H   0  0  0  0  0  0  0  0  0  0  0  0
  150.2259  139.0043  156.3531 H   0  0  0  0  0  0  0  0  0  0  0  0
  150.7842  139.0072  154.1323 H   0  0  0  0  0  0  0  0  0  0  0  0
  149.3196  140.4122  152.6036 H   0  0  0  0  0  0  0  0  0  0  0  0
  145.1318  140.4518  153.3250 H   0  0  0  0  0  0  0  0  0  0  0  0
  1  2  1  0  0  0  0
  1 24  1  0  0  0  0
  1 25  1  0  0  0  0
  2  7  1  0  0  0  0
  2  3  2  0  0  0  0
  3  4  1  0  0  0  0
  4  5  2  0  0  0  0
  4 26  1  0  0  0  0
  5  6  1  0  0  0  0
  6 10  1  0  0  0  0
  6  7  2  0  0  0  0
  7  8  1  0  0  0  0
  8  9  2  0  0  0  0
  9 10  1  0  0  0  0
  9 27  1  0  0  0  0
 10 11  1  0  0  0  0
 11 20  1  0  0  0  0
 11 18  1  0  0  0  0
 11 12  1  0  0  0  0
 12 13  1  0  0  0  0
 13 21  1  0  0  0  0
 13 14  1  0  0  0  0
 13 16  1  0  0  0  0
 14 15  1  0  0  0  0
 14 28  1  0  0  0  0
 14 29  1  0  0  0  0
 15 30  1  0  0  0  0
 16 22  1  0  0  0  0
 16 17  1  0  0  0  0
 16 18  1  0  0  0  0
 17 31  1  0  0  0  0
 18 23  1  0  0  0  0
 18 19  1  0  0  0  0
 19 32  1  0  0  0  0
M  END
> <s_m_source_file>
AV-unprocessed.smi

> <i_m_source_file_index>
69

> <i_lp_mmshare_version>
43012

> <i_f3d_flags>
0

> <s_epik_input>
bjFbY0hdbmMoW05IMl0pYyhjMTIpbltjSF1uMltDQEBIXTNPW0NASF0oW0NIMl1bT0hdKVtDQEBIXShbT0hdKVtDQEhdM1tPSF0=

> <s_epik_cmdline>
J2VwaWtfcHl0aG9uJywgJy1waCcsICc3LjAnLCAnLXRuJywgJzgnLCAnLW1hJywgJzIwMCcsICctbWV0YWxfYmluZGluZycsICctaW1hZScsICc8aW5maWxlLm1hZT4nLCAnLW9tYWUnLCAnPG91dGZpbGUubWFlPic=

> <r_lp_tautomer_probability>
1

> <r_epik_Ionization_Penalty>
0.000428445

> <r_epik_Ionization_Penalty_Charging>
0

> <r_epik_Ionization_Penalty_Neutral>
0.000428445

> <r_epik_State_Penalty>
-0

> <r_epik_Charging_Adjusted_Penalty>
0

> <i_epik_Tot_Q>
0

> <i_epik_Tot_abs_Q>
0

> <r_epik_Metal_State_Penalty>
-0

> <b_epik_Metal_Only>
0

> <s_epik_Chemistry_Notes>
This compound contains an acetal/aminal-like group ( X-CH(R)-Y where X, Y are N, S, or O) that may be acid/base labile, releasing an aldehyde.

> <s_lp_Force_Field>
OPLS_2005

> <r_lp_Energy>
40.109

> <b_lp_Chiralities_Consistent>
1

> <s_lp_Variant>
AV-unprocessed.smi:69-11

> <Gold.Version>
5.8.1

> <Gold.Id.Protein>
6NUR|6NUR_protein|mol2

> <Gold.PLP.Fitness>
36.5715

> <Gold.PLP.PLP>
-22.3404

> <Gold.PLP.part.hbond>
-5.0491

> <Gold.PLP.part.metal>
0.0000

> <Gold.PLP.part.buried>
-6.8342

> <Gold.PLP.part.nonpolar>
-13.2902

> <Gold.PLP.part.repulsive>
1.3069

> <Gold.PLP.ligand.clash>
0.0000

> <Gold.PLP.ligand.torsion>
0.2894

> <Gold.PLP.Chemscore.Hbond>
3.9360

> <Gold.PLP.Chemscore.CHOScore>
1.0000

> <Gold.PLP.Chemscore.Metal>
0.0000

> <Gold.Chemscore.Hbonds>
donor molecule, donor type, donor heavy atom, donor atom, acceptor molecule, acceptor atom, score
      L1  H    17    31       P1  7957  0.87
      L1  H    19    32       P1 10175  1.00
      P1  H  7989  7998       L1    15  1.00
      P1  H  8011  8017       L1    17  1.00
      L1  C     4    26       P1  7921  1.00

> <Gold.PLP.Chemscore.Internal.Correction>
0.0019

> <Gold.Rescore>
     Score         DG    S(hbond)    S(metal)    S(lipo)     H(rot)  DE(clash)    DE(int)     intcor
      7.62      -8.96       3.21        0.00      26.11       4.03       0.05       1.30       ----

> <Gold.Chemscore.Fitness>
7.6156

> <Gold.Chemscore.DG>
-8.9602

> <Gold.Chemscore.ZeroCoef>
-5.4800

> <Gold.Chemscore.Hbond>
3.2143

> <Gold.Chemscore.Metal>
0.0000

> <Gold.Chemscore.Lipo>
26.1141

> <Gold.Chemscore.Internal_Hbond>
0.0000

> <Gold.Chemscore.DEClash>
0.0476

> <Gold.Chemscore.DEInternal>
1.2970

> <Gold.Chemscore.Rot>
4.0277

> <Gold.Chemscore.Internal.Correction>
   9.000000E+99

> <Gold.Chemscore.Hbonds>
donor molecule, donor type, donor heavy atom, donor atom, acceptor molecule, acceptor atom, score
      L1  H    17    31       P1  7957  0.80
      L1  H    19    32       P1 10175  0.98
      P1  H  7989  7998       L1    15  0.45
      P1  H  8011  8017       L1    17  0.30

> <Gold.Chemscore.Hbond.Weighted>
-10.7358

> <Gold.Chemscore.Metal.Weighted>
-0.0000

> <Gold.Chemscore.Lipo.Weighted>
-3.0554

> <Gold.Chemscore.Internal_Hbond.Weighted>
0.0000

> <Gold.Chemscore.DEClash.Weighted>
0.0476

> <Gold.Chemscore.DEInternal.Weighted>
1.2970

> <Gold.Chemscore.Rot.Weighted>
10.3110

> <Gold.Chemscore.Internal.Correction.Weighted>
   9.000000E+99

> <Gold.Protein.RotatedTorsions>
[ 6907 6896 6895 6894 ] final  122.19 input  -60.11 | X-H torsion
[ 7974 7965 7964 7962 ] final  -22.35 input  175.53 | X-H torsion
[ 8008 7997 7996 7995 ] final -124.93 input   59.86 | X-H torsion
[ 10167 10162 10161 10158 ] final  -27.01 input  -65.29 | X-H torsion
[ 10718 10713 10712 10709 ] final -132.93 input   66.30 | X-H torsion
[ 10763 10752 10751 10750 ] final  131.68 input  -60.55 | X-H torsion
[ 11005 11000 10999 10996 ] final   25.23 input  -57.11 | X-H torsion

> <Gold.Protein.ActiveResidues>
 VAL166  LYS551  ARG553  GLY616  TRP617  ASP618  TYR619  PRO620  LYS621  CYS622 
 ASP623  PHE694  ASN695  SER759  ASP760  ASP761  ALA762  ILE779  LEU786  VAL792 
 PHE793  MET794  SER795  GLU796  ALA797  LYS798  CYS799  TRP800  GLU811  SER814 

> <Gold.Protein.RotatedAtoms>
  152.4262  133.7200  159.6527 H   0  0  0  0  0  0  0  0  0  0  0  0  # atno 6907 bound_to 6896
  150.8139  133.8361  159.3175 H   0  0  0  0  0  0  0  0  0  0  0  0  # atno 6908 bound_to 6896
  151.6063  135.1046  160.0123 H   0  0  0  0  0  0  0  0  0  0  0  0  # atno 6909 bound_to 6896
  146.1680  140.4467  142.8544 H   0  0  0  0  0  0  0  0  0  0  0  0  # atno 7974 bound_to 7965
  155.2050  140.0417  157.2924 H   0  0  0  0  0  0  0  0  0  0  0  0  # atno 8008 bound_to 7997
  154.6049  140.2462  155.7715 H   0  0  0  0  0  0  0  0  0  0  0  0  # atno 8009 bound_to 7997
  156.2344  140.2927  156.0282 H   0  0  0  0  0  0  0  0  0  0  0  0  # atno 8010 bound_to 7997
  140.7280  143.4129  151.1075 H   0  0  0  0  0  0  0  0  0  0  0  0  # atno 10167 bound_to 10162
  156.2397  130.7088  151.0944 H   0  0  0  0  0  0  0  0  0  0  0  0  # atno 10718 bound_to 10713
  153.7784  135.3172  155.3362 H   0  0  0  0  0  0  0  0  0  0  0  0  # atno 10763 bound_to 10752
  154.8171  135.4629  154.0675 H   0  0  0  0  0  0  0  0  0  0  0  0  # atno 10764 bound_to 10752
  153.1956  135.6915  153.8381 H   0  0  0  0  0  0  0  0  0  0  0  0  # atno 10765 bound_to 10752
  140.3501  134.2238  155.7681 H   0  0  0  0  0  0  0  0  0  0  0  0  # atno 11005 bound_to 11000
  144.8121  140.6404  143.6408 LP  0  0  0  0  0  0  0  0  0  0  0  0  # atno 17320 bound_to 7965
  145.4415  139.1535  143.3968 LP  0  0  0  0  0  0  0  0  0  0  0  0  # atno 17321 bound_to 7965
  139.7765  143.8417  152.3130 LP  0  0  0  0  0  0  0  0  0  0  0  0  # atno 17342 bound_to 10162
  139.8354  144.7235  150.9398 LP  0  0  0  0  0  0  0  0  0  0  0  0  # atno 17343 bound_to 10162
  157.7170  131.0704  150.6289 LP  0  0  0  0  0  0  0  0  0  0  0  0  # atno 17370 bound_to 10713
  156.6361  130.4445  149.5769 LP  0  0  0  0  0  0  0  0  0  0  0  0  # atno 17371 bound_to 10713
  141.2014  133.7963  157.0440 LP  0  0  0  0  0  0  0  0  0  0  0  0  # atno 17394 bound_to 11000
  140.0710  134.9702  157.1467 LP  0  0  0  0  0  0  0  0  0  0  0  0  # atno 17395 bound_to 11000

$$$$
