AV-unprocessed.smi:1867|AV-procd|sdf|7568|dock2
  -GOLD-   22720 9283D 1   1.00000     0.00000
 Structure written by MMmdl.
 53 56  0  0  0  0  0  0  0  0  3 V2000
  146.4655  139.3799  154.1035 O   0  0  0  0  0  0  0  0  0  0  0  0
  147.2524  138.6209  153.5427 C   0  0  0  0  0  0  0  0  0  0  0  0
  148.5908  138.6574  153.6959 N   0  0  0  0  0  0  0  0  0  0  0  0
  149.3569  139.5543  154.4868 C   0  0  0  0  0  0  0  0  0  0  0  0
  150.6072  139.2244  155.0650 C   0  0  0  0  0  0  0  0  0  0  0  0
  151.2964  140.1895  155.8279 C   0  0  0  0  0  0  0  0  0  0  0  0
  150.7368  141.4770  156.0054 C   0  0  0  0  0  0  0  0  0  0  0  0
  151.3677  142.4864  156.7574 N   0  0  0  0  0  0  0  0  0  0  0  0
  151.0113  143.8872  156.5941 C   0  0  0  0  0  0  0  0  0  0  0  0
  151.7665  144.6103  157.7083 C   0  0  0  0  0  0  0  0  0  0  0  0
  151.7964  143.5758  158.8335 C   0  0  0  0  0  0  0  0  0  0  0  0
  151.8619  142.2292  158.1032 C   0  0  0  0  0  0  0  0  0  0  0  0
  149.5502  141.7524  155.4127 N   0  3  0  0  0  0  0  0  0  0  0  0
  148.8583  140.8597  154.6724 C   0  0  0  0  0  0  0  0  0  0  0  0
  146.8185  137.6863  152.6787 N   0  0  0  0  0  0  0  0  0  0  0  0
  145.4413  137.3838  152.2872 C   0  0  2  0  0  0  0  0  0  0  0  0
  144.3842  137.7372  153.3534 C   0  0  0  0  0  0  0  0  0  0  0  0
  143.3513  136.5934  153.3045 C   0  0  0  0  0  0  0  0  0  0  0  0
  143.7794  135.7278  152.1894 N   0  3  2  0  0  0  0  0  0  0  0  0
  143.3517  134.3121  152.2316 C   0  0  0  0  0  0  0  0  0  0  0  0
  143.8325  133.5965  150.9527 C   0  0  0  0  0  0  0  0  0  0  0  0
  145.3478  133.7780  150.7283 C   0  0  0  0  0  0  0  0  0  0  0  0
  145.7445  135.2662  150.7860 C   0  0  0  0  0  0  0  0  0  0  0  0
  145.2393  135.8796  152.1020 C   0  0  1  0  0  0  0  0  0  0  0  0
  149.1221  138.0322  153.1079 H   0  0  0  0  0  0  0  0  0  0  0  0
  151.0578  138.2534  154.9271 H   0  0  0  0  0  0  0  0  0  0  0  0
  152.2514  139.9310  156.2610 H   0  0  0  0  0  0  0  0  0  0  0  0
  151.2895  144.2629  155.6087 H   0  0  0  0  0  0  0  0  0  0  0  0
  149.9341  144.0063  156.7199 H   0  0  0  0  0  0  0  0  0  0  0  0
  152.7841  144.8316  157.3830 H   0  0  0  0  0  0  0  0  0  0  0  0
  151.2945  145.5484  158.0022 H   0  0  0  0  0  0  0  0  0  0  0  0
  152.6262  143.7228  159.5256 H   0  0  0  0  0  0  0  0  0  0  0  0
  150.8697  143.6353  159.4062 H   0  0  0  0  0  0  0  0  0  0  0  0
  151.2712  141.4760  158.6257 H   0  0  0  0  0  0  0  0  0  0  0  0
  152.8911  141.8746  158.0384 H   0  0  0  0  0  0  0  0  0  0  0  0
  147.9242  141.2153  154.2621 H   0  0  0  0  0  0  0  0  0  0  0  0
  147.5344  137.1478  152.2115 H   0  0  0  0  0  0  0  0  0  0  0  0
  145.1989  137.8912  151.3511 H   0  0  0  0  0  0  0  0  0  0  0  0
  144.8260  137.7925  154.3495 H   0  0  0  0  0  0  0  0  0  0  0  0
  143.9253  138.7043  153.1451 H   0  0  0  0  0  0  0  0  0  0  0  0
  143.3686  136.0347  154.2417 H   0  0  0  0  0  0  0  0  0  0  0  0
  142.3352  136.9556  153.1452 H   0  0  0  0  0  0  0  0  0  0  0  0
  143.7614  133.8260  153.1184 H   0  0  0  0  0  0  0  0  0  0  0  0
  142.2652  134.2595  152.3073 H   0  0  0  0  0  0  0  0  0  0  0  0
  143.5871  132.5352  151.0035 H   0  0  0  0  0  0  0  0  0  0  0  0
  143.2932  133.9955  150.0926 H   0  0  0  0  0  0  0  0  0  0  0  0
  145.8953  133.2267  151.4940 H   0  0  0  0  0  0  0  0  0  0  0  0
  145.6399  133.3476  149.7700 H   0  0  0  0  0  0  0  0  0  0  0  0
  146.8275  135.3691  150.7104 H   0  0  0  0  0  0  0  0  0  0  0  0
  145.3178  135.7974  149.9343 H   0  0  0  0  0  0  0  0  0  0  0  0
  145.6924  135.3519  152.9451 H   0  0  0  0  0  0  0  0  0  0  0  0
  143.3983  136.1325  151.3461 H   0  0  0  0  0  0  0  0  0  0  0  0
  149.1555  142.6852  155.5346 H   0  0  0  0  0  0  0  0  0  0  0  0
  1  2  2  0  0  0  0
  2  3  1  0  0  0  0
  2 15  1  0  0  0  0
  3  4  1  0  0  0  0
  3 25  1  0  0  0  0
  4 14  1  0  0  0  0
  4  5  2  0  0  0  0
  5  6  1  0  0  0  0
  5 26  1  0  0  0  0
  6  7  2  0  0  0  0
  6 27  1  0  0  0  0
  7  8  1  0  0  0  0
  7 13  1  0  0  0  0
  8 12  1  0  0  0  0
  8  9  1  0  0  0  0
  9 10  1  0  0  0  0
  9 28  1  0  0  0  0
  9 29  1  0  0  0  0
 10 11  1  0  0  0  0
 10 30  1  0  0  0  0
 10 31  1  0  0  0  0
 11 12  1  0  0  0  0
 11 32  1  0  0  0  0
 11 33  1  0  0  0  0
 12 34  1  0  0  0  0
 12 35  1  0  0  0  0
 13 14  2  0  0  0  0
 13 53  1  0  0  0  0
 14 36  1  0  0  0  0
 15 16  1  0  0  0  0
 15 37  1  0  0  0  0
 16 24  1  0  0  0  0
 16 17  1  0  0  0  0
 16 38  1  0  0  0  0
 17 18  1  0  0  0  0
 17 39  1  0  0  0  0
 17 40  1  0  0  0  0
 18 19  1  0  0  0  0
 18 41  1  0  0  0  0
 18 42  1  0  0  0  0
 19 24  1  0  0  0  0
 19 20  1  0  0  0  0
 19 52  1  0  0  0  0
 20 21  1  0  0  0  0
 20 43  1  0  0  0  0
 20 44  1  0  0  0  0
 21 22  1  0  0  0  0
 21 45  1  0  0  0  0
 21 46  1  0  0  0  0
 22 23  1  0  0  0  0
 22 47  1  0  0  0  0
 22 48  1  0  0  0  0
 23 24  1  0  0  0  0
 23 49  1  0  0  0  0
 23 50  1  0  0  0  0
 24 51  1  0  0  0  0
M  CHG  1  13   1
M  CHG  1  19   1
M  END
> <s_m_source_file>
AV-unprocessed.smi

> <i_m_source_file_index>
1867

> <i_lp_mmshare_version>
43012

> <i_f3d_flags>
0

> <s_epik_input>
W0NIMl0xW0NIMl1bQ0gyXVtDSDJdW0NASF0oTjEyKVtDQEBIXShbQ0gyXVtDSDJdMilbTkhdQyg9TylbTkhdYzNbY0hdW2NIXWMobltjSF0zKU40W0NIMl1bQ0gyXVtDSDJdW0NIMl00

> <s_epik_cmdline>
J2VwaWtfcHl0aG9uJywgJy1waCcsICc3LjAnLCAnLXRuJywgJzgnLCAnLW1hJywgJzIwMCcsICctbWV0YWxfYmluZGluZycsICctaW1hZScsICc8aW5maWxlLm1hZT4nLCAnLW9tYWUnLCAnPG91dGZpbGUubWFlPic=

> <r_lp_tautomer_probability>
0.999994

> <r_epik_Ionization_Penalty>
1.27347

> <r_epik_Ionization_Penalty_Charging>
1.27345

> <r_epik_Ionization_Penalty_Neutral>
1.96458e-05

> <r_epik_State_Penalty>
1.34393

> <r_epik_Charging_Adjusted_Penalty>
2.61738

> <i_epik_Tot_Q>
2

> <i_epik_Tot_abs_Q>
2

> <r_epik_Metal_State_Penalty>
1.41094

> <b_epik_Metal_Only>
0

> <s_lp_Force_Field>
OPLS_2005

> <r_lp_Energy>
79.6518

> <b_lp_Chiralities_Consistent>
1

> <s_lp_Variant>
AV-unprocessed.smi:1867-9

> <Gold.Version>
5.8.1

> <Gold.Id.Protein>
6NUR|6NUR_protein|mol2

> <Gold.PLP.Fitness>
49.8943

> <Gold.PLP.PLP>
-41.0644

> <Gold.PLP.part.hbond>
-3.8543

> <Gold.PLP.part.metal>
0.0000

> <Gold.PLP.part.buried>
0.1705

> <Gold.PLP.part.nonpolar>
-38.8138

> <Gold.PLP.part.repulsive>
0.3836

> <Gold.PLP.ligand.clash>
0.0000

> <Gold.PLP.ligand.torsion>
1.0450

> <Gold.PLP.Chemscore.Hbond>
3.5649

> <Gold.PLP.Chemscore.CHOScore>
0.0000

> <Gold.PLP.Chemscore.Metal>
0.0000

> <Gold.Chemscore.Hbonds>
donor molecule, donor type, donor heavy atom, donor atom, acceptor molecule, acceptor atom, score
      L1  H     3    25       P1  7948  0.59
      L1  H    13    53       P1  8028  1.89
      L1  H    15    37       P1  7948  1.00

> <Gold.PLP.Chemscore.Internal.Correction>
0.2252

> <Gold.Rescore>
     Score         DG    S(hbond)    S(metal)    S(lipo)     H(rot)  DE(clash)    DE(int)     intcor
     18.54     -24.61       2.48        0.00     114.68       1.00       2.46       3.61       ----

> <Gold.Chemscore.Fitness>
18.5420

> <Gold.Chemscore.DG>
-24.6108

> <Gold.Chemscore.ZeroCoef>
-5.4800

> <Gold.Chemscore.Hbond>
2.4769

> <Gold.Chemscore.Metal>
0.0000

> <Gold.Chemscore.Lipo>
114.6833

> <Gold.Chemscore.Internal_Hbond>
0.0000

> <Gold.Chemscore.DEClash>
2.4582

> <Gold.Chemscore.DEInternal>
3.6107

> <Gold.Chemscore.Rot>
1.0000

> <Gold.Chemscore.Internal.Correction>
   9.000000E+99

> <Gold.Chemscore.Hbonds>
donor molecule, donor type, donor heavy atom, donor atom, acceptor molecule, acceptor atom, score
      L1  H     3    25       P1  7948  0.57
      L1  H    13    53       P1  8028  0.90
      L1  H    15    37       P1  7948  1.00

> <Gold.Chemscore.Hbond.Weighted>
-8.2729

> <Gold.Chemscore.Metal.Weighted>
-0.0000

> <Gold.Chemscore.Lipo.Weighted>
-13.4179

> <Gold.Chemscore.Internal_Hbond.Weighted>
0.0000

> <Gold.Chemscore.DEClash.Weighted>
2.4582

> <Gold.Chemscore.DEInternal.Weighted>
3.6107

> <Gold.Chemscore.Rot.Weighted>
2.5600

> <Gold.Chemscore.Internal.Correction.Weighted>
   9.000000E+99

> <Gold.Protein.RotatedTorsions>
[ 6907 6896 6895 6894 ] final   -6.37 input  -60.11 | X-H torsion
[ 7974 7965 7964 7962 ] final  107.44 input  175.53 | X-H torsion
[ 8008 7997 7996 7995 ] final  -71.94 input   59.86 | X-H torsion
[ 10167 10162 10161 10158 ] final  -54.62 input  -65.29 | X-H torsion
[ 10718 10713 10712 10709 ] final  -68.17 input   66.30 | X-H torsion
[ 10763 10752 10751 10750 ] final  179.19 input  -60.55 | X-H torsion
[ 11005 11000 10999 10996 ] final    4.50 input  -57.11 | X-H torsion

> <Gold.Protein.ActiveResidues>
 VAL166  LYS551  ARG553  GLY616  TRP617  ASP618  TYR619  PRO620  LYS621  CYS622 
 ASP623  PHE694  ASN695  SER759  ASP760  ASP761  ALA762  ILE779  LEU786  VAL792 
 PHE793  MET794  SER795  GLU796  ALA797  LYS798  CYS799  TRP800  GLU811  SER814 

> <Gold.Protein.RotatedAtoms>
  151.4666  135.1042  159.9739 H   0  0  0  0  0  0  0  0  0  0  0  0  # atno 6907 bound_to 6896
  152.4832  133.8303  159.7110 H   0  0  0  0  0  0  0  0  0  0  0  0  # atno 6908 bound_to 6896
  150.8921  133.7169  159.2929 H   0  0  0  0  0  0  0  0  0  0  0  0  # atno 6909 bound_to 6896
  145.2936  139.2592  143.3851 H   0  0  0  0  0  0  0  0  0  0  0  0  # atno 7974 bound_to 7965
  154.5127  140.0806  156.8021 H   0  0  0  0  0  0  0  0  0  0  0  0  # atno 8008 bound_to 7997
  155.3749  140.3425  155.4226 H   0  0  0  0  0  0  0  0  0  0  0  0  # atno 8009 bound_to 7997
  156.1592  140.1583  156.8628 H   0  0  0  0  0  0  0  0  0  0  0  0  # atno 8010 bound_to 7997
  140.6420  143.2513  151.4963 H   0  0  0  0  0  0  0  0  0  0  0  0  # atno 10167 bound_to 10162
  156.0519  130.4290  150.1961 H   0  0  0  0  0  0  0  0  0  0  0  0  # atno 10718 bound_to 10713
  154.5174  135.2792  155.1291 H   0  0  0  0  0  0  0  0  0  0  0  0  # atno 10763 bound_to 10752
  154.2862  135.6276  153.5370 H   0  0  0  0  0  0  0  0  0  0  0  0  # atno 10764 bound_to 10752
  152.9930  135.5663  154.5655 H   0  0  0  0  0  0  0  0  0  0  0  0  # atno 10765 bound_to 10752
  140.5813  134.0010  155.8049 H   0  0  0  0  0  0  0  0  0  0  0  0  # atno 11005 bound_to 11000
  146.3176  140.3433  142.8650 LP  0  0  0  0  0  0  0  0  0  0  0  0  # atno 17320 bound_to 7965
  144.9152  140.7804  143.5782 LP  0  0  0  0  0  0  0  0  0  0  0  0  # atno 17321 bound_to 7965
  139.5630  144.2111  152.1720 LP  0  0  0  0  0  0  0  0  0  0  0  0  # atno 17342 bound_to 10162
  140.1384  144.5224  150.6759 LP  0  0  0  0  0  0  0  0  0  0  0  0  # atno 17343 bound_to 10162
  157.0043  130.9932  151.3383 LP  0  0  0  0  0  0  0  0  0  0  0  0  # atno 17370 bound_to 10713
  157.5454  130.8147  149.8079 LP  0  0  0  0  0  0  0  0  0  0  0  0  # atno 17371 bound_to 10713
  141.0994  133.9791  157.3104 LP  0  0  0  0  0  0  0  0  0  0  0  0  # atno 17394 bound_to 11000
  139.9316  135.0199  156.8419 LP  0  0  0  0  0  0  0  0  0  0  0  0  # atno 17395 bound_to 11000

$$$$
