AV-unprocessed.smi:765|AV-procd|sdf|3644|dock2
  -GOLD-   22720 1 43D 1   1.00000     0.00000
 Structure written by MMmdl.
 39 40  0  0  0  0  0  0  0  0  1 V2000
  147.6190  141.6774  155.2898 C   0  0  0  0  0  0  0  0  0  0  0  0
  148.8006  140.8044  155.7358 C   0  0  1  0  0  0  0  0  0  0  0  0
  149.7408  140.4890  154.5587 C   0  0  0  0  0  0  0  0  0  0  0  0
  150.9336  139.6317  155.0041 C   0  0  0  0  0  0  0  0  0  0  0  0
  151.6969  140.3076  156.1543 C   0  0  0  0  0  0  0  0  0  0  0  0
  150.7865  140.6118  157.3647 C   0  0  1  0  0  0  0  0  0  0  0  0
  150.3198  139.3421  157.9580 C   0  0  0  0  0  0  0  0  0  0  0  0
  149.9538  138.3478  158.4235 N   0  0  0  0  0  0  0  0  0  0  0  0
  151.5851  141.3791  158.3223 N   0  0  0  0  0  0  0  0  0  0  0  0
  152.7165  140.9862  158.9319 C   0  0  0  0  0  0  0  0  0  0  0  0
  153.2587  139.9014  158.7192 O   0  0  0  0  0  0  0  0  0  0  0  0
  153.3060  141.9719  159.9520 C   0  0  2  0  0  0  0  0  0  0  0  0
  153.2667  141.4383  161.3959 C   0  0  0  0  0  0  0  0  0  0  0  0
  152.6302  143.2593  159.8522 N   0  0  0  0  0  0  0  0  0  0  0  0
  152.6208  144.1545  158.7996 C   0  0  0  0  0  0  0  0  0  0  0  0
  151.8529  145.2191  159.1750 C   0  0  0  0  0  0  0  0  0  0  0  0
  151.4255  144.8802  160.4888 C   0  0  0  0  0  0  0  0  0  0  0  0
  151.8915  143.7088  160.8907 N   0  0  0  0  0  0  0  0  0  0  0  0
  149.5855  141.4668  156.8864 C   0  0  0  0  0  0  0  0  0  0  0  0
  147.9592  142.6411  154.9091 H   0  0  0  0  0  0  0  0  0  0  0  0
  146.9373  141.8690  156.1191 H   0  0  0  0  0  0  0  0  0  0  0  0
  147.0472  141.1902  154.4996 H   0  0  0  0  0  0  0  0  0  0  0  0
  148.3895  139.8624  156.1009 H   0  0  0  0  0  0  0  0  0  0  0  0
  149.1930  139.9718  153.7703 H   0  0  0  0  0  0  0  0  0  0  0  0
  150.1069  141.4186  154.1203 H   0  0  0  0  0  0  0  0  0  0  0  0
  150.5842  138.6468  155.3155 H   0  0  0  0  0  0  0  0  0  0  0  0
  151.6050  139.4666  154.1610 H   0  0  0  0  0  0  0  0  0  0  0  0
  152.5280  139.6714  156.4621 H   0  0  0  0  0  0  0  0  0  0  0  0
  152.1431  141.2326  155.7849 H   0  0  0  0  0  0  0  0  0  0  0  0
  151.2257  142.2902  158.5677 H   0  0  0  0  0  0  0  0  0  0  0  0
  154.3555  142.1175  159.6878 H   0  0  0  0  0  0  0  0  0  0  0  0
  153.7855  140.4826  161.4779 H   0  0  0  0  0  0  0  0  0  0  0  0
  152.2445  141.2946  161.7485 H   0  0  0  0  0  0  0  0  0  0  0  0
  153.7551  142.1341  162.0787 H   0  0  0  0  0  0  0  0  0  0  0  0
  153.1581  143.9618  157.8824 H   0  0  0  0  0  0  0  0  0  0  0  0
  151.6298  146.1044  158.5983 H   0  0  0  0  0  0  0  0  0  0  0  0
  150.7951  145.4467  161.1583 H   0  0  0  0  0  0  0  0  0  0  0  0
  149.9415  142.4453  156.5596 H   0  0  0  0  0  0  0  0  0  0  0  0
  148.9056  141.6559  157.7181 H   0  0  0  0  0  0  0  0  0  0  0  0
  1  2  1  0  0  0  0
  1 20  1  0  0  0  0
  1 21  1  0  0  0  0
  1 22  1  0  0  0  0
  2 19  1  0  0  0  0
  2  3  1  0  0  0  0
  2 23  1  0  0  0  0
  3  4  1  0  0  0  0
  3 24  1  0  0  0  0
  3 25  1  0  0  0  0
  4  5  1  0  0  0  0
  4 26  1  0  0  0  0
  4 27  1  0  0  0  0
  5  6  1  0  0  0  0
  5 28  1  0  0  0  0
  5 29  1  0  0  0  0
  6  7  1  0  0  0  0
  6  9  1  0  0  0  0
  6 19  1  0  0  0  0
  7  8  3  0  0  0  0
  9 10  1  0  0  0  0
  9 30  1  0  0  0  0
 10 11  2  0  0  0  0
 10 12  1  0  0  0  0
 12 13  1  0  0  0  0
 12 14  1  0  0  0  0
 12 31  1  0  0  0  0
 13 32  1  0  0  0  0
 13 33  1  0  0  0  0
 13 34  1  0  0  0  0
 14 18  1  0  0  0  0
 14 15  1  0  0  0  0
 15 16  2  0  0  0  0
 15 35  1  0  0  0  0
 16 17  1  0  0  0  0
 16 36  1  0  0  0  0
 17 18  2  0  0  0  0
 17 37  1  0  0  0  0
 19 38  1  0  0  0  0
 19 39  1  0  0  0  0
M  END
> <s_m_source_file>
AV-unprocessed.smi

> <i_m_source_file_index>
765

> <i_lp_mmshare_version>
43012

> <i_f3d_flags>
0

> <s_epik_input>
W0NIM11bQ0BASF0oW0NIMl0xKVtDSDJdW0NIMl1bQ0gyXVtDQEBdMShDI04pW05IXUMoPU8pW0NASF0oW0NIM10pbjJbY0hdW2NIXVtjSF1uMg==

> <s_epik_cmdline>
J2VwaWtfcHl0aG9uJywgJy1waCcsICc3LjAnLCAnLXRuJywgJzgnLCAnLW1hJywgJzIwMCcsICctbWV0YWxfYmluZGluZycsICctaW1hZScsICc8aW5maWxlLm1hZT4nLCAnLW9tYWUnLCAnPG91dGZpbGUubWFlPic=

> <r_lp_tautomer_probability>
1

> <r_epik_Ionization_Penalty>
2.71142e-05

> <r_epik_Ionization_Penalty_Charging>
0

> <r_epik_Ionization_Penalty_Neutral>
2.71142e-05

> <r_epik_State_Penalty>
-0

> <r_epik_Charging_Adjusted_Penalty>
0

> <i_epik_Tot_Q>
0

> <i_epik_Tot_abs_Q>
0

> <r_epik_Metal_State_Penalty>
-0

> <b_epik_Metal_Only>
0

> <s_lp_Force_Field>
OPLS_2005

> <r_lp_Energy>
10.7607

> <b_lp_Chiralities_Consistent>
1

> <s_lp_Variant>
AV-unprocessed.smi:765-2

> <Gold.Version>
5.8.1

> <Gold.Id.Protein>
6NUR|6NUR_protein|mol2

> <Gold.PLP.Fitness>
46.2318

> <Gold.PLP.PLP>
-43.7129

> <Gold.PLP.part.hbond>
-1.0000

> <Gold.PLP.part.metal>
0.0000

> <Gold.PLP.part.buried>
-3.7363

> <Gold.PLP.part.nonpolar>
-39.0560

> <Gold.PLP.part.repulsive>
0.1721

> <Gold.PLP.ligand.clash>
0.0000

> <Gold.PLP.ligand.torsion>
0.2730

> <Gold.PLP.Chemscore.Hbond>
1.0000

> <Gold.PLP.Chemscore.CHOScore>
0.0000

> <Gold.PLP.Chemscore.Metal>
0.0000

> <Gold.Chemscore.Hbonds>
donor molecule, donor type, donor heavy atom, donor atom, acceptor molecule, acceptor atom, score
      P1  H  7997  8008       L1    11  0.70

> <Gold.PLP.Chemscore.Internal.Correction>
0.0650

> <Gold.Rescore>
     Score         DG    S(hbond)    S(metal)    S(lipo)     H(rot)  DE(clash)    DE(int)     intcor
     14.92     -16.64       0.91        0.00     100.49       1.42       0.10       1.62       ----

> <Gold.Chemscore.Fitness>
14.9195

> <Gold.Chemscore.DG>
-16.6389

> <Gold.Chemscore.ZeroCoef>
-5.4800

> <Gold.Chemscore.Hbond>
0.9079

> <Gold.Chemscore.Metal>
0.0000

> <Gold.Chemscore.Lipo>
100.4899

> <Gold.Chemscore.Internal_Hbond>
0.0000

> <Gold.Chemscore.DEClash>
0.1005

> <Gold.Chemscore.DEInternal>
1.6190

> <Gold.Chemscore.Rot>
1.4183

> <Gold.Chemscore.Internal.Correction>
   9.000000E+99

> <Gold.Chemscore.Hbonds>
donor molecule, donor type, donor heavy atom, donor atom, acceptor molecule, acceptor atom, score
      P1  H  7997  8008       L1    11  0.55

> <Gold.Chemscore.Hbond.Weighted>
-3.0325

> <Gold.Chemscore.Metal.Weighted>
-0.0000

> <Gold.Chemscore.Lipo.Weighted>
-11.7573

> <Gold.Chemscore.Internal_Hbond.Weighted>
0.0000

> <Gold.Chemscore.DEClash.Weighted>
0.1005

> <Gold.Chemscore.DEInternal.Weighted>
1.6190

> <Gold.Chemscore.Rot.Weighted>
3.6309

> <Gold.Chemscore.Internal.Correction.Weighted>
   9.000000E+99

> <Gold.Protein.RotatedTorsions>
[ 6907 6896 6895 6894 ] final   42.79 input  -60.11 | X-H torsion
[ 7974 7965 7964 7962 ] final   67.12 input  175.53 | X-H torsion
[ 8008 7997 7996 7995 ] final  -98.58 input   59.86 | X-H torsion
[ 10167 10162 10161 10158 ] final   -1.32 input  -65.29 | X-H torsion
[ 10718 10713 10712 10709 ] final -112.56 input   66.30 | X-H torsion
[ 10763 10752 10751 10750 ] final   69.12 input  -60.55 | X-H torsion
[ 11005 11000 10999 10996 ] final -110.96 input  -57.11 | X-H torsion

> <Gold.Protein.ActiveResidues>
 VAL166  LYS551  ARG553  GLY616  TRP617  ASP618  TYR619  PRO620  LYS621  CYS622 
 ASP623  PHE694  ASN695  SER759  ASP760  ASP761  ALA762  ILE779  LEU786  VAL792 
 PHE793  MET794  SER795  GLU796  ALA797  LYS798  CYS799  TRP800  GLU811  SER814 

> <Gold.Protein.RotatedAtoms>
  152.2123  134.8490  160.0495 H   0  0  0  0  0  0  0  0  0  0  0  0  # atno 6907 bound_to 6896
  151.9304  133.3604  159.3937 H   0  0  0  0  0  0  0  0  0  0  0  0  # atno 6908 bound_to 6896
  150.6979  134.4468  159.5362 H   0  0  0  0  0  0  0  0  0  0  0  0  # atno 6909 bound_to 6896
  145.8185  139.3071  143.1057 H   0  0  0  0  0  0  0  0  0  0  0  0  # atno 7974 bound_to 7965
  154.8031  140.0454  157.1288 H   0  0  0  0  0  0  0  0  0  0  0  0  # atno 8008 bound_to 7997
  154.9455  140.3058  155.5080 H   0  0  0  0  0  0  0  0  0  0  0  0  # atno 8009 bound_to 7997
  156.2964  140.2297  156.4528 H   0  0  0  0  0  0  0  0  0  0  0  0  # atno 8010 bound_to 7997
  140.6805  143.6790  150.8122 H   0  0  0  0  0  0  0  0  0  0  0  0  # atno 10167 bound_to 10162
  156.0713  130.5926  150.8525 H   0  0  0  0  0  0  0  0  0  0  0  0  # atno 10718 bound_to 10713
  153.0270  135.5222  154.7239 H   0  0  0  0  0  0  0  0  0  0  0  0  # atno 10763 bound_to 10752
  154.6286  135.2897  155.0245 H   0  0  0  0  0  0  0  0  0  0  0  0  # atno 10764 bound_to 10752
  154.1205  135.6608  153.4954 H   0  0  0  0  0  0  0  0  0  0  0  0  # atno 10765 bound_to 10752
  141.0762  133.9297  157.2385 H   0  0  0  0  0  0  0  0  0  0  0  0  # atno 11005 bound_to 11000
  145.9701  140.8767  143.0167 LP  0  0  0  0  0  0  0  0  0  0  0  0  # atno 17320 bound_to 7965
  144.6750  140.1933  143.7394 LP  0  0  0  0  0  0  0  0  0  0  0  0  # atno 17321 bound_to 7965
  140.0489  143.5270  152.2683 LP  0  0  0  0  0  0  0  0  0  0  0  0  # atno 17342 bound_to 10162
  139.6124  144.7612  151.2921 LP  0  0  0  0  0  0  0  0  0  0  0  0  # atno 17343 bound_to 10162
  157.5785  131.0946  150.9308 LP  0  0  0  0  0  0  0  0  0  0  0  0  # atno 17370 bound_to 10713
  156.9508  130.5419  149.5282 LP  0  0  0  0  0  0  0  0  0  0  0  0  # atno 17371 bound_to 10713
  139.9574  135.0162  156.9167 LP  0  0  0  0  0  0  0  0  0  0  0  0  # atno 17394 bound_to 11000
  140.5568  134.0573  155.7386 LP  0  0  0  0  0  0  0  0  0  0  0  0  # atno 17395 bound_to 11000

$$$$
