AV-unprocessed.smi:1979|AV-procd|sdf|8016|dock1
  -GOLD-   2272010203D 1   1.00000     0.00000
 Structure written by MMmdl.
 28 28  0  0  0  0  0  0  0  0  1 V2000
  153.5159  141.5590  162.2750 N   0  0  0  0  0  0  0  0  0  0  0  0
  153.0001  141.7983  161.2675 C   0  0  0  0  0  0  0  0  0  0  0  0
  152.3525  142.0993  160.0023 C   0  0  0  0  0  0  0  0  0  0  0  0
  152.0287  143.4250  159.6537 C   0  0  0  0  0  0  0  0  0  0  0  0
  151.4021  143.6682  158.4159 C   0  0  0  0  0  0  0  0  0  0  0  0
  151.1210  142.5701  157.5672 C   0  0  0  0  0  0  0  0  0  0  0  0
  150.5041  142.7192  156.3186 N   0  0  0  0  0  0  0  0  0  0  0  0
  150.2338  141.5595  155.4825 C   0  0  0  0  0  0  0  0  0  0  0  0
  150.7728  141.7515  154.0613 C   0  0  0  0  0  0  0  0  0  0  0  0
  152.1482  141.4076  154.0374 O   0  0  0  0  0  0  0  0  0  0  0  0
  152.3713  140.0564  153.6690 C   0  0  0  0  0  0  0  0  0  0  0  0
  153.8519  139.7178  153.8797 C   0  0  0  0  0  0  0  0  0  0  0  0
  154.1406  138.4460  153.3400 O   0  0  0  0  0  0  0  0  0  0  0  0
  151.4302  141.2987  157.9038 N   0  0  0  0  0  0  0  0  0  0  0  0
  152.0318  141.0726  159.0918 C   0  0  0  0  0  0  0  0  0  0  0  0
  152.2538  144.2461  160.3192 H   0  0  0  0  0  0  0  0  0  0  0  0
  151.1484  144.6813  158.1417 H   0  0  0  0  0  0  0  0  0  0  0  0
  150.0215  143.5819  156.1117 H   0  0  0  0  0  0  0  0  0  0  0  0
  150.7138  140.6898  155.9322 H   0  0  0  0  0  0  0  0  0  0  0  0
  149.1618  141.3603  155.4531 H   0  0  0  0  0  0  0  0  0  0  0  0
  150.2070  141.1494  153.3483 H   0  0  0  0  0  0  0  0  0  0  0  0
  150.6571  142.7966  153.7706 H   0  0  0  0  0  0  0  0  0  0  0  0
  151.7636  139.4162  154.3104 H   0  0  0  0  0  0  0  0  0  0  0  0
  152.0660  139.8664  152.6384 H   0  0  0  0  0  0  0  0  0  0  0  0
  154.4995  140.4767  153.4394 H   0  0  0  0  0  0  0  0  0  0  0  0
  154.0750  139.6812  154.9462 H   0  0  0  0  0  0  0  0  0  0  0  0
  154.1284  138.5096  152.3973 H   0  0  0  0  0  0  0  0  0  0  0  0
  152.2616  140.0410  159.3167 H   0  0  0  0  0  0  0  0  0  0  0  0
  1  2  3  0  0  0  0
  2  3  1  0  0  0  0
  3 15  1  0  0  0  0
  3  4  2  0  0  0  0
  4  5  1  0  0  0  0
  4 16  1  0  0  0  0
  5  6  2  0  0  0  0
  5 17  1  0  0  0  0
  6  7  1  0  0  0  0
  6 14  1  0  0  0  0
  7  8  1  0  0  0  0
  7 18  1  0  0  0  0
  8  9  1  0  0  0  0
  8 19  1  0  0  0  0
  8 20  1  0  0  0  0
  9 10  1  0  0  0  0
  9 21  1  0  0  0  0
  9 22  1  0  0  0  0
 10 11  1  0  0  0  0
 11 12  1  0  0  0  0
 11 23  1  0  0  0  0
 11 24  1  0  0  0  0
 12 13  1  0  0  0  0
 12 25  1  0  0  0  0
 12 26  1  0  0  0  0
 13 27  1  0  0  0  0
 14 15  2  0  0  0  0
 15 28  1  0  0  0  0
M  END
> <s_m_source_file>
AV-unprocessed.smi

> <i_m_source_file_index>
1979

> <i_lp_mmshare_version>
43012

> <i_f3d_flags>
0

> <s_epik_input>
TiNDYzFbY0hdW2NIXWMobltjSF0xKVtOSF1bQ0gyXVtDSDJdT1tDSDJdW0NIMl1bT0hd

> <s_epik_cmdline>
J2VwaWtfcHl0aG9uJywgJy1waCcsICc3LjAnLCAnLXRuJywgJzgnLCAnLW1hJywgJzIwMCcsICctbWV0YWxfYmluZGluZycsICctaW1hZScsICc8aW5maWxlLm1hZT4nLCAnLW9tYWUnLCAnPG91dGZpbGUubWFlPic=

> <r_lp_tautomer_probability>
1

> <r_epik_Ionization_Penalty>
1.11368e-05

> <r_epik_Ionization_Penalty_Charging>
0

> <r_epik_Ionization_Penalty_Neutral>
1.11368e-05

> <r_epik_State_Penalty>
-0

> <r_epik_Charging_Adjusted_Penalty>
0

> <i_epik_Tot_Q>
0

> <i_epik_Tot_abs_Q>
0

> <r_epik_Metal_State_Penalty>
-0

> <b_epik_Metal_Only>
0

> <s_lp_Force_Field>
OPLS_2005

> <r_lp_Energy>
5.28627

> <b_lp_Chiralities_Consistent>
1

> <s_lp_Variant>
AV-unprocessed.smi:1979-1

> <Gold.Version>
5.8.1

> <Gold.Id.Protein>
6NUR|6NUR_protein|mol2

> <Gold.PLP.Fitness>
48.2587

> <Gold.PLP.PLP>
-37.0077

> <Gold.PLP.part.hbond>
-4.8696

> <Gold.PLP.part.metal>
0.0000

> <Gold.PLP.part.buried>
-4.9464

> <Gold.PLP.part.nonpolar>
-27.3858

> <Gold.PLP.part.repulsive>
0.1648

> <Gold.PLP.ligand.clash>
0.0000

> <Gold.PLP.ligand.torsion>
0.4159

> <Gold.PLP.Chemscore.Hbond>
4.0000

> <Gold.PLP.Chemscore.CHOScore>
0.0000

> <Gold.PLP.Chemscore.Metal>
0.0000

> <Gold.Chemscore.Hbonds>
donor molecule, donor type, donor heavy atom, donor atom, acceptor molecule, acceptor atom, score
      L1  H     7    18       P1  8028  1.00

> <Gold.PLP.Chemscore.Internal.Correction>
0.0830

> <Gold.Rescore>
     Score         DG    S(hbond)    S(metal)    S(lipo)     H(rot)  DE(clash)    DE(int)     intcor
     17.49     -18.06       3.63        0.00      66.91       2.88       0.04       0.53       ----

> <Gold.Chemscore.Fitness>
17.4887

> <Gold.Chemscore.DG>
-18.0625

> <Gold.Chemscore.ZeroCoef>
-5.4800

> <Gold.Chemscore.Hbond>
3.6300

> <Gold.Chemscore.Metal>
0.0000

> <Gold.Chemscore.Lipo>
66.9082

> <Gold.Chemscore.Internal_Hbond>
0.0000

> <Gold.Chemscore.DEClash>
0.0392

> <Gold.Chemscore.DEInternal>
0.5346

> <Gold.Chemscore.Rot>
2.8788

> <Gold.Chemscore.Internal.Correction>
   9.000000E+99

> <Gold.Chemscore.Hbonds>
donor molecule, donor type, donor heavy atom, donor atom, acceptor molecule, acceptor atom, score
      L1  H     7    18       P1  8028  1.00

> <Gold.Chemscore.Hbond.Weighted>
-12.1241

> <Gold.Chemscore.Metal.Weighted>
-0.0000

> <Gold.Chemscore.Lipo.Weighted>
-7.8283

> <Gold.Chemscore.Internal_Hbond.Weighted>
0.0000

> <Gold.Chemscore.DEClash.Weighted>
0.0392

> <Gold.Chemscore.DEInternal.Weighted>
0.5346

> <Gold.Chemscore.Rot.Weighted>
7.3699

> <Gold.Chemscore.Internal.Correction.Weighted>
   9.000000E+99

> <Gold.Protein.RotatedTorsions>
[ 6907 6896 6895 6894 ] final  -99.38 input  -60.11 | X-H torsion
[ 7974 7965 7964 7962 ] final   42.87 input  175.53 | X-H torsion
[ 8008 7997 7996 7995 ] final   39.20 input   59.86 | X-H torsion
[ 10167 10162 10161 10158 ] final  123.28 input  -65.29 | X-H torsion
[ 10718 10713 10712 10709 ] final -158.95 input   66.30 | X-H torsion
[ 10763 10752 10751 10750 ] final   50.83 input  -60.55 | X-H torsion
[ 11005 11000 10999 10996 ] final   95.68 input  -57.11 | X-H torsion

> <Gold.Protein.ActiveResidues>
 VAL166  LYS551  ARG553  GLY616  TRP617  ASP618  TYR619  PRO620  LYS621  CYS622 
 ASP623  PHE694  ASN695  SER759  ASP760  ASP761  ALA762  ILE779  LEU786  VAL792 
 PHE793  MET794  SER795  GLU796  ALA797  LYS798  CYS799  TRP800  GLU811  SER814 

> <Gold.Protein.RotatedAtoms>
  150.7078  134.1049  159.3978 H   0  0  0  0  0  0  0  0  0  0  0  0  # atno 6907 bound_to 6896
  151.9036  135.0366  160.0518 H   0  0  0  0  0  0  0  0  0  0  0  0  # atno 6908 bound_to 6896
  152.2394  133.5087  159.5298 H   0  0  0  0  0  0  0  0  0  0  0  0  # atno 6909 bound_to 6896
  146.0703  139.5250  142.9602 H   0  0  0  0  0  0  0  0  0  0  0  0  # atno 7974 bound_to 7965
  155.2327  140.3339  155.4301 H   0  0  0  0  0  0  0  0  0  0  0  0  # atno 8008 bound_to 7997
  156.2288  140.1841  156.7341 H   0  0  0  0  0  0  0  0  0  0  0  0  # atno 8009 bound_to 7997
  154.5943  140.0633  156.9267 H   0  0  0  0  0  0  0  0  0  0  0  0  # atno 8010 bound_to 7997
  139.5808  144.6985  151.3532 H   0  0  0  0  0  0  0  0  0  0  0  0  # atno 10167 bound_to 10162
  156.5613  130.8648  151.2810 H   0  0  0  0  0  0  0  0  0  0  0  0  # atno 10718 bound_to 10713
  152.9784  135.5866  154.4316 H   0  0  0  0  0  0  0  0  0  0  0  0  # atno 10763 bound_to 10752
  154.3928  135.2768  155.2146 H   0  0  0  0  0  0  0  0  0  0  0  0  # atno 10764 bound_to 10752
  154.4011  135.6103  153.5952 H   0  0  0  0  0  0  0  0  0  0  0  0  # atno 10765 bound_to 10752
  139.8787  134.8912  156.4047 H   0  0  0  0  0  0  0  0  0  0  0  0  # atno 11005 bound_to 11000
  145.6403  141.0286  143.1815 LP  0  0  0  0  0  0  0  0  0  0  0  0  # atno 17320 bound_to 7965
  144.7228  139.7974  143.7376 LP  0  0  0  0  0  0  0  0  0  0  0  0  # atno 17321 bound_to 7965
  140.7087  143.7448  150.7527 LP  0  0  0  0  0  0  0  0  0  0  0  0  # atno 17342 bound_to 10162
  140.0980  143.4815  152.2441 LP  0  0  0  0  0  0  0  0  0  0  0  0  # atno 17343 bound_to 10162
  157.7368  130.9784  150.2156 LP  0  0  0  0  0  0  0  0  0  0  0  0  # atno 17370 bound_to 10713
  156.2796  130.3732  149.7948 LP  0  0  0  0  0  0  0  0  0  0  0  0  # atno 17371 bound_to 10713
  140.9242  133.7624  155.9944 LP  0  0  0  0  0  0  0  0  0  0  0  0  # atno 17394 bound_to 11000
  140.8405  134.3072  157.5315 LP  0  0  0  0  0  0  0  0  0  0  0  0  # atno 17395 bound_to 11000

$$$$
