AV-unprocessed.smi:613|AV-procd|sdf|3065|dock5
  -GOLD-   2262023593D 1   1.00000     0.00000
 Structure written by MMmdl.
 38 39  0  0  0  0  0  0  0  0  1 V2000
  150.7467  142.8094  157.7713 C   0  0  0  0  0  0  0  0  0  0  0  0
  151.6206  141.6489  157.6435 N   0  0  0  0  0  0  0  0  0  0  0  0
  151.8057  141.0588  156.3150 C   0  0  0  0  0  0  0  0  0  0  0  0
  150.5231  140.4127  155.7544 C   0  0  1  0  0  0  0  0  0  0  0  0
  149.4921  141.4390  155.2364 C   0  0  0  0  0  0  0  0  0  0  0  0
  148.3330  140.7952  154.6124 N   0  0  0  0  0  0  0  0  0  0  0  0
  147.3270  141.7409  154.1094 C   0  0  0  0  0  0  0  0  0  0  0  0
  146.2304  142.1026  155.1184 C   0  0  0  0  0  0  0  0  0  0  0  0
  144.9682  141.8615  154.7550 N   0  0  0  0  0  0  0  0  0  0  0  0
  146.5198  142.5930  156.2074 O   0  0  0  0  0  0  0  0  0  0  0  0
  148.7851  139.8866  153.5634 C   0  0  0  0  0  0  0  0  0  0  0  0
  149.8131  138.8716  154.0889 C   0  0  0  0  0  0  0  0  0  0  0  0
  150.9091  139.5652  154.6754 O   0  0  0  0  0  0  0  0  0  0  0  0
  152.4761  141.3047  158.7182 C   0  0  0  0  0  0  0  0  0  0  0  0
  152.5194  142.0717  159.9087 C   0  0  0  0  0  0  0  0  0  0  0  0
  153.4042  141.6708  160.9243 C   0  0  0  0  0  0  0  0  0  0  0  0
  154.1876  140.5292  160.6862 C   0  0  0  0  0  0  0  0  0  0  0  0
  154.1101  139.8243  159.5375 N   0  0  0  0  0  0  0  0  0  0  0  0
  153.2654  140.2079  158.5751 N   0  0  0  0  0  0  0  0  0  0  0  0
  150.0327  142.6665  158.5828 H   0  0  0  0  0  0  0  0  0  0  0  0
  150.1782  142.9725  156.8554 H   0  0  0  0  0  0  0  0  0  0  0  0
  151.3281  143.7110  157.9669 H   0  0  0  0  0  0  0  0  0  0  0  0
  152.2159  141.7739  155.6020 H   0  0  0  0  0  0  0  0  0  0  0  0
  152.5707  140.2873  156.4098 H   0  0  0  0  0  0  0  0  0  0  0  0
  150.0655  139.7927  156.5273 H   0  0  0  0  0  0  0  0  0  0  0  0
  149.1736  142.0565  156.0754 H   0  0  0  0  0  0  0  0  0  0  0  0
  149.9717  142.1089  154.5205 H   0  0  0  0  0  0  0  0  0  0  0  0
  147.8139  142.6601  153.7784 H   0  0  0  0  0  0  0  0  0  0  0  0
  146.8369  141.3233  153.2286 H   0  0  0  0  0  0  0  0  0  0  0  0
  144.2127  142.0869  155.3856 H   0  0  0  0  0  0  0  0  0  0  0  0
  144.7748  141.4583  153.8499 H   0  0  0  0  0  0  0  0  0  0  0  0
  147.9339  139.3482  153.1444 H   0  0  0  0  0  0  0  0  0  0  0  0
  149.2282  140.4546  152.7435 H   0  0  0  0  0  0  0  0  0  0  0  0
  149.3593  138.2043  154.8231 H   0  0  0  0  0  0  0  0  0  0  0  0
  150.1815  138.2483  153.2739 H   0  0  0  0  0  0  0  0  0  0  0  0
  151.9048  142.9458  160.0600 H   0  0  0  0  0  0  0  0  0  0  0  0
  153.4803  142.2192  161.8514 H   0  0  0  0  0  0  0  0  0  0  0  0
  154.8863  140.1731  161.4286 H   0  0  0  0  0  0  0  0  0  0  0  0
  1  2  1  0  0  0  0
  1 20  1  0  0  0  0
  1 21  1  0  0  0  0
  1 22  1  0  0  0  0
  2  3  1  0  0  0  0
  2 14  1  0  0  0  0
  3  4  1  0  0  0  0
  3 23  1  0  0  0  0
  3 24  1  0  0  0  0
  4 13  1  0  0  0  0
  4  5  1  0  0  0  0
  4 25  1  0  0  0  0
  5  6  1  0  0  0  0
  5 26  1  0  0  0  0
  5 27  1  0  0  0  0
  6  7  1  0  0  0  0
  6 11  1  0  0  0  0
  7  8  1  0  0  0  0
  7 28  1  0  0  0  0
  7 29  1  0  0  0  0
  8  9  1  0  0  0  0
  8 10  2  0  0  0  0
  9 30  1  0  0  0  0
  9 31  1  0  0  0  0
 11 12  1  0  0  0  0
 11 32  1  0  0  0  0
 11 33  1  0  0  0  0
 12 13  1  0  0  0  0
 12 34  1  0  0  0  0
 12 35  1  0  0  0  0
 14 19  1  0  0  0  0
 14 15  2  0  0  0  0
 15 16  1  0  0  0  0
 15 36  1  0  0  0  0
 16 17  2  0  0  0  0
 16 37  1  0  0  0  0
 17 18  1  0  0  0  0
 17 38  1  0  0  0  0
 18 19  2  0  0  0  0
M  END
> <s_m_source_file>
AV-unprocessed.smi

> <i_m_source_file_index>
613

> <i_lp_mmshare_version>
43012

> <i_f3d_flags>
0

> <s_epik_input>
bjFuW2NIXVtjSF1bY0hdYzFOKFtDSDNdKVtDSDJdW0NAQEhdMltDSDJdTihbQ0gyXVtDSDJdTzIpW0NIMl1DKD1PKVtOSDJd

> <s_epik_cmdline>
J2VwaWtfcHl0aG9uJywgJy1waCcsICc3LjAnLCAnLXRuJywgJzgnLCAnLW1hJywgJzIwMCcsICctbWV0YWxfYmluZGluZycsICctaW1hZScsICc8aW5maWxlLm1hZT4nLCAnLW9tYWUnLCAnPG91dGZpbGUubWFlPic=

> <r_lp_tautomer_probability>
1

> <r_epik_Ionization_Penalty>
0.0398875

> <r_epik_Ionization_Penalty_Charging>
0

> <r_epik_Ionization_Penalty_Neutral>
0.0398875

> <r_epik_State_Penalty>
0.0543012

> <r_epik_Charging_Adjusted_Penalty>
0.0543012

> <i_epik_Tot_Q>
0

> <i_epik_Tot_abs_Q>
0

> <r_epik_Metal_State_Penalty>
0.0489294

> <b_epik_Metal_Only>
0

> <s_lp_Force_Field>
OPLS_2005

> <r_lp_Energy>
25.1321

> <b_lp_Chiralities_Consistent>
1

> <s_lp_Variant>
AV-unprocessed.smi:613-2

> <Gold.Version>
5.8.1

> <Gold.Id.Protein>
6NUR|6NUR_protein|mol2

> <Gold.PLP.Fitness>
40.7898

> <Gold.PLP.PLP>
-33.4847

> <Gold.PLP.part.hbond>
-3.0510

> <Gold.PLP.part.metal>
0.0000

> <Gold.PLP.part.buried>
-0.8393

> <Gold.PLP.part.nonpolar>
-29.5367

> <Gold.PLP.part.repulsive>
0.3537

> <Gold.PLP.ligand.clash>
0.0000

> <Gold.PLP.ligand.torsion>
0.6656

> <Gold.PLP.Chemscore.Hbond>
2.8208

> <Gold.PLP.Chemscore.CHOScore>
0.0000

> <Gold.PLP.Chemscore.Metal>
0.0000

> <Gold.Chemscore.Hbonds>
donor molecule, donor type, donor heavy atom, donor atom, acceptor molecule, acceptor atom, score
      L1  H     9    31       P1 10175  1.00
      P1  H  7989  7998       L1    13  1.00
      P1  H  7997  8008       L1    19  0.80

> <Gold.PLP.Chemscore.Internal.Correction>
0.1739

> <Gold.Rescore>
     Score         DG    S(hbond)    S(metal)    S(lipo)     H(rot)  DE(clash)    DE(int)     intcor
     10.49     -12.47       0.96        0.00      80.03       2.18       1.42       0.56       ----

> <Gold.Chemscore.Fitness>
10.4897

> <Gold.Chemscore.DG>
-12.4709

> <Gold.Chemscore.ZeroCoef>
-5.4800

> <Gold.Chemscore.Hbond>
0.9624

> <Gold.Chemscore.Metal>
0.0000

> <Gold.Chemscore.Lipo>
80.0284

> <Gold.Chemscore.Internal_Hbond>
0.0000

> <Gold.Chemscore.DEClash>
1.4220

> <Gold.Chemscore.DEInternal>
0.5592

> <Gold.Chemscore.Rot>
2.1823

> <Gold.Chemscore.Internal.Correction>
   9.000000E+99

> <Gold.Chemscore.Hbonds>
donor molecule, donor type, donor heavy atom, donor atom, acceptor molecule, acceptor atom, score
      L1  H     9    31       P1 10175  0.24
      P1  H  7989  7998       L1    13  0.21
      P1  H  7997  8008       L1    19  0.17

> <Gold.Chemscore.Hbond.Weighted>
-3.2143

> <Gold.Chemscore.Metal.Weighted>
-0.0000

> <Gold.Chemscore.Lipo.Weighted>
-9.3633

> <Gold.Chemscore.Internal_Hbond.Weighted>
0.0000

> <Gold.Chemscore.DEClash.Weighted>
1.4220

> <Gold.Chemscore.DEInternal.Weighted>
0.5592

> <Gold.Chemscore.Rot.Weighted>
5.5867

> <Gold.Chemscore.Internal.Correction.Weighted>
   9.000000E+99

> <Gold.Protein.RotatedTorsions>
[ 6907 6896 6895 6894 ] final  -98.89 input  -60.11 | X-H torsion
[ 7974 7965 7964 7962 ] final   -9.37 input  175.53 | X-H torsion
[ 8008 7997 7996 7995 ] final  -80.48 input   59.86 | X-H torsion
[ 10167 10162 10161 10158 ] final   57.70 input  -65.29 | X-H torsion
[ 10718 10713 10712 10709 ] final   70.44 input   66.30 | X-H torsion
[ 10763 10752 10751 10750 ] final   60.61 input  -60.55 | X-H torsion
[ 11005 11000 10999 10996 ] final  170.92 input  -57.11 | X-H torsion

> <Gold.Protein.ActiveResidues>
 VAL166  LYS551  ARG553  GLY616  TRP617  ASP618  TYR619  PRO620  LYS621  CYS622 
 ASP623  PHE694  ASN695  SER759  ASP760  ASP761  ALA762  ILE779  LEU786  VAL792 
 PHE793  MET794  SER795  GLU796  ALA797  LYS798  CYS799  TRP800  GLU811  SER814 

> <Gold.Protein.RotatedAtoms>
  150.7061  134.1124  159.4004 H   0  0  0  0  0  0  0  0  0  0  0  0  # atno 6907 bound_to 6896
  151.9111  135.0336  160.0524 H   0  0  0  0  0  0  0  0  0  0  0  0  # atno 6908 bound_to 6896
  152.2335  133.5042  159.5266 H   0  0  0  0  0  0  0  0  0  0  0  0  # atno 6909 bound_to 6896
  146.2253  140.2607  142.8351 H   0  0  0  0  0  0  0  0  0  0  0  0  # atno 7974 bound_to 7965
  154.5887  140.0662  156.9208 H   0  0  0  0  0  0  0  0  0  0  0  0  # atno 8008 bound_to 7997
  155.2334  140.3339  155.4282 H   0  0  0  0  0  0  0  0  0  0  0  0  # atno 8009 bound_to 7997
  156.2241  140.1811  156.7391 H   0  0  0  0  0  0  0  0  0  0  0  0  # atno 8010 bound_to 7997
  140.1952  144.4045  150.6553 H   0  0  0  0  0  0  0  0  0  0  0  0  # atno 10167 bound_to 10162
  157.6400  130.9477  150.0651 H   0  0  0  0  0  0  0  0  0  0  0  0  # atno 10718 bound_to 10713
  152.9926  135.5530  154.5901 H   0  0  0  0  0  0  0  0  0  0  0  0  # atno 10763 bound_to 10752
  154.5265  135.2811  155.1220 H   0  0  0  0  0  0  0  0  0  0  0  0  # atno 10764 bound_to 10752
  154.2552  135.6391  153.5307 H   0  0  0  0  0  0  0  0  0  0  0  0  # atno 10765 bound_to 10752
  140.3135  134.7497  157.4010 H   0  0  0  0  0  0  0  0  0  0  0  0  # atno 11005 bound_to 11000
  144.9342  140.8008  143.5670 LP  0  0  0  0  0  0  0  0  0  0  0  0  # atno 17320 bound_to 7965
  145.2553  139.2014  143.4921 LP  0  0  0  0  0  0  0  0  0  0  0  0  # atno 17321 bound_to 7965
  140.6429  143.2207  151.6251 LP  0  0  0  0  0  0  0  0  0  0  0  0  # atno 17342 bound_to 10162
  139.5240  144.3118  152.0986 LP  0  0  0  0  0  0  0  0  0  0  0  0  # atno 17343 bound_to 10162
  156.1672  130.3645  149.9215 LP  0  0  0  0  0  0  0  0  0  0  0  0  # atno 17370 bound_to 10713
  156.7199  130.9003  151.3617 LP  0  0  0  0  0  0  0  0  0  0  0  0  # atno 17371 bound_to 10713
  140.1004  134.5481  155.8359 LP  0  0  0  0  0  0  0  0  0  0  0  0  # atno 17394 bound_to 11000
  141.2103  133.6693  156.6498 LP  0  0  0  0  0  0  0  0  0  0  0  0  # atno 17395 bound_to 11000

$$$$
