AV-unprocessed.smi:1812|AV-procd|sdf|7337|dock9
  -GOLD-   22720 8593D 1   1.00000     0.00000
 Structure written by MMmdl.
 34 36  0  0  0  0  0  0  0  0  1 V2000
  146.3739  138.9097  154.1388 O   0  0  0  0  0  0  0  0  0  0  0  0
  147.1133  138.2478  153.4098 C   0  0  0  0  0  0  0  0  0  0  0  0
  146.6641  137.3307  152.5411 N   0  0  0  0  0  0  0  0  0  0  0  0
  145.2605  136.9915  152.3362 C   0  0  0  0  0  0  0  0  0  0  0  0
  145.1028  135.7613  151.4283 C   0  0  1  0  0  0  0  0  0  0  0  0
  146.1251  134.6625  151.6972 C   0  0  0  0  0  0  0  0  0  0  0  0
  145.4535  133.4386  151.1043 C   0  0  0  0  0  0  0  0  0  0  0  0
  143.9594  133.7697  151.1814 C   0  0  0  0  0  0  0  0  0  0  0  0
  143.8743  135.0984  151.6861 O   0  0  0  0  0  0  0  0  0  0  0  0
  148.4545  138.3381  153.3736 N   0  0  0  0  0  0  0  0  0  0  0  0
  149.2973  139.2128  154.1093 C   0  0  0  0  0  0  0  0  0  0  0  0
  150.6274  139.0715  154.1907 N   0  0  0  0  0  0  0  0  0  0  0  0
  151.2056  140.0563  154.9793 N   0  0  0  0  0  0  0  0  0  0  0  0
  150.3004  140.9108  155.4707 C   0  0  0  0  0  0  0  0  0  0  0  0
  150.6820  142.0534  156.3522 C   0  0  0  0  0  0  0  0  0  0  0  0
  151.4449  141.8169  157.6355 C   0  0  0  0  0  0  0  0  0  0  0  0
  150.0128  142.2834  157.6895 C   0  0  0  0  0  0  0  0  0  0  0  0
  148.6380  140.5769  154.9955 S   0  0  0  0  0  0  0  0  0  0  0  0
  147.3387  136.8270  151.9843 H   0  0  0  0  0  0  0  0  0  0  0  0
  144.7790  136.8131  153.2991 H   0  0  0  0  0  0  0  0  0  0  0  0
  144.7576  137.8520  151.8946 H   0  0  0  0  0  0  0  0  0  0  0  0
  145.1411  136.0458  150.3749 H   0  0  0  0  0  0  0  0  0  0  0  0
  147.0995  134.8706  151.2545 H   0  0  0  0  0  0  0  0  0  0  0  0
  146.2609  134.5258  152.7711 H   0  0  0  0  0  0  0  0  0  0  0  0
  145.7535  133.3084  150.0639 H   0  0  0  0  0  0  0  0  0  0  0  0
  145.7095  132.5268  151.6447 H   0  0  0  0  0  0  0  0  0  0  0  0
  143.5004  133.7191  150.1935 H   0  0  0  0  0  0  0  0  0  0  0  0
  143.4220  133.0870  151.8401 H   0  0  0  0  0  0  0  0  0  0  0  0
  148.9277  137.7194  152.7318 H   0  0  0  0  0  0  0  0  0  0  0  0
  150.9434  142.9264  155.7577 H   0  0  0  0  0  0  0  0  0  0  0  0
  151.6475  140.7865  157.9210 H   0  0  0  0  0  0  0  0  0  0  0  0
  152.2181  142.5352  157.9001 H   0  0  0  0  0  0  0  0  0  0  0  0
  149.8311  143.3138  157.9876 H   0  0  0  0  0  0  0  0  0  0  0  0
  149.2689  141.5641  158.0253 H   0  0  0  0  0  0  0  0  0  0  0  0
  1  2  2  0  0  0  0
  2  3  1  0  0  0  0
  2 10  1  0  0  0  0
  3  4  1  0  0  0  0
  3 19  1  0  0  0  0
  4  5  1  0  0  0  0
  4 20  1  0  0  0  0
  4 21  1  0  0  0  0
  5  9  1  0  0  0  0
  5  6  1  0  0  0  0
  5 22  1  0  0  0  0
  6  7  1  0  0  0  0
  6 23  1  0  0  0  0
  6 24  1  0  0  0  0
  7  8  1  0  0  0  0
  7 25  1  0  0  0  0
  7 26  1  0  0  0  0
  8  9  1  0  0  0  0
  8 27  1  0  0  0  0
  8 28  1  0  0  0  0
 10 11  1  0  0  0  0
 10 29  1  0  0  0  0
 11 18  1  0  0  0  0
 11 12  2  0  0  0  0
 12 13  1  0  0  0  0
 13 14  2  0  0  0  0
 14 15  1  0  0  0  0
 14 18  1  0  0  0  0
 15 17  1  0  0  0  0
 15 16  1  0  0  0  0
 15 30  1  0  0  0  0
 16 17  1  0  0  0  0
 16 31  1  0  0  0  0
 16 32  1  0  0  0  0
 17 33  1  0  0  0  0
 17 34  1  0  0  0  0
M  END
> <s_m_source_file>
AV-unprocessed.smi

> <i_m_source_file_index>
1812

> <i_lp_mmshare_version>
43012

> <i_f3d_flags>
0

> <s_epik_input>
TzFbQ0gyXVtDSDJdW0NIMl1bQ0BIXTFbQ0gyXVtOSF1DKD1PKVtOSF1jMm5uYyhzMilbQ0hdM1tDSDJdW0NIMl0z

> <s_epik_cmdline>
J2VwaWtfcHl0aG9uJywgJy1waCcsICc3LjAnLCAnLXRuJywgJzgnLCAnLW1hJywgJzIwMCcsICctbWV0YWxfYmluZGluZycsICctaW1hZScsICc8aW5maWxlLm1hZT4nLCAnLW9tYWUnLCAnPG91dGZpbGUubWFlPic=

> <r_lp_tautomer_probability>
1

> <r_epik_Ionization_Penalty>
0.000281817

> <r_epik_Ionization_Penalty_Charging>
0

> <r_epik_Ionization_Penalty_Neutral>
0.000281817

> <r_epik_State_Penalty>
-0

> <r_epik_Charging_Adjusted_Penalty>
0

> <i_epik_Tot_Q>
0

> <i_epik_Tot_abs_Q>
0

> <r_epik_Metal_State_Penalty>
0.157535

> <b_epik_Metal_Only>
0

> <s_lp_Force_Field>
OPLS_2005

> <r_lp_Energy>
14.4176

> <b_lp_Chiralities_Consistent>
1

> <s_lp_Variant>
AV-unprocessed.smi:1812-2

> <Gold.Version>
5.8.1

> <Gold.Id.Protein>
6NUR|6NUR_protein|mol2

> <Gold.PLP.Fitness>
35.3205

> <Gold.PLP.PLP>
-28.8552

> <Gold.PLP.part.hbond>
-4.6484

> <Gold.PLP.part.metal>
0.0000

> <Gold.PLP.part.buried>
-2.6723

> <Gold.PLP.part.nonpolar>
-22.7476

> <Gold.PLP.part.repulsive>
0.6316

> <Gold.PLP.ligand.clash>
0.0000

> <Gold.PLP.ligand.torsion>
0.3762

> <Gold.PLP.Chemscore.Hbond>
2.3600

> <Gold.PLP.Chemscore.CHOScore>
0.0000

> <Gold.PLP.Chemscore.Metal>
0.0000

> <Gold.Chemscore.Hbonds>
donor molecule, donor type, donor heavy atom, donor atom, acceptor molecule, acceptor atom, score
      L1  H     3    19       P1  7948  0.96
      L1  H    10    29       P1  7948  1.00
      P1  H  7989  7998       L1    13  0.40

> <Gold.PLP.Chemscore.Internal.Correction>
0.1378

> <Gold.Rescore>
     Score         DG    S(hbond)    S(metal)    S(lipo)     H(rot)  DE(clash)    DE(int)     intcor
     13.52     -15.12       1.90        0.00      60.27       1.47       0.03       1.57       ----

> <Gold.Chemscore.Fitness>
13.5200

> <Gold.Chemscore.DG>
-15.1201

> <Gold.Chemscore.ZeroCoef>
-5.4800

> <Gold.Chemscore.Hbond>
1.9036

> <Gold.Chemscore.Metal>
0.0000

> <Gold.Chemscore.Lipo>
60.2710

> <Gold.Chemscore.Internal_Hbond>
0.0000

> <Gold.Chemscore.DEClash>
0.0319

> <Gold.Chemscore.DEInternal>
1.5682

> <Gold.Chemscore.Rot>
1.4725

> <Gold.Chemscore.Internal.Correction>
   9.000000E+99

> <Gold.Chemscore.Hbonds>
donor molecule, donor type, donor heavy atom, donor atom, acceptor molecule, acceptor atom, score
      L1  H     3    19       P1  7948  0.92
      L1  H    10    29       P1  7948  0.95

> <Gold.Chemscore.Hbond.Weighted>
-6.3579

> <Gold.Chemscore.Metal.Weighted>
-0.0000

> <Gold.Chemscore.Lipo.Weighted>
-7.0517

> <Gold.Chemscore.Internal_Hbond.Weighted>
0.0000

> <Gold.Chemscore.DEClash.Weighted>
0.0319

> <Gold.Chemscore.DEInternal.Weighted>
1.5682

> <Gold.Chemscore.Rot.Weighted>
3.7695

> <Gold.Chemscore.Internal.Correction.Weighted>
   9.000000E+99

> <Gold.Protein.RotatedTorsions>
[ 6907 6896 6895 6894 ] final  161.98 input  -60.11 | X-H torsion
[ 7974 7965 7964 7962 ] final -116.60 input  175.53 | X-H torsion
[ 8008 7997 7996 7995 ] final   93.09 input   59.86 | X-H torsion
[ 10167 10162 10161 10158 ] final   64.26 input  -65.29 | X-H torsion
[ 10718 10713 10712 10709 ] final   80.12 input   66.30 | X-H torsion
[ 10763 10752 10751 10750 ] final -120.80 input  -60.55 | X-H torsion
[ 11005 11000 10999 10996 ] final -165.48 input  -57.11 | X-H torsion

> <Gold.Protein.ActiveResidues>
 VAL166  LYS551  ARG553  GLY616  TRP617  ASP618  TYR619  PRO620  LYS621  CYS622 
 ASP623  PHE694  ASN695  SER759  ASP760  ASP761  ALA762  ILE779  LEU786  VAL792 
 PHE793  MET794  SER795  GLU796  ALA797  LYS798  CYS799  TRP800  GLU811  SER814 

> <Gold.Protein.RotatedAtoms>
  151.9474  133.3656  159.3987 H   0  0  0  0  0  0  0  0  0  0  0  0  # atno 6907 bound_to 6896
  150.6987  134.4376  159.5286 H   0  0  0  0  0  0  0  0  0  0  0  0  # atno 6908 bound_to 6896
  152.2043  134.8559  160.0555 H   0  0  0  0  0  0  0  0  0  0  0  0  # atno 6909 bound_to 6896
  145.0949  140.8514  143.3961 H   0  0  0  0  0  0  0  0  0  0  0  0  # atno 7974 bound_to 7965
  156.0428  140.3317  155.7262 H   0  0  0  0  0  0  0  0  0  0  0  0  # atno 8008 bound_to 7997
  155.5719  140.0628  157.2822 H   0  0  0  0  0  0  0  0  0  0  0  0  # atno 8009 bound_to 7997
  154.4400  140.1859  156.0876 H   0  0  0  0  0  0  0  0  0  0  0  0  # atno 8010 bound_to 7997
  140.1241  144.4704  150.6903 H   0  0  0  0  0  0  0  0  0  0  0  0  # atno 10167 bound_to 10162
  157.6797  130.9945  150.2032 H   0  0  0  0  0  0  0  0  0  0  0  0  # atno 10718 bound_to 10713
  154.8653  135.4190  154.2517 H   0  0  0  0  0  0  0  0  0  0  0  0  # atno 10763 bound_to 10752
  153.3462  135.6996  153.6831 H   0  0  0  0  0  0  0  0  0  0  0  0  # atno 10764 bound_to 10752
  153.5790  135.3576  155.2840 H   0  0  0  0  0  0  0  0  0  0  0  0  # atno 10765 bound_to 10752
  140.5752  134.5197  157.5169 H   0  0  0  0  0  0  0  0  0  0  0  0  # atno 11005 bound_to 11000
  145.1023  139.2814  143.5680 LP  0  0  0  0  0  0  0  0  0  0  0  0  # atno 17320 bound_to 7965
  146.3531  140.0594  142.8630 LP  0  0  0  0  0  0  0  0  0  0  0  0  # atno 17321 bound_to 7965
  140.6855  143.2348  151.5272 LP  0  0  0  0  0  0  0  0  0  0  0  0  # atno 17342 bound_to 10162
  139.5553  144.2291  152.1602 LP  0  0  0  0  0  0  0  0  0  0  0  0  # atno 17343 bound_to 10162
  156.2718  130.3723  149.8023 LP  0  0  0  0  0  0  0  0  0  0  0  0  # atno 17370 bound_to 10713
  156.5738  130.8436  151.3364 LP  0  0  0  0  0  0  0  0  0  0  0  0  # atno 17371 bound_to 10713
  139.9343  134.7905  156.0846 LP  0  0  0  0  0  0  0  0  0  0  0  0  # atno 17394 bound_to 11000
  141.1031  133.6670  156.2800 LP  0  0  0  0  0  0  0  0  0  0  0  0  # atno 17395 bound_to 11000

$$$$
