AV-unprocessed.smi:1370|AV-procd|sdf|5580|dock8
  -GOLD-   22720 5173D 1   1.00000     0.00000
 Structure written by MMmdl.
 39 40  0  0  0  0  0  0  0  0  1 V2000
  149.4931  141.1534  153.9276 O   0  0  0  0  0  0  0  0  0  0  0  0
  148.8196  141.4342  154.9201 C   0  0  0  0  0  0  0  0  0  0  0  0
  147.3774  140.9273  155.0618 C   0  0  0  0  0  0  0  0  0  0  0  0
  146.9921  139.9676  154.0139 N   0  0  0  0  0  0  0  0  0  0  0  0
  147.1322  140.3874  152.6760 C   0  0  0  0  0  0  0  0  0  0  0  0
  146.8100  139.5907  151.6445 C   0  0  0  0  0  0  0  0  0  0  0  0
  146.3083  138.2685  151.9343 C   0  0  0  0  0  0  0  0  0  0  0  0
  146.1667  137.8584  153.2104 C   0  0  0  0  0  0  0  0  0  0  0  0
  146.5136  138.7275  154.3410 C   0  0  0  0  0  0  0  0  0  0  0  0
  146.3830  138.3625  155.5098 O   0  0  0  0  0  0  0  0  0  0  0  0
  149.2885  142.1640  155.9430 N   0  0  0  0  0  0  0  0  0  0  0  0
  150.6371  142.7139  156.0355 C   0  0  0  0  0  0  0  0  0  0  0  0
  151.1118  142.8270  157.4931 C   0  0  0  0  0  0  0  0  0  0  0  0
  152.1465  144.2958  157.7601 S   0  0  0  0  0  0  0  0  0  0  0  0
  152.9007  143.8742  159.3568 C   0  0  0  0  0  0  0  0  0  0  0  0
  153.1607  142.3758  159.5022 C   0  0  0  0  0  0  0  0  0  0  0  0
  153.3092  142.1766  161.0096 C   0  0  0  0  0  0  0  0  0  0  0  0
  152.3536  143.1922  161.6498 C   0  0  0  0  0  0  0  0  0  0  0  0
  152.0104  144.2177  160.5574 C   0  0  0  0  0  0  0  0  0  0  0  0
  147.2745  140.4762  156.0494 H   0  0  0  0  0  0  0  0  0  0  0  0
  146.6905  141.7758  155.0643 H   0  0  0  0  0  0  0  0  0  0  0  0
  147.5074  141.3920  152.5457 H   0  0  0  0  0  0  0  0  0  0  0  0
  146.9193  139.9314  150.6255 H   0  0  0  0  0  0  0  0  0  0  0  0
  146.0441  137.6048  151.1242 H   0  0  0  0  0  0  0  0  0  0  0  0
  145.7893  136.8658  153.4080 H   0  0  0  0  0  0  0  0  0  0  0  0
  148.6715  142.3398  156.7227 H   0  0  0  0  0  0  0  0  0  0  0  0
  151.3302  142.0958  155.4626 H   0  0  0  0  0  0  0  0  0  0  0  0
  150.6429  143.6970  155.5645 H   0  0  0  0  0  0  0  0  0  0  0  0
  150.2589  142.8597  158.1716 H   0  0  0  0  0  0  0  0  0  0  0  0
  151.6917  141.9427  157.7575 H   0  0  0  0  0  0  0  0  0  0  0  0
  153.8508  144.4027  159.4483 H   0  0  0  0  0  0  0  0  0  0  0  0
  152.3027  141.8072  159.1404 H   0  0  0  0  0  0  0  0  0  0  0  0
  154.0393  142.0455  158.9474 H   0  0  0  0  0  0  0  0  0  0  0  0
  153.0982  141.1520  161.3169 H   0  0  0  0  0  0  0  0  0  0  0  0
  154.3337  142.4048  161.3058 H   0  0  0  0  0  0  0  0  0  0  0  0
  151.4451  142.6984  161.9967 H   0  0  0  0  0  0  0  0  0  0  0  0
  152.8160  143.6673  162.5155 H   0  0  0  0  0  0  0  0  0  0  0  0
  152.1642  145.2429  160.8951 H   0  0  0  0  0  0  0  0  0  0  0  0
  150.9577  144.1179  160.2887 H   0  0  0  0  0  0  0  0  0  0  0  0
  1  2  2  0  0  0  0
  2  3  1  0  0  0  0
  2 11  1  0  0  0  0
  3  4  1  0  0  0  0
  3 20  1  0  0  0  0
  3 21  1  0  0  0  0
  4  9  1  0  0  0  0
  4  5  1  0  0  0  0
  5  6  2  0  0  0  0
  5 22  1  0  0  0  0
  6  7  1  0  0  0  0
  6 23  1  0  0  0  0
  7  8  2  0  0  0  0
  7 24  1  0  0  0  0
  8  9  1  0  0  0  0
  8 25  1  0  0  0  0
  9 10  2  0  0  0  0
 11 12  1  0  0  0  0
 11 26  1  0  0  0  0
 12 13  1  0  0  0  0
 12 27  1  0  0  0  0
 12 28  1  0  0  0  0
 13 14  1  0  0  0  0
 13 29  1  0  0  0  0
 13 30  1  0  0  0  0
 14 15  1  0  0  0  0
 15 19  1  0  0  0  0
 15 16  1  0  0  0  0
 15 31  1  0  0  0  0
 16 17  1  0  0  0  0
 16 32  1  0  0  0  0
 16 33  1  0  0  0  0
 17 18  1  0  0  0  0
 17 34  1  0  0  0  0
 17 35  1  0  0  0  0
 18 19  1  0  0  0  0
 18 36  1  0  0  0  0
 18 37  1  0  0  0  0
 19 38  1  0  0  0  0
 19 39  1  0  0  0  0
M  END
> <s_m_source_file>
AV-unprocessed.smi

> <i_m_source_file_index>
1370

> <i_lp_mmshare_version>
43012

> <i_f3d_flags>
0

> <s_epik_input>
Tz1jMVtjSF1bY0hdW2NIXVtjSF1uMVtDSDJdQyg9TylbTkhdW0NIMl1bQ0gyXVNbQ0hdMltDSDJdW0NIMl1bQ0gyXVtDSDJdMg==

> <s_epik_cmdline>
J2VwaWtfcHl0aG9uJywgJy1waCcsICc3LjAnLCAnLXRuJywgJzgnLCAnLW1hJywgJzIwMCcsICctbWV0YWxfYmluZGluZycsICctaW1hZScsICc8aW5maWxlLm1hZT4nLCAnLW9tYWUnLCAnPG91dGZpbGUubWFlPic=

> <r_lp_tautomer_probability>
1

> <r_epik_Ionization_Penalty>
3.75756e-07

> <r_epik_Ionization_Penalty_Charging>
3.52005e-07

> <r_epik_Ionization_Penalty_Neutral>
2.37506e-08

> <r_epik_State_Penalty>
-0

> <r_epik_Charging_Adjusted_Penalty>
3.52005e-07

> <i_epik_Tot_Q>
0

> <i_epik_Tot_abs_Q>
0

> <r_epik_Metal_State_Penalty>
-0

> <b_epik_Metal_Only>
0

> <s_lp_Force_Field>
OPLS_2005

> <r_lp_Energy>
28.6611

> <b_lp_Chiralities_Consistent>
1

> <s_lp_Variant>
AV-unprocessed.smi:1370-1

> <Gold.Version>
5.8.1

> <Gold.Id.Protein>
6NUR|6NUR_protein|mol2

> <Gold.PLP.Fitness>
43.4449

> <Gold.PLP.PLP>
-42.0904

> <Gold.PLP.part.hbond>
-3.0000

> <Gold.PLP.part.metal>
0.0000

> <Gold.PLP.part.buried>
3.7708

> <Gold.PLP.part.nonpolar>
-44.4635

> <Gold.PLP.part.repulsive>
1.0227

> <Gold.PLP.ligand.clash>
0.0000

> <Gold.PLP.ligand.torsion>
0.8382

> <Gold.PLP.Chemscore.Hbond>
0.9932

> <Gold.PLP.Chemscore.CHOScore>
0.0007

> <Gold.PLP.Chemscore.Metal>
0.0000

> <Gold.Chemscore.Hbonds>
donor molecule, donor type, donor heavy atom, donor atom, acceptor molecule, acceptor atom, score
      P1  H  7989  7998       L1     1  0.23
      P1  H  8011  8017       L1     1  0.80
      L1  C     5    22       P1  7957  0.02

> <Gold.PLP.Chemscore.Internal.Correction>
0.0493

> <Gold.Rescore>
     Score         DG    S(hbond)    S(metal)    S(lipo)     H(rot)  DE(clash)    DE(int)     intcor
     14.17     -18.63       0.82        0.00     129.69       1.87       2.41       2.04       ----

> <Gold.Chemscore.Fitness>
14.1720

> <Gold.Chemscore.DG>
-18.6254

> <Gold.Chemscore.ZeroCoef>
-5.4800

> <Gold.Chemscore.Hbond>
0.8245

> <Gold.Chemscore.Metal>
0.0000

> <Gold.Chemscore.Lipo>
129.6940

> <Gold.Chemscore.Internal_Hbond>
0.0000

> <Gold.Chemscore.DEClash>
2.4094

> <Gold.Chemscore.DEInternal>
2.0440

> <Gold.Chemscore.Rot>
1.8682

> <Gold.Chemscore.Internal.Correction>
   9.000000E+99

> <Gold.Chemscore.Hbonds>
donor molecule, donor type, donor heavy atom, donor atom, acceptor molecule, acceptor atom, score
      P1  H  7989  7998       L1     1  0.22
      P1  H  8011  8017       L1     1  0.76

> <Gold.Chemscore.Hbond.Weighted>
-2.7539

> <Gold.Chemscore.Metal.Weighted>
-0.0000

> <Gold.Chemscore.Lipo.Weighted>
-15.1742

> <Gold.Chemscore.Internal_Hbond.Weighted>
0.0000

> <Gold.Chemscore.DEClash.Weighted>
2.4094

> <Gold.Chemscore.DEInternal.Weighted>
2.0440

> <Gold.Chemscore.Rot.Weighted>
4.7827

> <Gold.Chemscore.Internal.Correction.Weighted>
   9.000000E+99

> <Gold.Protein.RotatedTorsions>
[ 6907 6896 6895 6894 ] final -132.48 input  -60.11 | X-H torsion
[ 7974 7965 7964 7962 ] final -171.44 input  175.53 | X-H torsion
[ 8008 7997 7996 7995 ] final -104.25 input   59.86 | X-H torsion
[ 10167 10162 10161 10158 ] final  -94.79 input  -65.29 | X-H torsion
[ 10718 10713 10712 10709 ] final   -2.60 input   66.30 | X-H torsion
[ 10763 10752 10751 10750 ] final  122.68 input  -60.55 | X-H torsion
[ 11005 11000 10999 10996 ] final  -75.50 input  -57.11 | X-H torsion

> <Gold.Protein.ActiveResidues>
 VAL166  LYS551  ARG553  GLY616  TRP617  ASP618  TYR619  PRO620  LYS621  CYS622 
 ASP623  PHE694  ASN695  SER759  ASP760  ASP761  ALA762  ILE779  LEU786  VAL792 
 PHE793  MET794  SER795  GLU796  ALA797  LYS798  CYS799  TRP800  GLU811  SER814 

> <Gold.Protein.RotatedAtoms>
  150.9629  133.6426  159.2751 H   0  0  0  0  0  0  0  0  0  0  0  0  # atno 6907 bound_to 6896
  151.3742  135.0927  159.9485 H   0  0  0  0  0  0  0  0  0  0  0  0  # atno 6908 bound_to 6896
  152.5154  133.9176  159.7573 H   0  0  0  0  0  0  0  0  0  0  0  0  # atno 6909 bound_to 6896
  144.7157  140.1922  143.6347 H   0  0  0  0  0  0  0  0  0  0  0  0  # atno 7974 bound_to 7965
  154.8826  140.0418  157.1791 H   0  0  0  0  0  0  0  0  0  0  0  0  # atno 8008 bound_to 7997
  154.8623  140.2946  155.5511 H   0  0  0  0  0  0  0  0  0  0  0  0  # atno 8009 bound_to 7997
  156.2998  140.2444  156.3599 H   0  0  0  0  0  0  0  0  0  0  0  0  # atno 8010 bound_to 7997
  140.3108  143.3106  152.0150 H   0  0  0  0  0  0  0  0  0  0  0  0  # atno 10167 bound_to 10162
  156.7884  130.5353  149.5739 H   0  0  0  0  0  0  0  0  0  0  0  0  # atno 10718 bound_to 10713
  153.6336  135.3392  155.3049 H   0  0  0  0  0  0  0  0  0  0  0  0  # atno 10763 bound_to 10752
  154.8575  135.4301  154.2080 H   0  0  0  0  0  0  0  0  0  0  0  0  # atno 10764 bound_to 10752
  153.2981  135.7022  153.7302 H   0  0  0  0  0  0  0  0  0  0  0  0  # atno 10765 bound_to 10752
  141.1646  133.6949  156.7526 H   0  0  0  0  0  0  0  0  0  0  0  0  # atno 11005 bound_to 11000
  145.8758  139.2296  143.1634 LP  0  0  0  0  0  0  0  0  0  0  0  0  # atno 17320 bound_to 7965
  146.0042  140.8493  143.0003 LP  0  0  0  0  0  0  0  0  0  0  0  0  # atno 17321 bound_to 7965
  139.4894  144.6386  151.6925 LP  0  0  0  0  0  0  0  0  0  0  0  0  # atno 17342 bound_to 10162
  140.5569  144.0332  150.6152 LP  0  0  0  0  0  0  0  0  0  0  0  0  # atno 17343 bound_to 10162
  156.1174  130.6085  151.0142 LP  0  0  0  0  0  0  0  0  0  0  0  0  # atno 17370 bound_to 10713
  157.6612  131.0880  150.7833 LP  0  0  0  0  0  0  0  0  0  0  0  0  # atno 17371 bound_to 10713
  140.2592  134.8480  157.3742 LP  0  0  0  0  0  0  0  0  0  0  0  0  # atno 17394 bound_to 11000
  140.1627  134.4708  155.7884 LP  0  0  0  0  0  0  0  0  0  0  0  0  # atno 17395 bound_to 11000

$$$$
