#       Name:                AV-unprocessed.smi:2278
#       Creating user name   scv26
#       Creation time:       Fri Mar 27 12:39:33 2020


#       File generated by GOLD software.
#

@<TRIPOS>MOLECULE
AV-unprocessed.smi:2278
    51    52     1
SMALL
NO_CHARGES


@<TRIPOS>ATOM
      1 ****        -3.5690   4.4094  -0.7642 C.3            1 S1                 0.0000
      2 ****        -3.2631   2.9244  -0.8446 C.2            1 S1                 0.0000
      3 ****        -2.7681   2.4750  -2.0721 N.2            1 S1                 0.0000
      4 ****        -2.4740   1.2263  -2.2303 C.2            1 S1                 0.0000
      5 ****        -2.6336   0.2917  -1.1933 N.am           1 S1                 0.0000
      6 ****        -2.2429  -1.0948  -1.5058 C.3            1 S1                 0.0000
      7 ****        -0.7217  -1.3326  -1.3680 C.3            1 S1                 0.0000
      8 ****        -0.4427  -2.6246  -1.8687 O.3            1 S1                 0.0000
      9 ****        -0.2120  -1.2539   0.0879 C.3            1 S1                 0.0000
     10 ****         1.2608  -1.4145   0.1886 N.4            1 S1                 1.0000
     11 ****         1.6799  -1.9296   1.5175 C.3            1 S1                 0.0000
     12 ****         3.1898  -2.2198   1.5505 C.3            1 S1                 0.0000
     13 ****         4.0076  -0.9716   1.1790 C.3            1 S1                 0.0000
     14 ****         5.5155  -1.2596   1.1773 C.3            1 S1                 0.0000
     15 ****         3.5280  -0.4386  -0.1815 C.3            1 S1                 0.0000
     16 ****         2.0114  -0.1843  -0.1793 C.3            1 S1                 0.0000
     17 ****        -3.1214   0.6446   0.0318 C.2            1 S1                 0.0000
     18 ****        -3.2598  -0.1814   0.9360 O.2            1 S1                 0.0000
     19 ****        -3.4488   2.0699   0.1982 C.2            1 S1                 0.0000
     20 ****        -3.9782   2.5033   1.5597 C.3            1 S1                 0.0000
     21 ****        -4.6193   4.5713  -0.5204 H              1 S1                 0.0000
     22 ****        -3.3664   4.9091  -1.7125 H              1 S1                 0.0000
     23 ****        -2.9555   4.8845   0.0018 H              1 S1                 0.0000
     24 ****        -2.0831   0.8245  -3.1669 H              1 S1                 0.0000
     25 ****        -2.7869  -1.8100  -0.8861 H              1 S1                 0.0000
     26 ****        -2.5566  -1.3314  -2.5249 H              1 S1                 0.0000
     27 ****        -0.1956  -0.6176  -1.9994 H              1 S1                 0.0000
     28 ****        -0.7471  -2.6761  -2.7623 H              1 S1                 0.0000
     29 ****        -0.4851  -0.3059   0.5508 H              1 S1                 0.0000
     30 ****        -0.7128  -2.0301   0.6690 H              1 S1                 0.0000
     31 ****         1.4172  -1.2049   2.2901 H              1 S1                 0.0000
     32 ****         1.1368  -2.8477   1.7454 H              1 S1                 0.0000
     33 ****         3.4735  -2.5706   2.5435 H              1 S1                 0.0000
     34 ****         3.4189  -3.0325   0.8592 H              1 S1                 0.0000
     35 ****         3.8174  -0.2042   1.9310 H              1 S1                 0.0000
     36 ****         5.7731  -2.0256   0.4452 H              1 S1                 0.0000
     37 ****         5.8493  -1.6083   2.1550 H              1 S1                 0.0000
     38 ****         6.0866  -0.3629   0.9356 H              1 S1                 0.0000
     39 ****         4.0531   0.4856  -0.4259 H              1 S1                 0.0000
     40 ****         3.7761  -1.1519  -0.9689 H              1 S1                 0.0000
     41 ****         1.7117   0.1646  -1.1667 H              1 S1                 0.0000
     42 ****         1.7681   0.6152   0.5226 H              1 S1                 0.0000
     43 ****        -3.2467   2.2778   2.3362 H              1 S1                 0.0000
     44 ****        -4.8977   1.9663   1.7942 H              1 S1                 0.0000
     45 ****        -4.1974   3.5681   1.6169 H              1 S1                 0.0000
     46 ****         1.5110  -2.1287  -0.4809 H              1 S1                 0.0000
     47 ****        -2.6417   3.1187  -2.8269 LP             1 S1                 0.0000
     48 ****        -0.9136  -3.3096  -1.3129 LP             1 S1                 0.0000
     49 ****         0.5428  -2.7913  -1.8389 LP             1 S1                 0.0000
     50 ****        -3.0123  -1.1379   0.7816 LP             1 S1                 0.0000
     51 ****        -3.6196   0.1050   1.8240 LP             1 S1                 0.0000
@<TRIPOS>BOND
    1    1    2 1     
    2    1   21 1     
    3    1   22 1     
    4    1   23 1     
    5    2   19 2     
    6    2    3 1     
    7    3    4 2     
    8    4    5 1     
    9    4   24 1     
   10    5    6 1     
   11    5   17 am    
   12    6    7 1     
   13    6   25 1     
   14    6   26 1     
   15    7    8 1     
   16    7    9 1     
   17    7   27 1     
   18    8   28 1     
   19    9   10 1     
   20    9   29 1     
   21    9   30 1     
   22   10   16 1     
   23   10   11 1     
   24   10   46 1     
   25   11   12 1     
   26   11   31 1     
   27   11   32 1     
   28   12   13 1     
   29   12   33 1     
   30   12   34 1     
   31   13   14 1     
   32   13   15 1     
   33   13   35 1     
   34   14   36 1     
   35   14   37 1     
   36   14   38 1     
   37   15   16 1     
   38   15   39 1     
   39   15   40 1     
   40   16   41 1     
   41   16   42 1     
   42   17   18 2     
   43   17   19 1     
   44   19   20 1     
   45   20   43 1     
   46   20   44 1     
   47   20   45 1     
   48    3   47 1     
   49    8   48 1     
   50    8   49 1     
   51   18   50 1     
   52   18   51 1     
@<TRIPOS>SUBSTRUCTURE
      1 S1             1
@<TRIPOS>SET
LONE_PAIRS      STATIC     ATOMS    <user>   **** ""
5 47 48 49 50 51
DONOR_HYDROGENS      STATIC     ATOMS    <user>   **** ""
2 28 46
ATOM$BLUE        STATIC     ATOMS    COLORGROUP SYSTEM
5 47 48 49 50 51
ATOM$RED        STATIC     ATOMS    COLORGROUP SYSTEM
2 28 46
