AV-unprocessed.smi:2775|AV-procd|sdf|10691|dock7
  -GOLD-   2272015133D 1   1.00000     0.00000
 Structure written by MMmdl.
 42 45  0  0  0  0  0  0  0  0  1 V2000
  151.5403  140.1168  155.9154 C   0  0  0  0  0  0  0  0  0  0  0  0
  150.2168  140.2649  155.1883 C   0  0  0  0  0  0  0  0  0  0  0  0
  149.6270  141.4765  155.2869 N   0  0  0  0  0  0  0  0  0  0  0  0
  148.4519  141.6647  154.6517 C   0  0  0  0  0  0  0  0  0  0  0  0
  147.8097  140.6637  153.8983 C   0  0  0  0  0  0  0  0  0  0  0  0
  148.4171  139.3890  153.8078 C   0  0  0  0  0  0  0  0  0  0  0  0
  147.8677  138.3141  153.0586 N   0  0  0  0  0  0  0  0  0  0  0  0
  146.5755  138.0483  152.7885 C   0  0  0  0  0  0  0  0  0  0  0  0
  145.6277  138.7584  153.1175 O   0  0  0  0  0  0  0  0  0  0  0  0
  146.3857  136.8833  152.1452 N   0  0  0  0  0  0  0  0  0  0  0  0
  145.1112  136.3062  151.7099 C   0  0  1  0  0  0  0  0  0  0  0  0
  145.2350  134.9226  151.0279 C   0  0  1  0  0  0  0  0  0  0  0  0
  146.4996  134.1019  151.0498 C   0  0  0  0  0  0  0  0  0  0  0  0
  146.4494  133.4350  152.4203 C   0  0  0  0  0  0  0  0  0  0  0  0
  145.0575  133.2827  152.6981 O   0  0  0  0  0  0  0  0  0  0  0  0
  144.3099  134.3424  152.0953 C   0  0  1  0  0  0  0  0  0  0  0  0
  144.3099  135.6779  152.8620 C   0  0  0  0  0  0  0  0  0  0  0  0
  144.7310  135.7604  154.3445 C   0  0  0  0  0  0  0  0  0  0  0  0
  143.2455  135.7884  154.7110 C   0  0  0  0  0  0  0  0  0  0  0  0
  142.9683  136.2918  153.2925 C   0  0  0  0  0  0  0  0  0  0  0  0
  149.6565  139.1900  154.4591 C   0  0  0  0  0  0  0  0  0  0  0  0
  150.4648  137.6600  154.3739 Cl  0  0  0  0  0  0  0  0  0  0  0  0
  151.4726  139.3322  156.6694 H   0  0  0  0  0  0  0  0  0  0  0  0
  151.8293  141.0416  156.4167 H   0  0  0  0  0  0  0  0  0  0  0  0
  152.3312  139.8538  155.2127 H   0  0  0  0  0  0  0  0  0  0  0  0
  148.0118  142.6468  154.7411 H   0  0  0  0  0  0  0  0  0  0  0  0
  146.8800  140.8933  153.4006 H   0  0  0  0  0  0  0  0  0  0  0  0
  148.5260  137.5961  152.7938 H   0  0  0  0  0  0  0  0  0  0  0  0
  147.2041  136.3128  151.9881 H   0  0  0  0  0  0  0  0  0  0  0  0
  144.4909  136.9920  151.1296 H   0  0  0  0  0  0  0  0  0  0  0  0
  144.7603  134.9427  150.0460 H   0  0  0  0  0  0  0  0  0  0  0  0
  146.4645  133.3431  150.2675 H   0  0  0  0  0  0  0  0  0  0  0  0
  147.4094  134.6821  150.8993 H   0  0  0  0  0  0  0  0  0  0  0  0
  146.9696  132.4774  152.4419 H   0  0  0  0  0  0  0  0  0  0  0  0
  146.9012  134.0812  153.1735 H   0  0  0  0  0  0  0  0  0  0  0  0
  143.3316  134.0379  151.7213 H   0  0  0  0  0  0  0  0  0  0  0  0
  145.2720  134.8988  154.7348 H   0  0  0  0  0  0  0  0  0  0  0  0
  145.2315  136.6952  154.6017 H   0  0  0  0  0  0  0  0  0  0  0  0
  142.8375  134.7929  154.8937 H   0  0  0  0  0  0  0  0  0  0  0  0
  142.9824  136.4879  155.5048 H   0  0  0  0  0  0  0  0  0  0  0  0
  142.9631  137.3812  153.2286 H   0  0  0  0  0  0  0  0  0  0  0  0
  142.0872  135.8583  152.8188 H   0  0  0  0  0  0  0  0  0  0  0  0
  1  2  1  0  0  0  0
  1 23  1  0  0  0  0
  1 24  1  0  0  0  0
  1 25  1  0  0  0  0
  2 21  1  0  0  0  0
  2  3  2  0  0  0  0
  3  4  1  0  0  0  0
  4  5  2  0  0  0  0
  4 26  1  0  0  0  0
  5  6  1  0  0  0  0
  5 27  1  0  0  0  0
  6  7  1  0  0  0  0
  6 21  2  0  0  0  0
  7  8  1  0  0  0  0
  7 28  1  0  0  0  0
  8  9  2  0  0  0  0
  8 10  1  0  0  0  0
 10 11  1  0  0  0  0
 10 29  1  0  0  0  0
 11 17  1  0  0  0  0
 11 12  1  0  0  0  0
 11 30  1  0  0  0  0
 12 16  1  0  0  0  0
 12 13  1  0  0  0  0
 12 31  1  0  0  0  0
 13 14  1  0  0  0  0
 13 32  1  0  0  0  0
 13 33  1  0  0  0  0
 14 15  1  0  0  0  0
 14 34  1  0  0  0  0
 14 35  1  0  0  0  0
 15 16  1  0  0  0  0
 16 17  1  0  0  0  0
 16 36  1  0  0  0  0
 17 20  1  0  0  0  0
 17 18  1  0  0  0  0
 18 19  1  0  0  0  0
 18 37  1  0  0  0  0
 18 38  1  0  0  0  0
 19 20  1  0  0  0  0
 19 39  1  0  0  0  0
 19 40  1  0  0  0  0
 20 41  1  0  0  0  0
 20 42  1  0  0  0  0
 21 22  1  0  0  0  0
M  END
> <s_m_source_file>
AV-unprocessed.smi

> <i_m_source_file_index>
2775

> <i_lp_mmshare_version>
43012

> <i_f3d_flags>
0

> <s_epik_input>
W0NIM11jMW5bY0hdW2NIXWMoYzFDbClbTkhdQyg9TylbTkhdW0NAQEhdMltDQEhdKFtDSDJdW0NIMl1PMylbQ0BASF0zQzI0W0NIMl1bQ0gyXVtDSDJdNA==

> <s_epik_cmdline>
J2VwaWtfcHl0aG9uJywgJy1waCcsICc3LjAnLCAnLXRuJywgJzgnLCAnLW1hJywgJzIwMCcsICctbWV0YWxfYmluZGluZycsICctaW1hZScsICc8aW5maWxlLm1hZT4nLCAnLW9tYWUnLCAnPG91dGZpbGUubWFlPic=

> <r_epik_Ionization_Penalty>
0.01026

> <r_epik_Ionization_Penalty_Charging>
0

> <r_epik_Ionization_Penalty_Neutral>
0.01026

> <r_epik_State_Penalty>
0.00780685

> <r_epik_Charging_Adjusted_Penalty>
0.00780685

> <i_epik_Tot_Q>
0

> <i_epik_Tot_abs_Q>
0

> <r_epik_Metal_State_Penalty>
0.00767411

> <b_epik_Metal_Only>
0

> <s_lp_Force_Field>
OPLS_2005

> <r_lp_Energy>
57.8128

> <b_lp_Chiralities_Consistent>
1

> <s_lp_Variant>
AV-unprocessed.smi:2775-4

> <Gold.Version>
5.8.1

> <Gold.Id.Protein>
6NUR|6NUR_protein|mol2

> <Gold.PLP.Fitness>
40.5591

> <Gold.PLP.PLP>
-32.0839

> <Gold.PLP.part.hbond>
-2.9557

> <Gold.PLP.part.metal>
0.0000

> <Gold.PLP.part.buried>
-1.4478

> <Gold.PLP.part.nonpolar>
-31.1541

> <Gold.PLP.part.repulsive>
3.6518

> <Gold.PLP.ligand.clash>
0.0000

> <Gold.PLP.ligand.torsion>
0.2831

> <Gold.PLP.Chemscore.Hbond>
1.9600

> <Gold.PLP.Chemscore.CHOScore>
1.0000

> <Gold.PLP.Chemscore.Metal>
0.0000

> <Gold.Chemscore.Hbonds>
donor molecule, donor type, donor heavy atom, donor atom, acceptor molecule, acceptor atom, score
      L1  H     7    28       P1  7948  1.00
      L1  H    10    29       P1  7948  0.96
      L1  C     4    26       P1  8028  1.00

> <Gold.PLP.Chemscore.Internal.Correction>
0.1615

> <Gold.Rescore>
     Score         DG    S(hbond)    S(metal)    S(lipo)     H(rot)  DE(clash)    DE(int)     intcor
     16.45     -19.11       1.95        0.00      82.82       1.00       1.33       1.34       ----

> <Gold.Chemscore.Fitness>
16.4477

> <Gold.Chemscore.DG>
-19.1132

> <Gold.Chemscore.ZeroCoef>
-5.4800

> <Gold.Chemscore.Hbond>
1.9471

> <Gold.Chemscore.Metal>
0.0000

> <Gold.Chemscore.Lipo>
82.8197

> <Gold.Chemscore.Internal_Hbond>
0.0000

> <Gold.Chemscore.DEClash>
1.3287

> <Gold.Chemscore.DEInternal>
1.3369

> <Gold.Chemscore.Rot>
1.0000

> <Gold.Chemscore.Internal.Correction>
   9.000000E+99

> <Gold.Chemscore.Hbonds>
donor molecule, donor type, donor heavy atom, donor atom, acceptor molecule, acceptor atom, score
      L1  H     7    28       P1  7948  0.96
      L1  H    10    29       P1  7948  0.92

> <Gold.Chemscore.Hbond.Weighted>
-6.5033

> <Gold.Chemscore.Metal.Weighted>
-0.0000

> <Gold.Chemscore.Lipo.Weighted>
-9.6899

> <Gold.Chemscore.Internal_Hbond.Weighted>
0.0000

> <Gold.Chemscore.DEClash.Weighted>
1.3287

> <Gold.Chemscore.DEInternal.Weighted>
1.3369

> <Gold.Chemscore.Rot.Weighted>
2.5600

> <Gold.Chemscore.Internal.Correction.Weighted>
   9.000000E+99

> <Gold.Protein.RotatedTorsions>
[ 6907 6896 6895 6894 ] final  143.39 input  -60.11 | X-H torsion
[ 7974 7965 7964 7962 ] final -167.43 input  175.53 | X-H torsion
[ 8008 7997 7996 7995 ] final  -90.86 input   59.86 | X-H torsion
[ 10167 10162 10161 10158 ] final   45.86 input  -65.29 | X-H torsion
[ 10718 10713 10712 10709 ] final   75.33 input   66.30 | X-H torsion
[ 10763 10752 10751 10750 ] final   38.81 input  -60.55 | X-H torsion
[ 11005 11000 10999 10996 ] final   80.19 input  -57.11 | X-H torsion

> <Gold.Protein.ActiveResidues>
 VAL166  LYS551  ARG553  GLY616  TRP617  ASP618  TYR619  PRO620  LYS621  CYS622 
 ASP623  PHE694  ASN695  SER759  ASP760  ASP761  ALA762  ILE779  LEU786  VAL792 
 PHE793  MET794  SER795  GLU796  ALA797  LYS798  CYS799  TRP800  GLU811  SER814 

> <Gold.Protein.RotatedAtoms>
  152.2068  133.4882  159.5088 H   0  0  0  0  0  0  0  0  0  0  0  0  # atno 6907 bound_to 6896
  150.6981  134.1518  159.4152 H   0  0  0  0  0  0  0  0  0  0  0  0  # atno 6908 bound_to 6896
  151.9437  135.0201  160.0588 H   0  0  0  0  0  0  0  0  0  0  0  0  # atno 6909 bound_to 6896
  144.7223  140.2519  143.6277 H   0  0  0  0  0  0  0  0  0  0  0  0  # atno 7974 bound_to 7965
  154.7036  140.0526  157.0482 H   0  0  0  0  0  0  0  0  0  0  0  0  # atno 8008 bound_to 7997
  155.0650  140.3193  155.4629 H   0  0  0  0  0  0  0  0  0  0  0  0  # atno 8009 bound_to 7997
  156.2768  140.2092  156.5777 H   0  0  0  0  0  0  0  0  0  0  0  0  # atno 8010 bound_to 7997
  140.3198  144.2719  150.6185 H   0  0  0  0  0  0  0  0  0  0  0  0  # atno 10167 bound_to 10162
  157.6630  130.9721  150.1339 H   0  0  0  0  0  0  0  0  0  0  0  0  # atno 10718 bound_to 10713
  152.9988  135.6238  154.2365 H   0  0  0  0  0  0  0  0  0  0  0  0  # atno 10763 bound_to 10752
  154.2106  135.2800  155.2961 H   0  0  0  0  0  0  0  0  0  0  0  0  # atno 10764 bound_to 10752
  154.5609  135.5705  153.7065 H   0  0  0  0  0  0  0  0  0  0  0  0  # atno 10765 bound_to 10752
  139.9144  134.7901  156.1877 H   0  0  0  0  0  0  0  0  0  0  0  0  # atno 11005 bound_to 11000
  145.8220  139.2048  143.1932 LP  0  0  0  0  0  0  0  0  0  0  0  0  # atno 17320 bound_to 7965
  146.0506  140.8073  142.9783 LP  0  0  0  0  0  0  0  0  0  0  0  0  # atno 17321 bound_to 7965
  140.5494  143.2209  151.7953 LP  0  0  0  0  0  0  0  0  0  0  0  0  # atno 17342 bound_to 10162
  139.4876  144.4497  151.9669 LP  0  0  0  0  0  0  0  0  0  0  0  0  # atno 17343 bound_to 10162
  156.2178  130.3671  149.8592 LP  0  0  0  0  0  0  0  0  0  0  0  0  # atno 17370 bound_to 10713
  156.6453  130.8721  151.3521 LP  0  0  0  0  0  0  0  0  0  0  0  0  # atno 17371 bound_to 10713
  141.0603  133.6845  156.1940 LP  0  0  0  0  0  0  0  0  0  0  0  0  # atno 17394 bound_to 11000
  140.6671  134.4906  157.5586 LP  0  0  0  0  0  0  0  0  0  0  0  0  # atno 17395 bound_to 11000

$$$$
