AV-unprocessed.smi:3244|AV-procd|sdf|12399|dock10
  -GOLD-   2272018273D 1   1.00000     0.00000
 Structure written by MMmdl.
 41 42  0  0  0  0  0  0  0  0  2 V2000
  145.5338  143.3009  155.4677 C   0  0  0  0  0  0  0  0  0  0  0  0
  146.7655  142.4120  155.7062 C   0  0  0  0  0  0  0  0  0  0  0  0
  146.8001  141.2567  154.7959 N   0  0  0  0  0  0  0  0  0  0  0  0
  145.9027  140.2396  154.8438 C   0  0  0  0  0  0  0  0  0  0  0  0
  144.8629  140.3111  155.5014 O   0  0  0  0  0  0  0  0  0  0  0  0
  146.1870  138.9459  154.0588 C   0  0  0  0  0  0  0  0  0  0  0  0
  144.9573  138.2081  153.6870 N   0  3  0  0  0  0  0  0  0  0  0  0
  145.1526  136.9474  152.9294 C   0  0  1  0  0  0  0  0  0  0  0  0
  146.0651  135.9654  153.6835 C   0  0  0  0  0  0  0  0  0  0  0  0
  143.7869  136.2954  152.6277 C   0  0  0  0  0  0  0  0  0  0  0  0
  143.8938  135.0534  151.8786 N   0  0  0  0  0  0  0  0  0  0  0  0
  143.4643  133.7950  152.2461 C   0  0  0  0  0  0  0  0  0  0  0  0
  143.8032  132.9383  151.2384 C   0  0  0  0  0  0  0  0  0  0  0  0
  144.4596  133.7722  150.2912 C   0  0  0  0  0  0  0  0  0  0  0  0
  144.5169  135.0358  150.6798 N   0  0  0  0  0  0  0  0  0  0  0  0
  148.0024  141.1994  154.0062 C   0  0  0  0  0  0  0  0  0  0  0  0
  148.9986  140.0887  154.2645 C   0  0  0  0  0  0  0  0  0  0  0  0
  149.3576  141.5086  154.6192 C   0  0  0  0  0  0  0  0  0  0  0  0
  145.5239  144.1380  156.1660 H   0  0  0  0  0  0  0  0  0  0  0  0
  144.6108  142.7398  155.6158 H   0  0  0  0  0  0  0  0  0  0  0  0
  145.5108  143.7148  154.4607 H   0  0  0  0  0  0  0  0  0  0  0  0
  147.6767  143.0041  155.6320 H   0  0  0  0  0  0  0  0  0  0  0  0
  146.7472  142.0680  156.7414 H   0  0  0  0  0  0  0  0  0  0  0  0
  146.6907  139.2078  153.1297 H   0  0  0  0  0  0  0  0  0  0  0  0
  146.8589  138.2924  154.6156 H   0  0  0  0  0  0  0  0  0  0  0  0
  144.4170  138.0260  154.5210 H   0  0  0  0  0  0  0  0  0  0  0  0
  145.6303  137.1892  151.9788 H   0  0  0  0  0  0  0  0  0  0  0  0
  146.1713  135.0303  153.1329 H   0  0  0  0  0  0  0  0  0  0  0  0
  145.6639  135.7255  154.6689 H   0  0  0  0  0  0  0  0  0  0  0  0
  147.0680  136.3705  153.8188 H   0  0  0  0  0  0  0  0  0  0  0  0
  143.2594  136.0787  153.5577 H   0  0  0  0  0  0  0  0  0  0  0  0
  143.1557  136.9854  152.0655 H   0  0  0  0  0  0  0  0  0  0  0  0
  142.9574  133.6143  153.1825 H   0  0  0  0  0  0  0  0  0  0  0  0
  143.6174  131.8755  151.1889 H   0  0  0  0  0  0  0  0  0  0  0  0
  144.8947  133.4985  149.3414 H   0  0  0  0  0  0  0  0  0  0  0  0
  147.8843  141.4972  152.9658 H   0  0  0  0  0  0  0  0  0  0  0  0
  148.7985  139.4046  155.0871 H   0  0  0  0  0  0  0  0  0  0  0  0
  149.4904  139.6461  153.4007 H   0  0  0  0  0  0  0  0  0  0  0  0
  150.0878  142.0136  153.9903 H   0  0  0  0  0  0  0  0  0  0  0  0
  149.4164  141.7456  155.6798 H   0  0  0  0  0  0  0  0  0  0  0  0
  144.4218  138.8201  153.0880 H   0  0  0  0  0  0  0  0  0  0  0  0
  1  2  1  0  0  0  0
  1 19  1  0  0  0  0
  1 20  1  0  0  0  0
  1 21  1  0  0  0  0
  2  3  1  0  0  0  0
  2 22  1  0  0  0  0
  2 23  1  0  0  0  0
  3  4  1  0  0  0  0
  3 16  1  0  0  0  0
  4  5  2  0  0  0  0
  4  6  1  0  0  0  0
  6  7  1  0  0  0  0
  6 24  1  0  0  0  0
  6 25  1  0  0  0  0
  7  8  1  0  0  0  0
  7 26  1  0  0  0  0
  7 41  1  0  0  0  0
  8  9  1  0  0  0  0
  8 10  1  0  0  0  0
  8 27  1  0  0  0  0
  9 28  1  0  0  0  0
  9 29  1  0  0  0  0
  9 30  1  0  0  0  0
 10 11  1  0  0  0  0
 10 31  1  0  0  0  0
 10 32  1  0  0  0  0
 11 15  1  0  0  0  0
 11 12  1  0  0  0  0
 12 13  2  0  0  0  0
 12 33  1  0  0  0  0
 13 14  1  0  0  0  0
 13 34  1  0  0  0  0
 14 15  2  0  0  0  0
 14 35  1  0  0  0  0
 16 18  1  0  0  0  0
 16 17  1  0  0  0  0
 16 36  1  0  0  0  0
 17 18  1  0  0  0  0
 17 37  1  0  0  0  0
 17 38  1  0  0  0  0
 18 39  1  0  0  0  0
 18 40  1  0  0  0  0
M  CHG  1   7   1
M  END
> <s_m_source_file>
AV-unprocessed.smi

> <i_m_source_file_index>
3244

> <i_lp_mmshare_version>
43012

> <i_f3d_flags>
0

> <s_epik_input>
W0NIMl0xW0NIMl1bQ0hdMU4oW0NIMl1bQ0gzXSlDKD1PKVtDSDJdW05IXVtDQEhdKFtDSDNdKVtDSDJdbjJbY0hdW2NIXVtjSF1uMg==

> <s_epik_cmdline>
J2VwaWtfcHl0aG9uJywgJy1waCcsICc3LjAnLCAnLXRuJywgJzgnLCAnLW1hJywgJzIwMCcsICctbWV0YWxfYmluZGluZycsICctaW1hZScsICc8aW5maWxlLm1hZT4nLCAnLW9tYWUnLCAnPG91dGZpbGUubWFlPic=

> <r_lp_tautomer_probability>
1

> <r_epik_Ionization_Penalty>
0.115625

> <r_epik_Ionization_Penalty_Charging>
0.115622

> <r_epik_Ionization_Penalty_Neutral>
3.43793e-06

> <r_epik_State_Penalty>
0.105255

> <r_epik_Charging_Adjusted_Penalty>
0.220877

> <i_epik_Tot_Q>
1

> <i_epik_Tot_abs_Q>
1

> <r_epik_Metal_State_Penalty>
0.105264

> <b_epik_Metal_Only>
0

> <s_lp_Force_Field>
OPLS_2005

> <r_lp_Energy>
36.1392

> <b_lp_Chiralities_Consistent>
1

> <s_lp_Variant>
AV-unprocessed.smi:3244-2

> <Gold.Version>
5.8.1

> <Gold.Id.Protein>
6NUR|6NUR_protein|mol2

> <Gold.PLP.Fitness>
38.7241

> <Gold.PLP.PLP>
-27.6292

> <Gold.PLP.part.hbond>
-1.0000

> <Gold.PLP.part.metal>
0.0000

> <Gold.PLP.part.buried>
-3.4100

> <Gold.PLP.part.nonpolar>
-24.1378

> <Gold.PLP.part.repulsive>
0.3445

> <Gold.PLP.ligand.clash>
0.0000

> <Gold.PLP.ligand.torsion>
0.6324

> <Gold.PLP.Chemscore.Hbond>
2.0000

> <Gold.PLP.Chemscore.CHOScore>
1.9901

> <Gold.PLP.Chemscore.Metal>
0.0000

> <Gold.Chemscore.Hbonds>
donor molecule, donor type, donor heavy atom, donor atom, acceptor molecule, acceptor atom, score
      L1  H     7    41       P1 10175  2.00
      L1  C    12    33       P1 10957  1.00
      L1  C    14    35       P1  7921  1.00

> <Gold.PLP.Chemscore.Internal.Correction>
0.3895

> <Gold.Rescore>
     Score         DG    S(hbond)    S(metal)    S(lipo)     H(rot)  DE(clash)    DE(int)     intcor
     10.33     -11.11       1.00        0.00      64.44       2.04       0.00       0.78       ----

> <Gold.Chemscore.Fitness>
10.3266

> <Gold.Chemscore.DG>
-11.1112

> <Gold.Chemscore.ZeroCoef>
-5.4800

> <Gold.Chemscore.Hbond>
0.9952

> <Gold.Chemscore.Metal>
0.0000

> <Gold.Chemscore.Lipo>
64.4421

> <Gold.Chemscore.Internal_Hbond>
0.0000

> <Gold.Chemscore.DEClash>
0.0015

> <Gold.Chemscore.DEInternal>
0.7831

> <Gold.Chemscore.Rot>
2.0440

> <Gold.Chemscore.Internal.Correction>
   9.000000E+99

> <Gold.Chemscore.Hbonds>
donor molecule, donor type, donor heavy atom, donor atom, acceptor molecule, acceptor atom, score
      L1  H     7    41       P1 10175  0.99

> <Gold.Chemscore.Hbond.Weighted>
-3.3240

> <Gold.Chemscore.Metal.Weighted>
-0.0000

> <Gold.Chemscore.Lipo.Weighted>
-7.5397

> <Gold.Chemscore.Internal_Hbond.Weighted>
0.0000

> <Gold.Chemscore.DEClash.Weighted>
0.0015

> <Gold.Chemscore.DEInternal.Weighted>
0.7831

> <Gold.Chemscore.Rot.Weighted>
5.2325

> <Gold.Chemscore.Internal.Correction.Weighted>
   9.000000E+99

> <Gold.Protein.RotatedTorsions>
[ 6907 6896 6895 6894 ] final   58.75 input  -60.11 | X-H torsion
[ 7974 7965 7964 7962 ] final  -50.53 input  175.53 | X-H torsion
[ 8008 7997 7996 7995 ] final -153.14 input   59.86 | X-H torsion
[ 10167 10162 10161 10158 ] final   31.25 input  -65.29 | X-H torsion
[ 10718 10713 10712 10709 ] final   26.82 input   66.30 | X-H torsion
[ 10763 10752 10751 10750 ] final  -13.93 input  -60.55 | X-H torsion
[ 11005 11000 10999 10996 ] final  162.24 input  -57.11 | X-H torsion

> <Gold.Protein.ActiveResidues>
 VAL166  LYS551  ARG553  GLY616  TRP617  ASP618  TYR619  PRO620  LYS621  CYS622 
 ASP623  PHE694  ASN695  SER759  ASP760  ASP761  ALA762  ILE779  LEU786  VAL792 
 PHE793  MET794  SER795  GLU796  ALA797  LYS798  CYS799  TRP800  GLU811  SER814 

> <Gold.Protein.RotatedAtoms>
  152.3853  134.6527  160.0127 H   0  0  0  0  0  0  0  0  0  0  0  0  # atno 6907 bound_to 6896
  151.6777  133.3307  159.3220 H   0  0  0  0  0  0  0  0  0  0  0  0  # atno 6908 bound_to 6896
  150.7780  134.6744  159.6454 H   0  0  0  0  0  0  0  0  0  0  0  0  # atno 6909 bound_to 6896
  145.9288  140.7768  142.9610 H   0  0  0  0  0  0  0  0  0  0  0  0  # atno 7974 bound_to 7965
  155.6662  140.0728  157.2536 H   0  0  0  0  0  0  0  0  0  0  0  0  # atno 8008 bound_to 7997
  154.4132  140.1707  156.1880 H   0  0  0  0  0  0  0  0  0  0  0  0  # atno 8009 bound_to 7997
  155.9656  140.3366  155.6532 H   0  0  0  0  0  0  0  0  0  0  0  0  # atno 8010 bound_to 7997
  140.4605  144.0913  150.6212 H   0  0  0  0  0  0  0  0  0  0  0  0  # atno 10167 bound_to 10162
  157.2120  130.6938  149.6232 H   0  0  0  0  0  0  0  0  0  0  0  0  # atno 10718 bound_to 10713
  153.5206  135.7016  153.5733 H   0  0  0  0  0  0  0  0  0  0  0  0  # atno 10763 bound_to 10752
  153.3784  135.3926  155.1839 H   0  0  0  0  0  0  0  0  0  0  0  0  # atno 10764 bound_to 10752
  154.8695  135.3829  154.4695 H   0  0  0  0  0  0  0  0  0  0  0  0  # atno 10765 bound_to 10752
  140.2238  134.8176  157.3247 H   0  0  0  0  0  0  0  0  0  0  0  0  # atno 11005 bound_to 11000
  144.6762  140.2094  143.7378 LP  0  0  0  0  0  0  0  0  0  0  0  0  # atno 17320 bound_to 7965
  145.8453  139.2149  143.1804 LP  0  0  0  0  0  0  0  0  0  0  0  0  # atno 17321 bound_to 7965
  140.4099  143.2662  151.9845 LP  0  0  0  0  0  0  0  0  0  0  0  0  # atno 17342 bound_to 10162
  139.4806  144.5924  151.7748 LP  0  0  0  0  0  0  0  0  0  0  0  0  # atno 17343 bound_to 10162
  155.9690  130.4548  150.5864 LP  0  0  0  0  0  0  0  0  0  0  0  0  # atno 17370 bound_to 10713
  157.3663  131.0758  151.1595 LP  0  0  0  0  0  0  0  0  0  0  0  0  # atno 17371 bound_to 10713
  140.1822  134.4475  155.7765 LP  0  0  0  0  0  0  0  0  0  0  0  0  # atno 17394 bound_to 11000
  141.2222  133.6989  156.7888 LP  0  0  0  0  0  0  0  0  0  0  0  0  # atno 17395 bound_to 11000

$$$$
