AV-unprocessed.smi:1033|AV-procd|sdf|4491|dock3
  -GOLD-   22720 2473D 1   1.00000     0.00000
 Structure written by MMmdl.
 56 58  0  0  0  0  0  0  0  0  2 V2000
  152.6987  143.8338  160.4424 C   0  0  0  0  0  0  0  0  0  0  0  0
  152.1661  142.7425  159.5303 C   0  0  0  0  0  0  0  0  0  0  0  0
  152.9561  141.5940  159.2996 C   0  0  0  0  0  0  0  0  0  0  0  0
  152.4976  140.5564  158.4589 C   0  0  0  0  0  0  0  0  0  0  0  0
  153.0979  139.3636  158.0940 N   0  0  0  0  0  0  0  0  0  0  0  0
  152.1772  138.8330  157.2950 C   0  0  0  0  0  0  0  0  0  0  0  0
  151.0530  139.5461  157.0911 N   0  0  0  0  0  0  0  0  0  0  0  0
  149.9265  139.1748  156.2545 C   0  0  0  0  0  0  0  0  0  0  0  0
  150.3600  138.7620  154.8344 C   0  0  1  0  0  0  0  0  0  0  0  0
  151.3621  139.6634  154.4091 O   0  0  0  0  0  0  0  0  0  0  0  0
  150.9157  137.3229  154.7522 C   0  0  0  0  0  0  0  0  0  0  0  0
  149.8443  136.3030  154.6262 N   0  3  0  0  0  0  0  0  0  0  0  0
  148.7107  136.5120  155.5674 C   0  0  0  0  0  0  0  0  0  0  0  0
  147.6239  135.4439  155.3345 C   0  0  0  0  0  0  0  0  0  0  0  0
  148.1216  134.0759  155.4802 N   0  0  0  0  0  0  0  0  0  0  0  0
  148.4681  133.6799  156.8516 C   0  0  0  0  0  0  0  0  0  0  0  0
  149.2334  132.3452  156.9959 C   0  0  2  0  0  0  0  0  0  0  0  0
  148.3343  131.1043  156.8591 C   0  0  0  0  0  0  0  0  0  0  0  0
  149.7863  132.2913  158.2949 O   0  0  0  0  0  0  0  0  0  0  0  0
  149.2311  133.8894  154.5447 C   0  0  0  0  0  0  0  0  0  0  0  0
  150.3680  134.9164  154.7344 C   0  0  0  0  0  0  0  0  0  0  0  0
  151.2163  140.7002  157.8507 C   0  0  0  0  0  0  0  0  0  0  0  0
  150.4207  141.8383  158.0726 C   0  0  0  0  0  0  0  0  0  0  0  0
  150.8941  142.8653  158.9157 C   0  0  0  0  0  0  0  0  0  0  0  0
  150.0274  144.0898  159.1513 C   0  0  0  0  0  0  0  0  0  0  0  0
  153.7037  143.6023  160.7962 H   0  0  0  0  0  0  0  0  0  0  0  0
  152.0550  143.9491  161.3147 H   0  0  0  0  0  0  0  0  0  0  0  0
  152.7423  144.7869  159.9151 H   0  0  0  0  0  0  0  0  0  0  0  0
  153.9248  141.4999  159.7685 H   0  0  0  0  0  0  0  0  0  0  0  0
  152.3311  137.8729  156.8242 H   0  0  0  0  0  0  0  0  0  0  0  0
  149.3984  138.3541  156.7423 H   0  0  0  0  0  0  0  0  0  0  0  0
  149.2293  140.0129  156.2153 H   0  0  0  0  0  0  0  0  0  0  0  0
  149.5041  138.8776  154.1703 H   0  0  0  0  0  0  0  0  0  0  0  0
  152.0374  139.7019  155.0697 H   0  0  0  0  0  0  0  0  0  0  0  0
  151.5891  137.2608  153.8958 H   0  0  0  0  0  0  0  0  0  0  0  0
  151.5190  137.0807  155.6278 H   0  0  0  0  0  0  0  0  0  0  0  0
  149.0681  136.4840  156.5976 H   0  0  0  0  0  0  0  0  0  0  0  0
  148.2718  137.4975  155.4176 H   0  0  0  0  0  0  0  0  0  0  0  0
  146.7720  135.6113  155.9909 H   0  0  0  0  0  0  0  0  0  0  0  0
  147.2282  135.5675  154.3253 H   0  0  0  0  0  0  0  0  0  0  0  0
  149.1005  134.4697  157.2605 H   0  0  0  0  0  0  0  0  0  0  0  0
  147.5868  133.6666  157.4925 H   0  0  0  0  0  0  0  0  0  0  0  0
  150.0595  132.2978  156.2851 H   0  0  0  0  0  0  0  0  0  0  0  0
  147.8684  131.0365  155.8779 H   0  0  0  0  0  0  0  0  0  0  0  0
  147.5337  131.1120  157.5997 H   0  0  0  0  0  0  0  0  0  0  0  0
  148.9087  130.1888  157.0052 H   0  0  0  0  0  0  0  0  0  0  0  0
  149.2160  131.7750  158.8442 H   0  0  0  0  0  0  0  0  0  0  0  0
  149.6272  132.8772  154.6348 H   0  0  0  0  0  0  0  0  0  0  0  0
  148.8525  133.9681  153.5247 H   0  0  0  0  0  0  0  0  0  0  0  0
  151.1267  134.7546  153.9679 H   0  0  0  0  0  0  0  0  0  0  0  0
  150.8623  134.7800  155.6971 H   0  0  0  0  0  0  0  0  0  0  0  0
  149.4537  141.9210  157.5990 H   0  0  0  0  0  0  0  0  0  0  0  0
  149.0700  144.0053  158.6365 H   0  0  0  0  0  0  0  0  0  0  0  0
  150.5269  144.9873  158.7856 H   0  0  0  0  0  0  0  0  0  0  0  0
  149.8238  144.2154  160.2151 H   0  0  0  0  0  0  0  0  0  0  0  0
  149.4720  136.3912  153.6912 H   0  0  0  0  0  0  0  0  0  0  0  0
  1  2  1  0  0  0  0
  1 26  1  0  0  0  0
  1 27  1  0  0  0  0
  1 28  1  0  0  0  0
  2 24  1  0  0  0  0
  2  3  2  0  0  0  0
  3  4  1  0  0  0  0
  3 29  1  0  0  0  0
  4 22  2  0  0  0  0
  4  5  1  0  0  0  0
  5  6  2  0  0  0  0
  6  7  1  0  0  0  0
  6 30  1  0  0  0  0
  7  8  1  0  0  0  0
  7 22  1  0  0  0  0
  8  9  1  0  0  0  0
  8 31  1  0  0  0  0
  8 32  1  0  0  0  0
  9 10  1  0  0  0  0
  9 11  1  0  0  0  0
  9 33  1  0  0  0  0
 10 34  1  0  0  0  0
 11 12  1  0  0  0  0
 11 35  1  0  0  0  0
 11 36  1  0  0  0  0
 12 21  1  0  0  0  0
 12 13  1  0  0  0  0
 12 56  1  0  0  0  0
 13 14  1  0  0  0  0
 13 37  1  0  0  0  0
 13 38  1  0  0  0  0
 14 15  1  0  0  0  0
 14 39  1  0  0  0  0
 14 40  1  0  0  0  0
 15 16  1  0  0  0  0
 15 20  1  0  0  0  0
 16 17  1  0  0  0  0
 16 41  1  0  0  0  0
 16 42  1  0  0  0  0
 17 18  1  0  0  0  0
 17 19  1  0  0  0  0
 17 43  1  0  0  0  0
 18 44  1  0  0  0  0
 18 45  1  0  0  0  0
 18 46  1  0  0  0  0
 19 47  1  0  0  0  0
 20 21  1  0  0  0  0
 20 48  1  0  0  0  0
 20 49  1  0  0  0  0
 21 50  1  0  0  0  0
 21 51  1  0  0  0  0
 22 23  1  0  0  0  0
 23 24  2  0  0  0  0
 23 52  1  0  0  0  0
 24 25  1  0  0  0  0
 25 53  1  0  0  0  0
 25 54  1  0  0  0  0
 25 55  1  0  0  0  0
M  CHG  1  12   1
M  END
> <s_m_source_file>
AV-unprocessed.smi

> <i_m_source_file_index>
1033

> <i_lp_mmshare_version>
43012

> <i_f3d_flags>
0

> <s_epik_input>
W0NIM11jKFtjSF0xKWMoW0NIM10pW2NIXWMoYzEyKW4oW2NIXW4yKVtDSDJdW0NASF0oW09IXSlbQ0gyXU4zW0NIMl1bQ0gyXU4oW0NIMl1bQ0gyXTMpW0NIMl1bQ0BIXShbQ0gzXSlbT0hd

> <s_epik_cmdline>
J2VwaWtfcHl0aG9uJywgJy1waCcsICc3LjAnLCAnLXRuJywgJzgnLCAnLW1hJywgJzIwMCcsICctbWV0YWxfYmluZGluZycsICctaW1hZScsICc8aW5maWxlLm1hZT4nLCAnLW9tYWUnLCAnPG91dGZpbGUubWFlPic=

> <r_epik_Ionization_Penalty>
0.131893

> <r_epik_Ionization_Penalty_Charging>
0.00208556

> <r_epik_Ionization_Penalty_Neutral>
0.129808

> <r_epik_State_Penalty>
0.452125

> <r_epik_Charging_Adjusted_Penalty>
0.454211

> <i_epik_Tot_Q>
1

> <i_epik_Tot_abs_Q>
1

> <r_epik_Metal_State_Penalty>
0.376389

> <b_epik_Metal_Only>
0

> <s_lp_Force_Field>
OPLS_2005

> <r_lp_Energy>
35.7629

> <b_lp_Chiralities_Consistent>
1

> <s_lp_Variant>
AV-unprocessed.smi:1033-2

> <Gold.Version>
5.8.1

> <Gold.Id.Protein>
6NUR|6NUR_protein|mol2

> <Gold.PLP.Fitness>
48.2636

> <Gold.PLP.PLP>
-34.7007

> <Gold.PLP.part.hbond>
-3.9453

> <Gold.PLP.part.metal>
0.0000

> <Gold.PLP.part.buried>
-4.9609

> <Gold.PLP.part.nonpolar>
-25.8907

> <Gold.PLP.part.repulsive>
0.0809

> <Gold.PLP.ligand.clash>
0.0000

> <Gold.PLP.ligand.torsion>
0.7800

> <Gold.PLP.Chemscore.Hbond>
4.9913

> <Gold.PLP.Chemscore.CHOScore>
0.0000

> <Gold.PLP.Chemscore.Metal>
0.0000

> <Gold.Chemscore.Hbonds>
donor molecule, donor type, donor heavy atom, donor atom, acceptor molecule, acceptor atom, score
      L1  H    12    56       P1  7948  2.00
      P1  H  6896  6907       L1    19  1.00
      P1  H  7989  7998       L1    10  0.99
      P1  H  7997  8008       L1     5  1.00

> <Gold.PLP.Chemscore.Internal.Correction>
0.1491

> <Gold.Rescore>
     Score         DG    S(hbond)    S(metal)    S(lipo)     H(rot)  DE(clash)    DE(int)     intcor
     17.38     -19.29       2.84        0.00     104.04       3.07       0.01       1.90       ----

> <Gold.Chemscore.Fitness>
17.3799

> <Gold.Chemscore.DG>
-19.2901

> <Gold.Chemscore.ZeroCoef>
-5.4800

> <Gold.Chemscore.Hbond>
2.8396

> <Gold.Chemscore.Metal>
0.0000

> <Gold.Chemscore.Lipo>
104.0366

> <Gold.Chemscore.Internal_Hbond>
0.0000

> <Gold.Chemscore.DEClash>
0.0064

> <Gold.Chemscore.DEInternal>
1.9038

> <Gold.Chemscore.Rot>
3.0650

> <Gold.Chemscore.Internal.Correction>
   9.000000E+99

> <Gold.Chemscore.Hbonds>
donor molecule, donor type, donor heavy atom, donor atom, acceptor molecule, acceptor atom, score
      L1  H    12    56       P1  7948  0.74
      P1  H  6896  6907       L1    19  0.88
      P1  H  7989  7998       L1    10  0.46
      P1  H  7997  8008       L1     5  0.25

> <Gold.Chemscore.Hbond.Weighted>
-9.4843

> <Gold.Chemscore.Metal.Weighted>
-0.0000

> <Gold.Chemscore.Lipo.Weighted>
-12.1723

> <Gold.Chemscore.Internal_Hbond.Weighted>
0.0000

> <Gold.Chemscore.DEClash.Weighted>
0.0064

> <Gold.Chemscore.DEInternal.Weighted>
1.9038

> <Gold.Chemscore.Rot.Weighted>
7.8465

> <Gold.Chemscore.Internal.Correction.Weighted>
   9.000000E+99

> <Gold.Protein.RotatedTorsions>
[ 6907 6896 6895 6894 ] final -152.07 input  -60.11 | X-H torsion
[ 7974 7965 7964 7962 ] final -116.55 input  175.53 | X-H torsion
[ 8008 7997 7996 7995 ] final  -97.49 input   59.86 | X-H torsion
[ 10167 10162 10161 10158 ] final   18.81 input  -65.29 | X-H torsion
[ 10718 10713 10712 10709 ] final  114.22 input   66.30 | X-H torsion
[ 10763 10752 10751 10750 ] final -142.91 input  -60.55 | X-H torsion
[ 11005 11000 10999 10996 ] final  172.70 input  -57.11 | X-H torsion

> <Gold.Protein.ActiveResidues>
 VAL166  LYS551  ARG553  GLY616  TRP617  ASP618  TYR619  PRO620  LYS621  CYS622 
 ASP623  PHE694  ASN695  SER759  ASP760  ASP761  ALA762  ILE779  LEU786  VAL792 
 PHE793  MET794  SER795  GLU796  ALA797  LYS798  CYS799  TRP800  GLU811  SER814 

> <Gold.Protein.RotatedAtoms>
  151.2223  133.4495  159.2600 H   0  0  0  0  0  0  0  0  0  0  0  0  # atno 6907 bound_to 6896
  151.0873  134.9895  159.8395 H   0  0  0  0  0  0  0  0  0  0  0  0  # atno 6908 bound_to 6896
  152.5431  134.2159  159.8821 H   0  0  0  0  0  0  0  0  0  0  0  0  # atno 6909 bound_to 6896
  145.0955  140.8518  143.3957 H   0  0  0  0  0  0  0  0  0  0  0  0  # atno 7974 bound_to 7965
  154.7885  140.0462  157.1182 H   0  0  0  0  0  0  0  0  0  0  0  0  # atno 8008 bound_to 7997
  154.9619  140.3078  155.5007 H   0  0  0  0  0  0  0  0  0  0  0  0  # atno 8009 bound_to 7997
  156.2946  140.2269  156.4705 H   0  0  0  0  0  0  0  0  0  0  0  0  # atno 8010 bound_to 7997
  140.5626  143.9310  150.6653 H   0  0  0  0  0  0  0  0  0  0  0  0  # atno 10167 bound_to 10162
  157.6294  131.0995  150.7154 H   0  0  0  0  0  0  0  0  0  0  0  0  # atno 10718 bound_to 10713
  154.8490  135.3482  154.6104 H   0  0  0  0  0  0  0  0  0  0  0  0  # atno 10763 bound_to 10752
  153.6712  135.6985  153.5151 H   0  0  0  0  0  0  0  0  0  0  0  0  # atno 10764 bound_to 10752
  153.2741  135.4284  155.0972 H   0  0  0  0  0  0  0  0  0  0  0  0  # atno 10765 bound_to 10752
  140.3325  134.7345  157.4144 H   0  0  0  0  0  0  0  0  0  0  0  0  # atno 11005 bound_to 11000
  145.1016  139.2819  143.5683 LP  0  0  0  0  0  0  0  0  0  0  0  0  # atno 17320 bound_to 7965
  146.3531  140.0585  142.8631 LP  0  0  0  0  0  0  0  0  0  0  0  0  # atno 17321 bound_to 7965
  140.2764  143.3419  152.1191 LP  0  0  0  0  0  0  0  0  0  0  0  0  # atno 17342 bound_to 10162
  139.5077  144.6837  151.5943 LP  0  0  0  0  0  0  0  0  0  0  0  0  # atno 17343 bound_to 10162
  156.7496  130.4764  149.5459 LP  0  0  0  0  0  0  0  0  0  0  0  0  # atno 17370 bound_to 10713
  156.1487  130.6295  151.0566 LP  0  0  0  0  0  0  0  0  0  0  0  0  # atno 17371 bound_to 10713
  140.0849  134.5681  155.8503 LP  0  0  0  0  0  0  0  0  0  0  0  0  # atno 17394 bound_to 11000
  141.2060  133.6651  156.6213 LP  0  0  0  0  0  0  0  0  0  0  0  0  # atno 17395 bound_to 11000

$$$$
