AV-unprocessed.smi:806|AV-procd|sdf|3801|dock4
  -GOLD-   22720 1233D 1   1.00000     0.00000
 Structure written by MMmdl.
 44 45  0  0  0  0  0  0  0  0  1 V2000
  147.8306  141.7376  155.0626 C   0  0  0  0  0  0  0  0  0  0  0  0
  148.5525  140.4523  155.0654 N   0  0  0  0  0  0  0  0  0  0  0  0
  148.1471  139.4104  154.2839 C   0  0  0  0  0  0  0  0  0  0  0  0
  148.6145  138.2769  154.4072 O   0  0  0  0  0  0  0  0  0  0  0  0
  147.0625  139.6307  153.2058 C   0  0  0  0  0  0  0  0  0  0  0  0
  145.8148  138.8727  153.4057 N   0  0  0  0  0  0  0  0  0  0  0  0
  145.9830  137.4402  153.1878 C   0  0  0  0  0  0  0  0  0  0  0  0
  146.0204  137.1559  151.6791 C   0  0  0  0  0  0  0  0  0  0  0  0
  145.6141  135.7963  151.3801 N   0  0  0  0  0  0  0  0  0  0  0  0
  144.6289  135.3672  150.5159 C   0  0  0  0  0  0  0  0  0  0  0  0
  144.6128  134.0026  150.5634 C   0  0  0  0  0  0  0  0  0  0  0  0
  145.6376  133.6852  151.4983 C   0  0  0  0  0  0  0  0  0  0  0  0
  146.2349  134.7608  151.9855 N   0  0  0  0  0  0  0  0  0  0  0  0
  149.7172  140.3247  155.9977 C   0  0  0  0  0  0  0  0  0  0  0  0
  150.9337  139.9124  155.2597 C   0  0  0  0  0  0  0  0  0  0  0  0
  151.8862  139.5896  154.6855 N   0  0  0  0  0  0  0  0  0  0  0  0
  150.0882  141.6591  156.7172 C   0  0  0  0  0  0  0  0  0  0  0  0
  151.2502  141.4907  157.7131 C   0  0  0  0  0  0  0  0  0  0  0  0
  150.9117  140.4279  158.7680 C   0  0  0  0  0  0  0  0  0  0  0  0
  150.5219  139.0952  158.1132 C   0  0  0  0  0  0  0  0  0  0  0  0
  149.3802  139.2799  157.0962 C   0  0  0  0  0  0  0  0  0  0  0  0
  146.8603  141.7239  154.5701 H   0  0  0  0  0  0  0  0  0  0  0  0
  148.4278  142.5143  154.5843 H   0  0  0  0  0  0  0  0  0  0  0  0
  147.5998  142.0477  156.0808 H   0  0  0  0  0  0  0  0  0  0  0  0
  146.8141  140.6923  153.1966 H   0  0  0  0  0  0  0  0  0  0  0  0
  147.4514  139.3832  152.2173 H   0  0  0  0  0  0  0  0  0  0  0  0
  145.0809  139.2104  152.7997 H   0  0  0  0  0  0  0  0  0  0  0  0
  146.9144  137.1096  153.6498 H   0  0  0  0  0  0  0  0  0  0  0  0
  145.1735  136.8736  153.6488 H   0  0  0  0  0  0  0  0  0  0  0  0
  145.3635  137.8421  151.1420 H   0  0  0  0  0  0  0  0  0  0  0  0
  147.0269  137.3080  151.2864 H   0  0  0  0  0  0  0  0  0  0  0  0
  144.0291  136.0603  149.9447 H   0  0  0  0  0  0  0  0  0  0  0  0
  143.9675  133.3331  150.0143 H   0  0  0  0  0  0  0  0  0  0  0  0
  145.9630  132.7118  151.8348 H   0  0  0  0  0  0  0  0  0  0  0  0
  150.3543  142.4197  155.9822 H   0  0  0  0  0  0  0  0  0  0  0  0
  149.2509  142.0561  157.2891 H   0  0  0  0  0  0  0  0  0  0  0  0
  152.1663  141.2161  157.1897 H   0  0  0  0  0  0  0  0  0  0  0  0
  151.4559  142.4423  158.2042 H   0  0  0  0  0  0  0  0  0  0  0  0
  151.7613  140.2807  159.4352 H   0  0  0  0  0  0  0  0  0  0  0  0
  150.0885  140.7819  159.3898 H   0  0  0  0  0  0  0  0  0  0  0  0
  151.3918  138.6603  157.6200 H   0  0  0  0  0  0  0  0  0  0  0  0
  150.2197  138.3825  158.8811 H   0  0  0  0  0  0  0  0  0  0  0  0
  148.4764  139.5855  157.6251 H   0  0  0  0  0  0  0  0  0  0  0  0
  149.1546  138.3098  156.6537 H   0  0  0  0  0  0  0  0  0  0  0  0
  1  2  1  0  0  0  0
  1 22  1  0  0  0  0
  1 23  1  0  0  0  0
  1 24  1  0  0  0  0
  2  3  1  0  0  0  0
  2 14  1  0  0  0  0
  3  4  2  0  0  0  0
  3  5  1  0  0  0  0
  5  6  1  0  0  0  0
  5 25  1  0  0  0  0
  5 26  1  0  0  0  0
  6  7  1  0  0  0  0
  6 27  1  0  0  0  0
  7  8  1  0  0  0  0
  7 28  1  0  0  0  0
  7 29  1  0  0  0  0
  8  9  1  0  0  0  0
  8 30  1  0  0  0  0
  8 31  1  0  0  0  0
  9 13  1  0  0  0  0
  9 10  1  0  0  0  0
 10 11  2  0  0  0  0
 10 32  1  0  0  0  0
 11 12  1  0  0  0  0
 11 33  1  0  0  0  0
 12 13  2  0  0  0  0
 12 34  1  0  0  0  0
 14 21  1  0  0  0  0
 14 15  1  0  0  0  0
 14 17  1  0  0  0  0
 15 16  3  0  0  0  0
 17 18  1  0  0  0  0
 17 35  1  0  0  0  0
 17 36  1  0  0  0  0
 18 19  1  0  0  0  0
 18 37  1  0  0  0  0
 18 38  1  0  0  0  0
 19 20  1  0  0  0  0
 19 39  1  0  0  0  0
 19 40  1  0  0  0  0
 20 21  1  0  0  0  0
 20 41  1  0  0  0  0
 20 42  1  0  0  0  0
 21 43  1  0  0  0  0
 21 44  1  0  0  0  0
M  END
> <s_m_source_file>
AV-unprocessed.smi

> <i_m_source_file_index>
806

> <i_lp_mmshare_version>
43012

> <i_f3d_flags>
0

> <s_epik_input>
W0NIMl0xW0NIMl1bQ0gyXVtDSDJdW0NIMl1DMShDI04pTihbQ0gzXSlDKD1PKVtDSDJdW05IXVtDSDJdW0NIMl1uMltjSF1bY0hdW2NIXW4y

> <s_epik_cmdline>
J2VwaWtfcHl0aG9uJywgJy1waCcsICc3LjAnLCAnLXRuJywgJzgnLCAnLW1hJywgJzIwMCcsICctbWV0YWxfYmluZGluZycsICctaW1hZScsICc8aW5maWxlLm1hZT4nLCAnLW9tYWUnLCAnPG91dGZpbGUubWFlPic=

> <r_lp_tautomer_probability>
1

> <r_epik_Ionization_Penalty>
0.481166

> <r_epik_Ionization_Penalty_Charging>
0

> <r_epik_Ionization_Penalty_Neutral>
0.481166

> <r_epik_State_Penalty>
0.484368

> <r_epik_Charging_Adjusted_Penalty>
0.484368

> <i_epik_Tot_Q>
0

> <i_epik_Tot_abs_Q>
0

> <r_epik_Metal_State_Penalty>
0.483438

> <b_epik_Metal_Only>
0

> <s_lp_Force_Field>
OPLS_2005

> <r_lp_Energy>
29.6392

> <b_lp_Chiralities_Consistent>
1

> <s_lp_Variant>
AV-unprocessed.smi:806-2

> <Gold.Version>
5.8.1

> <Gold.Id.Protein>
6NUR|6NUR_protein|mol2

> <Gold.PLP.Fitness>
39.5996

> <Gold.PLP.PLP>
-32.2236

> <Gold.PLP.part.hbond>
-2.0000

> <Gold.PLP.part.metal>
0.0000

> <Gold.PLP.part.buried>
-2.7252

> <Gold.PLP.part.nonpolar>
-28.8289

> <Gold.PLP.part.repulsive>
0.7253

> <Gold.PLP.ligand.clash>
0.0000

> <Gold.PLP.ligand.torsion>
0.4052

> <Gold.PLP.Chemscore.Hbond>
1.6448

> <Gold.PLP.Chemscore.CHOScore>
1.0000

> <Gold.PLP.Chemscore.Metal>
0.0000

> <Gold.Chemscore.Hbonds>
donor molecule, donor type, donor heavy atom, donor atom, acceptor molecule, acceptor atom, score
      L1  H     6    27       P1 10175  0.99
      P1  H  7989  7998       L1    16  0.59
      L1  C    10    32       P1 10171  1.00

> <Gold.PLP.Chemscore.Internal.Correction>
0.2522

> <Gold.Rescore>
     Score         DG    S(hbond)    S(metal)    S(lipo)     H(rot)  DE(clash)    DE(int)     intcor
     10.41     -13.17       1.66        0.00      62.47       2.01       0.00       2.76       ----

> <Gold.Chemscore.Fitness>
10.4130

> <Gold.Chemscore.DG>
-13.1746

> <Gold.Chemscore.ZeroCoef>
-5.4800

> <Gold.Chemscore.Hbond>
1.6593

> <Gold.Chemscore.Metal>
0.0000

> <Gold.Chemscore.Lipo>
62.4690

> <Gold.Chemscore.Internal_Hbond>
0.0000

> <Gold.Chemscore.DEClash>
0.0029

> <Gold.Chemscore.DEInternal>
2.7587

> <Gold.Chemscore.Rot>
2.0142

> <Gold.Chemscore.Internal.Correction>
   9.000000E+99

> <Gold.Chemscore.Hbonds>
donor molecule, donor type, donor heavy atom, donor atom, acceptor molecule, acceptor atom, score
      L1  H     6    27       P1 10175  0.93
      P1  H  7989  7998       L1    16  0.04

> <Gold.Chemscore.Hbond.Weighted>
-5.5420

> <Gold.Chemscore.Metal.Weighted>
-0.0000

> <Gold.Chemscore.Lipo.Weighted>
-7.3089

> <Gold.Chemscore.Internal_Hbond.Weighted>
0.0000

> <Gold.Chemscore.DEClash.Weighted>
0.0029

> <Gold.Chemscore.DEInternal.Weighted>
2.7587

> <Gold.Chemscore.Rot.Weighted>
5.1563

> <Gold.Chemscore.Internal.Correction.Weighted>
   9.000000E+99

> <Gold.Protein.RotatedTorsions>
[ 6907 6896 6895 6894 ] final  163.91 input  -60.11 | X-H torsion
[ 7974 7965 7964 7962 ] final   99.54 input  175.53 | X-H torsion
[ 8008 7997 7996 7995 ] final  164.28 input   59.86 | X-H torsion
[ 10167 10162 10161 10158 ] final -128.86 input  -65.29 | X-H torsion
[ 10718 10713 10712 10709 ] final   92.58 input   66.30 | X-H torsion
[ 10763 10752 10751 10750 ] final -145.34 input  -60.55 | X-H torsion
[ 11005 11000 10999 10996 ] final  137.06 input  -57.11 | X-H torsion

> <Gold.Protein.ActiveResidues>
 VAL166  LYS551  ARG553  GLY616  TRP617  ASP618  TYR619  PRO620  LYS621  CYS622 
 ASP623  PHE694  ASN695  SER759  ASP760  ASP761  ALA762  ILE779  LEU786  VAL792 
 PHE793  MET794  SER795  GLU796  ALA797  LYS798  CYS799  TRP800  GLU811  SER814 

> <Gold.Protein.RotatedAtoms>
  151.9180  133.3578  159.3886 H   0  0  0  0  0  0  0  0  0  0  0  0  # atno 6907 bound_to 6896
  150.7043  134.4664  159.5414 H   0  0  0  0  0  0  0  0  0  0  0  0  # atno 6908 bound_to 6896
  152.2283  134.8347  160.0528 H   0  0  0  0  0  0  0  0  0  0  0  0  # atno 6909 bound_to 6896
  145.3975  139.2353  143.3318 H   0  0  0  0  0  0  0  0  0  0  0  0  # atno 7974 bound_to 7965
  156.1892  140.1701  156.8126 H   0  0  0  0  0  0  0  0  0  0  0  0  # atno 8008 bound_to 7997
  154.5450  140.0729  156.8606 H   0  0  0  0  0  0  0  0  0  0  0  0  # atno 8009 bound_to 7997
  155.3139  140.3369  155.4245 H   0  0  0  0  0  0  0  0  0  0  0  0  # atno 8010 bound_to 7997
  139.9458  143.6111  152.2490 H   0  0  0  0  0  0  0  0  0  0  0  0  # atno 10167 bound_to 10162
  157.6958  131.0448  150.3903 H   0  0  0  0  0  0  0  0  0  0  0  0  # atno 10718 bound_to 10713
  154.8388  135.3416  154.6488 H   0  0  0  0  0  0  0  0  0  0  0  0  # atno 10763 bound_to 10752
  153.7101  135.6964  153.5044 H   0  0  0  0  0  0  0  0  0  0  0  0  # atno 10764 bound_to 10752
  153.2458  135.4369  155.0700 H   0  0  0  0  0  0  0  0  0  0  0  0  # atno 10765 bound_to 10752
  140.0088  134.9448  157.0233 H   0  0  0  0  0  0  0  0  0  0  0  0  # atno 11005 bound_to 11000
  146.2768  140.4668  142.8792 LP  0  0  0  0  0  0  0  0  0  0  0  0  # atno 17320 bound_to 7965
  144.8397  140.6837  143.6237 LP  0  0  0  0  0  0  0  0  0  0  0  0  # atno 17321 bound_to 7965
  139.6667  144.7662  151.1859 LP  0  0  0  0  0  0  0  0  0  0  0  0  # atno 17342 bound_to 10162
  140.7597  143.5926  150.8780 LP  0  0  0  0  0  0  0  0  0  0  0  0  # atno 17343 bound_to 10162
  156.4307  130.3971  149.6762 LP  0  0  0  0  0  0  0  0  0  0  0  0  # atno 17370 bound_to 10713
  156.3980  130.7660  151.2666 LP  0  0  0  0  0  0  0  0  0  0  0  0  # atno 17371 bound_to 10713
  140.4592  134.1501  155.7189 LP  0  0  0  0  0  0  0  0  0  0  0  0  # atno 17394 bound_to 11000
  141.1696  133.8635  157.1611 LP  0  0  0  0  0  0  0  0  0  0  0  0  # atno 17395 bound_to 11000

$$$$
