#       Name:                AV-unprocessed.smi:2922
#       Creating user name   scv26
#       Creation time:       Fri Mar 27 16:09:18 2020


#       File generated by GOLD software.
#

@<TRIPOS>MOLECULE
AV-unprocessed.smi:2922
    36    37     1
SMALL
NO_CHARGES


@<TRIPOS>ATOM
      1 ****        -2.6342   3.7194  -0.6496 N.am           1 S1                 0.0000
      2 ****        -3.4280   2.6915  -0.3356 C.2            1 S1                 0.0000
      3 ****        -4.5091   2.8561   0.2265 O.2            1 S1                 0.0000
      4 ****        -2.9561   1.2823  -0.7255 C.3            1 S1                 0.0000
      5 ****        -3.2233   0.2013   0.3395 C.3            1 S1                 0.0000
      6 ****        -1.8420  -0.3327   0.6735 C.3            1 S1                 0.0000
      7 ****        -1.0435  -0.0060  -0.5851 C.3            1 S1                 0.0000
      8 ****         0.4755   0.0527  -0.3777 C.3            1 S1                 0.0000
      9 ****         1.0351  -1.2653  -0.1188 N.pl3          1 S1                 0.0000
     10 ****         2.3717  -1.5039   0.1383 C.ar           1 S1                 0.0000
     11 ****         3.2067  -0.4576   0.1750 N.ar           1 S1                 0.0000
     12 ****         4.5082  -0.7185   0.4271 C.ar           1 S1                 0.0000
     13 ****         4.9679  -2.0333   0.6411 C.ar           1 S1                 0.0000
     14 ****         6.6284  -2.3740   0.9618 Cl             1 S1                 0.0000
     15 ****         4.0000  -3.0557   0.5792 C.ar           1 S1                 0.0000
     16 ****         2.7000  -2.7850   0.3274 N.ar           1 S1                 0.0000
     17 ****        -1.5419   1.2781  -0.9207 O.3            1 S1                 0.0000
     18 ****        -2.9083   4.6602  -0.4068 H              1 S1                 0.0000
     19 ****        -1.7605   3.5480  -1.1263 H              1 S1                 0.0000
     20 ****        -3.4356   0.9995  -1.6637 H              1 S1                 0.0000
     21 ****        -3.7291   0.5675   1.2340 H              1 S1                 0.0000
     22 ****        -3.8429  -0.5896  -0.0853 H              1 S1                 0.0000
     23 ****        -1.4356   0.2085   1.5292 H              1 S1                 0.0000
     24 ****        -1.8433  -1.3962   0.9138 H              1 S1                 0.0000
     25 ****        -1.2969  -0.6998  -1.3893 H              1 S1                 0.0000
     26 ****         0.9507   0.4607  -1.2704 H              1 S1                 0.0000
     27 ****         0.7182   0.7226   0.4481 H              1 S1                 0.0000
     28 ****         0.4178  -2.0637  -0.1468 H              1 S1                 0.0000
     29 ****         5.1824   0.1246   0.4569 H              1 S1                 0.0000
     30 ****         4.2667  -4.0912   0.7312 H              1 S1                 0.0000
     31 ****        -4.8153   3.7787   0.4610 LP             1 S1                 0.0000
     32 ****        -5.0821   2.0673   0.4491 LP             1 S1                 0.0000
     33 ****         2.8814   0.4756   0.0225 LP             1 S1                 0.0000
     34 ****         2.0142  -3.5115   0.2845 LP             1 S1                 0.0000
     35 ****        -1.1185   1.9680  -0.3335 LP             1 S1                 0.0000
     36 ****        -1.3331   1.4812  -1.8774 LP             1 S1                 0.0000
@<TRIPOS>BOND
    1    1    2 am    
    2    1   18 1     
    3    1   19 1     
    4    2    3 2     
    5    2    4 1     
    6    4   17 1     
    7    4    5 1     
    8    4   20 1     
    9    5    6 1     
   10    5   21 1     
   11    5   22 1     
   12    6    7 1     
   13    6   23 1     
   14    6   24 1     
   15    7    8 1     
   16    7   17 1     
   17    7   25 1     
   18    8    9 1     
   19    8   26 1     
   20    8   27 1     
   21    9   10 1     
   22    9   28 1     
   23   10   16 ar    
   24   10   11 ar    
   25   11   12 ar    
   26   12   13 ar    
   27   12   29 1     
   28   13   14 1     
   29   13   15 ar    
   30   15   16 ar    
   31   15   30 1     
   32    3   31 1     
   33    3   32 1     
   34   11   33 1     
   35   16   34 1     
   36   17   35 1     
   37   17   36 1     
@<TRIPOS>SUBSTRUCTURE
      1 S1             1
@<TRIPOS>SET
LONE_PAIRS      STATIC     ATOMS    <user>   **** ""
6 31 32 33 34 35 36
DONOR_HYDROGENS      STATIC     ATOMS    <user>   **** ""
3 18 19 28
ATOM$BLUE        STATIC     ATOMS    COLORGROUP SYSTEM
6 31 32 33 34 35 36
ATOM$RED        STATIC     ATOMS    COLORGROUP SYSTEM
3 18 19 28
