AV-unprocessed.smi:334|AV-procd|sdf|2367|dock4
  -GOLD-   2262022283D 1   1.00000     0.00000
 Structure written by MMmdl.
 44 46  0  0  0  0  0  0  0  0  3 V2000
  146.6056  134.6859  154.4217 C   0  0  0  0  0  0  0  0  0  0  0  0
  145.8258  135.8384  153.7678 C   0  0  1  0  0  0  0  0  0  0  0  0
  146.7524  136.8772  153.3307 N   0  0  0  0  0  0  0  0  0  0  0  0
  146.8302  138.1276  153.8168 C   0  0  0  0  0  0  0  0  0  0  0  0
  146.1508  138.5199  154.7644 O   0  0  0  0  0  0  0  0  0  0  0  0
  147.8041  139.1061  153.1370 C   0  0  0  0  0  0  0  0  0  0  0  0
  148.8629  139.6358  154.0171 N   0  0  0  0  0  0  0  0  0  0  0  0
  150.0378  138.8678  154.1374 C   0  0  0  0  0  0  0  0  0  0  0  0
  151.0759  139.2619  154.9005 C   0  0  0  0  0  0  0  0  0  0  0  0
  152.2774  138.4639  155.0065 N   0  3  0  0  0  0  0  0  0  0  0  0
  152.2443  137.2978  154.6270 O   0  0  0  0  0  0  0  0  0  0  0  0
  153.2920  138.9741  155.4721 O   0  5  0  0  0  0  0  0  0  0  0  0
  150.9518  140.5205  155.6100 C   0  0  0  0  0  0  0  0  0  0  0  0
  149.8319  141.2613  155.4972 C   0  0  0  0  0  0  0  0  0  0  0  0
  148.7048  140.8320  154.6633 C   0  0  0  0  0  0  0  0  0  0  0  0
  147.6854  141.5112  154.5438 O   0  0  0  0  0  0  0  0  0  0  0  0
  144.9936  135.3740  152.5499 C   0  0  2  0  0  0  0  0  0  0  0  0
  144.1182  134.1234  152.7993 C   0  0  0  0  0  0  0  0  0  0  0  0
  144.4465  133.2257  151.5920 C   0  0  2  0  0  0  0  0  0  0  0  0
  145.8502  132.6234  151.7828 C   0  0  0  0  0  0  0  0  0  0  0  0
  146.7720  133.8312  151.5343 C   0  0  0  0  0  0  0  0  0  0  0  0
  145.7734  134.9778  151.2717 C   0  0  1  0  0  0  0  0  0  0  0  0
  144.6894  134.2462  150.4856 C   0  0  0  0  0  0  0  0  0  0  0  0
  145.9311  133.9202  154.8054 H   0  0  0  0  0  0  0  0  0  0  0  0
  147.2027  135.0403  155.2623 H   0  0  0  0  0  0  0  0  0  0  0  0
  147.2813  134.2096  153.7108 H   0  0  0  0  0  0  0  0  0  0  0  0
  145.1568  136.2738  154.5103 H   0  0  0  0  0  0  0  0  0  0  0  0
  147.3552  136.6398  152.5564 H   0  0  0  0  0  0  0  0  0  0  0  0
  148.2497  138.6068  152.2749 H   0  0  0  0  0  0  0  0  0  0  0  0
  147.2182  139.9234  152.7142 H   0  0  0  0  0  0  0  0  0  0  0  0
  150.0347  137.9515  153.5647 H   0  0  0  0  0  0  0  0  0  0  0  0
  151.7559  140.8788  156.2356 H   0  0  0  0  0  0  0  0  0  0  0  0
  149.7609  142.1961  156.0337 H   0  0  0  0  0  0  0  0  0  0  0  0
  144.3265  136.1948  152.2790 H   0  0  0  0  0  0  0  0  0  0  0  0
  144.3419  133.6245  153.7434 H   0  0  0  0  0  0  0  0  0  0  0  0
  143.0616  134.3936  152.8138 H   0  0  0  0  0  0  0  0  0  0  0  0
  143.6776  132.4833  151.3765 H   0  0  0  0  0  0  0  0  0  0  0  0
  145.9856  132.1942  152.7763 H   0  0  0  0  0  0  0  0  0  0  0  0
  146.0408  131.8381  151.0503 H   0  0  0  0  0  0  0  0  0  0  0  0
  147.4509  134.0243  152.3636 H   0  0  0  0  0  0  0  0  0  0  0  0
  147.3879  133.6572  150.6510 H   0  0  0  0  0  0  0  0  0  0  0  0
  146.2126  135.8266  150.7468 H   0  0  0  0  0  0  0  0  0  0  0  0
  145.0518  133.8000  149.5577 H   0  0  0  0  0  0  0  0  0  0  0  0
  143.8166  134.8644  150.2671 H   0  0  0  0  0  0  0  0  0  0  0  0
  1  2  1  0  0  0  0
  1 24  1  0  0  0  0
  1 25  1  0  0  0  0
  1 26  1  0  0  0  0
  2  3  1  0  0  0  0
  2 17  1  0  0  0  0
  2 27  1  0  0  0  0
  3  4  1  0  0  0  0
  3 28  1  0  0  0  0
  4  5  2  0  0  0  0
  4  6  1  0  0  0  0
  6  7  1  0  0  0  0
  6 29  1  0  0  0  0
  6 30  1  0  0  0  0
  7 15  1  0  0  0  0
  7  8  1  0  0  0  0
  8  9  2  0  0  0  0
  8 31  1  0  0  0  0
  9 10  1  0  0  0  0
  9 13  1  0  0  0  0
 10 11  2  0  0  0  0
 10 12  1  0  0  0  0
 13 14  2  0  0  0  0
 13 32  1  0  0  0  0
 14 15  1  0  0  0  0
 14 33  1  0  0  0  0
 15 16  2  0  0  0  0
 17 22  1  0  0  0  0
 17 18  1  0  0  0  0
 17 34  1  0  0  0  0
 18 19  1  0  0  0  0
 18 35  1  0  0  0  0
 18 36  1  0  0  0  0
 19 23  1  0  0  0  0
 19 20  1  0  0  0  0
 19 37  1  0  0  0  0
 20 21  1  0  0  0  0
 20 38  1  0  0  0  0
 20 39  1  0  0  0  0
 21 22  1  0  0  0  0
 21 40  1  0  0  0  0
 21 41  1  0  0  0  0
 22 23  1  0  0  0  0
 22 42  1  0  0  0  0
 23 43  1  0  0  0  0
 23 44  1  0  0  0  0
M  CHG  1  10   1
M  CHG  1  12  -1
M  END
> <s_m_source_file>
AV-unprocessed.smi

> <i_m_source_file_index>
334

> <i_lp_mmshare_version>
43012

> <i_f3d_flags>
0

> <s_epik_input>
W0NIMl0xW0NIMl1bQ0BIXShbQ0gyXTIpW0NAQEhdKFtDSDJdW0NAQEhdMTIpW0NASF0oW0NIM10pW05IXUMoPU8pW0NIMl1uM1tjSF1jKFtOK10oPU8pW08tXSlbY0hdW2NIXWMzPU8=

> <s_epik_cmdline>
J2VwaWtfcHl0aG9uJywgJy1waCcsICc3LjAnLCAnLXRuJywgJzgnLCAnLW1hJywgJzIwMCcsICctbWV0YWxfYmluZGluZycsICctaW1hZScsICc8aW5maWxlLm1hZT4nLCAnLW9tYWUnLCAnPG91dGZpbGUubWFlPic=

> <r_lp_tautomer_probability>
1

> <r_epik_Ionization_Penalty>
2.17081e-08

> <r_epik_Ionization_Penalty_Charging>
8.1195e-11

> <r_epik_Ionization_Penalty_Neutral>
2.16269e-08

> <r_epik_State_Penalty>
-0

> <r_epik_Charging_Adjusted_Penalty>
8.1195e-11

> <i_epik_Tot_Q>
0

> <i_epik_Tot_abs_Q>
2

> <r_epik_Metal_State_Penalty>
-0

> <b_epik_Metal_Only>
0

> <s_lp_Force_Field>
OPLS_2005

> <r_lp_Energy>
62.3621

> <b_lp_Chiralities_Consistent>
1

> <s_lp_Variant>
AV-unprocessed.smi:334-6

> <Gold.Version>
5.8.1

> <Gold.Id.Protein>
6NUR|6NUR_protein|mol2

> <Gold.PLP.Fitness>
49.9299

> <Gold.PLP.PLP>
-39.4859

> <Gold.PLP.part.hbond>
-3.0000

> <Gold.PLP.part.metal>
0.0000

> <Gold.PLP.part.buried>
0.0681

> <Gold.PLP.part.nonpolar>
-36.1544

> <Gold.PLP.part.repulsive>
0.3659

> <Gold.PLP.ligand.clash>
0.0000

> <Gold.PLP.ligand.torsion>
0.5798

> <Gold.PLP.Chemscore.Hbond>
2.8560

> <Gold.PLP.Chemscore.CHOScore>
0.9983

> <Gold.PLP.Chemscore.Metal>
0.0000

> <Gold.Chemscore.Hbonds>
donor molecule, donor type, donor heavy atom, donor atom, acceptor molecule, acceptor atom, score
      L1  H     3    28       P1  7948  1.00
      P1  H  7997  8008       L1    12  1.00
      P1  H 10752 10764       L1    11  0.75
      L1  C     8    31       P1  7948  0.80

> <Gold.PLP.Chemscore.Internal.Correction>
0.0406

> <Gold.Rescore>
     Score         DG    S(hbond)    S(metal)    S(lipo)     H(rot)  DE(clash)    DE(int)     intcor
     17.59     -19.53       2.84        0.00      77.41       1.75       0.19       1.76       ----

> <Gold.Chemscore.Fitness>
17.5884

> <Gold.Chemscore.DG>
-19.5320

> <Gold.Chemscore.ZeroCoef>
-5.4800

> <Gold.Chemscore.Hbond>
2.8350

> <Gold.Chemscore.Metal>
0.0000

> <Gold.Chemscore.Lipo>
77.4050

> <Gold.Chemscore.Internal_Hbond>
0.0000

> <Gold.Chemscore.DEClash>
0.1873

> <Gold.Chemscore.DEInternal>
1.7563

> <Gold.Chemscore.Rot>
1.7474

> <Gold.Chemscore.Internal.Correction>
   9.000000E+99

> <Gold.Chemscore.Hbonds>
donor molecule, donor type, donor heavy atom, donor atom, acceptor molecule, acceptor atom, score
      L1  H     3    28       P1  7948  0.97
      P1  H  7997  8008       L1    12  0.98
      P1  H 10752 10764       L1    11  0.76

> <Gold.Chemscore.Hbond.Weighted>
-9.4690

> <Gold.Chemscore.Metal.Weighted>
-0.0000

> <Gold.Chemscore.Lipo.Weighted>
-9.0564

> <Gold.Chemscore.Internal_Hbond.Weighted>
0.0000

> <Gold.Chemscore.DEClash.Weighted>
0.1873

> <Gold.Chemscore.DEInternal.Weighted>
1.7563

> <Gold.Chemscore.Rot.Weighted>
4.4733

> <Gold.Chemscore.Internal.Correction.Weighted>
   9.000000E+99

> <Gold.Protein.RotatedTorsions>
[ 6907 6896 6895 6894 ] final    0.83 input  -60.11 | X-H torsion
[ 7974 7965 7964 7962 ] final -171.01 input  175.53 | X-H torsion
[ 8008 7997 7996 7995 ] final  -32.26 input   59.86 | X-H torsion
[ 10167 10162 10161 10158 ] final  113.02 input  -65.29 | X-H torsion
[ 10718 10713 10712 10709 ] final   -4.87 input   66.30 | X-H torsion
[ 10763 10752 10751 10750 ] final  -80.33 input  -60.55 | X-H torsion
[ 11005 11000 10999 10996 ] final  110.85 input  -57.11 | X-H torsion

> <Gold.Protein.ActiveResidues>
 VAL166  LYS551  ARG553  GLY616  TRP617  ASP618  TYR619  PRO620  LYS621  CYS622 
 ASP623  PHE694  ASN695  SER759  ASP760  ASP761  ALA762  ILE779  LEU786  VAL792 
 PHE793  MET794  SER795  GLU796  ALA797  LYS798  CYS799  TRP800  GLU811  SER814 

> <Gold.Protein.RotatedAtoms>
  151.5828  135.1057  160.0020 H   0  0  0  0  0  0  0  0  0  0  0  0  # atno 6907 bound_to 6896
  152.4346  133.7333  159.6610 H   0  0  0  0  0  0  0  0  0  0  0  0  # atno 6908 bound_to 6896
  150.8242  133.8131  159.3149 H   0  0  0  0  0  0  0  0  0  0  0  0  # atno 6909 bound_to 6896
  144.7162  140.1987  143.6340 H   0  0  0  0  0  0  0  0  0  0  0  0  # atno 7974 bound_to 7965
  154.4186  140.1742  156.1699 H   0  0  0  0  0  0  0  0  0  0  0  0  # atno 8008 bound_to 7997
  155.9769  140.3381  155.6603 H   0  0  0  0  0  0  0  0  0  0  0  0  # atno 8009 bound_to 7997
  155.6551  140.0694  157.2564 H   0  0  0  0  0  0  0  0  0  0  0  0  # atno 8010 bound_to 7997
  139.6492  144.7128  151.2081 H   0  0  0  0  0  0  0  0  0  0  0  0  # atno 10167 bound_to 10162
  156.7550  130.5251  149.5796 H   0  0  0  0  0  0  0  0  0  0  0  0  # atno 10718 bound_to 10713
  154.5498  135.5665  153.6912 H   0  0  0  0  0  0  0  0  0  0  0  0  # atno 10763 bound_to 10752
  152.9986  135.6248  154.2389 H   0  0  0  0  0  0  0  0  0  0  0  0  # atno 10764 bound_to 10752
  154.2324  135.2865  155.2865 H   0  0  0  0  0  0  0  0  0  0  0  0  # atno 10765 bound_to 10752
  139.8891  134.9494  156.6343 H   0  0  0  0  0  0  0  0  0  0  0  0  # atno 11005 bound_to 11000
  145.8700  139.2267  143.1666 LP  0  0  0  0  0  0  0  0  0  0  0  0  # atno 17320 bound_to 7965
  146.0093  140.8450  142.9979 LP  0  0  0  0  0  0  0  0  0  0  0  0  # atno 17321 bound_to 7965
  140.7529  143.6178  150.8542 LP  0  0  0  0  0  0  0  0  0  0  0  0  # atno 17342 bound_to 10162
  139.9824  143.5936  152.2938 LP  0  0  0  0  0  0  0  0  0  0  0  0  # atno 17343 bound_to 10162
  156.1376  130.6222  151.0423 LP  0  0  0  0  0  0  0  0  0  0  0  0  # atno 17370 bound_to 10713
  157.6760  131.0850  150.7493 LP  0  0  0  0  0  0  0  0  0  0  0  0  # atno 17371 bound_to 10713
  140.7643  133.8792  155.8442 LP  0  0  0  0  0  0  0  0  0  0  0  0  # atno 17394 bound_to 11000
  140.9896  134.1296  157.4420 LP  0  0  0  0  0  0  0  0  0  0  0  0  # atno 17395 bound_to 11000

$$$$
