AV-unprocessed.smi:924|AV-procd|sdf|4180|dock10
  -GOLD-   22720 2 83D 1   1.00000     0.00000
 Structure written by MMmdl.
 45 48  0  0  0  0  0  0  0  0  2 V2000
  144.5377  135.8520  153.8732 O   0  0  0  0  0  0  0  0  0  0  0  0
  144.2166  136.9644  153.4533 C   0  0  0  0  0  0  0  0  0  0  0  0
  143.0269  137.1322  152.4994 C   0  0  0  0  0  0  0  0  0  0  0  0
  141.7353  137.1174  153.2045 N   0  0  0  0  0  0  0  0  0  0  0  0
  140.9837  138.3058  153.1896 C   0  0  0  0  0  0  0  0  0  0  0  0
  139.7820  138.3952  153.7899 C   0  0  0  0  0  0  0  0  0  0  0  0
  139.2620  137.2160  154.4706 C   0  0  0  0  0  0  0  0  0  0  0  0
  138.1684  137.2803  155.0290 O   0  0  0  0  0  0  0  0  0  0  0  0
  140.0260  136.0847  154.4531 N   0  5  0  0  0  0  0  0  0  0  0  0
  141.2448  136.0067  153.8335 C   0  0  0  0  0  0  0  0  0  0  0  0
  141.9128  134.9724  153.8241 O   0  0  0  0  0  0  0  0  0  0  0  0
  144.8658  138.0907  153.7857 N   0  0  0  0  0  0  0  0  0  0  0  0
  146.0584  138.1693  154.6260 C   0  0  0  0  0  0  0  0  0  0  0  0
  146.6426  139.6020  154.7309 C   0  0  0  0  0  0  0  0  0  0  0  0
  147.0984  140.1429  153.3466 C   0  0  0  0  0  0  0  0  0  0  0  0
  147.7106  141.5522  153.4918 C   0  0  1  0  0  0  0  0  0  0  0  0
  146.6558  142.5130  154.0792 C   0  0  0  0  0  0  0  0  0  0  0  0
  146.2168  141.9996  155.4668 C   0  0  2  0  0  0  0  0  0  0  0  0
  147.4385  141.9406  156.4067 C   0  0  0  0  0  0  0  0  0  0  0  0
  148.4896  140.9807  155.8120 C   0  0  2  0  0  0  0  0  0  0  0  0
  148.9356  141.4911  154.4265 C   0  0  0  0  0  0  0  0  0  0  0  0
  147.8780  139.5710  155.6692 C   0  0  0  0  0  0  0  0  0  0  0  0
  145.6018  140.5901  155.3259 C   0  0  0  0  0  0  0  0  0  0  0  0
  143.1646  138.0519  151.9291 H   0  0  0  0  0  0  0  0  0  0  0  0
  143.0389  136.3324  151.7570 H   0  0  0  0  0  0  0  0  0  0  0  0
  141.4390  139.1286  152.6574 H   0  0  0  0  0  0  0  0  0  0  0  0
  139.2159  139.3147  153.7653 H   0  0  0  0  0  0  0  0  0  0  0  0
  144.5249  138.9598  153.4016 H   0  0  0  0  0  0  0  0  0  0  0  0
  145.7755  137.8171  155.6185 H   0  0  0  0  0  0  0  0  0  0  0  0
  146.8221  137.4742  154.2726 H   0  0  0  0  0  0  0  0  0  0  0  0
  147.8241  139.4647  152.8960 H   0  0  0  0  0  0  0  0  0  0  0  0
  146.2578  140.1945  152.6542 H   0  0  0  0  0  0  0  0  0  0  0  0
  148.0218  141.9131  152.5109 H   0  0  0  0  0  0  0  0  0  0  0  0
  147.0657  143.5205  154.1609 H   0  0  0  0  0  0  0  0  0  0  0  0
  145.7955  142.5831  153.4123 H   0  0  0  0  0  0  0  0  0  0  0  0
  145.4727  142.6784  155.8845 H   0  0  0  0  0  0  0  0  0  0  0  0
  147.8652  142.9360  156.5359 H   0  0  0  0  0  0  0  0  0  0  0  0
  147.1366  141.6033  157.3992 H   0  0  0  0  0  0  0  0  0  0  0  0
  149.3536  140.9346  156.4754 H   0  0  0  0  0  0  0  0  0  0  0  0
  149.6981  140.8329  154.0081 H   0  0  0  0  0  0  0  0  0  0  0  0
  149.3933  142.4772  154.5154 H   0  0  0  0  0  0  0  0  0  0  0  0
  147.5964  139.1915  156.6524 H   0  0  0  0  0  0  0  0  0  0  0  0
  148.6294  138.8815  155.2812 H   0  0  0  0  0  0  0  0  0  0  0  0
  144.7160  140.6451  154.6918 H   0  0  0  0  0  0  0  0  0  0  0  0
  145.2587  140.2365  156.2992 H   0  0  0  0  0  0  0  0  0  0  0  0
  1  2  2  0  0  0  0
  2  3  1  0  0  0  0
  2 12  1  0  0  0  0
  3  4  1  0  0  0  0
  3 24  1  0  0  0  0
  3 25  1  0  0  0  0
  4 10  1  0  0  0  0
  4  5  1  0  0  0  0
  5  6  2  0  0  0  0
  5 26  1  0  0  0  0
  6  7  1  0  0  0  0
  6 27  1  0  0  0  0
  7  8  2  0  0  0  0
  7  9  1  0  0  0  0
  9 10  1  0  0  0  0
 10 11  2  0  0  0  0
 12 13  1  0  0  0  0
 12 28  1  0  0  0  0
 13 14  1  0  0  0  0
 13 29  1  0  0  0  0
 13 30  1  0  0  0  0
 14 22  1  0  0  0  0
 14 23  1  0  0  0  0
 14 15  1  0  0  0  0
 15 16  1  0  0  0  0
 15 31  1  0  0  0  0
 15 32  1  0  0  0  0
 16 21  1  0  0  0  0
 16 17  1  0  0  0  0
 16 33  1  0  0  0  0
 17 18  1  0  0  0  0
 17 34  1  0  0  0  0
 17 35  1  0  0  0  0
 18 19  1  0  0  0  0
 18 23  1  0  0  0  0
 18 36  1  0  0  0  0
 19 20  1  0  0  0  0
 19 37  1  0  0  0  0
 19 38  1  0  0  0  0
 20 21  1  0  0  0  0
 20 22  1  0  0  0  0
 20 39  1  0  0  0  0
 21 40  1  0  0  0  0
 21 41  1  0  0  0  0
 22 42  1  0  0  0  0
 22 43  1  0  0  0  0
 23 44  1  0  0  0  0
 23 45  1  0  0  0  0
M  CHG  1   9  -1
M  END
> <s_m_source_file>
AV-unprocessed.smi

> <i_m_source_file_index>
924

> <i_lp_mmshare_version>
43012

> <i_f3d_flags>
0

> <s_epik_input>
Tz1jMVtuSF1jKD1PKVtjSF1bY0hdbjFbQ0gyXUMoPU8pW05IXVtDSDJdQzIzW0NIMl1bQ0BIXTRbQ0gyXVtDQEBIXShbQ0gyXTMpW0NIMl1bQ0BIXShbQ0gyXTQpW0NIMl0y

> <s_epik_cmdline>
J2VwaWtfcHl0aG9uJywgJy1waCcsICc3LjAnLCAnLXRuJywgJzgnLCAnLW1hJywgJzIwMCcsICctbWV0YWxfYmluZGluZycsICctaW1hZScsICc8aW5maWxlLm1hZT4nLCAnLW9tYWUnLCAnPG91dGZpbGUubWFlPic=

> <r_lp_tautomer_probability>
0.999537

> <r_epik_Ionization_Penalty>
3.12434

> <r_epik_Ionization_Penalty_Charging>
2.83226e-08

> <r_epik_Ionization_Penalty_Neutral>
3.12434

> <r_epik_State_Penalty>
3.12343

> <r_epik_Charging_Adjusted_Penalty>
3.12343

> <i_epik_Tot_Q>
-1

> <i_epik_Tot_abs_Q>
1

> <r_epik_Metal_State_Penalty>
0.463885

> <b_epik_Metal_Only>
1

> <s_lp_Force_Field>
OPLS_2005

> <r_lp_Energy>
43.5062

> <b_lp_Chiralities_Consistent>
1

> <s_lp_Variant>
AV-unprocessed.smi:924-2

> <Gold.Version>
5.8.1

> <Gold.Id.Protein>
6NUR|6NUR_protein|mol2

> <Gold.PLP.Fitness>
45.8883

> <Gold.PLP.PLP>
-34.6245

> <Gold.PLP.part.hbond>
-2.3075

> <Gold.PLP.part.metal>
0.0000

> <Gold.PLP.part.buried>
-5.8958

> <Gold.PLP.part.nonpolar>
-25.8114

> <Gold.PLP.part.repulsive>
0.3192

> <Gold.PLP.ligand.clash>
0.0000

> <Gold.PLP.ligand.torsion>
0.3295

> <Gold.PLP.Chemscore.Hbond>
2.0000

> <Gold.PLP.Chemscore.CHOScore>
1.9724

> <Gold.PLP.Chemscore.Metal>
0.0000

> <Gold.Chemscore.Hbonds>
donor molecule, donor type, donor heavy atom, donor atom, acceptor molecule, acceptor atom, score
      L1  H    12    28       P1 10175  1.00
      P1  H 11000 11005       L1     9  0.98
      L1  C     5    26       P1 10160  0.98
      L1  C     5    26       P1 10175  1.00

> <Gold.PLP.Chemscore.Internal.Correction>
0.0055

> <Gold.Rescore>
     Score         DG    S(hbond)    S(metal)    S(lipo)     H(rot)  DE(clash)    DE(int)     intcor
     11.57     -14.26       1.73        0.00      67.18       1.90       0.93       1.75       ----

> <Gold.Chemscore.Fitness>
11.5707

> <Gold.Chemscore.DG>
-14.2560

> <Gold.Chemscore.ZeroCoef>
-5.4800

> <Gold.Chemscore.Hbond>
1.7275

> <Gold.Chemscore.Metal>
0.0000

> <Gold.Chemscore.Lipo>
67.1756

> <Gold.Chemscore.Internal_Hbond>
0.0000

> <Gold.Chemscore.DEClash>
0.9329

> <Gold.Chemscore.DEInternal>
1.7524

> <Gold.Chemscore.Rot>
1.8959

> <Gold.Chemscore.Internal.Correction>
   9.000000E+99

> <Gold.Chemscore.Hbonds>
donor molecule, donor type, donor heavy atom, donor atom, acceptor molecule, acceptor atom, score
      L1  H    12    28       P1 10175  0.99
      P1  H 11000 11005       L1     9  0.51

> <Gold.Chemscore.Hbond.Weighted>
-5.7699

> <Gold.Chemscore.Metal.Weighted>
-0.0000

> <Gold.Chemscore.Lipo.Weighted>
-7.8595

> <Gold.Chemscore.Internal_Hbond.Weighted>
0.0000

> <Gold.Chemscore.DEClash.Weighted>
0.9329

> <Gold.Chemscore.DEInternal.Weighted>
1.7524

> <Gold.Chemscore.Rot.Weighted>
4.8535

> <Gold.Chemscore.Internal.Correction.Weighted>
   9.000000E+99

> <Gold.Protein.RotatedTorsions>
[ 6907 6896 6895 6894 ] final  -51.20 input  -60.11 | X-H torsion
[ 7974 7965 7964 7962 ] final  -48.53 input  175.53 | X-H torsion
[ 8008 7997 7996 7995 ] final  -26.29 input   59.86 | X-H torsion
[ 10167 10162 10161 10158 ] final  113.65 input  -65.29 | X-H torsion
[ 10718 10713 10712 10709 ] final -151.97 input   66.30 | X-H torsion
[ 10763 10752 10751 10750 ] final  -32.58 input  -60.55 | X-H torsion
[ 11005 11000 10999 10996 ] final   59.45 input  -57.11 | X-H torsion

> <Gold.Protein.ActiveResidues>
 VAL166  LYS551  ARG553  GLY616  TRP617  ASP618  TYR619  PRO620  LYS621  CYS622 
 ASP623  PHE694  ASN695  SER759  ASP760  ASP761  ALA762  ILE779  LEU786  VAL792 
 PHE793  MET794  SER795  GLU796  ALA797  LYS798  CYS799  TRP800  GLU811  SER814 

> <Gold.Protein.RotatedAtoms>
  150.8634  134.7992  159.7100 H   0  0  0  0  0  0  0  0  0  0  0  0  # atno 6907 bound_to 6896
  152.4664  134.5063  159.9750 H   0  0  0  0  0  0  0  0  0  0  0  0  # atno 6908 bound_to 6896
  151.5163  133.3437  159.2929 H   0  0  0  0  0  0  0  0  0  0  0  0  # atno 6909 bound_to 6896
  145.9501  140.7580  142.9509 H   0  0  0  0  0  0  0  0  0  0  0  0  # atno 7974 bound_to 7965
  154.4432  140.1903  156.0753 H   0  0  0  0  0  0  0  0  0  0  0  0  # atno 8008 bound_to 7997
  156.0480  140.3312  155.7292 H   0  0  0  0  0  0  0  0  0  0  0  0  # atno 8009 bound_to 7997
  155.5600  140.0603  157.2822 H   0  0  0  0  0  0  0  0  0  0  0  0  # atno 8010 bound_to 7997
  139.6446  144.7126  151.2169 H   0  0  0  0  0  0  0  0  0  0  0  0  # atno 10167 bound_to 10162
  156.4663  130.8237  151.2467 H   0  0  0  0  0  0  0  0  0  0  0  0  # atno 10718 bound_to 10713
  153.8162  135.6878  153.4833 H   0  0  0  0  0  0  0  0  0  0  0  0  # atno 10763 bound_to 10752
  153.1598  135.4584  154.9754 H   0  0  0  0  0  0  0  0  0  0  0  0  # atno 10764 bound_to 10752
  154.7947  135.3314  154.7638 H   0  0  0  0  0  0  0  0  0  0  0  0  # atno 10765 bound_to 10752
  140.0303  134.6022  155.9516 H   0  0  0  0  0  0  0  0  0  0  0  0  # atno 11005 bound_to 11000
  144.6794  140.2421  143.7342 LP  0  0  0  0  0  0  0  0  0  0  0  0  # atno 17320 bound_to 7965
  145.8182  139.2032  143.1953 LP  0  0  0  0  0  0  0  0  0  0  0  0  # atno 17321 bound_to 7965
  140.7508  143.6253  150.8474 LP  0  0  0  0  0  0  0  0  0  0  0  0  # atno 17342 bound_to 10162
  139.9895  143.5863  152.2915 LP  0  0  0  0  0  0  0  0  0  0  0  0  # atno 17343 bound_to 10162
  157.7494  131.0091  150.3253 LP  0  0  0  0  0  0  0  0  0  0  0  0  # atno 17370 bound_to 10713
  156.3665  130.3856  149.7210 LP  0  0  0  0  0  0  0  0  0  0  0  0  # atno 17371 bound_to 10713
  141.1827  133.6549  156.5086 LP  0  0  0  0  0  0  0  0  0  0  0  0  # atno 17394 bound_to 11000
  140.4237  134.7164  157.4904 LP  0  0  0  0  0  0  0  0  0  0  0  0  # atno 17395 bound_to 11000

$$$$
