AV-unprocessed.smi:2124|AV-procd|sdf|8668|dock8
  -GOLD-   2272011423D 1   1.00000     0.00000
 Structure written by MMmdl.
 46 48  0  0  0  0  0  0  0  0  2 V2000
  151.9610  141.8252  157.8420 C   0  0  0  0  0  0  0  0  0  0  0  0
  151.6996  140.6778  156.8896 C   0  0  0  0  0  0  0  0  0  0  0  0
  150.6843  140.7291  156.1143 N   0  0  0  0  0  0  0  0  0  0  0  0
  150.4369  139.6675  155.2277 C   0  0  0  0  0  0  0  0  0  0  0  0
  149.2097  139.8124  154.3450 C   0  0  0  0  0  0  0  0  0  0  0  0
  151.2613  138.5821  155.1787 C   0  0  0  0  0  0  0  0  0  0  0  0
  151.0351  137.4010  154.2341 C   0  0  0  0  0  0  0  0  0  0  0  0
  150.6071  136.0827  154.8843 C   0  0  0  0  0  0  0  0  0  0  0  0
  151.1076  135.7113  155.9464 O   0  0  0  0  0  0  0  0  0  0  0  0
  149.6755  135.3787  154.2233 N   0  0  0  0  0  0  0  0  0  0  0  0
  149.1206  134.0960  154.6506 C   0  0  2  0  0  0  0  0  0  0  0  0
  150.2597  133.2068  155.1823 C   0  0  0  0  0  0  0  0  0  0  0  0
  148.3574  133.4313  153.4786 C   0  0  1  0  0  0  0  0  0  0  0  0
  147.9787  131.9540  153.7476 C   0  0  0  0  0  0  0  0  0  0  0  0
  146.4609  131.9237  153.4958 C   0  0  2  0  0  0  0  0  0  0  0  0
  146.1847  132.1077  151.9930 C   0  0  0  0  0  0  0  0  0  0  0  0
  146.5157  133.5949  151.7696 C   0  0  0  0  0  0  0  0  0  0  0  0
  146.9721  134.0563  153.1673 C   0  0  1  0  0  0  0  0  0  0  0  0
  146.0282  133.2667  154.0678 C   0  0  0  0  0  0  0  0  0  0  0  0
  152.4241  138.5647  156.0839 C   0  0  0  0  0  0  0  0  0  0  0  0
  153.2087  137.6170  156.0682 O   0  0  0  0  0  0  0  0  0  0  0  0
  152.5902  139.6282  156.9213 N   0  5  0  0  0  0  0  0  0  0  0  0
  151.3319  142.6838  157.6036 H   0  0  0  0  0  0  0  0  0  0  0  0
  153.0031  142.1410  157.7816 H   0  0  0  0  0  0  0  0  0  0  0  0
  151.7503  141.5190  158.8668 H   0  0  0  0  0  0  0  0  0  0  0  0
  148.4688  139.0527  154.5950 H   0  0  0  0  0  0  0  0  0  0  0  0
  149.4767  139.7060  153.2934 H   0  0  0  0  0  0  0  0  0  0  0  0
  148.7448  140.7907  154.4735 H   0  0  0  0  0  0  0  0  0  0  0  0
  150.3072  137.6615  153.4651 H   0  0  0  0  0  0  0  0  0  0  0  0
  151.9602  137.2169  153.6876 H   0  0  0  0  0  0  0  0  0  0  0  0
  149.3187  135.7635  153.3606 H   0  0  0  0  0  0  0  0  0  0  0  0
  148.4143  134.2722  155.4639 H   0  0  0  0  0  0  0  0  0  0  0  0
  149.8871  132.2505  155.5482 H   0  0  0  0  0  0  0  0  0  0  0  0
  150.7801  133.6867  156.0119 H   0  0  0  0  0  0  0  0  0  0  0  0
  150.9961  132.9998  154.4051 H   0  0  0  0  0  0  0  0  0  0  0  0
  148.9873  133.4936  152.5896 H   0  0  0  0  0  0  0  0  0  0  0  0
  148.5213  131.2630  153.1014 H   0  0  0  0  0  0  0  0  0  0  0  0
  148.1834  131.6685  154.7802 H   0  0  0  0  0  0  0  0  0  0  0  0
  145.9630  131.0561  153.9300 H   0  0  0  0  0  0  0  0  0  0  0  0
  146.7962  131.4469  151.3774 H   0  0  0  0  0  0  0  0  0  0  0  0
  145.1376  131.9087  151.7615 H   0  0  0  0  0  0  0  0  0  0  0  0
  147.2820  133.7429  151.0080 H   0  0  0  0  0  0  0  0  0  0  0  0
  145.6250  134.1402  151.4548 H   0  0  0  0  0  0  0  0  0  0  0  0
  146.9199  135.1382  153.2913 H   0  0  0  0  0  0  0  0  0  0  0  0
  144.9746  133.4922  153.8938 H   0  0  0  0  0  0  0  0  0  0  0  0
  146.2447  133.3769  155.1315 H   0  0  0  0  0  0  0  0  0  0  0  0
  1  2  1  0  0  0  0
  1 23  1  0  0  0  0
  1 24  1  0  0  0  0
  1 25  1  0  0  0  0
  2 22  1  0  0  0  0
  2  3  2  0  0  0  0
  3  4  1  0  0  0  0
  4  5  1  0  0  0  0
  4  6  2  0  0  0  0
  5 26  1  0  0  0  0
  5 27  1  0  0  0  0
  5 28  1  0  0  0  0
  6  7  1  0  0  0  0
  6 20  1  0  0  0  0
  7  8  1  0  0  0  0
  7 29  1  0  0  0  0
  7 30  1  0  0  0  0
  8  9  2  0  0  0  0
  8 10  1  0  0  0  0
 10 11  1  0  0  0  0
 10 31  1  0  0  0  0
 11 12  1  0  0  0  0
 11 13  1  0  0  0  0
 11 32  1  0  0  0  0
 12 33  1  0  0  0  0
 12 34  1  0  0  0  0
 12 35  1  0  0  0  0
 13 18  1  0  0  0  0
 13 14  1  0  0  0  0
 13 36  1  0  0  0  0
 14 15  1  0  0  0  0
 14 37  1  0  0  0  0
 14 38  1  0  0  0  0
 15 19  1  0  0  0  0
 15 16  1  0  0  0  0
 15 39  1  0  0  0  0
 16 17  1  0  0  0  0
 16 40  1  0  0  0  0
 16 41  1  0  0  0  0
 17 18  1  0  0  0  0
 17 42  1  0  0  0  0
 17 43  1  0  0  0  0
 18 19  1  0  0  0  0
 18 44  1  0  0  0  0
 19 45  1  0  0  0  0
 19 46  1  0  0  0  0
 20 21  2  0  0  0  0
 20 22  1  0  0  0  0
M  CHG  1  22  -1
M  END
> <s_m_source_file>
AV-unprocessed.smi

> <i_m_source_file_index>
2124

> <i_lp_mmshare_version>
43012

> <i_f3d_flags>
0

> <s_epik_input>
W0NIM11jMW5jKFtDSDNdKWMoYyg9TylbbkhdMSlbQ0gyXUMoPU8pW05IXVtDQEhdKFtDSDNdKVtDQEhdKFtDSDJdW0NASF0yMylbQ0BIXShbQ0gyXTMpW0NIMl1bQ0gyXTI=

> <s_epik_cmdline>
J2VwaWtfcHl0aG9uJywgJy1waCcsICc3LjAnLCAnLXRuJywgJzgnLCAnLW1hJywgJzIwMCcsICctbWV0YWxfYmluZGluZycsICctaW1hZScsICc8aW5maWxlLm1hZT4nLCAnLW9tYWUnLCAnPG91dGZpbGUubWFlPic=

> <r_lp_tautomer_probability>
0.839158

> <r_epik_Ionization_Penalty>
6.63797

> <r_epik_Ionization_Penalty_Charging>
7.48558e-08

> <r_epik_Ionization_Penalty_Neutral>
6.63797

> <r_epik_State_Penalty>
4.49496

> <r_epik_Charging_Adjusted_Penalty>
4.49496

> <i_epik_Tot_Q>
-1

> <i_epik_Tot_abs_Q>
1

> <r_epik_Metal_State_Penalty>
0.841241

> <b_epik_Metal_Only>
1

> <s_lp_Force_Field>
OPLS_2005

> <r_lp_Energy>
55.6811

> <b_lp_Chiralities_Consistent>
1

> <s_lp_Variant>
AV-unprocessed.smi:2124-19

> <Gold.Version>
5.8.1

> <Gold.Id.Protein>
6NUR|6NUR_protein|mol2

> <Gold.PLP.Fitness>
44.7814

> <Gold.PLP.PLP>
-34.4492

> <Gold.PLP.part.hbond>
-5.0000

> <Gold.PLP.part.metal>
0.0000

> <Gold.PLP.part.buried>
0.2176

> <Gold.PLP.part.nonpolar>
-28.6960

> <Gold.PLP.part.repulsive>
0.1342

> <Gold.PLP.ligand.clash>
0.0000

> <Gold.PLP.ligand.torsion>
0.7838

> <Gold.PLP.Chemscore.Hbond>
3.9588

> <Gold.PLP.Chemscore.CHOScore>
0.0000

> <Gold.PLP.Chemscore.Metal>
0.0000

> <Gold.Chemscore.Hbonds>
donor molecule, donor type, donor heavy atom, donor atom, acceptor molecule, acceptor atom, score
      L1  H    10    31       P1  7948  1.00
      P1  H  7997  8009       L1    22  2.00
      P1  H 10752 10764       L1     9  0.33

> <Gold.PLP.Chemscore.Internal.Correction>
0.0235

> <Gold.Rescore>
     Score         DG    S(hbond)    S(metal)    S(lipo)     H(rot)  DE(clash)    DE(int)     intcor
     11.46     -15.71       1.69        0.00      74.24       1.61       0.68       3.58       ----

> <Gold.Chemscore.Fitness>
11.4562

> <Gold.Chemscore.DG>
-15.7128

> <Gold.Chemscore.ZeroCoef>
-5.4800

> <Gold.Chemscore.Hbond>
1.6935

> <Gold.Chemscore.Metal>
0.0000

> <Gold.Chemscore.Lipo>
74.2361

> <Gold.Chemscore.Internal_Hbond>
0.0000

> <Gold.Chemscore.DEClash>
0.6771

> <Gold.Chemscore.DEInternal>
3.5796

> <Gold.Chemscore.Rot>
1.6051

> <Gold.Chemscore.Internal.Correction>
   9.000000E+99

> <Gold.Chemscore.Hbonds>
donor molecule, donor type, donor heavy atom, donor atom, acceptor molecule, acceptor atom, score
      L1  H    10    31       P1  7948  0.44
      P1  H  7997  8009       L1    22  0.27
      P1  H 10752 10764       L1    21  0.11

> <Gold.Chemscore.Hbond.Weighted>
-5.6562

> <Gold.Chemscore.Metal.Weighted>
-0.0000

> <Gold.Chemscore.Lipo.Weighted>
-8.6856

> <Gold.Chemscore.Internal_Hbond.Weighted>
0.0000

> <Gold.Chemscore.DEClash.Weighted>
0.6771

> <Gold.Chemscore.DEInternal.Weighted>
3.5796

> <Gold.Chemscore.Rot.Weighted>
4.1090

> <Gold.Chemscore.Internal.Correction.Weighted>
   9.000000E+99

> <Gold.Protein.RotatedTorsions>
[ 6907 6896 6895 6894 ] final  -48.10 input  -60.11 | X-H torsion
[ 7974 7965 7964 7962 ] final  137.79 input  175.53 | X-H torsion
[ 8008 7997 7996 7995 ] final -174.48 input   59.86 | X-H torsion
[ 10167 10162 10161 10158 ] final  125.03 input  -65.29 | X-H torsion
[ 10718 10713 10712 10709 ] final -131.57 input   66.30 | X-H torsion
[ 10763 10752 10751 10750 ] final  -24.49 input  -60.55 | X-H torsion
[ 11005 11000 10999 10996 ] final  124.50 input  -57.11 | X-H torsion

> <Gold.Protein.ActiveResidues>
 VAL166  LYS551  ARG553  GLY616  TRP617  ASP618  TYR619  PRO620  LYS621  CYS622 
 ASP623  PHE694  ASN695  SER759  ASP760  ASP761  ALA762  ILE779  LEU786  VAL792 
 PHE793  MET794  SER795  GLU796  ALA797  LYS798  CYS799  TRP800  GLU811  SER814 

> <Gold.Protein.RotatedAtoms>
  150.8940  134.8346  159.7312 H   0  0  0  0  0  0  0  0  0  0  0  0  # atno 6907 bound_to 6896
  152.4853  134.4605  159.9613 H   0  0  0  0  0  0  0  0  0  0  0  0  # atno 6908 bound_to 6896
  151.4664  133.3541  159.2852 H   0  0  0  0  0  0  0  0  0  0  0  0  # atno 6909 bound_to 6896
  144.9434  139.4903  143.5561 H   0  0  0  0  0  0  0  0  0  0  0  0  # atno 7974 bound_to 7965
  155.9706  140.1162  157.0816 H   0  0  0  0  0  0  0  0  0  0  0  0  # atno 8008 bound_to 7997
  154.4155  140.1164  156.5369 H   0  0  0  0  0  0  0  0  0  0  0  0  # atno 8009 bound_to 7997
  155.6602  140.3473  155.4782 H   0  0  0  0  0  0  0  0  0  0  0  0  # atno 8010 bound_to 7997
  139.5708  144.6938  151.3783 H   0  0  0  0  0  0  0  0  0  0  0  0  # atno 10167 bound_to 10162
  156.2257  130.7006  151.0805 H   0  0  0  0  0  0  0  0  0  0  0  0  # atno 10718 bound_to 10713
  153.6846  135.6965  153.5108 H   0  0  0  0  0  0  0  0  0  0  0  0  # atno 10763 bound_to 10752
  153.2459  135.4291  155.0746 H   0  0  0  0  0  0  0  0  0  0  0  0  # atno 10764 bound_to 10752
  154.8390  135.3519  154.6389 H   0  0  0  0  0  0  0  0  0  0  0  0  # atno 10765 bound_to 10752
  139.9361  134.9639  156.8418 H   0  0  0  0  0  0  0  0  0  0  0  0  # atno 11005 bound_to 11000
  146.3294  139.8469  142.8880 LP  0  0  0  0  0  0  0  0  0  0  0  0  # atno 17320 bound_to 7965
  145.2955  141.0179  143.3638 LP  0  0  0  0  0  0  0  0  0  0  0  0  # atno 17321 bound_to 7965
  140.6993  143.7672  150.7376 LP  0  0  0  0  0  0  0  0  0  0  0  0  # atno 17342 bound_to 10162
  140.1178  143.4640  152.2331 LP  0  0  0  0  0  0  0  0  0  0  0  0  # atno 17343 bound_to 10162
  157.7109  131.0734  150.6502 LP  0  0  0  0  0  0  0  0  0  0  0  0  # atno 17370 bound_to 10713
  156.6568  130.4500  149.5701 LP  0  0  0  0  0  0  0  0  0  0  0  0  # atno 17371 bound_to 10713
  140.6071  134.0117  155.7561 LP  0  0  0  0  0  0  0  0  0  0  0  0  # atno 17394 bound_to 11000
  141.0976  133.9819  157.3134 LP  0  0  0  0  0  0  0  0  0  0  0  0  # atno 17395 bound_to 11000

$$$$
