AV-unprocessed.smi:753|AV-procd|sdf|3602|dock8
  -GOLD-   22720 0593D 1   1.00000     0.00000
 Structure written by MMmdl.
 43 45  0  0  0  0  0  0  0  0  1 V2000
  143.8391  143.9551  156.6581 C   0  0  0  0  0  0  0  0  0  0  0  0
  144.8867  143.2880  155.7914 C   0  0  0  0  0  0  0  0  0  0  0  0
  145.2178  143.8106  154.5234 C   0  0  0  0  0  0  0  0  0  0  0  0
  146.1993  143.1483  153.7610 C   0  0  0  0  0  0  0  0  0  0  0  0
  146.8091  141.9942  154.2936 C   0  0  0  0  0  0  0  0  0  0  0  0
  147.8654  141.2405  153.5108 C   0  0  0  0  0  0  0  0  0  0  0  0
  149.0607  140.8431  154.3912 C   0  0  0  0  0  0  0  0  0  0  0  0
  149.4142  141.9094  155.3192 N   0  0  0  0  0  0  0  0  0  0  0  0
  149.8802  141.7240  156.5657 C   0  0  0  0  0  0  0  0  0  0  0  0
  150.0412  140.6149  157.0712 O   0  0  0  0  0  0  0  0  0  0  0  0
  150.1649  142.8562  157.2333 N   0  0  0  0  0  0  0  0  0  0  0  0
  150.6841  142.9938  158.5963 C   0  0  1  0  0  0  0  0  0  0  0  0
  152.0217  142.2429  158.7776 C   0  0  0  0  0  0  0  0  0  0  0  0
  152.9787  143.3530  159.2510 C   0  0  2  0  0  0  0  0  0  0  0  0
  152.5910  143.7961  160.6751 C   0  0  0  0  0  0  0  0  0  0  0  0
  151.2822  144.5779  160.4465 C   0  0  0  0  0  0  0  0  0  0  0  0
  151.0798  144.4536  158.9255 C   0  0  1  0  0  0  0  0  0  0  0  0
  152.5155  144.5389  158.4166 C   0  0  0  0  0  0  0  0  0  0  0  0
  146.4050  141.5536  155.5714 C   0  0  0  0  0  0  0  0  0  0  0  0
  145.4650  142.1819  156.3096 N   0  0  0  0  0  0  0  0  0  0  0  0
  143.4537  144.8595  156.1866 H   0  0  0  0  0  0  0  0  0  0  0  0
  144.2646  144.2302  157.6237 H   0  0  0  0  0  0  0  0  0  0  0  0
  143.0026  143.2774  156.8302 H   0  0  0  0  0  0  0  0  0  0  0  0
  144.7328  144.6966  154.1408 H   0  0  0  0  0  0  0  0  0  0  0  0
  146.4757  143.5202  152.7852 H   0  0  0  0  0  0  0  0  0  0  0  0
  147.4115  140.3537  153.0661 H   0  0  0  0  0  0  0  0  0  0  0  0
  148.2017  141.8631  152.6805 H   0  0  0  0  0  0  0  0  0  0  0  0
  148.8149  139.9558  154.9752 H   0  0  0  0  0  0  0  0  0  0  0  0
  149.9220  140.5812  153.7739 H   0  0  0  0  0  0  0  0  0  0  0  0
  149.3102  142.8570  154.9869 H   0  0  0  0  0  0  0  0  0  0  0  0
  149.9851  143.7214  156.7447 H   0  0  0  0  0  0  0  0  0  0  0  0
  149.9458  142.6143  159.3054 H   0  0  0  0  0  0  0  0  0  0  0  0
  151.9444  141.4304  159.5009 H   0  0  0  0  0  0  0  0  0  0  0  0
  152.3733  141.8141  157.8378 H   0  0  0  0  0  0  0  0  0  0  0  0
  154.0330  143.0970  159.1433 H   0  0  0  0  0  0  0  0  0  0  0  0
  152.4584  142.9496  161.3496 H   0  0  0  0  0  0  0  0  0  0  0  0
  153.3555  144.4473  161.1009 H   0  0  0  0  0  0  0  0  0  0  0  0
  150.4457  144.1690  161.0143 H   0  0  0  0  0  0  0  0  0  0  0  0
  151.4046  145.6222  160.7367 H   0  0  0  0  0  0  0  0  0  0  0  0
  150.4036  145.2079  158.5211 H   0  0  0  0  0  0  0  0  0  0  0  0
  153.0138  145.4738  158.6790 H   0  0  0  0  0  0  0  0  0  0  0  0
  152.6059  144.3744  157.3414 H   0  0  0  0  0  0  0  0  0  0  0  0
  146.8447  140.6711  156.0121 H   0  0  0  0  0  0  0  0  0  0  0  0
  1  2  1  0  0  0  0
  1 21  1  0  0  0  0
  1 22  1  0  0  0  0
  1 23  1  0  0  0  0
  2 20  1  0  0  0  0
  2  3  2  0  0  0  0
  3  4  1  0  0  0  0
  3 24  1  0  0  0  0
  4  5  2  0  0  0  0
  4 25  1  0  0  0  0
  5  6  1  0  0  0  0
  5 19  1  0  0  0  0
  6  7  1  0  0  0  0
  6 26  1  0  0  0  0
  6 27  1  0  0  0  0
  7  8  1  0  0  0  0
  7 28  1  0  0  0  0
  7 29  1  0  0  0  0
  8  9  1  0  0  0  0
  8 30  1  0  0  0  0
  9 10  2  0  0  0  0
  9 11  1  0  0  0  0
 11 12  1  0  0  0  0
 11 31  1  0  0  0  0
 12 17  1  0  0  0  0
 12 13  1  0  0  0  0
 12 32  1  0  0  0  0
 13 14  1  0  0  0  0
 13 33  1  0  0  0  0
 13 34  1  0  0  0  0
 14 18  1  0  0  0  0
 14 15  1  0  0  0  0
 14 35  1  0  0  0  0
 15 16  1  0  0  0  0
 15 36  1  0  0  0  0
 15 37  1  0  0  0  0
 16 17  1  0  0  0  0
 16 38  1  0  0  0  0
 16 39  1  0  0  0  0
 17 18  1  0  0  0  0
 17 40  1  0  0  0  0
 18 41  1  0  0  0  0
 18 42  1  0  0  0  0
 19 20  2  0  0  0  0
 19 43  1  0  0  0  0
M  END
> <s_m_source_file>
AV-unprocessed.smi

> <i_m_source_file_index>
753

> <i_lp_mmshare_version>
43012

> <i_f3d_flags>
0

> <s_epik_input>
W0NIM11jMVtjSF1bY0hdYyhbY0hdbjEpW0NIMl1bQ0gyXVtOSF1DKD1PKVtOSF1bQ0BIXShbQ0gyXVtDQEBIXTIzKVtDQEBIXShbQ0gyXTMpW0NIMl1bQ0gyXTI=

> <s_epik_cmdline>
J2VwaWtfcHl0aG9uJywgJy1waCcsICc3LjAnLCAnLXRuJywgJzgnLCAnLW1hJywgJzIwMCcsICctbWV0YWxfYmluZGluZycsICctaW1hZScsICc8aW5maWxlLm1hZT4nLCAnLW9tYWUnLCAnPG91dGZpbGUubWFlPic=

> <r_epik_Ionization_Penalty>
0.0569047

> <r_epik_Ionization_Penalty_Charging>
0

> <r_epik_Ionization_Penalty_Neutral>
0.0569047

> <r_epik_State_Penalty>
0.0490541

> <r_epik_Charging_Adjusted_Penalty>
0.0490541

> <i_epik_Tot_Q>
0

> <i_epik_Tot_abs_Q>
0

> <r_epik_Metal_State_Penalty>
0.0447357

> <b_epik_Metal_Only>
0

> <s_lp_Force_Field>
OPLS_2005

> <r_lp_Energy>
50.3887

> <b_lp_Chiralities_Consistent>
1

> <s_lp_Variant>
AV-unprocessed.smi:753-4

> <Gold.Version>
5.8.1

> <Gold.Id.Protein>
6NUR|6NUR_protein|mol2

> <Gold.PLP.Fitness>
50.6376

> <Gold.PLP.PLP>
-46.1004

> <Gold.PLP.part.hbond>
-2.0000

> <Gold.PLP.part.metal>
0.0000

> <Gold.PLP.part.buried>
-6.8855

> <Gold.PLP.part.nonpolar>
-38.1172

> <Gold.PLP.part.repulsive>
0.2898

> <Gold.PLP.ligand.clash>
0.0000

> <Gold.PLP.ligand.torsion>
0.5143

> <Gold.PLP.Chemscore.Hbond>
1.8480

> <Gold.PLP.Chemscore.CHOScore>
0.0000

> <Gold.PLP.Chemscore.Metal>
0.0000

> <Gold.Chemscore.Hbonds>
donor molecule, donor type, donor heavy atom, donor atom, acceptor molecule, acceptor atom, score
      L1  H     8    30       P1  8028  0.83
      L1  H    11    31       P1  8028  0.99

> <Gold.PLP.Chemscore.Internal.Correction>
0.0219

> <Gold.Rescore>
     Score         DG    S(hbond)    S(metal)    S(lipo)     H(rot)  DE(clash)    DE(int)     intcor
     21.64     -22.05       1.81        0.00     121.15       1.43       0.03       0.37       ----

> <Gold.Chemscore.Fitness>
21.6420

> <Gold.Chemscore.DG>
-22.0460

> <Gold.Chemscore.ZeroCoef>
-5.4800

> <Gold.Chemscore.Hbond>
1.8112

> <Gold.Chemscore.Metal>
0.0000

> <Gold.Chemscore.Lipo>
121.1535

> <Gold.Chemscore.Internal_Hbond>
0.0000

> <Gold.Chemscore.DEClash>
0.0291

> <Gold.Chemscore.DEInternal>
0.3749

> <Gold.Chemscore.Rot>
1.4291

> <Gold.Chemscore.Internal.Correction>
   9.000000E+99

> <Gold.Chemscore.Hbonds>
donor molecule, donor type, donor heavy atom, donor atom, acceptor molecule, acceptor atom, score
      L1  H     8    30       P1  8028  0.79
      L1  H    11    31       P1  8028  0.94

> <Gold.Chemscore.Hbond.Weighted>
-6.0495

> <Gold.Chemscore.Metal.Weighted>
-0.0000

> <Gold.Chemscore.Lipo.Weighted>
-14.1750

> <Gold.Chemscore.Internal_Hbond.Weighted>
0.0000

> <Gold.Chemscore.DEClash.Weighted>
0.0291

> <Gold.Chemscore.DEInternal.Weighted>
0.3749

> <Gold.Chemscore.Rot.Weighted>
3.6585

> <Gold.Chemscore.Internal.Correction.Weighted>
   9.000000E+99

> <Gold.Protein.RotatedTorsions>
[ 6907 6896 6895 6894 ] final  135.77 input  -60.11 | X-H torsion
[ 7974 7965 7964 7962 ] final  163.67 input  175.53 | X-H torsion
[ 8008 7997 7996 7995 ] final -120.05 input   59.86 | X-H torsion
[ 10167 10162 10161 10158 ] final  103.48 input  -65.29 | X-H torsion
[ 10718 10713 10712 10709 ] final  114.65 input   66.30 | X-H torsion
[ 10763 10752 10751 10750 ] final  102.76 input  -60.55 | X-H torsion
[ 11005 11000 10999 10996 ] final  -26.46 input  -57.11 | X-H torsion

> <Gold.Protein.ActiveResidues>
 VAL166  LYS551  ARG553  GLY616  TRP617  ASP618  TYR619  PRO620  LYS621  CYS622 
 ASP623  PHE694  ASN695  SER759  ASP760  ASP761  ALA762  ILE779  LEU786  VAL792 
 PHE793  MET794  SER795  GLU796  ALA797  LYS798  CYS799  TRP800  GLU811  SER814 

> <Gold.Protein.RotatedAtoms>
  152.2968  133.5615  159.5592 H   0  0  0  0  0  0  0  0  0  0  0  0  # atno 6907 bound_to 6896
  150.7259  134.0350  159.3755 H   0  0  0  0  0  0  0  0  0  0  0  0  # atno 6908 bound_to 6896
  151.8252  135.0639  160.0481 H   0  0  0  0  0  0  0  0  0  0  0  0  # atno 6909 bound_to 6896
  144.7579  139.8215  143.6343 H   0  0  0  0  0  0  0  0  0  0  0  0  # atno 7974 bound_to 7965
  155.1256  140.0399  157.2761 H   0  0  0  0  0  0  0  0  0  0  0  0  # atno 8008 bound_to 7997
  154.6581  140.2584  155.7113 H   0  0  0  0  0  0  0  0  0  0  0  0  # atno 8009 bound_to 7997
  156.2607  140.2822  156.1042 H   0  0  0  0  0  0  0  0  0  0  0  0  # atno 8010 bound_to 7997
  139.7259  144.7047  151.0798 H   0  0  0  0  0  0  0  0  0  0  0  0  # atno 10167 bound_to 10162
  157.6269  131.1001  150.7216 H   0  0  0  0  0  0  0  0  0  0  0  0  # atno 10718 bound_to 10713
  153.3438  135.3999  155.1593 H   0  0  0  0  0  0  0  0  0  0  0  0  # atno 10763 bound_to 10752
  154.8649  135.3640  154.5310 H   0  0  0  0  0  0  0  0  0  0  0  0  # atno 10764 bound_to 10752
  153.5757  135.7078  153.5545 H   0  0  0  0  0  0  0  0  0  0  0  0  # atno 10765 bound_to 10752
  140.9031  133.7511  156.0570 H   0  0  0  0  0  0  0  0  0  0  0  0  # atno 11005 bound_to 11000
  146.1611  139.4725  142.9988 LP  0  0  0  0  0  0  0  0  0  0  0  0  # atno 17320 bound_to 7965
  145.6716  141.0215  143.1654 LP  0  0  0  0  0  0  0  0  0  0  0  0  # atno 17321 bound_to 7965
  140.7762  143.5105  150.9658 LP  0  0  0  0  0  0  0  0  0  0  0  0  # atno 17342 bound_to 10162
  139.8793  143.7093  152.3158 LP  0  0  0  0  0  0  0  0  0  0  0  0  # atno 17343 bound_to 10162
  156.7563  130.4784  149.5446 LP  0  0  0  0  0  0  0  0  0  0  0  0  # atno 17370 bound_to 10713
  156.1446  130.6268  151.0514 LP  0  0  0  0  0  0  0  0  0  0  0  0  # atno 17371 bound_to 10713
  140.8205  134.3294  157.5383 LP  0  0  0  0  0  0  0  0  0  0  0  0  # atno 17394 bound_to 11000
  139.8745  134.9306  156.3508 LP  0  0  0  0  0  0  0  0  0  0  0  0  # atno 17395 bound_to 11000

$$$$
