#       Name:                AV-unprocessed.smi:3088
#       Creating user name   scv26
#       Creation time:       Fri Mar 27 17:15:03 2020


#       File generated by GOLD software.
#

@<TRIPOS>MOLECULE
AV-unprocessed.smi:3088
    30    31     1
SMALL
NO_CHARGES


@<TRIPOS>ATOM
      1 ****        -1.4767   4.6575   0.6665 N.4            1 S1                 1.0000
      2 ****        -1.4088   3.1891   0.7619 C.3            1 S1                 0.0000
      3 ****         0.0043   2.7147   1.1309 C.3            1 S1                 0.0000
      4 ****         0.0948   1.2216   1.2416 C.2            1 S1                 0.0000
      5 ****         0.2130   0.5552   2.4369 C.2            1 S1                 0.0000
      6 ****         0.2913  -1.1699   2.2326 S.3            1 S1                 0.0000
      7 ****         0.1734  -0.9752   0.5087 C.2            1 S1                 0.0000
      8 ****         0.1564  -1.9561  -0.4103 N.pl3          1 S1                 0.0000
      9 ****         0.4829  -3.3193  -0.0263 C.3            1 S1                 0.0000
     10 ****         0.6235  -4.0704  -1.3493 C.3            1 S1                 0.0000
     11 ****         1.1719  -3.0021  -2.2950 C.3            1 S1                 0.0000
     12 ****         0.5364  -1.7000  -1.7941 C.3            1 S1                 0.0000
     13 ****         0.0714   0.3222   0.1783 N.pl3          1 S1                 1.0000
     14 ****        -2.4178   4.9374   0.4286 H              1 S1                 0.0000
     15 ****        -0.8407   4.9814  -0.0482 H              1 S1                 0.0000
     16 ****        -2.1285   2.8542   1.5097 H              1 S1                 0.0000
     17 ****        -1.7150   2.7638  -0.1945 H              1 S1                 0.0000
     18 ****         0.7129   3.0678   0.3806 H              1 S1                 0.0000
     19 ****         0.3092   3.1794   2.0699 H              1 S1                 0.0000
     20 ****         0.2579   0.9760   3.4309 H              1 S1                 0.0000
     21 ****         1.4265  -3.3315   0.5213 H              1 S1                 0.0000
     22 ****        -0.2906  -3.7571   0.6057 H              1 S1                 0.0000
     23 ****         1.2673  -4.9470  -1.2734 H              1 S1                 0.0000
     24 ****        -0.3573  -4.4002  -1.6951 H              1 S1                 0.0000
     25 ****         2.2560  -2.9445  -2.1876 H              1 S1                 0.0000
     26 ****         0.9507  -3.2059  -3.3431 H              1 S1                 0.0000
     27 ****        -0.3626  -1.4663  -2.3651 H              1 S1                 0.0000
     28 ****         1.2304  -0.8644  -1.8929 H              1 S1                 0.0000
     29 ****        -1.2208   5.0665   1.5538 H              1 S1                 0.0000
     30 ****        -0.0127   0.6236  -0.7843 H              1 S1                 0.0000
@<TRIPOS>BOND
    1    1    2 1     
    2    1   14 1     
    3    1   15 1     
    4    1   29 1     
    5    2    3 1     
    6    2   16 1     
    7    2   17 1     
    8    3    4 1     
    9    3   18 1     
   10    3   19 1     
   11    4   13 1     
   12    4    5 2     
   13    5    6 1     
   14    5   20 1     
   15    6    7 1     
   16    7    8 1     
   17    7   13 2     
   18    8   12 1     
   19    8    9 1     
   20    9   10 1     
   21    9   21 1     
   22    9   22 1     
   23   10   11 1     
   24   10   23 1     
   25   10   24 1     
   26   11   12 1     
   27   11   25 1     
   28   11   26 1     
   29   12   27 1     
   30   12   28 1     
   31   13   30 1     
@<TRIPOS>SUBSTRUCTURE
      1 S1             1
@<TRIPOS>SET
DONOR_HYDROGENS      STATIC     ATOMS    <user>   **** ""
4 14 15 29 30
ATOM$RED        STATIC     ATOMS    COLORGROUP SYSTEM
4 14 15 29 30
