AV-unprocessed.smi:862|AV-procd|sdf|3982|dock6
  -GOLD-   22720 1463D 1   1.00000     0.00000
 Structure written by MMmdl.
 45 47  0  0  0  0  0  0  0  0  3 V2000
  149.3649  130.6021  156.9619 N   0  0  0  0  0  0  0  0  0  0  0  0
  149.8414  131.8244  156.7071 C   0  0  0  0  0  0  0  0  0  0  0  0
  150.0866  132.6120  157.6188 O   0  0  0  0  0  0  0  0  0  0  0  0
  150.0762  132.0921  155.3979 N   0  0  0  0  0  0  0  0  0  0  0  0
  149.7686  131.2040  154.2651 C   0  0  0  0  0  0  0  0  0  0  0  0
  148.5098  131.7270  153.5477 C   0  0  0  0  0  0  0  0  0  0  0  0
  148.6903  133.1958  153.0944 C   0  0  0  0  0  0  0  0  0  0  0  0
  147.4368  133.7697  152.5521 N   0  3  0  0  0  0  0  0  0  0  0  0
  146.5837  132.8594  151.7495 C   0  0  2  0  0  0  0  0  0  0  0  0
  146.8428  132.9276  150.2401 C   0  0  0  0  0  0  0  0  0  0  0  0
  145.5607  132.3888  149.5907 C   0  0  0  0  0  0  0  0  0  0  0  0
  144.4687  132.4182  150.6749 C   0  0  0  0  0  0  0  0  0  0  0  0
  145.0743  133.1352  151.8933 C   0  0  2  0  0  0  0  0  0  0  0  0
  144.7242  134.5721  151.9214 N   0  0  0  0  0  0  0  0  0  0  0  0
  144.0769  135.2800  152.9065 C   0  0  0  0  0  0  0  0  0  0  0  0
  143.9732  136.5726  152.4623 C   0  0  0  0  0  0  0  0  0  0  0  0
  144.5530  136.6035  151.2237 N   0  3  0  0  0  0  0  0  0  0  0  0
  145.0059  135.3892  150.8959 C   0  0  0  0  0  0  0  0  0  0  0  0
  149.1965  134.0704  154.2601 C   0  0  0  0  0  0  0  0  0  0  0  0
  150.4269  133.4401  154.9356 C   0  0  0  0  0  0  0  0  0  0  0  0
  149.1796  130.3281  157.9160 H   0  0  0  0  0  0  0  0  0  0  0  0
  149.2045  129.9530  156.2059 H   0  0  0  0  0  0  0  0  0  0  0  0
  150.6147  131.1977  153.5762 H   0  0  0  0  0  0  0  0  0  0  0  0
  149.6213  130.1625  154.5503 H   0  0  0  0  0  0  0  0  0  0  0  0
  148.2973  131.0837  152.6940 H   0  0  0  0  0  0  0  0  0  0  0  0
  147.6533  131.6474  154.2188 H   0  0  0  0  0  0  0  0  0  0  0  0
  149.4535  133.2257  152.3159 H   0  0  0  0  0  0  0  0  0  0  0  0
  146.8949  134.1169  153.3307 H   0  0  0  0  0  0  0  0  0  0  0  0
  146.7535  131.8347  152.0810 H   0  0  0  0  0  0  0  0  0  0  0  0
  147.0088  133.9596  149.9287 H   0  0  0  0  0  0  0  0  0  0  0  0
  147.7208  132.3529  149.9429 H   0  0  0  0  0  0  0  0  0  0  0  0
  145.2822  132.9919  148.7261 H   0  0  0  0  0  0  0  0  0  0  0  0
  145.7074  131.3677  149.2365 H   0  0  0  0  0  0  0  0  0  0  0  0
  143.5466  132.8830  150.3235 H   0  0  0  0  0  0  0  0  0  0  0  0
  144.2163  131.3933  150.9506 H   0  0  0  0  0  0  0  0  0  0  0  0
  144.6926  132.6914  152.8147 H   0  0  0  0  0  0  0  0  0  0  0  0
  143.7498  134.8322  153.8336 H   0  0  0  0  0  0  0  0  0  0  0  0
  143.5419  137.4496  152.9232 H   0  0  0  0  0  0  0  0  0  0  0  0
  145.5061  135.1249  149.9812 H   0  0  0  0  0  0  0  0  0  0  0  0
  149.4450  135.0692  153.8994 H   0  0  0  0  0  0  0  0  0  0  0  0
  148.4064  134.1973  155.0024 H   0  0  0  0  0  0  0  0  0  0  0  0
  150.7805  134.0805  155.7452 H   0  0  0  0  0  0  0  0  0  0  0  0
  151.2548  133.3767  154.2281 H   0  0  0  0  0  0  0  0  0  0  0  0
  147.6868  134.5516  151.9638 H   0  0  0  0  0  0  0  0  0  0  0  0
  144.6334  137.4273  150.6401 H   0  0  0  0  0  0  0  0  0  0  0  0
  1  2  1  0  0  0  0
  1 21  1  0  0  0  0
  1 22  1  0  0  0  0
  2  3  2  0  0  0  0
  2  4  1  0  0  0  0
  4 20  1  0  0  0  0
  4  5  1  0  0  0  0
  5  6  1  0  0  0  0
  5 23  1  0  0  0  0
  5 24  1  0  0  0  0
  6  7  1  0  0  0  0
  6 25  1  0  0  0  0
  6 26  1  0  0  0  0
  7  8  1  0  0  0  0
  7 19  1  0  0  0  0
  7 27  1  0  0  0  0
  8  9  1  0  0  0  0
  8 28  1  0  0  0  0
  8 44  1  0  0  0  0
  9 13  1  0  0  0  0
  9 10  1  0  0  0  0
  9 29  1  0  0  0  0
 10 11  1  0  0  0  0
 10 30  1  0  0  0  0
 10 31  1  0  0  0  0
 11 12  1  0  0  0  0
 11 32  1  0  0  0  0
 11 33  1  0  0  0  0
 12 13  1  0  0  0  0
 12 34  1  0  0  0  0
 12 35  1  0  0  0  0
 13 14  1  0  0  0  0
 13 36  1  0  0  0  0
 14 18  1  0  0  0  0
 14 15  1  0  0  0  0
 15 16  2  0  0  0  0
 15 37  1  0  0  0  0
 16 17  1  0  0  0  0
 16 38  1  0  0  0  0
 17 18  2  0  0  0  0
 17 45  1  0  0  0  0
 18 39  1  0  0  0  0
 19 20  1  0  0  0  0
 19 40  1  0  0  0  0
 19 41  1  0  0  0  0
 20 42  1  0  0  0  0
 20 43  1  0  0  0  0
M  CHG  1   8   1
M  CHG  1  17   1
M  END
> <s_m_source_file>
AV-unprocessed.smi

> <i_m_source_file_index>
862

> <i_lp_mmshare_version>
43012

> <i_f3d_flags>
0

> <s_epik_input>
W05IMl1DKD1PKU4xW0NIMl1bQ0gyXVtDSF0oW0NIMl1bQ0gyXTEpW05IXVtDQEBIXTJbQ0gyXVtDSDJdW0NIMl1bQ0BIXTJuM1tjSF1bY0hdbltjSF0z

> <s_epik_cmdline>
J2VwaWtfcHl0aG9uJywgJy1waCcsICc3LjAnLCAnLXRuJywgJzgnLCAnLW1hJywgJzIwMCcsICctbWV0YWxfYmluZGluZycsICctaW1hZScsICc8aW5maWxlLm1hZT4nLCAnLW9tYWUnLCAnPG91dGZpbGUubWFlPic=

> <r_lp_tautomer_probability>
1

> <r_epik_Ionization_Penalty>
1.30217

> <r_epik_Ionization_Penalty_Charging>
0.00439521

> <r_epik_Ionization_Penalty_Neutral>
1.29777

> <r_epik_State_Penalty>
0.977606

> <r_epik_Charging_Adjusted_Penalty>
0.982001

> <i_epik_Tot_Q>
2

> <i_epik_Tot_abs_Q>
2

> <r_epik_Metal_State_Penalty>
1.03289

> <b_epik_Metal_Only>
0

> <s_lp_Force_Field>
OPLS_2005

> <r_lp_Energy>
66.0454

> <b_lp_Chiralities_Consistent>
1

> <s_lp_Variant>
AV-unprocessed.smi:862-7

> <Gold.Version>
5.8.1

> <Gold.Id.Protein>
6NUR|6NUR_protein|mol2

> <Gold.PLP.Fitness>
50.1278

> <Gold.PLP.PLP>
-37.2898

> <Gold.PLP.part.hbond>
-2.8808

> <Gold.PLP.part.metal>
0.0000

> <Gold.PLP.part.buried>
-1.1973

> <Gold.PLP.part.nonpolar>
-30.3594

> <Gold.PLP.part.repulsive>
0.0552

> <Gold.PLP.ligand.clash>
0.0000

> <Gold.PLP.ligand.torsion>
0.6838

> <Gold.PLP.Chemscore.Hbond>
3.7080

> <Gold.PLP.Chemscore.CHOScore>
1.0000

> <Gold.PLP.Chemscore.Metal>
0.0000

> <Gold.Chemscore.Hbonds>
donor molecule, donor type, donor heavy atom, donor atom, acceptor molecule, acceptor atom, score
      L1  H     8    44       P1  7948  1.63
      L1  H    17    45       P1 10171  0.94
      P1  H  6896  6907       L1     3  0.91
      L1  C    18    39       P1  7921  1.00

> <Gold.PLP.Chemscore.Internal.Correction>
0.0817

> <Gold.Rescore>
     Score         DG    S(hbond)    S(metal)    S(lipo)     H(rot)  DE(clash)    DE(int)     intcor
     17.84     -18.59       2.66        0.00      72.83       1.68       0.03       0.72       ----

> <Gold.Chemscore.Fitness>
17.8424

> <Gold.Chemscore.DG>
-18.5948

> <Gold.Chemscore.ZeroCoef>
-5.4800

> <Gold.Chemscore.Hbond>
2.6641

> <Gold.Chemscore.Metal>
0.0000

> <Gold.Chemscore.Lipo>
72.8291

> <Gold.Chemscore.Internal_Hbond>
0.0000

> <Gold.Chemscore.DEClash>
0.0289

> <Gold.Chemscore.DEInternal>
0.7236

> <Gold.Chemscore.Rot>
1.6814

> <Gold.Chemscore.Internal.Correction>
   9.000000E+99

> <Gold.Chemscore.Hbonds>
donor molecule, donor type, donor heavy atom, donor atom, acceptor molecule, acceptor atom, score
      L1  H     8    44       P1  7948  0.30
      L1  H    17    45       P1 10171  0.90
      P1  H  6896  6907       L1     3  0.87

> <Gold.Chemscore.Hbond.Weighted>
-8.8981

> <Gold.Chemscore.Metal.Weighted>
-0.0000

> <Gold.Chemscore.Lipo.Weighted>
-8.5210

> <Gold.Chemscore.Internal_Hbond.Weighted>
0.0000

> <Gold.Chemscore.DEClash.Weighted>
0.0289

> <Gold.Chemscore.DEInternal.Weighted>
0.7236

> <Gold.Chemscore.Rot.Weighted>
4.3043

> <Gold.Chemscore.Internal.Correction.Weighted>
   9.000000E+99

> <Gold.Protein.RotatedTorsions>
[ 6907 6896 6895 6894 ] final -143.92 input  -60.11 | X-H torsion
[ 7974 7965 7964 7962 ] final  -77.40 input  175.53 | X-H torsion
[ 8008 7997 7996 7995 ] final  -97.55 input   59.86 | X-H torsion
[ 10167 10162 10161 10158 ] final  -65.67 input  -65.29 | X-H torsion
[ 10718 10713 10712 10709 ] final  -59.66 input   66.30 | X-H torsion
[ 10763 10752 10751 10750 ] final   97.88 input  -60.55 | X-H torsion
[ 11005 11000 10999 10996 ] final  -77.81 input  -57.11 | X-H torsion

> <Gold.Protein.ActiveResidues>
 VAL166  LYS551  ARG553  GLY616  TRP617  ASP618  TYR619  PRO620  LYS621  CYS622 
 ASP623  PHE694  ASN695  SER759  ASP760  ASP761  ALA762  ILE779  LEU786  VAL792 
 PHE793  MET794  SER795  GLU796  ALA797  LYS798  CYS799  TRP800  GLU811  SER814 

> <Gold.Protein.RotatedAtoms>
  151.1070  133.5201  159.2607 H   0  0  0  0  0  0  0  0  0  0  0  0  # atno 6907 bound_to 6896
  151.2010  135.0442  159.8882 H   0  0  0  0  0  0  0  0  0  0  0  0  # atno 6908 bound_to 6896
  152.5447  134.0898  159.8325 H   0  0  0  0  0  0  0  0  0  0  0  0  # atno 6909 bound_to 6896
  145.6002  140.9410  143.1245 H   0  0  0  0  0  0  0  0  0  0  0  0  # atno 7974 bound_to 7965
  154.7893  140.0462  157.1188 H   0  0  0  0  0  0  0  0  0  0  0  0  # atno 8008 bound_to 7997
  154.9611  140.3077  155.5011 H   0  0  0  0  0  0  0  0  0  0  0  0  # atno 8009 bound_to 7997
  156.2947  140.2270  156.4696 H   0  0  0  0  0  0  0  0  0  0  0  0  # atno 8010 bound_to 7997
  140.5713  143.2318  151.6533 H   0  0  0  0  0  0  0  0  0  0  0  0  # atno 10167 bound_to 10162
  156.1046  130.4182  150.0745 H   0  0  0  0  0  0  0  0  0  0  0  0  # atno 10718 bound_to 10713
  153.2823  135.4167  155.1090 H   0  0  0  0  0  0  0  0  0  0  0  0  # atno 10763 bound_to 10752
  154.8493  135.3498  154.6095 H   0  0  0  0  0  0  0  0  0  0  0  0  # atno 10764 bound_to 10752
  153.6516  135.7052  153.5265 H   0  0  0  0  0  0  0  0  0  0  0  0  # atno 10765 bound_to 10752
  141.1662  133.7038  156.7877 H   0  0  0  0  0  0  0  0  0  0  0  0  # atno 11005 bound_to 11000
  144.7313  139.7717  143.7346 LP  0  0  0  0  0  0  0  0  0  0  0  0  # atno 17320 bound_to 7965
  146.1582  139.4687  143.0005 LP  0  0  0  0  0  0  0  0  0  0  0  0  # atno 17321 bound_to 7965
  139.5119  144.3495  152.0666 LP  0  0  0  0  0  0  0  0  0  0  0  0  # atno 17342 bound_to 10162
  140.2632  144.4044  150.6178 LP  0  0  0  0  0  0  0  0  0  0  0  0  # atno 17343 bound_to 10162
  156.8724  130.9529  151.3608 LP  0  0  0  0  0  0  0  0  0  0  0  0  # atno 17370 bound_to 10713
  157.6221  130.8663  149.9126 LP  0  0  0  0  0  0  0  0  0  0  0  0  # atno 17371 bound_to 10713
  140.2348  134.8658  157.3513 LP  0  0  0  0  0  0  0  0  0  0  0  0  # atno 17394 bound_to 11000
  140.1855  134.4437  155.7746 LP  0  0  0  0  0  0  0  0  0  0  0  0  # atno 17395 bound_to 11000

$$$$
