AV-unprocessed.smi:2866|AV-procd|sdf|11020|dock3
  -GOLD-   2272015483D 1   1.00000     0.00000
 Structure written by MMmdl.
 41 43  0  0  0  0  0  0  0  0  1 V2000
  152.0726  144.5135  160.2839 C   0  0  0  0  0  0  0  0  0  0  0  0
  152.7715  143.2051  160.6088 C   0  0  0  0  0  0  0  0  0  0  0  0
  153.1012  142.3224  159.5558 C   0  0  0  0  0  0  0  0  0  0  0  0
  153.7568  141.0989  159.8149 C   0  0  0  0  0  0  0  0  0  0  0  0
  154.1736  140.1016  158.9498 N   0  0  0  0  0  0  0  0  0  0  0  0
  154.7195  139.2281  159.7909 C   0  0  0  0  0  0  0  0  0  0  0  0
  154.7052  139.5414  161.1006 N   0  0  0  0  0  0  0  0  0  0  0  0
  155.2415  138.7483  162.1922 C   0  0  0  0  0  0  0  0  0  0  0  0
  154.1383  138.0106  162.9806 C   0  0  1  0  0  0  0  0  0  0  0  0
  153.4977  137.0664  162.1455 O   0  0  0  0  0  0  0  0  0  0  0  0
  154.6624  137.2697  164.2268 C   0  0  0  0  0  0  0  0  0  0  0  0
  154.8864  135.8541  163.9932 N   0  0  0  0  0  0  0  0  0  0  0  0
  155.7090  135.2585  163.0620 C   0  0  0  0  0  0  0  0  0  0  0  0
  155.5781  133.9078  163.2108 C   0  0  0  0  0  0  0  0  0  0  0  0
  154.6338  133.7647  164.2688 C   0  0  0  0  0  0  0  0  0  0  0  0
  154.0941  132.4958  164.8747 C   0  0  0  0  0  0  0  0  0  0  0  0
  155.0820  131.7894  165.4243 F   0  0  0  0  0  0  0  0  0  0  0  0
  153.1997  132.7884  165.8188 F   0  0  0  0  0  0  0  0  0  0  0  0
  153.5080  131.7548  163.9343 F   0  0  0  0  0  0  0  0  0  0  0  0
  154.2214  134.9382  164.7292 N   0  0  0  0  0  0  0  0  0  0  0  0
  154.0732  140.7784  161.1674 C   0  0  0  0  0  0  0  0  0  0  0  0
  153.7477  141.6470  162.2239 C   0  0  0  0  0  0  0  0  0  0  0  0
  153.0958  142.8671  161.9474 C   0  0  0  0  0  0  0  0  0  0  0  0
  152.7544  143.8010  163.0949 C   0  0  0  0  0  0  0  0  0  0  0  0
  151.8877  144.6105  159.2138 H   0  0  0  0  0  0  0  0  0  0  0  0
  152.6842  145.3603  160.5961 H   0  0  0  0  0  0  0  0  0  0  0  0
  151.1118  144.5719  160.7957 H   0  0  0  0  0  0  0  0  0  0  0  0
  152.8551  142.5794  158.5360 H   0  0  0  0  0  0  0  0  0  0  0  0
  155.1582  138.3071  159.4351 H   0  0  0  0  0  0  0  0  0  0  0  0
  155.9633  138.0381  161.7871 H   0  0  0  0  0  0  0  0  0  0  0  0
  155.8002  139.4173  162.8478 H   0  0  0  0  0  0  0  0  0  0  0  0
  153.3828  138.7336  163.2909 H   0  0  0  0  0  0  0  0  0  0  0  0
  153.6095  136.2075  162.5240 H   0  0  0  0  0  0  0  0  0  0  0  0
  155.6010  137.7118  164.5644 H   0  0  0  0  0  0  0  0  0  0  0  0
  153.9546  137.3732  165.0506 H   0  0  0  0  0  0  0  0  0  0  0  0
  156.3136  135.8381  162.3799 H   0  0  0  0  0  0  0  0  0  0  0  0
  156.0800  133.1357  162.6465 H   0  0  0  0  0  0  0  0  0  0  0  0
  154.0024  141.3779  163.2384 H   0  0  0  0  0  0  0  0  0  0  0  0
  153.0739  143.3885  164.0524 H   0  0  0  0  0  0  0  0  0  0  0  0
  151.6782  143.9682  163.1453 H   0  0  0  0  0  0  0  0  0  0  0  0
  153.2490  144.7637  162.9638 H   0  0  0  0  0  0  0  0  0  0  0  0
  1  2  1  0  0  0  0
  1 25  1  0  0  0  0
  1 26  1  0  0  0  0
  1 27  1  0  0  0  0
  2 23  1  0  0  0  0
  2  3  2  0  0  0  0
  3  4  1  0  0  0  0
  3 28  1  0  0  0  0
  4 21  2  0  0  0  0
  4  5  1  0  0  0  0
  5  6  2  0  0  0  0
  6  7  1  0  0  0  0
  6 29  1  0  0  0  0
  7  8  1  0  0  0  0
  7 21  1  0  0  0  0
  8  9  1  0  0  0  0
  8 30  1  0  0  0  0
  8 31  1  0  0  0  0
  9 10  1  0  0  0  0
  9 11  1  0  0  0  0
  9 32  1  0  0  0  0
 10 33  1  0  0  0  0
 11 12  1  0  0  0  0
 11 34  1  0  0  0  0
 11 35  1  0  0  0  0
 12 20  1  0  0  0  0
 12 13  1  0  0  0  0
 13 14  2  0  0  0  0
 13 36  1  0  0  0  0
 14 15  1  0  0  0  0
 14 37  1  0  0  0  0
 15 16  1  0  0  0  0
 15 20  2  0  0  0  0
 16 17  1  0  0  0  0
 16 18  1  0  0  0  0
 16 19  1  0  0  0  0
 21 22  1  0  0  0  0
 22 23  2  0  0  0  0
 22 38  1  0  0  0  0
 23 24  1  0  0  0  0
 24 39  1  0  0  0  0
 24 40  1  0  0  0  0
 24 41  1  0  0  0  0
M  END
> <s_m_source_file>
AV-unprocessed.smi

> <i_m_source_file_index>
2866

> <i_lp_mmshare_version>
43012

> <i_f3d_flags>
0

> <s_epik_input>
W0NIM11jKFtjSF0xKWMoW0NIM10pW2NIXWMoYzEyKW4oW2NIXW4yKVtDSDJdW0NASF0oW09IXSlbQ0gyXW4zW2NIXVtjSF1jKG4zKUMoRikoRilG

> <s_epik_cmdline>
J2VwaWtfcHl0aG9uJywgJy1waCcsICc3LjAnLCAnLXRuJywgJzgnLCAnLW1hJywgJzIwMCcsICctbWV0YWxfYmluZGluZycsICctaW1hZScsICc8aW5maWxlLm1hZT4nLCAnLW9tYWUnLCAnPG91dGZpbGUubWFlPic=

> <r_lp_tautomer_probability>
1

> <r_epik_Ionization_Penalty>
0.1021

> <r_epik_Ionization_Penalty_Charging>
0

> <r_epik_Ionization_Penalty_Neutral>
0.1021

> <r_epik_State_Penalty>
0.0920694

> <r_epik_Charging_Adjusted_Penalty>
0.0920694

> <i_epik_Tot_Q>
0

> <i_epik_Tot_abs_Q>
0

> <r_epik_Metal_State_Penalty>
0.0784291

> <b_epik_Metal_Only>
0

> <s_lp_Force_Field>
OPLS_2005

> <r_lp_Energy>
10.7654

> <b_lp_Chiralities_Consistent>
1

> <s_lp_Variant>
AV-unprocessed.smi:2866-2

> <Gold.Version>
5.8.1

> <Gold.Id.Protein>
6NUR|6NUR_protein|mol2

> <Gold.PLP.Fitness>
51.8109

> <Gold.PLP.PLP>
-50.3186

> <Gold.PLP.part.hbond>
-1.0000

> <Gold.PLP.part.metal>
0.0000

> <Gold.PLP.part.buried>
-3.1365

> <Gold.PLP.part.nonpolar>
-46.1050

> <Gold.PLP.part.repulsive>
0.0950

> <Gold.PLP.ligand.clash>
0.0080

> <Gold.PLP.ligand.torsion>
0.7627

> <Gold.PLP.Chemscore.Hbond>
0.9920

> <Gold.PLP.Chemscore.CHOScore>
0.0000

> <Gold.PLP.Chemscore.Metal>
0.0000

> <Gold.Chemscore.Hbonds>
donor molecule, donor type, donor heavy atom, donor atom, acceptor molecule, acceptor atom, score
      P1  H  7997  8009       L1     5  0.96

> <Gold.PLP.Chemscore.Internal.Correction>
0.0497

> <Gold.Rescore>
     Score         DG    S(hbond)    S(metal)    S(lipo)     H(rot)  DE(clash)    DE(int)     intcor
     16.57     -17.53       0.94        0.00     129.23       2.42       0.16       0.80       ----

> <Gold.Chemscore.Fitness>
16.5653

> <Gold.Chemscore.DG>
-17.5315

> <Gold.Chemscore.ZeroCoef>
-5.4800

> <Gold.Chemscore.Hbond>
0.9393

> <Gold.Chemscore.Metal>
0.0000

> <Gold.Chemscore.Lipo>
129.2337

> <Gold.Chemscore.Internal_Hbond>
0.0000

> <Gold.Chemscore.DEClash>
0.1617

> <Gold.Chemscore.DEInternal>
0.8045

> <Gold.Chemscore.Rot>
2.4243

> <Gold.Chemscore.Internal.Correction>
   9.000000E+99

> <Gold.Chemscore.Hbonds>
donor molecule, donor type, donor heavy atom, donor atom, acceptor molecule, acceptor atom, score
      P1  H  7997  8009       L1     5  0.84

> <Gold.Chemscore.Hbond.Weighted>
-3.1374

> <Gold.Chemscore.Metal.Weighted>
-0.0000

> <Gold.Chemscore.Lipo.Weighted>
-15.1203

> <Gold.Chemscore.Internal_Hbond.Weighted>
0.0000

> <Gold.Chemscore.DEClash.Weighted>
0.1617

> <Gold.Chemscore.DEInternal.Weighted>
0.8045

> <Gold.Chemscore.Rot.Weighted>
6.2063

> <Gold.Chemscore.Internal.Correction.Weighted>
   9.000000E+99

> <Gold.Protein.RotatedTorsions>
[ 6907 6896 6895 6894 ] final  113.65 input  -60.11 | X-H torsion
[ 7974 7965 7964 7962 ] final  -39.00 input  175.53 | X-H torsion
[ 8008 7997 7996 7995 ] final  136.65 input   59.86 | X-H torsion
[ 10167 10162 10161 10158 ] final -146.23 input  -65.29 | X-H torsion
[ 10718 10713 10712 10709 ] final  -74.17 input   66.30 | X-H torsion
[ 10763 10752 10751 10750 ] final   -7.53 input  -60.55 | X-H torsion
[ 11005 11000 10999 10996 ] final  -11.93 input  -57.11 | X-H torsion

> <Gold.Protein.ActiveResidues>
 VAL166  LYS551  ARG553  GLY616  TRP617  ASP618  TYR619  PRO620  LYS621  CYS622 
 ASP623  PHE694  ASN695  SER759  ASP760  ASP761  ALA762  ILE779  LEU786  VAL792 
 PHE793  MET794  SER795  GLU796  ALA797  LYS798  CYS799  TRP800  GLU811  SER814 

> <Gold.Protein.RotatedAtoms>
  152.4849  133.8346  159.7120 H   0  0  0  0  0  0  0  0  0  0  0  0  # atno 6907 bound_to 6896
  150.8927  133.7213  159.2907 H   0  0  0  0  0  0  0  0  0  0  0  0  # atno 6908 bound_to 6896
  151.4680  135.1047  159.9796 H   0  0  0  0  0  0  0  0  0  0  0  0  # atno 6909 bound_to 6896
  146.0436  140.6576  142.9075 H   0  0  0  0  0  0  0  0  0  0  0  0  # atno 7974 bound_to 7965
  156.3004  140.2439  156.3781 H   0  0  0  0  0  0  0  0  0  0  0  0  # atno 8008 bound_to 7997
  154.8727  140.0415  157.1754 H   0  0  0  0  0  0  0  0  0  0  0  0  # atno 8009 bound_to 7997
  154.8779  140.2945  155.5446 H   0  0  0  0  0  0  0  0  0  0  0  0  # atno 8010 bound_to 7997
  139.7732  143.8207  152.2628 H   0  0  0  0  0  0  0  0  0  0  0  0  # atno 10167 bound_to 10162
  156.0252  130.4411  150.2852 H   0  0  0  0  0  0  0  0  0  0  0  0  # atno 10718 bound_to 10713
  153.4276  135.7011  153.6252 H   0  0  0  0  0  0  0  0  0  0  0  0  # atno 10763 bound_to 10752
  153.4680  135.3721  155.2376 H   0  0  0  0  0  0  0  0  0  0  0  0  # atno 10764 bound_to 10752
  154.8724  135.4036  154.3654 H   0  0  0  0  0  0  0  0  0  0  0  0  # atno 10765 bound_to 10752
  140.7604  133.8519  155.9120 H   0  0  0  0  0  0  0  0  0  0  0  0  # atno 11005 bound_to 11000
  144.7086  140.3952  143.7098 LP  0  0  0  0  0  0  0  0  0  0  0  0  # atno 17320 bound_to 7965
  145.6844  139.1625  143.2682 LP  0  0  0  0  0  0  0  0  0  0  0  0  # atno 17321 bound_to 7965
  139.8248  144.7280  150.9526 LP  0  0  0  0  0  0  0  0  0  0  0  0  # atno 17342 bound_to 10162
  140.7815  143.4125  151.0970 LP  0  0  0  0  0  0  0  0  0  0  0  0  # atno 17343 bound_to 10162
  157.0956  131.0181  151.3105 LP  0  0  0  0  0  0  0  0  0  0  0  0  # atno 17370 bound_to 10713
  157.4820  130.7771  149.7423 LP  0  0  0  0  0  0  0  0  0  0  0  0  # atno 17371 bound_to 10713
  140.9668  134.1584  157.4609 LP  0  0  0  0  0  0  0  0  0  0  0  0  # atno 17394 bound_to 11000
  139.8772  134.9964  156.5795 LP  0  0  0  0  0  0  0  0  0  0  0  0  # atno 17395 bound_to 11000

$$$$
