#       Name:                AV-unprocessed.smi:2013
#       Creating user name   scv26
#       Creation time:       Fri Mar 27 10:40:05 2020


#       File generated by GOLD software.
#

@<TRIPOS>MOLECULE
AV-unprocessed.smi:2013
    59    60     1
SMALL
NO_CHARGES


@<TRIPOS>ATOM
      1 ****        -2.0763   3.7315   1.6533 C.3            1 S1                 0.0000
      2 ****        -2.5023   2.9467   0.3979 C.3            1 S1                 0.0000
      3 ****        -4.0379   3.0067   0.2704 C.3            1 S1                 0.0000
      4 ****        -1.9759   1.4819   0.3868 C.3            1 S1                 0.0000
      5 ****        -0.4353   1.3973   0.5832 C.3            1 S1                 0.0000
      6 ****         0.0644   0.0265   0.6005 N.am           1 S1                 0.0000
      7 ****         1.2556  -0.3701   0.1298 C.2            1 S1                 0.0000
      8 ****         2.0704   0.3982  -0.3825 O.2            1 S1                 0.0000
      9 ****         1.5510  -1.8724   0.2284 C.3            1 S1                 0.0000
     10 ****         2.9843  -2.1672   0.3509 N.am           1 S1                 0.0000
     11 ****         3.7048  -2.5396  -0.7698 C.2            1 S1                 0.0000
     12 ****         5.0260  -2.8191  -0.7470 C.2            1 S1                 0.0000
     13 ****         5.7834  -2.7439   0.4957 C.2            1 S1                 0.0000
     14 ****         6.9893  -2.9847   0.5708 O.2            1 S1                 0.0000
     15 ****         5.0243  -2.3664   1.6267 N.am           1 S1                 0.0000
     16 ****         5.7408  -2.2822   2.8824 C.3            1 S1                 0.0000
     17 ****         3.6421  -2.0663   1.5967 C.2            1 S1                 0.0000
     18 ****         3.0161  -1.7266   2.6033 O.2            1 S1                 0.0000
     19 ****        -2.4722   0.7771  -0.8378 N.4            1 S1                 1.0000
     20 ****        -1.6925   0.9908  -2.0829 C.3            1 S1                 0.0000
     21 ****        -2.4504   0.4009  -3.2833 C.3            1 S1                 0.0000
     22 ****        -2.7092  -0.9792  -3.0521 O.3            1 S1                 0.0000
     23 ****        -3.5299  -1.1862  -1.9083 C.3            1 S1                 0.0000
     24 ****        -2.8139  -0.6554  -0.6551 C.3            1 S1                 0.0000
     25 ****        -2.3764   3.2159   2.5660 H              1 S1                 0.0000
     26 ****        -2.5318   4.7221   1.6697 H              1 S1                 0.0000
     27 ****        -0.9987   3.8885   1.6907 H              1 S1                 0.0000
     28 ****        -2.0837   3.4722  -0.4611 H              1 S1                 0.0000
     29 ****        -4.5238   2.4650   1.0826 H              1 S1                 0.0000
     30 ****        -4.3880   2.5824  -0.6705 H              1 S1                 0.0000
     31 ****        -4.3946   4.0367   0.3015 H              1 S1                 0.0000
     32 ****        -2.4328   0.9907   1.2476 H              1 S1                 0.0000
     33 ****         0.0688   1.9904  -0.1816 H              1 S1                 0.0000
     34 ****        -0.1494   1.8306   1.5407 H              1 S1                 0.0000
     35 ****        -0.5377  -0.6742   1.0080 H              1 S1                 0.0000
     36 ****         1.0054  -2.3063   1.0685 H              1 S1                 0.0000
     37 ****         1.1475  -2.3543  -0.6632 H              1 S1                 0.0000
     38 ****         3.1878  -2.6072  -1.7160 H              1 S1                 0.0000
     39 ****         5.5294  -3.1015  -1.6600 H              1 S1                 0.0000
     40 ****         5.0674  -2.0676   3.7114 H              1 S1                 0.0000
     41 ****         6.4770  -1.4835   2.7787 H              1 S1                 0.0000
     42 ****         6.2219  -3.2477   3.0495 H              1 S1                 0.0000
     43 ****        -1.5212   2.0552  -2.2434 H              1 S1                 0.0000
     44 ****        -0.7151   0.5143  -2.0085 H              1 S1                 0.0000
     45 ****        -3.3861   0.9356  -3.4554 H              1 S1                 0.0000
     46 ****        -1.8541   0.5020  -4.1902 H              1 S1                 0.0000
     47 ****        -4.4944  -0.6942  -2.0446 H              1 S1                 0.0000
     48 ****        -3.7292  -2.2529  -1.8041 H              1 S1                 0.0000
     49 ****        -1.9174  -1.2470  -0.4747 H              1 S1                 0.0000
     50 ****        -3.4620  -0.7783   0.2132 H              1 S1                 0.0000
     51 ****        -3.3657   1.2140  -1.0148 H              1 S1                 0.0000
     52 ****         1.8571   1.3718  -0.4634 LP             1 S1                 0.0000
     53 ****         2.9453   0.0484  -0.7175 LP             1 S1                 0.0000
     54 ****         7.4987  -3.2476  -0.2486 LP             1 S1                 0.0000
     55 ****         7.4588  -2.9172   1.4512 LP             1 S1                 0.0000
     56 ****         2.0395  -1.5215   2.5393 LP             1 S1                 0.0000
     57 ****         3.4851  -1.6562   3.4837 LP             1 S1                 0.0000
     58 ****        -1.8387  -1.4517  -2.9140 LP             1 S1                 0.0000
     59 ****        -3.1713  -1.3592  -3.8534 LP             1 S1                 0.0000
@<TRIPOS>BOND
    1    1    2 1     
    2    1   25 1     
    3    1   26 1     
    4    1   27 1     
    5    2    3 1     
    6    2    4 1     
    7    2   28 1     
    8    3   29 1     
    9    3   30 1     
   10    3   31 1     
   11    4    5 1     
   12    4   19 1     
   13    4   32 1     
   14    5    6 1     
   15    5   33 1     
   16    5   34 1     
   17    6    7 am    
   18    6   35 1     
   19    7    8 2     
   20    7    9 1     
   21    9   10 1     
   22    9   36 1     
   23    9   37 1     
   24   10   17 am    
   25   10   11 1     
   26   11   12 2     
   27   11   38 1     
   28   12   13 1     
   29   12   39 1     
   30   13   14 2     
   31   13   15 am    
   32   15   16 1     
   33   15   17 am    
   34   16   40 1     
   35   16   41 1     
   36   16   42 1     
   37   17   18 2     
   38   19   24 1     
   39   19   20 1     
   40   19   51 1     
   41   20   21 1     
   42   20   43 1     
   43   20   44 1     
   44   21   22 1     
   45   21   45 1     
   46   21   46 1     
   47   22   23 1     
   48   23   24 1     
   49   23   47 1     
   50   23   48 1     
   51   24   49 1     
   52   24   50 1     
   53    8   52 1     
   54    8   53 1     
   55   14   54 1     
   56   14   55 1     
   57   18   56 1     
   58   18   57 1     
   59   22   58 1     
   60   22   59 1     
@<TRIPOS>SUBSTRUCTURE
      1 S1             1
@<TRIPOS>SET
LONE_PAIRS      STATIC     ATOMS    <user>   **** ""
8 52 53 54 55 56 57 58 59
DONOR_HYDROGENS      STATIC     ATOMS    <user>   **** ""
2 35 51
ATOM$BLUE        STATIC     ATOMS    COLORGROUP SYSTEM
8 52 53 54 55 56 57 58 59
ATOM$RED        STATIC     ATOMS    COLORGROUP SYSTEM
2 35 51
