AV-unprocessed.smi:56|AV-procd|sdf|579|dock4
  -GOLD-   2262016483D 1   1.00000     0.00000
 Structure written by MMmdl.
 23 24  0  0  0  0  0  0  0  0  2 V2000
  145.7183  140.3122  154.3913 O   0  0  0  0  0  0  0  0  0  0  0  0
  146.9015  140.0861  153.6438 C   0  0  1  0  0  0  0  0  0  0  0  0
  148.0654  140.7598  154.3108 C   0  0  0  0  0  0  0  0  0  0  0  0
  148.1570  141.5238  155.4426 C   0  0  0  0  0  0  0  0  0  0  0  0
  149.5397  141.8559  155.5326 C   0  0  0  0  0  0  0  0  0  0  0  0
  150.2542  141.3458  154.5434 N   0  0  0  0  0  0  0  0  0  0  0  0
  149.3455  140.6828  153.8048 N   0  0  0  0  0  0  0  0  0  0  0  0
  147.0493  138.5752  153.4275 C   0  0  0  0  0  0  0  0  0  0  0  0
  146.0817  138.2573  152.2790 C   0  0  0  0  0  0  0  0  0  0  0  0
  145.8726  139.5217  151.5438 N   0  3  0  0  0  0  0  0  0  0  0  0
  146.6589  140.5775  152.2102 C   0  0  0  0  0  0  0  0  0  0  0  0
  149.6074  140.1935  152.9607 H   0  0  0  0  0  0  0  0  0  0  0  0
  144.9825  140.3511  153.8003 H   0  0  0  0  0  0  0  0  0  0  0  0
  147.3581  141.8084  156.1110 H   0  0  0  0  0  0  0  0  0  0  0  0
  150.0408  142.4495  156.2830 H   0  0  0  0  0  0  0  0  0  0  0  0
  148.0606  138.3474  153.0875 H   0  0  0  0  0  0  0  0  0  0  0  0
  146.8678  137.9847  154.3267 H   0  0  0  0  0  0  0  0  0  0  0  0
  146.4705  137.4786  151.6223 H   0  0  0  0  0  0  0  0  0  0  0  0
  145.1208  137.9196  152.6683 H   0  0  0  0  0  0  0  0  0  0  0  0
  146.1572  139.4299  150.5789 H   0  0  0  0  0  0  0  0  0  0  0  0
  146.1716  141.5520  152.1587 H   0  0  0  0  0  0  0  0  0  0  0  0
  147.6088  140.6561  151.6792 H   0  0  0  0  0  0  0  0  0  0  0  0
  144.8923  139.7611  151.5870 H   0  0  0  0  0  0  0  0  0  0  0  0
  1  2  1  0  0  0  0
  1 13  1  0  0  0  0
  2 11  1  0  0  0  0
  2  3  1  0  0  0  0
  2  8  1  0  0  0  0
  3  7  1  0  0  0  0
  3  4  2  0  0  0  0
  4  5  1  0  0  0  0
  4 14  1  0  0  0  0
  5  6  2  0  0  0  0
  5 15  1  0  0  0  0
  6  7  1  0  0  0  0
  7 12  1  0  0  0  0
  8  9  1  0  0  0  0
  8 16  1  0  0  0  0
  8 17  1  0  0  0  0
  9 10  1  0  0  0  0
  9 18  1  0  0  0  0
  9 19  1  0  0  0  0
 10 11  1  0  0  0  0
 10 20  1  0  0  0  0
 10 23  1  0  0  0  0
 11 21  1  0  0  0  0
 11 22  1  0  0  0  0
M  CHG  1  10   1
M  END
> <s_m_source_file>
AV-unprocessed.smi

> <i_m_source_file_index>
56

> <i_lp_mmshare_version>
43012

> <i_f3d_flags>
0

> <s_epik_input>
W0NIMl0xW05IXVtDSDJdW0NIMl1bQ0BAXTEoW09IXSljMltjSF1bY0hdbltuSF0y

> <s_epik_cmdline>
J2VwaWtfcHl0aG9uJywgJy1waCcsICc3LjAnLCAnLXRuJywgJzgnLCAnLW1hJywgJzIwMCcsICctbWV0YWxfYmluZGluZycsICctaW1hZScsICc8aW5maWxlLm1hZT4nLCAnLW9tYWUnLCAnPG91dGZpbGUubWFlPic=

> <r_lp_tautomer_probability>
0.5

> <r_epik_Ionization_Penalty>
0.00599842

> <r_epik_Ionization_Penalty_Charging>
0.00599115

> <r_epik_Ionization_Penalty_Neutral>
7.26593e-06

> <r_epik_State_Penalty>
0.41068

> <r_epik_Charging_Adjusted_Penalty>
0.416671

> <i_epik_Tot_Q>
1

> <i_epik_Tot_abs_Q>
1

> <r_epik_Metal_State_Penalty>
0.410678

> <b_epik_Metal_Only>
0

> <s_lp_Force_Field>
OPLS_2005

> <r_lp_Energy>
26.3948

> <b_lp_Chiralities_Consistent>
1

> <s_lp_Variant>
AV-unprocessed.smi:56-3

> <Gold.Version>
5.8.1

> <Gold.Id.Protein>
6NUR|6NUR_protein|mol2

> <Gold.PLP.Fitness>
31.5923

> <Gold.PLP.PLP>
-19.7118

> <Gold.PLP.part.hbond>
-4.9197

> <Gold.PLP.part.metal>
0.0000

> <Gold.PLP.part.buried>
-0.1340

> <Gold.PLP.part.nonpolar>
-15.1240

> <Gold.PLP.part.repulsive>
0.3062

> <Gold.PLP.ligand.clash>
0.0000

> <Gold.PLP.ligand.torsion>
0.0159

> <Gold.PLP.Chemscore.Hbond>
3.9658

> <Gold.PLP.Chemscore.CHOScore>
0.0000

> <Gold.PLP.Chemscore.Metal>
0.0000

> <Gold.Chemscore.Hbonds>
donor molecule, donor type, donor heavy atom, donor atom, acceptor molecule, acceptor atom, score
      L1  H     1    13       P1 10175  1.00
      L1  H     7    12       P1  7957  1.00
      L1  H    10    23       P1 10175  1.92
      P1  H  7989  7998       L1     6  0.31
      L1  C     5    15       P1  8028  0.25

> <Gold.PLP.Chemscore.Internal.Correction>
0.0147

> <Gold.Rescore>
     Score         DG    S(hbond)    S(metal)    S(lipo)     H(rot)  DE(clash)    DE(int)     intcor
     16.45     -17.16       3.25        0.00      39.87       1.50       0.39       0.32       ----

> <Gold.Chemscore.Fitness>
16.4504

> <Gold.Chemscore.DG>
-17.1634

> <Gold.Chemscore.ZeroCoef>
-5.4800

> <Gold.Chemscore.Hbond>
3.2501

> <Gold.Chemscore.Metal>
0.0000

> <Gold.Chemscore.Lipo>
39.8659

> <Gold.Chemscore.Internal_Hbond>
0.0000

> <Gold.Chemscore.DEClash>
0.3908

> <Gold.Chemscore.DEInternal>
0.3221

> <Gold.Chemscore.Rot>
1.4985

> <Gold.Chemscore.Internal.Correction>
   9.000000E+99

> <Gold.Chemscore.Hbonds>
donor molecule, donor type, donor heavy atom, donor atom, acceptor molecule, acceptor atom, score
      L1  H     1    13       P1 10175  1.00
      L1  H     7    12       P1  7957  0.95
      L1  H    10    23       P1 10175  0.36
      P1  H  7989  7998       L1     6  0.03

> <Gold.Chemscore.Hbond.Weighted>
-10.8553

> <Gold.Chemscore.Metal.Weighted>
-0.0000

> <Gold.Chemscore.Lipo.Weighted>
-4.6643

> <Gold.Chemscore.Internal_Hbond.Weighted>
0.0000

> <Gold.Chemscore.DEClash.Weighted>
0.3908

> <Gold.Chemscore.DEInternal.Weighted>
0.3221

> <Gold.Chemscore.Rot.Weighted>
3.8362

> <Gold.Chemscore.Internal.Correction.Weighted>
   9.000000E+99

> <Gold.Protein.RotatedTorsions>
[ 6907 6896 6895 6894 ] final -174.52 input  -60.11 | X-H torsion
[ 7974 7965 7964 7962 ] final  138.78 input  175.53 | X-H torsion
[ 8008 7997 7996 7995 ] final  125.37 input   59.86 | X-H torsion
[ 10167 10162 10161 10158 ] final  -91.43 input  -65.29 | X-H torsion
[ 10718 10713 10712 10709 ] final   44.20 input   66.30 | X-H torsion
[ 10763 10752 10751 10750 ] final  147.71 input  -60.55 | X-H torsion
[ 11005 11000 10999 10996 ] final  120.94 input  -57.11 | X-H torsion

> <Gold.Protein.ActiveResidues>
 VAL166  LYS551  ARG553  GLY616  TRP617  ASP618  TYR619  PRO620  LYS621  CYS622 
 ASP623  PHE694  ASN695  SER759  ASP760  ASP761  ALA762  ILE779  LEU786  VAL792 
 PHE793  MET794  SER795  GLU796  ALA797  LYS798  CYS799  TRP800  GLU811  SER814 

> <Gold.Protein.RotatedAtoms>
  151.5738  133.3386  159.2994 H   0  0  0  0  0  0  0  0  0  0  0  0  # atno 6907 bound_to 6896
  150.8352  134.7626  159.6898 H   0  0  0  0  0  0  0  0  0  0  0  0  # atno 6908 bound_to 6896
  152.4430  134.5559  159.9932 H   0  0  0  0  0  0  0  0  0  0  0  0  # atno 6909 bound_to 6896
  144.9340  139.5012  143.5604 H   0  0  0  0  0  0  0  0  0  0  0  0  # atno 7974 bound_to 7965
  156.2832  140.2718  156.1939 H   0  0  0  0  0  0  0  0  0  0  0  0  # atno 8008 bound_to 7997
  155.0430  140.0386  157.2534 H   0  0  0  0  0  0  0  0  0  0  0  0  # atno 8009 bound_to 7997
  154.7258  140.2697  155.6505 H   0  0  0  0  0  0  0  0  0  0  0  0  # atno 8010 bound_to 7997
  140.3449  143.2922  151.9793 H   0  0  0  0  0  0  0  0  0  0  0  0  # atno 10167 bound_to 10162
  157.4243  130.7987  149.7544 H   0  0  0  0  0  0  0  0  0  0  0  0  # atno 10718 bound_to 10713
  154.0428  135.2888  155.3352 H   0  0  0  0  0  0  0  0  0  0  0  0  # atno 10763 bound_to 10752
  154.6918  135.5223  153.8406 H   0  0  0  0  0  0  0  0  0  0  0  0  # atno 10764 bound_to 10752
  153.0593  135.6607  154.0631 H   0  0  0  0  0  0  0  0  0  0  0  0  # atno 10765 bound_to 10752
  139.9205  134.9637  156.7883 H   0  0  0  0  0  0  0  0  0  0  0  0  # atno 11005 bound_to 11000
  146.3259  139.8311  142.8908 LP  0  0  0  0  0  0  0  0  0  0  0  0  # atno 17320 bound_to 7965
  145.3096  141.0216  143.3562 LP  0  0  0  0  0  0  0  0  0  0  0  0  # atno 17321 bound_to 7965
  139.4835  144.6125  151.7407 LP  0  0  0  0  0  0  0  0  0  0  0  0  # atno 17342 bound_to 10162
  140.5274  144.0784  150.6042 LP  0  0  0  0  0  0  0  0  0  0  0  0  # atno 17343 bound_to 10162
  155.9891  130.3954  150.3088 LP  0  0  0  0  0  0  0  0  0  0  0  0  # atno 17370 bound_to 10713
  157.1239  131.0254  151.2998 LP  0  0  0  0  0  0  0  0  0  0  0  0  # atno 17371 bound_to 10713
  140.6488  133.9751  155.7744 LP  0  0  0  0  0  0  0  0  0  0  0  0  # atno 17394 bound_to 11000
  141.0722  134.0188  157.3509 LP  0  0  0  0  0  0  0  0  0  0  0  0  # atno 17395 bound_to 11000

$$$$
