#       Name:                AV-unprocessed.smi:3089
#       Creating user name   scv26
#       Creation time:       Fri Mar 27 17:15:05 2020


#       File generated by GOLD software.
#

@<TRIPOS>MOLECULE
AV-unprocessed.smi:3089
    28    28     1
SMALL
NO_CHARGES


@<TRIPOS>ATOM
      1 ****        -3.6276  -0.9757  -0.3514 C.3            1 S1                 0.0000
      2 ****        -2.3855  -0.2326  -0.3483 N.pl3          1 S1                 0.0000
      3 ****        -1.0944  -0.7132  -0.3487 C.2            1 S1                 0.0000
      4 ****        -0.2497   0.3634  -0.3446 C.2            1 S1                 0.0000
      5 ****         1.2647   0.3749  -0.3365 C.3            1 S1                 0.0000
      6 ****         1.8026  -0.3311  -1.5930 C.3            1 S1                 0.0000
      7 ****         1.7832   1.6915  -0.3809 O.3            1 S1                 0.0000
      8 ****         1.8210  -0.2951   0.9395 C.3            1 S1                 0.0000
      9 ****         1.3074   0.3346   2.1705 N.4            1 S1                 1.0000
     10 ****        -1.1447   1.4743  -0.3479 C.2            1 S1                 0.0000
     11 ****        -2.4175   1.1147  -0.3446 N.2            1 S1                 0.0000
     12 ****        -3.4236  -2.0467  -0.3528 H              1 S1                 0.0000
     13 ****        -4.2062  -0.7246  -1.2407 H              1 S1                 0.0000
     14 ****        -4.2095  -0.7273   0.5368 H              1 S1                 0.0000
     15 ****        -0.8835  -1.7726  -0.3508 H              1 S1                 0.0000
     16 ****         1.4834  -1.3733  -1.6317 H              1 S1                 0.0000
     17 ****         2.8930  -0.3240  -1.6207 H              1 S1                 0.0000
     18 ****         1.4476   0.1541  -2.5033 H              1 S1                 0.0000
     19 ****         2.7235   1.6454  -0.4667 H              1 S1                 0.0000
     20 ****         1.5458  -1.3503   0.9624 H              1 S1                 0.0000
     21 ****         2.9110  -0.2557   0.9540 H              1 S1                 0.0000
     22 ****         1.6877  -0.1357   2.9791 H              1 S1                 0.0000
     23 ****         0.2995   0.2696   2.1833 H              1 S1                 0.0000
     24 ****        -0.9075   2.5281  -0.3480 H              1 S1                 0.0000
     25 ****         1.5787   1.3076   2.1847 H              1 S1                 0.0000
     26 ****         1.5458   2.1749   0.4617 LP             1 S1                 0.0000
     27 ****         1.3976   2.1785  -1.1646 LP             1 S1                 0.0000
     28 ****        -3.2220   1.7085  -0.3403 LP             1 S1                 0.0000
@<TRIPOS>BOND
    1    1    2 1     
    2    1   12 1     
    3    1   13 1     
    4    1   14 1     
    5    2   11 1     
    6    2    3 1     
    7    3    4 2     
    8    3   15 1     
    9    4    5 1     
   10    4   10 1     
   11    5    6 1     
   12    5    7 1     
   13    5    8 1     
   14    6   16 1     
   15    6   17 1     
   16    6   18 1     
   17    7   19 1     
   18    8    9 1     
   19    8   20 1     
   20    8   21 1     
   21    9   22 1     
   22    9   23 1     
   23    9   25 1     
   24   10   11 2     
   25   10   24 1     
   26    7   26 1     
   27    7   27 1     
   28   11   28 1     
@<TRIPOS>SUBSTRUCTURE
      1 S1             1
@<TRIPOS>SET
LONE_PAIRS      STATIC     ATOMS    <user>   **** ""
3 26 27 28
DONOR_HYDROGENS      STATIC     ATOMS    <user>   **** ""
4 19 22 23 25
ATOM$BLUE        STATIC     ATOMS    COLORGROUP SYSTEM
3 26 27 28
ATOM$RED        STATIC     ATOMS    COLORGROUP SYSTEM
4 19 22 23 25
