AV-unprocessed.smi:2179|AV-procd|sdf|8858|dock1
  -GOLD-   2272012 53D 1   1.00000     0.00000
 Structure written by MMmdl.
 47 48  0  0  0  0  0  0  0  0  1 V2000
  147.9457  132.6681  152.7123 C   0  0  0  0  0  0  0  0  0  0  0  0
  148.6573  133.1371  153.9764 C   0  0  0  0  0  0  0  0  0  0  0  0
  148.9966  132.3204  154.8324 O   0  0  0  0  0  0  0  0  0  0  0  0
  148.8796  134.4564  154.0784 N   0  0  0  0  0  0  0  0  0  0  0  0
  149.5487  135.1039  155.2012 C   0  0  0  0  0  0  0  0  0  0  0  0
  150.8518  135.8044  154.7665 C   0  0  0  0  0  0  0  0  0  0  0  0
  151.0613  137.0560  155.4854 N   0  0  0  0  0  0  0  0  0  0  0  0
  150.7817  138.2819  155.0149 C   0  0  0  0  0  0  0  0  0  0  0  0
  150.3308  138.4921  153.8887 O   0  0  0  0  0  0  0  0  0  0  0  0
  150.9755  139.4060  155.9907 C   0  0  0  0  0  0  0  0  0  0  0  0
  150.6945  140.7463  155.6473 C   0  0  0  0  0  0  0  0  0  0  0  0
  150.8902  141.7563  156.6085 C   0  0  0  0  0  0  0  0  0  0  0  0
  151.3534  141.4030  157.8982 C   0  0  0  0  0  0  0  0  0  0  0  0
  151.5682  142.3996  158.8747 N   0  0  0  0  0  0  0  0  0  0  0  0
  152.4670  142.0458  159.9687 C   0  0  0  0  0  0  0  0  0  0  0  0
  152.3041  143.0365  161.1355 C   0  0  1  0  0  0  0  0  0  0  0  0
  153.3234  142.7799  162.2507 C   0  0  0  0  0  0  0  0  0  0  0  0
  152.4945  144.3694  160.6626 O   0  0  0  0  0  0  0  0  0  0  0  0
  151.6109  144.7632  159.6104 C   0  0  2  0  0  0  0  0  0  0  0  0
  150.1679  144.9637  160.1068 C   0  0  0  0  0  0  0  0  0  0  0  0
  151.7218  143.7822  158.4270 C   0  0  0  0  0  0  0  0  0  0  0  0
  151.6126  140.1139  158.2284 N   0  0  0  0  0  0  0  0  0  0  0  0
  151.4231  139.1488  157.3039 C   0  0  0  0  0  0  0  0  0  0  0  0
  148.5391  132.9084  151.8299 H   0  0  0  0  0  0  0  0  0  0  0  0
  146.9732  133.1523  152.6196 H   0  0  0  0  0  0  0  0  0  0  0  0
  147.7888  131.5892  152.7343 H   0  0  0  0  0  0  0  0  0  0  0  0
  148.5629  135.0532  153.3279 H   0  0  0  0  0  0  0  0  0  0  0  0
  148.8562  135.8567  155.5787 H   0  0  0  0  0  0  0  0  0  0  0  0
  149.7085  134.4061  156.0250 H   0  0  0  0  0  0  0  0  0  0  0  0
  151.7154  135.1538  154.9096 H   0  0  0  0  0  0  0  0  0  0  0  0
  150.8113  136.0189  153.6972 H   0  0  0  0  0  0  0  0  0  0  0  0
  151.3990  136.9813  156.4339 H   0  0  0  0  0  0  0  0  0  0  0  0
  150.3382  141.0103  154.6621 H   0  0  0  0  0  0  0  0  0  0  0  0
  150.6998  142.7846  156.3402 H   0  0  0  0  0  0  0  0  0  0  0  0
  152.2862  141.0356  160.3323 H   0  0  0  0  0  0  0  0  0  0  0  0
  153.4922  142.0682  159.5971 H   0  0  0  0  0  0  0  0  0  0  0  0
  151.3062  142.9364  161.5630 H   0  0  0  0  0  0  0  0  0  0  0  0
  153.2130  141.7755  162.6603 H   0  0  0  0  0  0  0  0  0  0  0  0
  153.1914  143.4881  163.0690 H   0  0  0  0  0  0  0  0  0  0  0  0
  154.3448  142.8822  161.8832 H   0  0  0  0  0  0  0  0  0  0  0  0
  151.9626  145.7363  159.2671 H   0  0  0  0  0  0  0  0  0  0  0  0
  149.5466  145.3939  159.3209 H   0  0  0  0  0  0  0  0  0  0  0  0
  150.1407  145.6446  160.9577 H   0  0  0  0  0  0  0  0  0  0  0  0
  149.6997  144.0278  160.4106 H   0  0  0  0  0  0  0  0  0  0  0  0
  152.6983  143.8880  157.9529 H   0  0  0  0  0  0  0  0  0  0  0  0
  150.9709  144.0308  157.6759 H   0  0  0  0  0  0  0  0  0  0  0  0
  151.6478  138.1426  157.6268 H   0  0  0  0  0  0  0  0  0  0  0  0
  1  2  1  0  0  0  0
  1 24  1  0  0  0  0
  1 25  1  0  0  0  0
  1 26  1  0  0  0  0
  2  3  2  0  0  0  0
  2  4  1  0  0  0  0
  4  5  1  0  0  0  0
  4 27  1  0  0  0  0
  5  6  1  0  0  0  0
  5 28  1  0  0  0  0
  5 29  1  0  0  0  0
  6  7  1  0  0  0  0
  6 30  1  0  0  0  0
  6 31  1  0  0  0  0
  7  8  1  0  0  0  0
  7 32  1  0  0  0  0
  8  9  2  0  0  0  0
  8 10  1  0  0  0  0
 10 23  1  0  0  0  0
 10 11  2  0  0  0  0
 11 12  1  0  0  0  0
 11 33  1  0  0  0  0
 12 13  2  0  0  0  0
 12 34  1  0  0  0  0
 13 14  1  0  0  0  0
 13 22  1  0  0  0  0
 14 21  1  0  0  0  0
 14 15  1  0  0  0  0
 15 16  1  0  0  0  0
 15 35  1  0  0  0  0
 15 36  1  0  0  0  0
 16 17  1  0  0  0  0
 16 18  1  0  0  0  0
 16 37  1  0  0  0  0
 17 38  1  0  0  0  0
 17 39  1  0  0  0  0
 17 40  1  0  0  0  0
 18 19  1  0  0  0  0
 19 20  1  0  0  0  0
 19 21  1  0  0  0  0
 19 41  1  0  0  0  0
 20 42  1  0  0  0  0
 20 43  1  0  0  0  0
 20 44  1  0  0  0  0
 21 45  1  0  0  0  0
 21 46  1  0  0  0  0
 22 23  2  0  0  0  0
 23 47  1  0  0  0  0
M  END
> <s_m_source_file>
AV-unprocessed.smi

> <i_m_source_file_index>
2179

> <i_lp_mmshare_version>
43012

> <i_f3d_flags>
0

> <s_epik_input>
W0NIM11DKD1PKVtOSF1bQ0gyXVtDSDJdW05IXUMoPU8pYzFbY0hdW2NIXWMobltjSF0xKU4yW0NIMl1bQ0BASF0oW0NIM10pT1tDQEBIXShbQ0gzXSlbQ0gyXTI=

> <s_epik_cmdline>
J2VwaWtfcHl0aG9uJywgJy1waCcsICc3LjAnLCAnLXRuJywgJzgnLCAnLW1hJywgJzIwMCcsICctbWV0YWxfYmluZGluZycsICctaW1hZScsICc8aW5maWxlLm1hZT4nLCAnLW9tYWUnLCAnPG91dGZpbGUubWFlPic=

> <r_lp_tautomer_probability>
1

> <r_epik_Ionization_Penalty>
2.00433e-05

> <r_epik_Ionization_Penalty_Charging>
0

> <r_epik_Ionization_Penalty_Neutral>
2.00433e-05

> <r_epik_State_Penalty>
-0

> <r_epik_Charging_Adjusted_Penalty>
0

> <i_epik_Tot_Q>
0

> <i_epik_Tot_abs_Q>
0

> <r_epik_Metal_State_Penalty>
-0

> <b_epik_Metal_Only>
0

> <s_lp_Force_Field>
OPLS_2005

> <r_lp_Energy>
19.9446

> <b_lp_Chiralities_Consistent>
1

> <s_lp_Variant>
AV-unprocessed.smi:2179-3

> <Gold.Version>
5.8.1

> <Gold.Id.Protein>
6NUR|6NUR_protein|mol2

> <Gold.PLP.Fitness>
45.8013

> <Gold.PLP.PLP>
-44.3309

> <Gold.PLP.part.hbond>
-1.0000

> <Gold.PLP.part.metal>
0.0000

> <Gold.PLP.part.buried>
-3.6724

> <Gold.PLP.part.nonpolar>
-39.4737

> <Gold.PLP.part.repulsive>
0.4549

> <Gold.PLP.ligand.clash>
0.0000

> <Gold.PLP.ligand.torsion>
0.9757

> <Gold.PLP.Chemscore.Hbond>
1.0000

> <Gold.PLP.Chemscore.CHOScore>
0.0000

> <Gold.PLP.Chemscore.Metal>
0.0000

> <Gold.Chemscore.Hbonds>
donor molecule, donor type, donor heavy atom, donor atom, acceptor molecule, acceptor atom, score
      L1  H     4    27       P1  7948  0.98

> <Gold.PLP.Chemscore.Internal.Correction>
0.4218

> <Gold.Rescore>
     Score         DG    S(hbond)    S(metal)    S(lipo)     H(rot)  DE(clash)    DE(int)     intcor
     15.11     -16.04       0.99        0.00     102.76       1.86       0.03       0.90       ----

> <Gold.Chemscore.Fitness>
15.1118

> <Gold.Chemscore.DG>
-16.0403

> <Gold.Chemscore.ZeroCoef>
-5.4800

> <Gold.Chemscore.Hbond>
0.9865

> <Gold.Chemscore.Metal>
0.0000

> <Gold.Chemscore.Lipo>
102.7633

> <Gold.Chemscore.Internal_Hbond>
0.0000

> <Gold.Chemscore.DEClash>
0.0304

> <Gold.Chemscore.DEInternal>
0.8981

> <Gold.Chemscore.Rot>
1.8586

> <Gold.Chemscore.Internal.Correction>
   9.000000E+99

> <Gold.Chemscore.Hbonds>
donor molecule, donor type, donor heavy atom, donor atom, acceptor molecule, acceptor atom, score
      L1  H     4    27       P1  7948  0.73

> <Gold.Chemscore.Hbond.Weighted>
-3.2949

> <Gold.Chemscore.Metal.Weighted>
-0.0000

> <Gold.Chemscore.Lipo.Weighted>
-12.0233

> <Gold.Chemscore.Internal_Hbond.Weighted>
0.0000

> <Gold.Chemscore.DEClash.Weighted>
0.0304

> <Gold.Chemscore.DEInternal.Weighted>
0.8981

> <Gold.Chemscore.Rot.Weighted>
4.7579

> <Gold.Chemscore.Internal.Correction.Weighted>
   9.000000E+99

> <Gold.Protein.RotatedTorsions>
[ 6907 6896 6895 6894 ] final  -57.30 input  -60.11 | X-H torsion
[ 7974 7965 7964 7962 ] final   76.73 input  175.53 | X-H torsion
[ 8008 7997 7996 7995 ] final -143.81 input   59.86 | X-H torsion
[ 10167 10162 10161 10158 ] final  -12.80 input  -65.29 | X-H torsion
[ 10718 10713 10712 10709 ] final -171.83 input   66.30 | X-H torsion
[ 10763 10752 10751 10750 ] final  108.43 input  -60.55 | X-H torsion
[ 11005 11000 10999 10996 ] final   74.83 input  -57.11 | X-H torsion

> <Gold.Protein.ActiveResidues>
 VAL166  LYS551  ARG553  GLY616  TRP617  ASP618  TYR619  PRO620  LYS621  CYS622 
 ASP623  PHE694  ASN695  SER759  ASP760  ASP761  ALA762  ILE779  LEU786  VAL792 
 PHE793  MET794  SER795  GLU796  ALA797  LYS798  CYS799  TRP800  GLU811  SER814 

> <Gold.Protein.RotatedAtoms>
  150.8097  134.7244  159.6676 H   0  0  0  0  0  0  0  0  0  0  0  0  # atno 6907 bound_to 6896
  152.4217  134.5940  159.9992 H   0  0  0  0  0  0  0  0  0  0  0  0  # atno 6908 bound_to 6896
  151.6154  133.3306  159.3112 H   0  0  0  0  0  0  0  0  0  0  0  0  # atno 6909 bound_to 6896
  145.6991  139.2577  143.1716 H   0  0  0  0  0  0  0  0  0  0  0  0  # atno 7974 bound_to 7965
  155.5167  140.0588  157.2914 H   0  0  0  0  0  0  0  0  0  0  0  0  # atno 8008 bound_to 7997
  154.4532  140.1959  156.0403 H   0  0  0  0  0  0  0  0  0  0  0  0  # atno 8009 bound_to 7997
  156.0747  140.3255  155.7623 H   0  0  0  0  0  0  0  0  0  0  0  0  # atno 8010 bound_to 7997
  140.7169  143.5494  150.9319 H   0  0  0  0  0  0  0  0  0  0  0  0  # atno 10167 bound_to 10162
  156.7467  130.9362  151.3113 H   0  0  0  0  0  0  0  0  0  0  0  0  # atno 10718 bound_to 10713
  153.4205  135.3812  155.2108 H   0  0  0  0  0  0  0  0  0  0  0  0  # atno 10763 bound_to 10752
  154.8744  135.3816  154.4389 H   0  0  0  0  0  0  0  0  0  0  0  0  # atno 10764 bound_to 10752
  153.4909  135.7088  153.5947 H   0  0  0  0  0  0  0  0  0  0  0  0  # atno 10765 bound_to 10752
  139.9372  134.7466  156.1195 H   0  0  0  0  0  0  0  0  0  0  0  0  # atno 11005 bound_to 11000
  146.0814  140.7760  142.9640 LP  0  0  0  0  0  0  0  0  0  0  0  0  # atno 17320 bound_to 7965
  144.6974  140.3494  143.7184 LP  0  0  0  0  0  0  0  0  0  0  0  0  # atno 17321 bound_to 7965
  139.9218  143.6597  152.3095 LP  0  0  0  0  0  0  0  0  0  0  0  0  # atno 17342 bound_to 10162
  139.7017  144.7634  151.1262 LP  0  0  0  0  0  0  0  0  0  0  0  0  # atno 17343 bound_to 10162
  157.6795  130.9126  150.0232 LP  0  0  0  0  0  0  0  0  0  0  0  0  # atno 17370 bound_to 10713
  156.1428  130.3642  149.9555 LP  0  0  0  0  0  0  0  0  0  0  0  0  # atno 17371 bound_to 10713
  141.0992  133.6684  156.2714 LP  0  0  0  0  0  0  0  0  0  0  0  0  # atno 17394 bound_to 11000
  140.6044  134.5522  157.5523 LP  0  0  0  0  0  0  0  0  0  0  0  0  # atno 17395 bound_to 11000

$$$$
