#       Name:                AV-unprocessed.smi:3228
#       Creating user name   scv26
#       Creation time:       Fri Mar 27 18:17:11 2020


#       File generated by GOLD software.
#

@<TRIPOS>MOLECULE
AV-unprocessed.smi:3228
    36    37     1
SMALL
NO_CHARGES


@<TRIPOS>ATOM
      1 ****        -0.5850   1.7128  -0.9532 O.2            1 S1                 0.0000
      2 ****        -1.0914   0.5947  -1.0511 C.2            1 S1                 0.0000
      3 ****        -0.3753  -0.5370  -1.1161 N.am           1 S1                 0.0000
      4 ****         1.0821  -0.6081  -1.0883 C.3            1 S1                 0.0000
      5 ****         1.6393  -0.5256   0.3469 C.3            1 S1                 0.0000
      6 ****         1.1577  -1.6573   1.2700 C.3            1 S1                 0.0000
      7 ****         2.2860  -1.9055   2.2841 C.3            1 S1                 0.0000
      8 ****         3.4377  -0.9767   1.8847 C.3            1 S1                 0.0000
      9 ****         3.1667  -0.6200   0.4228 C.3            1 S1                 0.0000
     10 ****         3.7980   0.5922   0.0651 O.3            1 S1                 0.0000
     11 ****        -2.4107   0.3401  -1.1062 N.am           1 S1                 0.0000
     12 ****        -3.4852   1.2683  -1.0958 C.2            1 S1                 0.0000
     13 ****        -3.3355   2.5963  -1.0273 N.2            1 S1                 0.0000
     14 ****        -4.5628   3.2640  -1.0420 C.2            1 S1                 0.0000
     15 ****        -5.6446   2.4228  -1.1205 C.2            1 S1                 0.0000
     16 ****        -5.1620   0.7485  -1.1805 S.3            1 S1                 0.0000
     17 ****        -0.8721  -1.4124  -1.1929 H              1 S1                 0.0000
     18 ****         1.3828  -1.5474  -1.5530 H              1 S1                 0.0000
     19 ****         1.5039   0.1866  -1.7057 H              1 S1                 0.0000
     20 ****         1.3365   0.4224   0.7963 H              1 S1                 0.0000
     21 ****         0.2178  -1.4000   1.7594 H              1 S1                 0.0000
     22 ****         0.9845  -2.5693   0.6970 H              1 S1                 0.0000
     23 ****         1.9614  -1.7111   3.3068 H              1 S1                 0.0000
     24 ****         2.6048  -2.9473   2.2357 H              1 S1                 0.0000
     25 ****         3.3992  -0.0769   2.5010 H              1 S1                 0.0000
     26 ****         4.4171  -1.4336   2.0307 H              1 S1                 0.0000
     27 ****         3.5270  -1.4217  -0.2236 H              1 S1                 0.0000
     28 ****         3.5644   0.8023  -0.8261 H              1 S1                 0.0000
     29 ****        -2.6780  -0.6306  -1.1764 H              1 S1                 0.0000
     30 ****        -4.5737   4.3429  -0.9934 H              1 S1                 0.0000
     31 ****        -6.6917   2.6858  -1.1473 H              1 S1                 0.0000
     32 ****         0.4097   1.8099  -0.9184 LP             1 S1                 0.0000
     33 ****        -1.1684   2.5238  -0.9086 LP             1 S1                 0.0000
     34 ****         4.7901   0.4897   0.1381 LP             1 S1                 0.0000
     35 ****         3.4928   1.3237   0.6747 LP             1 S1                 0.0000
     36 ****        -2.4495   3.0567  -0.9721 LP             1 S1                 0.0000
@<TRIPOS>BOND
    1    1    2 2     
    2    2    3 am    
    3    2   11 am    
    4    3    4 1     
    5    3   17 1     
    6    4    5 1     
    7    4   18 1     
    8    4   19 1     
    9    5    9 1     
   10    5    6 1     
   11    5   20 1     
   12    6    7 1     
   13    6   21 1     
   14    6   22 1     
   15    7    8 1     
   16    7   23 1     
   17    7   24 1     
   18    8    9 1     
   19    8   25 1     
   20    8   26 1     
   21    9   10 1     
   22    9   27 1     
   23   10   28 1     
   24   11   12 1     
   25   11   29 1     
   26   12   16 1     
   27   12   13 2     
   28   13   14 1     
   29   14   15 2     
   30   14   30 1     
   31   15   16 1     
   32   15   31 1     
   33    1   32 1     
   34    1   33 1     
   35   10   34 1     
   36   10   35 1     
   37   13   36 1     
@<TRIPOS>SUBSTRUCTURE
      1 S1             1
@<TRIPOS>SET
LONE_PAIRS      STATIC     ATOMS    <user>   **** ""
5 32 33 34 35 36
DONOR_HYDROGENS      STATIC     ATOMS    <user>   **** ""
3 17 28 29
ATOM$BLUE        STATIC     ATOMS    COLORGROUP SYSTEM
5 32 33 34 35 36
ATOM$RED        STATIC     ATOMS    COLORGROUP SYSTEM
3 17 28 29
