AV-unprocessed.smi:2061|AV-procd|sdf|8370|dock9
  -GOLD-   2272011 43D 1   1.00000     0.00000
 Structure written by MMmdl.
 46 47  0  0  0  0  0  0  0  0  2 V2000
  138.7009  136.4995  154.3442 C   0  0  0  0  0  0  0  0  0  0  0  0
  140.1700  136.6384  154.1368 C   0  0  0  0  0  0  0  0  0  0  0  0
  140.9757  137.7109  153.8756 C   0  0  0  0  0  0  0  0  0  0  0  0
  142.2685  137.1281  153.7994 C   0  0  0  0  0  0  0  0  0  0  0  0
  143.4129  137.9246  153.5394 N   0  0  0  0  0  0  0  0  0  0  0  0
  144.6850  137.6642  153.8854 C   0  0  0  0  0  0  0  0  0  0  0  0
  145.0682  136.6564  154.4803 O   0  0  0  0  0  0  0  0  0  0  0  0
  145.5087  138.6517  153.5059 N   0  0  0  0  0  0  0  0  0  0  0  0
  146.9473  138.6714  153.7540 C   0  0  0  0  0  0  0  0  0  0  0  0
  147.3037  138.6184  155.2635 C   0  0  2  0  0  0  0  0  0  0  0  0
  146.2381  139.3793  156.0892 C   0  0  0  0  0  0  0  0  0  0  0  0
  148.7025  139.1136  155.4781 N   0  3  1  0  0  0  0  0  0  0  0  0
  149.7619  138.4429  154.6772 C   0  0  0  0  0  0  0  0  0  0  0  0
  151.1580  138.9759  155.0510 C   0  0  1  0  0  0  0  0  0  0  0  0
  152.2574  138.3711  154.1704 C   0  0  0  0  0  0  0  0  0  0  0  0
  151.1969  140.3891  154.8866 O   0  0  0  0  0  0  0  0  0  0  0  0
  150.2211  141.1011  155.6435 C   0  0  2  0  0  0  0  0  0  0  0  0
  150.5273  141.0995  157.1518 C   0  0  0  0  0  0  0  0  0  0  0  0
  148.8109  140.5867  155.3001 C   0  0  0  0  0  0  0  0  0  0  0  0
  142.2538  135.8188  153.9966 N   0  0  0  0  0  0  0  0  0  0  0  0
  140.9087  135.4983  154.2137 O   0  0  0  0  0  0  0  0  0  0  0  0
  138.1903  137.4444  154.1582 H   0  0  0  0  0  0  0  0  0  0  0  0
  138.4832  136.1926  155.3672 H   0  0  0  0  0  0  0  0  0  0  0  0
  138.2839  135.7517  153.6696 H   0  0  0  0  0  0  0  0  0  0  0  0
  140.6837  138.7439  153.7593 H   0  0  0  0  0  0  0  0  0  0  0  0
  143.2416  138.7892  153.0476 H   0  0  0  0  0  0  0  0  0  0  0  0
  145.1153  139.4445  153.0201 H   0  0  0  0  0  0  0  0  0  0  0  0
  147.3974  137.8496  153.1982 H   0  0  0  0  0  0  0  0  0  0  0  0
  147.3493  139.5845  153.3137 H   0  0  0  0  0  0  0  0  0  0  0  0
  147.2716  137.5807  155.5991 H   0  0  0  0  0  0  0  0  0  0  0  0
  145.2332  139.0078  155.8891 H   0  0  0  0  0  0  0  0  0  0  0  0
  146.2420  140.4457  155.8613 H   0  0  0  0  0  0  0  0  0  0  0  0
  146.3884  139.2567  157.1618 H   0  0  0  0  0  0  0  0  0  0  0  0
  149.7661  137.3691  154.8608 H   0  0  0  0  0  0  0  0  0  0  0  0
  149.5666  138.5943  153.6142 H   0  0  0  0  0  0  0  0  0  0  0  0
  151.3808  138.7206  156.0873 H   0  0  0  0  0  0  0  0  0  0  0  0
  152.2826  137.2849  154.2616 H   0  0  0  0  0  0  0  0  0  0  0  0
  153.2387  138.7500  154.4568 H   0  0  0  0  0  0  0  0  0  0  0  0
  152.1008  138.6151  153.1190 H   0  0  0  0  0  0  0  0  0  0  0  0
  150.2838  142.1381  155.3120 H   0  0  0  0  0  0  0  0  0  0  0  0
  149.8443  141.7618  157.6842 H   0  0  0  0  0  0  0  0  0  0  0  0
  151.5414  141.4513  157.3425 H   0  0  0  0  0  0  0  0  0  0  0  0
  150.4269  140.1093  157.5953 H   0  0  0  0  0  0  0  0  0  0  0  0
  148.5818  140.8332  154.2620 H   0  0  0  0  0  0  0  0  0  0  0  0
  148.0808  141.1185  155.9079 H   0  0  0  0  0  0  0  0  0  0  0  0
  148.9241  138.9155  156.4434 H   0  0  0  0  0  0  0  0  0  0  0  0
  1  2  1  0  0  0  0
  1 22  1  0  0  0  0
  1 23  1  0  0  0  0
  1 24  1  0  0  0  0
  2 21  1  0  0  0  0
  2  3  2  0  0  0  0
  3  4  1  0  0  0  0
  3 25  1  0  0  0  0
  4  5  1  0  0  0  0
  4 20  2  0  0  0  0
  5  6  1  0  0  0  0
  5 26  1  0  0  0  0
  6  7  2  0  0  0  0
  6  8  1  0  0  0  0
  8  9  1  0  0  0  0
  8 27  1  0  0  0  0
  9 10  1  0  0  0  0
  9 28  1  0  0  0  0
  9 29  1  0  0  0  0
 10 11  1  0  0  0  0
 10 12  1  0  0  0  0
 10 30  1  0  0  0  0
 11 31  1  0  0  0  0
 11 32  1  0  0  0  0
 11 33  1  0  0  0  0
 12 19  1  0  0  0  0
 12 13  1  0  0  0  0
 12 46  1  0  0  0  0
 13 14  1  0  0  0  0
 13 34  1  0  0  0  0
 13 35  1  0  0  0  0
 14 15  1  0  0  0  0
 14 16  1  0  0  0  0
 14 36  1  0  0  0  0
 15 37  1  0  0  0  0
 15 38  1  0  0  0  0
 15 39  1  0  0  0  0
 16 17  1  0  0  0  0
 17 18  1  0  0  0  0
 17 19  1  0  0  0  0
 17 40  1  0  0  0  0
 18 41  1  0  0  0  0
 18 42  1  0  0  0  0
 18 43  1  0  0  0  0
 19 44  1  0  0  0  0
 19 45  1  0  0  0  0
 20 21  1  0  0  0  0
M  CHG  1  12   1
M  END
> <s_m_source_file>
AV-unprocessed.smi

> <i_m_source_file_index>
2061

> <i_lp_mmshare_version>
43012

> <i_f3d_flags>
0

> <s_epik_input>
W0NIM11jMVtjSF1jKG5vMSlbTkhdQyg9TylbTkhdW0NIMl1bQ0BIXShbQ0gzXSlOMltDSDJdW0NAQEhdKFtDSDNdKU9bQ0BASF0oW0NIM10pW0NIMl0y

> <s_epik_cmdline>
J2VwaWtfcHl0aG9uJywgJy1waCcsICc3LjAnLCAnLXRuJywgJzgnLCAnLW1hJywgJzIwMCcsICctbWV0YWxfYmluZGluZycsICctaW1hZScsICc8aW5maWxlLm1hZT4nLCAnLW9tYWUnLCAnPG91dGZpbGUubWFlPic=

> <r_epik_Ionization_Penalty>
0.707076

> <r_epik_Ionization_Penalty_Charging>
0.707039

> <r_epik_Ionization_Penalty_Neutral>
3.6548e-05

> <r_epik_State_Penalty>
0.730276

> <r_epik_Charging_Adjusted_Penalty>
1.43732

> <i_epik_Tot_Q>
1

> <i_epik_Tot_abs_Q>
1

> <r_epik_Metal_State_Penalty>
0.743132

> <b_epik_Metal_Only>
0

> <s_lp_Force_Field>
OPLS_2005

> <r_lp_Energy>
19.8294

> <b_lp_Chiralities_Consistent>
1

> <s_lp_Variant>
AV-unprocessed.smi:2061-11

> <Gold.Version>
5.8.1

> <Gold.Id.Protein>
6NUR|6NUR_protein|mol2

> <Gold.PLP.Fitness>
40.5296

> <Gold.PLP.PLP>
-29.8462

> <Gold.PLP.part.hbond>
-3.9366

> <Gold.PLP.part.metal>
0.0000

> <Gold.PLP.part.buried>
-5.7016

> <Gold.PLP.part.nonpolar>
-21.4210

> <Gold.PLP.part.repulsive>
0.2374

> <Gold.PLP.ligand.clash>
0.0000

> <Gold.PLP.ligand.torsion>
0.4412

> <Gold.PLP.Chemscore.Hbond>
3.8400

> <Gold.PLP.Chemscore.CHOScore>
0.0000

> <Gold.PLP.Chemscore.Metal>
0.0000

> <Gold.Chemscore.Hbonds>
donor molecule, donor type, donor heavy atom, donor atom, acceptor molecule, acceptor atom, score
      L1  H     5    26       P1 10175  1.00
      L1  H     8    27       P1 10175  1.00
      P1  H  7989  7998       L1    16  0.99
      P1  H 11000 11005       L1    21  0.96

> <Gold.PLP.Chemscore.Internal.Correction>
0.0458

> <Gold.Rescore>
     Score         DG    S(hbond)    S(metal)    S(lipo)     H(rot)  DE(clash)    DE(int)     intcor
     18.92     -20.60       3.64        0.00      59.79       1.58       0.07       1.61       ----

> <Gold.Chemscore.Fitness>
18.9172

> <Gold.Chemscore.DG>
-20.5959

> <Gold.Chemscore.ZeroCoef>
-5.4800

> <Gold.Chemscore.Hbond>
3.6450

> <Gold.Chemscore.Metal>
0.0000

> <Gold.Chemscore.Lipo>
59.7882

> <Gold.Chemscore.Internal_Hbond>
0.0000

> <Gold.Chemscore.DEClash>
0.0650

> <Gold.Chemscore.DEInternal>
1.6136

> <Gold.Chemscore.Rot>
1.5834

> <Gold.Chemscore.Internal.Correction>
   9.000000E+99

> <Gold.Chemscore.Hbonds>
donor molecule, donor type, donor heavy atom, donor atom, acceptor molecule, acceptor atom, score
      L1  H     5    26       P1 10175  0.99
      L1  H     8    27       P1 10175  0.96
      P1  H  7989  7998       L1    16  0.82
      P1  H 11000 11005       L1    21  0.58

> <Gold.Chemscore.Hbond.Weighted>
-12.1742

> <Gold.Chemscore.Metal.Weighted>
-0.0000

> <Gold.Chemscore.Lipo.Weighted>
-6.9952

> <Gold.Chemscore.Internal_Hbond.Weighted>
0.0000

> <Gold.Chemscore.DEClash.Weighted>
0.0650

> <Gold.Chemscore.DEInternal.Weighted>
1.6136

> <Gold.Chemscore.Rot.Weighted>
4.0535

> <Gold.Chemscore.Internal.Correction.Weighted>
   9.000000E+99

> <Gold.Protein.RotatedTorsions>
[ 6907 6896 6895 6894 ] final  108.27 input  -60.11 | X-H torsion
[ 7974 7965 7964 7962 ] final -156.73 input  175.53 | X-H torsion
[ 8008 7997 7996 7995 ] final  132.23 input   59.86 | X-H torsion
[ 10167 10162 10161 10158 ] final   98.37 input  -65.29 | X-H torsion
[ 10718 10713 10712 10709 ] final -173.18 input   66.30 | X-H torsion
[ 10763 10752 10751 10750 ] final -130.22 input  -60.55 | X-H torsion
[ 11005 11000 10999 10996 ] final   39.82 input  -57.11 | X-H torsion

> <Gold.Protein.ActiveResidues>
 VAL166  LYS551  ARG553  GLY616  TRP617  ASP618  TYR619  PRO620  LYS621  CYS622 
 ASP623  PHE694  ASN695  SER759  ASP760  ASP761  ALA762  ILE779  LEU786  VAL792 
 PHE793  MET794  SER795  GLU796  ALA797  LYS798  CYS799  TRP800  GLU811  SER814 

> <Gold.Protein.RotatedAtoms>
  152.5119  133.9113  159.7488 H   0  0  0  0  0  0  0  0  0  0  0  0  # atno 6907 bound_to 6896
  150.9506  133.6545  159.2779 H   0  0  0  0  0  0  0  0  0  0  0  0  # atno 6908 bound_to 6896
  151.3825  135.0947  159.9553 H   0  0  0  0  0  0  0  0  0  0  0  0  # atno 6909 bound_to 6896
  144.7580  140.4068  143.5998 H   0  0  0  0  0  0  0  0  0  0  0  0  # atno 7974 bound_to 7965
  156.2980  140.2551  156.3055 H   0  0  0  0  0  0  0  0  0  0  0  0  # atno 8008 bound_to 7997
  154.9376  140.0397  157.2099 H   0  0  0  0  0  0  0  0  0  0  0  0  # atno 8009 bound_to 7997
  154.8157  140.2852  155.5826 H   0  0  0  0  0  0  0  0  0  0  0  0  # atno 8010 bound_to 7997
  139.7714  144.6921  151.0150 H   0  0  0  0  0  0  0  0  0  0  0  0  # atno 10167 bound_to 10162
  156.7665  130.9433  151.3119 H   0  0  0  0  0  0  0  0  0  0  0  0  # atno 10718 bound_to 10713
  154.8756  135.3869  154.4048 H   0  0  0  0  0  0  0  0  0  0  0  0  # atno 10763 bound_to 10752
  153.4768  135.7030  153.5966 H   0  0  0  0  0  0  0  0  0  0  0  0  # atno 10764 bound_to 10752
  153.4399  135.3858  155.2189 H   0  0  0  0  0  0  0  0  0  0  0  0  # atno 10765 bound_to 10752
  140.1991  134.3893  155.8106 H   0  0  0  0  0  0  0  0  0  0  0  0  # atno 11005 bound_to 11000
  145.6715  139.1600  143.2752 LP  0  0  0  0  0  0  0  0  0  0  0  0  # atno 17320 bound_to 7965
  146.1611  140.6786  142.9277 LP  0  0  0  0  0  0  0  0  0  0  0  0  # atno 17321 bound_to 7965
  140.7814  143.4584  151.0313 LP  0  0  0  0  0  0  0  0  0  0  0  0  # atno 17342 bound_to 10162
  139.8267  143.7746  152.3179 LP  0  0  0  0  0  0  0  0  0  0  0  0  # atno 17343 bound_to 10162
  157.6710  130.9051  150.0041 LP  0  0  0  0  0  0  0  0  0  0  0  0  # atno 17370 bound_to 10713
  156.1305  130.3643  149.9739 LP  0  0  0  0  0  0  0  0  0  0  0  0  # atno 17371 bound_to 10713
  141.2227  133.7084  156.8226 LP  0  0  0  0  0  0  0  0  0  0  0  0  # atno 17394 bound_to 11000
  140.2074  134.8852  157.3237 LP  0  0  0  0  0  0  0  0  0  0  0  0  # atno 17395 bound_to 11000

$$$$
