AV-unprocessed.smi:1742|AV-procd|sdf|7020|dock1
  -GOLD-   22720 8233D 1   1.00000     0.00000
 Structure written by MMmdl.
 34 35  0  0  0  0  0  0  0  0  1 V2000
  146.1109  129.9498  151.7208 C   0  0  0  0  0  0  0  0  0  0  0  0
  147.0445  129.5233  152.8601 C   0  0  0  0  0  0  0  0  0  0  0  0
  147.7660  130.6510  153.4169 N   0  0  0  0  0  0  0  0  0  0  0  0
  147.9242  131.9127  152.8787 C   0  0  0  0  0  0  0  0  0  0  0  0
  148.6798  132.6068  153.7809 C   0  0  0  0  0  0  0  0  0  0  0  0
  149.1360  133.9478  153.7308 N   0  0  0  0  0  0  0  0  0  0  0  0
  149.8922  134.5924  154.6396 C   0  0  0  0  0  0  0  0  0  0  0  0
  150.3066  134.0895  155.6821 O   0  0  0  0  0  0  0  0  0  0  0  0
  150.1662  135.8718  154.3265 N   0  0  0  0  0  0  0  0  0  0  0  0
  150.9535  136.8430  155.0881 C   0  0  2  0  0  0  0  0  0  0  0  0
  150.1626  137.3602  156.3042 C   0  0  0  0  0  0  0  0  0  0  0  0
  150.8645  138.6072  156.8569 C   0  0  0  0  0  0  0  0  0  0  0  0
  151.6741  139.4140  155.4236 S   0  0  0  0  0  0  0  0  0  0  0  0
  150.9058  140.6030  155.0249 O   0  0  0  0  0  0  0  0  0  0  0  0
  153.1200  139.4967  155.6794 O   0  0  0  0  0  0  0  0  0  0  0  0
  151.3445  138.0606  154.2345 C   0  0  0  0  0  0  0  0  0  0  0  0
  148.9433  131.7027  154.8424 C   0  0  0  0  0  0  0  0  0  0  0  0
  148.3873  130.5224  154.6155 N   0  0  0  0  0  0  0  0  0  0  0  0
  145.5651  129.0928  151.3264 H   0  0  0  0  0  0  0  0  0  0  0  0
  146.6697  130.3950  150.8971 H   0  0  0  0  0  0  0  0  0  0  0  0
  145.3791  130.6814  152.0644 H   0  0  0  0  0  0  0  0  0  0  0  0
  146.4712  129.0485  153.6571 H   0  0  0  0  0  0  0  0  0  0  0  0
  147.7652  128.7855  152.5052 H   0  0  0  0  0  0  0  0  0  0  0  0
  147.4934  132.1888  151.9276 H   0  0  0  0  0  0  0  0  0  0  0  0
  148.8535  134.4770  152.9188 H   0  0  0  0  0  0  0  0  0  0  0  0
  149.7590  136.2165  153.4690 H   0  0  0  0  0  0  0  0  0  0  0  0
  151.8615  136.3705  155.4674 H   0  0  0  0  0  0  0  0  0  0  0  0
  149.1576  137.6410  155.9855 H   0  0  0  0  0  0  0  0  0  0  0  0
  150.0497  136.5932  157.0711 H   0  0  0  0  0  0  0  0  0  0  0  0
  150.1782  139.3010  157.3428 H   0  0  0  0  0  0  0  0  0  0  0  0
  151.6420  138.3304  157.5694 H   0  0  0  0  0  0  0  0  0  0  0  0
  152.2221  137.8888  153.6111 H   0  0  0  0  0  0  0  0  0  0  0  0
  150.5191  138.3746  153.5943 H   0  0  0  0  0  0  0  0  0  0  0  0
  149.5068  131.8597  155.7505 H   0  0  0  0  0  0  0  0  0  0  0  0
  1  2  1  0  0  0  0
  1 19  1  0  0  0  0
  1 20  1  0  0  0  0
  1 21  1  0  0  0  0
  2  3  1  0  0  0  0
  2 22  1  0  0  0  0
  2 23  1  0  0  0  0
  3 18  1  0  0  0  0
  3  4  1  0  0  0  0
  4  5  2  0  0  0  0
  4 24  1  0  0  0  0
  5  6  1  0  0  0  0
  5 17  1  0  0  0  0
  6  7  1  0  0  0  0
  6 25  1  0  0  0  0
  7  8  2  0  0  0  0
  7  9  1  0  0  0  0
  9 10  1  0  0  0  0
  9 26  1  0  0  0  0
 10 16  1  0  0  0  0
 10 11  1  0  0  0  0
 10 27  1  0  0  0  0
 11 12  1  0  0  0  0
 11 28  1  0  0  0  0
 11 29  1  0  0  0  0
 12 13  1  0  0  0  0
 12 30  1  0  0  0  0
 12 31  1  0  0  0  0
 13 14  2  0  0  0  0
 13 15  2  0  0  0  0
 13 16  1  0  0  0  0
 16 32  1  0  0  0  0
 16 33  1  0  0  0  0
 17 18  2  0  0  0  0
 17 34  1  0  0  0  0
M  END
> <s_m_source_file>
AV-unprocessed.smi

> <i_m_source_file_index>
1742

> <i_lp_mmshare_version>
43012

> <i_f3d_flags>
0

> <s_epik_input>
W0NIM11bQ0gyXW4xW2NIXWMoW2NIXW4xKVtOSF1DKD1PKVtOSF1bQ0BASF0oW0NIMl0yKVtDSDJdW0NIMl1TMig9Tyk9Tw==

> <s_epik_cmdline>
J2VwaWtfcHl0aG9uJywgJy1waCcsICc3LjAnLCAnLXRuJywgJzgnLCAnLW1hJywgJzIwMCcsICctbWV0YWxfYmluZGluZycsICctaW1hZScsICc8aW5maWxlLm1hZT4nLCAnLW9tYWUnLCAnPG91dGZpbGUubWFlPic=

> <r_lp_tautomer_probability>
1

> <r_epik_Ionization_Penalty>
0.000152028

> <r_epik_Ionization_Penalty_Charging>
0

> <r_epik_Ionization_Penalty_Neutral>
0.000152028

> <r_epik_State_Penalty>
-0

> <r_epik_Charging_Adjusted_Penalty>
0

> <i_epik_Tot_Q>
0

> <i_epik_Tot_abs_Q>
0

> <r_epik_Metal_State_Penalty>
-0

> <b_epik_Metal_Only>
0

> <s_lp_Force_Field>
OPLS_2005

> <r_lp_Energy>
18.8919

> <b_lp_Chiralities_Consistent>
1

> <s_lp_Variant>
AV-unprocessed.smi:1742-1

> <Gold.Version>
5.8.1

> <Gold.Id.Protein>
6NUR|6NUR_protein|mol2

> <Gold.PLP.Fitness>
39.7028

> <Gold.PLP.PLP>
-28.5031

> <Gold.PLP.part.hbond>
-4.7557

> <Gold.PLP.part.metal>
0.0000

> <Gold.PLP.part.buried>
-1.4133

> <Gold.PLP.part.nonpolar>
-22.1973

> <Gold.PLP.part.repulsive>
0.1824

> <Gold.PLP.ligand.clash>
0.0000

> <Gold.PLP.ligand.torsion>
0.3840

> <Gold.PLP.Chemscore.Hbond>
3.6048

> <Gold.PLP.Chemscore.CHOScore>
0.3843

> <Gold.PLP.Chemscore.Metal>
0.0000

> <Gold.Chemscore.Hbonds>
donor molecule, donor type, donor heavy atom, donor atom, acceptor molecule, acceptor atom, score
      L1  H     6    25       P1  7948  0.54
      L1  H     9    26       P1  7948  0.95
      P1  H  7989  7998       L1    14  0.91
      P1  H  7997  8010       L1    15  0.88
      L1  C     4    24       P1 10747  0.37

> <Gold.PLP.Chemscore.Internal.Correction>
0.0003

> <Gold.Rescore>
     Score         DG    S(hbond)    S(metal)    S(lipo)     H(rot)  DE(clash)    DE(int)     intcor
     15.91     -17.80       2.89        0.00      50.45       1.26       0.04       1.85       ----

> <Gold.Chemscore.Fitness>
15.9145

> <Gold.Chemscore.DG>
-17.8048

> <Gold.Chemscore.ZeroCoef>
-5.4800

> <Gold.Chemscore.Hbond>
2.8850

> <Gold.Chemscore.Metal>
0.0000

> <Gold.Chemscore.Lipo>
50.4501

> <Gold.Chemscore.Internal_Hbond>
0.0000

> <Gold.Chemscore.DEClash>
0.0388

> <Gold.Chemscore.DEInternal>
1.8514

> <Gold.Chemscore.Rot>
1.2554

> <Gold.Chemscore.Internal.Correction>
   9.000000E+99

> <Gold.Chemscore.Hbonds>
donor molecule, donor type, donor heavy atom, donor atom, acceptor molecule, acceptor atom, score
      L1  H     6    25       P1  7948  0.03
      L1  H     9    26       P1  7948  0.21
      P1  H  7989  7998       L1    14  0.20
      P1  H  7997  8010       L1    15  0.86

> <Gold.Chemscore.Hbond.Weighted>
-9.6360

> <Gold.Chemscore.Metal.Weighted>
-0.0000

> <Gold.Chemscore.Lipo.Weighted>
-5.9027

> <Gold.Chemscore.Internal_Hbond.Weighted>
0.0000

> <Gold.Chemscore.DEClash.Weighted>
0.0388

> <Gold.Chemscore.DEInternal.Weighted>
1.8514

> <Gold.Chemscore.Rot.Weighted>
3.2139

> <Gold.Chemscore.Internal.Correction.Weighted>
   9.000000E+99

> <Gold.Protein.RotatedTorsions>
[ 6907 6896 6895 6894 ] final  -30.48 input  -60.11 | X-H torsion
[ 7974 7965 7964 7962 ] final   55.83 input  175.53 | X-H torsion
[ 8008 7997 7996 7995 ] final   96.02 input   59.86 | X-H torsion
[ 10167 10162 10161 10158 ] final -139.61 input  -65.29 | X-H torsion
[ 10718 10713 10712 10709 ] final  -13.02 input   66.30 | X-H torsion
[ 10763 10752 10751 10750 ] final  170.61 input  -60.55 | X-H torsion
[ 11005 11000 10999 10996 ] final -111.04 input  -57.11 | X-H torsion

> <Gold.Protein.ActiveResidues>
 VAL166  LYS551  ARG553  GLY616  TRP617  ASP618  TYR619  PRO620  LYS621  CYS622 
 ASP623  PHE694  ASN695  SER759  ASP760  ASP761  ALA762  ILE779  LEU786  VAL792 
 PHE793  MET794  SER795  GLU796  ALA797  LYS798  CYS799  TRP800  GLU811  SER814 

> <Gold.Protein.RotatedAtoms>
  151.1049  134.9994  159.8466 H   0  0  0  0  0  0  0  0  0  0  0  0  # atno 6907 bound_to 6896
  152.5439  134.1905  159.8682 H   0  0  0  0  0  0  0  0  0  0  0  0  # atno 6908 bound_to 6896
  151.1951  133.4600  159.2628 H   0  0  0  0  0  0  0  0  0  0  0  0  # atno 6909 bound_to 6896
  145.9462  139.3932  143.0333 H   0  0  0  0  0  0  0  0  0  0  0  0  # atno 7974 bound_to 7965
  156.0752  140.3278  155.7624 H   0  0  0  0  0  0  0  0  0  0  0  0  # atno 8008 bound_to 7997
  155.5242  140.0588  157.2918 H   0  0  0  0  0  0  0  0  0  0  0  0  # atno 8009 bound_to 7997
  154.4551  140.1938  156.0420 H   0  0  0  0  0  0  0  0  0  0  0  0  # atno 8010 bound_to 7997
  139.8362  143.7382  152.2665 H   0  0  0  0  0  0  0  0  0  0  0  0  # atno 10167 bound_to 10162
  156.6363  130.4915  149.6111 H   0  0  0  0  0  0  0  0  0  0  0  0  # atno 10718 bound_to 10713
  154.4001  135.2755  155.2102 H   0  0  0  0  0  0  0  0  0  0  0  0  # atno 10763 bound_to 10752
  154.4131  135.6017  153.5968 H   0  0  0  0  0  0  0  0  0  0  0  0  # atno 10764 bound_to 10752
  152.9831  135.5954  154.4268 H   0  0  0  0  0  0  0  0  0  0  0  0  # atno 10765 bound_to 10752
  141.0757  133.9305  157.2394 H   0  0  0  0  0  0  0  0  0  0  0  0  # atno 11005 bound_to 11000
  145.8233  140.9668  143.0887 LP  0  0  0  0  0  0  0  0  0  0  0  0  # atno 17320 bound_to 7965
  144.6787  140.0069  143.7484 LP  0  0  0  0  0  0  0  0  0  0  0  0  # atno 17321 bound_to 7965
  139.7604  144.7508  151.0372 LP  0  0  0  0  0  0  0  0  0  0  0  0  # atno 17342 bound_to 10162
  140.7802  143.4757  151.0086 LP  0  0  0  0  0  0  0  0  0  0  0  0  # atno 17343 bound_to 10162
  156.2195  130.6728  151.1353 LP  0  0  0  0  0  0  0  0  0  0  0  0  # atno 17370 bound_to 10713
  157.7185  131.0696  150.6233 LP  0  0  0  0  0  0  0  0  0  0  0  0  # atno 17371 bound_to 10713
  139.9569  135.0163  156.9154 LP  0  0  0  0  0  0  0  0  0  0  0  0  # atno 17394 bound_to 11000
  140.5578  134.0564  155.7389 LP  0  0  0  0  0  0  0  0  0  0  0  0  # atno 17395 bound_to 11000

$$$$
