#       Name:                AV-unprocessed.smi:3112
#       Creating user name   scv26
#       Creation time:       Fri Mar 27 17:21:46 2020


#       File generated by GOLD software.
#

@<TRIPOS>MOLECULE
AV-unprocessed.smi:3112
    40    40     1
SMALL
NO_CHARGES


@<TRIPOS>ATOM
      1 ****        -3.3424   3.3826   0.8957 C.3            1 S1                 0.0000
      2 ****        -2.8331   1.9366   0.8248 C.3            1 S1                 0.0000
      3 ****        -1.2998   1.8292   0.7411 C.3            1 S1                 0.0000
      4 ****        -0.8678   2.3697  -0.4927 O.3            1 S1                 0.0000
      5 ****        -0.8202   0.3716   0.8278 C.3            1 S1                 0.0000
      6 ****         0.6507   0.2994   0.9511 N.4            1 S1                 1.0000
      7 ****         1.2129  -1.0717   0.9508 C.3            1 S1                 0.0000
      8 ****         2.0823  -1.2412   2.2076 C.3            1 S1                 0.0000
      9 ****         1.9974  -1.3394  -0.3616 C.3            1 S1                 0.0000
     10 ****         2.6116  -2.7506  -0.4288 C.3            1 S1                 0.0000
     11 ****         1.1599  -1.1053  -1.5333 N.pl3          1 S1                 0.0000
     12 ****         0.1614  -1.9002  -2.0618 C.2            1 S1                 0.0000
     13 ****        -0.3643  -1.2378  -3.1337 C.2            1 S1                 0.0000
     14 ****         0.3791  -0.0262  -3.1806 C.2            1 S1                 0.0000
     15 ****         1.2818   0.0541  -2.2172 N.2            1 S1                 0.0000
     16 ****        -4.4287   3.4053   0.9843 H              1 S1                 0.0000
     17 ****        -3.0729   3.9455   0.0019 H              1 S1                 0.0000
     18 ****        -2.9287   3.9047   1.7588 H              1 S1                 0.0000
     19 ****        -3.1799   1.4107   1.7152 H              1 S1                 0.0000
     20 ****        -3.2911   1.4278  -0.0246 H              1 S1                 0.0000
     21 ****        -0.8545   2.4072   1.5522 H              1 S1                 0.0000
     22 ****        -1.3045   1.9119  -1.1952 H              1 S1                 0.0000
     23 ****        -1.2571  -0.1122   1.7025 H              1 S1                 0.0000
     24 ****        -1.1539  -0.1890  -0.0464 H              1 S1                 0.0000
     25 ****         1.0592   0.8092   0.1796 H              1 S1                 0.0000
     26 ****         0.3951  -1.7914   1.0215 H              1 S1                 0.0000
     27 ****         2.4208  -2.2697   2.3292 H              1 S1                 0.0000
     28 ****         1.5218  -0.9845   3.1074 H              1 S1                 0.0000
     29 ****         2.9632  -0.5993   2.1720 H              1 S1                 0.0000
     30 ****         2.8271  -0.6310  -0.4099 H              1 S1                 0.0000
     31 ****         3.3860  -2.8886   0.3253 H              1 S1                 0.0000
     32 ****         3.0798  -2.9271  -1.3978 H              1 S1                 0.0000
     33 ****         1.8587  -3.5246  -0.2776 H              1 S1                 0.0000
     34 ****        -0.0921  -2.8599  -1.6359 H              1 S1                 0.0000
     35 ****        -1.1606  -1.5672  -3.7846 H              1 S1                 0.0000
     36 ****         0.2865   0.7944  -3.8769 H              1 S1                 0.0000
     37 ****         0.9167   0.7563   1.8114 H              1 S1                 0.0000
     38 ****         0.1217   2.2561  -0.5814 LP             1 S1                 0.0000
     39 ****        -1.0965   3.3424  -0.5321 LP             1 S1                 0.0000
     40 ****         1.9148   0.8066  -2.0351 LP             1 S1                 0.0000
@<TRIPOS>BOND
    1    1    2 1     
    2    1   16 1     
    3    1   17 1     
    4    1   18 1     
    5    2    3 1     
    6    2   19 1     
    7    2   20 1     
    8    3    4 1     
    9    3    5 1     
   10    3   21 1     
   11    4   22 1     
   12    5    6 1     
   13    5   23 1     
   14    5   24 1     
   15    6    7 1     
   16    6   25 1     
   17    6   37 1     
   18    7    8 1     
   19    7    9 1     
   20    7   26 1     
   21    8   27 1     
   22    8   28 1     
   23    8   29 1     
   24    9   10 1     
   25    9   11 1     
   26    9   30 1     
   27   10   31 1     
   28   10   32 1     
   29   10   33 1     
   30   11   15 1     
   31   11   12 1     
   32   12   13 2     
   33   12   34 1     
   34   13   14 1     
   35   13   35 1     
   36   14   15 2     
   37   14   36 1     
   38    4   38 1     
   39    4   39 1     
   40   15   40 1     
@<TRIPOS>SUBSTRUCTURE
      1 S1             1
@<TRIPOS>SET
LONE_PAIRS      STATIC     ATOMS    <user>   **** ""
3 38 39 40
DONOR_HYDROGENS      STATIC     ATOMS    <user>   **** ""
3 22 25 37
ATOM$BLUE        STATIC     ATOMS    COLORGROUP SYSTEM
3 38 39 40
ATOM$RED        STATIC     ATOMS    COLORGROUP SYSTEM
3 22 25 37
