AV-unprocessed.smi:183|AV-procd|sdf|1459|dock6
  -GOLD-   2262019263D 1   1.00000     0.00000
 Structure written by MMmdl.
 55 57  0  0  0  0  0  0  0  0  1 V2000
  146.7319  142.6389  154.1623 C   0  0  0  0  0  0  0  0  0  0  0  0
  147.9361  141.7234  154.3531 C   0  0  0  0  0  0  0  0  0  0  0  0
  147.9754  140.6286  153.7923 O   0  0  0  0  0  0  0  0  0  0  0  0
  148.9128  142.1860  155.1477 N   0  0  0  0  0  0  0  0  0  0  0  0
  150.1403  141.4684  155.4640 C   0  0  0  0  0  0  0  0  0  0  0  0
  150.3441  141.3532  156.9878 C   0  0  0  0  0  0  0  0  0  0  0  0
  151.5749  140.6510  157.3626 N   0  0  0  0  0  0  0  0  0  0  0  0
  151.7470  139.5264  156.6252 C   0  0  0  0  0  0  0  0  0  0  0  0
  152.6050  139.6004  155.5768 N   0  0  0  0  0  0  0  0  0  0  0  0
  152.8110  138.5310  154.8024 C   0  0  0  0  0  0  0  0  0  0  0  0
  152.2668  137.3162  154.8943 N   0  0  0  0  0  0  0  0  0  0  0  0
  151.3959  137.2407  155.9412 C   0  0  0  0  0  0  0  0  0  0  0  0
  151.0768  138.2891  156.8494 C   0  0  0  0  0  0  0  0  0  0  0  0
  150.1386  137.8435  157.7736 N   0  0  0  0  0  0  0  0  0  0  0  0
  149.9190  136.6034  157.4333 C   0  0  0  0  0  0  0  0  0  0  0  0
  150.6389  136.1564  156.3488 N   0  0  0  0  0  0  0  0  0  0  0  0
  150.5936  134.8269  155.7607 C   0  0  0  0  0  0  0  0  0  0  0  0
  149.2936  134.5489  154.9694 C   0  0  1  0  0  0  0  0  0  0  0  0
  148.8801  135.7515  154.3404 O   0  0  0  0  0  0  0  0  0  0  0  0
  149.4362  133.4744  153.9010 C   0  0  0  0  0  0  0  0  0  0  0  0
  148.0058  132.9763  153.7408 C   0  0  0  0  0  0  0  0  0  0  0  0
  147.4669  133.0105  155.0551 O   0  0  0  0  0  0  0  0  0  0  0  0
  148.1626  133.9704  155.8500 C   0  0  2  0  0  0  0  0  0  0  0  0
  147.1822  134.9824  156.4644 C   0  0  0  0  0  0  0  0  0  0  0  0
  152.0104  140.6223  158.7698 C   0  0  0  0  0  0  0  0  0  0  0  0
  152.2699  142.0385  159.3177 C   0  0  0  0  0  0  0  0  0  0  0  0
  153.2816  139.7701  158.9772 C   0  0  0  0  0  0  0  0  0  0  0  0
  147.0100  143.5109  153.5697 H   0  0  0  0  0  0  0  0  0  0  0  0
  146.3531  142.9808  155.1259 H   0  0  0  0  0  0  0  0  0  0  0  0
  145.9258  142.1168  153.6459 H   0  0  0  0  0  0  0  0  0  0  0  0
  148.7950  143.0973  155.5661 H   0  0  0  0  0  0  0  0  0  0  0  0
  150.0721  140.4792  155.0123 H   0  0  0  0  0  0  0  0  0  0  0  0
  150.9873  141.9677  154.9921 H   0  0  0  0  0  0  0  0  0  0  0  0
  150.3471  142.3510  157.4298 H   0  0  0  0  0  0  0  0  0  0  0  0
  149.4923  140.8463  157.4404 H   0  0  0  0  0  0  0  0  0  0  0  0
  153.5108  138.6694  153.9918 H   0  0  0  0  0  0  0  0  0  0  0  0
  149.2235  135.9753  157.9704 H   0  0  0  0  0  0  0  0  0  0  0  0
  151.4627  134.7195  155.1103 H   0  0  0  0  0  0  0  0  0  0  0  0
  150.7164  134.0904  156.5560 H   0  0  0  0  0  0  0  0  0  0  0  0
  148.8894  135.6185  153.4050 H   0  0  0  0  0  0  0  0  0  0  0  0
  149.8714  133.8353  152.9680 H   0  0  0  0  0  0  0  0  0  0  0  0
  150.0599  132.6584  154.2684 H   0  0  0  0  0  0  0  0  0  0  0  0
  147.4324  133.6509  153.1035 H   0  0  0  0  0  0  0  0  0  0  0  0
  147.9532  131.9756  153.3115 H   0  0  0  0  0  0  0  0  0  0  0  0
  148.6117  133.3992  156.6637 H   0  0  0  0  0  0  0  0  0  0  0  0
  147.7103  135.7277  157.0594 H   0  0  0  0  0  0  0  0  0  0  0  0
  146.4697  134.4798  157.1187 H   0  0  0  0  0  0  0  0  0  0  0  0
  146.6092  135.5047  155.6981 H   0  0  0  0  0  0  0  0  0  0  0  0
  151.2107  140.1843  159.3669 H   0  0  0  0  0  0  0  0  0  0  0  0
  152.6416  142.0000  160.3419 H   0  0  0  0  0  0  0  0  0  0  0  0
  151.3610  142.6396  159.3387 H   0  0  0  0  0  0  0  0  0  0  0  0
  153.0106  142.5674  158.7170 H   0  0  0  0  0  0  0  0  0  0  0  0
  153.6050  139.7991  160.0180 H   0  0  0  0  0  0  0  0  0  0  0  0
  154.1065  140.1380  158.3661 H   0  0  0  0  0  0  0  0  0  0  0  0
  153.1267  138.7205  158.7294 H   0  0  0  0  0  0  0  0  0  0  0  0
  1  2  1  0  0  0  0
  1 28  1  0  0  0  0
  1 29  1  0  0  0  0
  1 30  1  0  0  0  0
  2  3  2  0  0  0  0
  2  4  1  0  0  0  0
  4  5  1  0  0  0  0
  4 31  1  0  0  0  0
  5  6  1  0  0  0  0
  5 32  1  0  0  0  0
  5 33  1  0  0  0  0
  6  7  1  0  0  0  0
  6 34  1  0  0  0  0
  6 35  1  0  0  0  0
  7  8  1  0  0  0  0
  7 25  1  0  0  0  0
  8 13  1  0  0  0  0
  8  9  2  0  0  0  0
  9 10  1  0  0  0  0
 10 11  2  0  0  0  0
 10 36  1  0  0  0  0
 11 12  1  0  0  0  0
 12 16  1  0  0  0  0
 12 13  2  0  0  0  0
 13 14  1  0  0  0  0
 14 15  2  0  0  0  0
 15 16  1  0  0  0  0
 15 37  1  0  0  0  0
 16 17  1  0  0  0  0
 17 18  1  0  0  0  0
 17 38  1  0  0  0  0
 17 39  1  0  0  0  0
 18 23  1  0  0  0  0
 18 19  1  0  0  0  0
 18 20  1  0  0  0  0
 19 40  1  0  0  0  0
 20 21  1  0  0  0  0
 20 41  1  0  0  0  0
 20 42  1  0  0  0  0
 21 22  1  0  0  0  0
 21 43  1  0  0  0  0
 21 44  1  0  0  0  0
 22 23  1  0  0  0  0
 23 24  1  0  0  0  0
 23 45  1  0  0  0  0
 24 46  1  0  0  0  0
 24 47  1  0  0  0  0
 24 48  1  0  0  0  0
 25 26  1  0  0  0  0
 25 27  1  0  0  0  0
 25 49  1  0  0  0  0
 26 50  1  0  0  0  0
 26 51  1  0  0  0  0
 26 52  1  0  0  0  0
 27 53  1  0  0  0  0
 27 54  1  0  0  0  0
 27 55  1  0  0  0  0
M  END
> <s_m_source_file>
AV-unprocessed.smi

> <i_m_source_file_index>
183

> <i_lp_mmshare_version>
43012

> <i_f3d_flags>
0

> <s_epik_input>
W0NIM11DKD1PKVtOSF1bQ0gyXVtDSDJdTihbQ0hdKFtDSDNdKVtDSDNdKWMobltjSF1uMSljKGMxMiluW2NIXW4yW0NIMl1bQ0BAXTMoW09IXSlbQ0gyXVtDSDJdT1tDQEhdM1tDSDNd

> <s_epik_cmdline>
J2VwaWtfcHl0aG9uJywgJy1waCcsICc3LjAnLCAnLXRuJywgJzgnLCAnLW1hJywgJzIwMCcsICctbWV0YWxfYmluZGluZycsICctaW1hZScsICc8aW5maWxlLm1hZT4nLCAnLW9tYWUnLCAnPG91dGZpbGUubWFlPic=

> <r_lp_tautomer_probability>
1

> <r_epik_Ionization_Penalty>
0.00156158

> <r_epik_Ionization_Penalty_Charging>
0

> <r_epik_Ionization_Penalty_Neutral>
0.00156158

> <r_epik_State_Penalty>
0.000865808

> <r_epik_Charging_Adjusted_Penalty>
0.000865808

> <i_epik_Tot_Q>
0

> <i_epik_Tot_abs_Q>
0

> <r_epik_Metal_State_Penalty>
-0

> <b_epik_Metal_Only>
0

> <s_lp_Force_Field>
OPLS_2005

> <r_lp_Energy>
29.9876

> <b_lp_Chiralities_Consistent>
1

> <s_lp_Variant>
AV-unprocessed.smi:183-3

> <Gold.Version>
5.8.1

> <Gold.Id.Protein>
6NUR|6NUR_protein|mol2

> <Gold.PLP.Fitness>
50.3984

> <Gold.PLP.PLP>
-40.6184

> <Gold.PLP.part.hbond>
-3.9438

> <Gold.PLP.part.metal>
0.0000

> <Gold.PLP.part.buried>
-7.7365

> <Gold.PLP.part.nonpolar>
-30.6443

> <Gold.PLP.part.repulsive>
0.5507

> <Gold.PLP.ligand.clash>
0.0000

> <Gold.PLP.ligand.torsion>
1.2371

> <Gold.PLP.Chemscore.Hbond>
3.7360

> <Gold.PLP.Chemscore.CHOScore>
0.0000

> <Gold.PLP.Chemscore.Metal>
0.0000

> <Gold.Chemscore.Hbonds>
donor molecule, donor type, donor heavy atom, donor atom, acceptor molecule, acceptor atom, score
      L1  H     4    31       P1  8028  1.00
      L1  H    19    40       P1  7948  1.00
      P1  H  7997  8009       L1     9  1.00
      P1  H 10752 10765       L1    11  0.75

> <Gold.PLP.Chemscore.Internal.Correction>
1.0461

> <Gold.Rescore>
     Score         DG    S(hbond)    S(metal)    S(lipo)     H(rot)  DE(clash)    DE(int)     intcor
     14.95     -16.17       3.52        0.00      66.30       3.45       0.01       1.21       ----

> <Gold.Chemscore.Fitness>
14.9465

> <Gold.Chemscore.DG>
-16.1674

> <Gold.Chemscore.ZeroCoef>
-5.4800

> <Gold.Chemscore.Hbond>
3.5178

> <Gold.Chemscore.Metal>
0.0000

> <Gold.Chemscore.Lipo>
66.3023

> <Gold.Chemscore.Internal_Hbond>
0.0000

> <Gold.Chemscore.DEClash>
0.0077

> <Gold.Chemscore.DEInternal>
1.2133

> <Gold.Chemscore.Rot>
3.4451

> <Gold.Chemscore.Internal.Correction>
   9.000000E+99

> <Gold.Chemscore.Hbonds>
donor molecule, donor type, donor heavy atom, donor atom, acceptor molecule, acceptor atom, score
      L1  H     4    31       P1  8028  0.98
      L1  H    19    40       P1  7948  0.84
      P1  H  7997  8009       L1     9  0.32
      P1  H 10752 10765       L1    11  0.53

> <Gold.Chemscore.Hbond.Weighted>
-11.7495

> <Gold.Chemscore.Metal.Weighted>
-0.0000

> <Gold.Chemscore.Lipo.Weighted>
-7.7574

> <Gold.Chemscore.Internal_Hbond.Weighted>
0.0000

> <Gold.Chemscore.DEClash.Weighted>
0.0077

> <Gold.Chemscore.DEInternal.Weighted>
1.2133

> <Gold.Chemscore.Rot.Weighted>
8.8194

> <Gold.Chemscore.Internal.Correction.Weighted>
   9.000000E+99

> <Gold.Protein.RotatedTorsions>
[ 6907 6896 6895 6894 ] final    2.59 input  -60.11 | X-H torsion
[ 7974 7965 7964 7962 ] final   -8.44 input  175.53 | X-H torsion
[ 8008 7997 7996 7995 ] final -165.94 input   59.86 | X-H torsion
[ 10167 10162 10161 10158 ] final  -50.35 input  -65.29 | X-H torsion
[ 10718 10713 10712 10709 ] final  135.36 input   66.30 | X-H torsion
[ 10763 10752 10751 10750 ] final  177.36 input  -60.55 | X-H torsion
[ 11005 11000 10999 10996 ] final  -52.35 input  -57.11 | X-H torsion

> <Gold.Protein.ActiveResidues>
 VAL166  LYS551  ARG553  GLY616  TRP617  ASP618  TYR619  PRO620  LYS621  CYS622 
 ASP623  PHE694  ASN695  SER759  ASP760  ASP761  ALA762  ILE779  LEU786  VAL792 
 PHE793  MET794  SER795  GLU796  ALA797  LYS798  CYS799  TRP800  GLU811  SER814 

> <Gold.Protein.RotatedAtoms>
  151.6113  135.1040  160.0081 H   0  0  0  0  0  0  0  0  0  0  0  0  # atno 6907 bound_to 6896
  152.4207  133.7107  159.6488 H   0  0  0  0  0  0  0  0  0  0  0  0  # atno 6908 bound_to 6896
  150.8094  133.8376  159.3211 H   0  0  0  0  0  0  0  0  0  0  0  0  # atno 6909 bound_to 6896
  146.2280  140.2469  142.8345 H   0  0  0  0  0  0  0  0  0  0  0  0  # atno 7974 bound_to 7965
  155.8569  140.0972  157.1639 H   0  0  0  0  0  0  0  0  0  0  0  0  # atno 8008 bound_to 7997
  154.3988  140.1372  156.3974 H   0  0  0  0  0  0  0  0  0  0  0  0  # atno 8009 bound_to 7997
  155.7900  140.3456  155.5346 H   0  0  0  0  0  0  0  0  0  0  0  0  # atno 8010 bound_to 7997
  140.6642  143.2661  151.4346 H   0  0  0  0  0  0  0  0  0  0  0  0  # atno 10167 bound_to 10162
  157.4578  131.1071  150.9956 H   0  0  0  0  0  0  0  0  0  0  0  0  # atno 10718 bound_to 10713
  154.4934  135.2780  155.1478 H   0  0  0  0  0  0  0  0  0  0  0  0  # atno 10763 bound_to 10752
  154.3141  135.6223  153.5482 H   0  0  0  0  0  0  0  0  0  0  0  0  # atno 10764 bound_to 10752
  152.9891  135.5727  154.5360 H   0  0  0  0  0  0  0  0  0  0  0  0  # atno 10765 bound_to 10752
  141.0920  133.6631  156.4012 H   0  0  0  0  0  0  0  0  0  0  0  0  # atno 11005 bound_to 11000
  144.9441  140.8110  143.5612 LP  0  0  0  0  0  0  0  0  0  0  0  0  # atno 17320 bound_to 7965
  145.2423  139.2067  143.4986 LP  0  0  0  0  0  0  0  0  0  0  0  0  # atno 17321 bound_to 7965
  139.5885  144.1551  152.2059 LP  0  0  0  0  0  0  0  0  0  0  0  0  # atno 17342 bound_to 10162
  140.0898  144.5630  150.7062 LP  0  0  0  0  0  0  0  0  0  0  0  0  # atno 17343 bound_to 10162
  157.0763  130.5885  149.5412 LP  0  0  0  0  0  0  0  0  0  0  0  0  # atno 17370 bound_to 10713
  156.0015  130.5095  150.7680 LP  0  0  0  0  0  0  0  0  0  0  0  0  # atno 17371 bound_to 10713
  140.5230  134.6286  157.5324 LP  0  0  0  0  0  0  0  0  0  0  0  0  # atno 17394 bound_to 11000
  139.9748  134.7234  155.9972 LP  0  0  0  0  0  0  0  0  0  0  0  0  # atno 17395 bound_to 11000

$$$$
