AV-unprocessed.smi:1385|AV-procd|sdf|5630|dock5
  -GOLD-   22720 5243D 1   1.00000     0.00000
 Structure written by MMmdl.
 39 40  0  0  0  0  0  0  0  0  2 V2000
  153.9598  141.5565  159.7524 C   0  0  0  0  0  0  0  0  0  0  0  0
  152.9180  141.4914  158.6885 C   0  0  0  0  0  0  0  0  0  0  0  0
  152.8101  140.4594  157.8430 N   0  0  0  0  0  0  0  0  0  0  0  0
  151.7669  140.6239  156.9422 N   0  0  0  0  0  0  0  0  0  0  0  0
  151.1154  141.7785  157.1379 C   0  0  0  0  0  0  0  0  0  0  0  0
  150.0074  142.2014  156.3567 N   0  0  0  0  0  0  0  0  0  0  0  0
  149.3597  141.5218  155.3942 C   0  0  0  0  0  0  0  0  0  0  0  0
  149.6285  140.3792  155.0232 O   0  0  0  0  0  0  0  0  0  0  0  0
  148.3665  142.2536  154.8680 N   0  0  0  0  0  0  0  0  0  0  0  0
  147.4700  141.8143  153.7989 C   0  0  2  0  0  0  0  0  0  0  0  0
  146.3267  142.8209  153.5606 C   0  0  0  0  0  0  0  0  0  0  0  0
  145.3155  142.8279  154.7202 C   0  0  0  0  0  0  0  0  0  0  0  0
  144.7705  141.4655  154.9639 N   0  3  2  0  0  0  0  0  0  0  0  0
  143.6885  141.4447  155.9821 C   0  0  0  0  0  0  0  0  0  0  0  0
  142.9839  140.0876  156.0794 C   0  0  0  0  0  0  0  0  0  0  0  0
  142.5453  139.5533  154.9373 N   0  0  0  0  0  0  0  0  0  0  0  0
  142.8219  139.5352  157.1661 O   0  0  0  0  0  0  0  0  0  0  0  0
  145.8499  140.4902  155.2635 C   0  0  0  0  0  0  0  0  0  0  0  0
  146.8819  140.4299  154.1219 C   0  0  0  0  0  0  0  0  0  0  0  0
  151.7288  142.7667  158.4526 S   0  0  0  0  0  0  0  0  0  0  0  0
  154.8121  140.9280  159.4925 H   0  0  0  0  0  0  0  0  0  0  0  0
  153.5457  141.2120  160.6999 H   0  0  0  0  0  0  0  0  0  0  0  0
  154.3088  142.5821  159.8745 H   0  0  0  0  0  0  0  0  0  0  0  0
  149.6743  143.1342  156.5500 H   0  0  0  0  0  0  0  0  0  0  0  0
  148.2131  143.1790  155.2411 H   0  0  0  0  0  0  0  0  0  0  0  0
  148.0579  141.7259  152.8833 H   0  0  0  0  0  0  0  0  0  0  0  0
  146.7233  143.8246  153.4039 H   0  0  0  0  0  0  0  0  0  0  0  0
  145.8065  142.5580  152.6385 H   0  0  0  0  0  0  0  0  0  0  0  0
  145.7865  143.2028  155.6302 H   0  0  0  0  0  0  0  0  0  0  0  0
  144.5063  143.5181  154.4808 H   0  0  0  0  0  0  0  0  0  0  0  0
  144.1081  141.6476  156.9683 H   0  0  0  0  0  0  0  0  0  0  0  0
  142.9675  142.2387  155.7795 H   0  0  0  0  0  0  0  0  0  0  0  0
  142.0765  138.6586  154.9410 H   0  0  0  0  0  0  0  0  0  0  0  0
  142.6871  140.0459  154.0666 H   0  0  0  0  0  0  0  0  0  0  0  0
  146.3351  140.7592  156.2030 H   0  0  0  0  0  0  0  0  0  0  0  0
  145.4194  139.4980  155.4040 H   0  0  0  0  0  0  0  0  0  0  0  0
  146.3992  140.0311  153.2284 H   0  0  0  0  0  0  0  0  0  0  0  0
  147.6787  139.7284  154.3724 H   0  0  0  0  0  0  0  0  0  0  0  0
  144.3450  141.1608  154.0995 H   0  0  0  0  0  0  0  0  0  0  0  0
  1  2  1  0  0  0  0
  1 21  1  0  0  0  0
  1 22  1  0  0  0  0
  1 23  1  0  0  0  0
  2 20  1  0  0  0  0
  2  3  2  0  0  0  0
  3  4  1  0  0  0  0
  4  5  2  0  0  0  0
  5  6  1  0  0  0  0
  5 20  1  0  0  0  0
  6  7  1  0  0  0  0
  6 24  1  0  0  0  0
  7  8  2  0  0  0  0
  7  9  1  0  0  0  0
  9 10  1  0  0  0  0
  9 25  1  0  0  0  0
 10 19  1  0  0  0  0
 10 11  1  0  0  0  0
 10 26  1  0  0  0  0
 11 12  1  0  0  0  0
 11 27  1  0  0  0  0
 11 28  1  0  0  0  0
 12 13  1  0  0  0  0
 12 29  1  0  0  0  0
 12 30  1  0  0  0  0
 13 14  1  0  0  0  0
 13 18  1  0  0  0  0
 13 39  1  0  0  0  0
 14 15  1  0  0  0  0
 14 31  1  0  0  0  0
 14 32  1  0  0  0  0
 15 16  1  0  0  0  0
 15 17  2  0  0  0  0
 16 33  1  0  0  0  0
 16 34  1  0  0  0  0
 18 19  1  0  0  0  0
 18 35  1  0  0  0  0
 18 36  1  0  0  0  0
 19 37  1  0  0  0  0
 19 38  1  0  0  0  0
M  CHG  1  13   1
M  END
> <s_m_source_file>
AV-unprocessed.smi

> <i_m_source_file_index>
1385

> <i_lp_mmshare_version>
43012

> <i_f3d_flags>
0

> <s_epik_input>
W0NIM11jMW5uYyhzMSlbTkhdQyg9TylbTkhdW0NIXTJbQ0gyXVtDSDJdTihbQ0gyXVtDSDJdMilbQ0gyXUMoPU8pW05IMl0=

> <s_epik_cmdline>
J2VwaWtfcHl0aG9uJywgJy1waCcsICc3LjAnLCAnLXRuJywgJzgnLCAnLW1hJywgJzIwMCcsICctbWV0YWxfYmluZGluZycsICctaW1hZScsICc8aW5maWxlLm1hZT4nLCAnLW9tYWUnLCAnPG91dGZpbGUubWFlPic=

> <r_lp_tautomer_probability>
1

> <r_epik_Ionization_Penalty>
0.866317

> <r_epik_Ionization_Penalty_Charging>
0.862349

> <r_epik_Ionization_Penalty_Neutral>
0.00396799

> <r_epik_State_Penalty>
0.898939

> <r_epik_Charging_Adjusted_Penalty>
1.76129

> <i_epik_Tot_Q>
1

> <i_epik_Tot_abs_Q>
1

> <r_epik_Metal_State_Penalty>
1.25402

> <b_epik_Metal_Only>
0

> <s_lp_Force_Field>
OPLS_2005

> <r_lp_Energy>
11.903

> <b_lp_Chiralities_Consistent>
1

> <s_lp_Variant>
AV-unprocessed.smi:1385-3

> <Gold.Version>
5.8.1

> <Gold.Id.Protein>
6NUR|6NUR_protein|mol2

> <Gold.PLP.Fitness>
46.0833

> <Gold.PLP.PLP>
-29.4094

> <Gold.PLP.part.hbond>
-5.0000

> <Gold.PLP.part.metal>
0.0000

> <Gold.PLP.part.buried>
-5.1794

> <Gold.PLP.part.nonpolar>
-18.2272

> <Gold.PLP.part.repulsive>
0.3387

> <Gold.PLP.ligand.clash>
0.0000

> <Gold.PLP.ligand.torsion>
0.1880

> <Gold.PLP.Chemscore.Hbond>
5.6764

> <Gold.PLP.Chemscore.CHOScore>
0.0000

> <Gold.PLP.Chemscore.Metal>
0.0000

> <Gold.Chemscore.Hbonds>
donor molecule, donor type, donor heavy atom, donor atom, acceptor molecule, acceptor atom, score
      L1  H     6    24       P1  8028  0.85
      L1  H     9    25       P1  8028  0.98
      L1  H    13    39       P1 10175  2.00
      L1  H    16    34       P1 10175  1.00
      P1  H  7997  8010       L1     3  0.85

> <Gold.PLP.Chemscore.Internal.Correction>
0.0209

> <Gold.Rescore>
     Score         DG    S(hbond)    S(metal)    S(lipo)     H(rot)  DE(clash)    DE(int)     intcor
     17.80     -21.00       4.20        0.00      57.95       2.07       0.38       2.81       ----

> <Gold.Chemscore.Fitness>
17.8010

> <Gold.Chemscore.DG>
-20.9999

> <Gold.Chemscore.ZeroCoef>
-5.4800

> <Gold.Chemscore.Hbond>
4.1996

> <Gold.Chemscore.Metal>
0.0000

> <Gold.Chemscore.Lipo>
57.9454

> <Gold.Chemscore.Internal_Hbond>
0.0000

> <Gold.Chemscore.DEClash>
0.3840

> <Gold.Chemscore.DEInternal>
2.8149

> <Gold.Chemscore.Rot>
2.0650

> <Gold.Chemscore.Internal.Correction>
   9.000000E+99

> <Gold.Chemscore.Hbonds>
donor molecule, donor type, donor heavy atom, donor atom, acceptor molecule, acceptor atom, score
      L1  H     6    24       P1  8028  0.81
      L1  H     9    25       P1  8028  0.89
      L1  H    13    39       P1 10175  0.70
      L1  H    16    34       P1 10175  0.98
      P1  H  7997  8010       L1     3  0.49

> <Gold.Chemscore.Hbond.Weighted>
-14.0267

> <Gold.Chemscore.Metal.Weighted>
-0.0000

> <Gold.Chemscore.Lipo.Weighted>
-6.7796

> <Gold.Chemscore.Internal_Hbond.Weighted>
0.0000

> <Gold.Chemscore.DEClash.Weighted>
0.3840

> <Gold.Chemscore.DEInternal.Weighted>
2.8149

> <Gold.Chemscore.Rot.Weighted>
5.2864

> <Gold.Chemscore.Internal.Correction.Weighted>
   9.000000E+99

> <Gold.Protein.RotatedTorsions>
[ 6907 6896 6895 6894 ] final   68.65 input  -60.11 | X-H torsion
[ 7974 7965 7964 7962 ] final  174.03 input  175.53 | X-H torsion
[ 8008 7997 7996 7995 ] final   47.23 input   59.86 | X-H torsion
[ 10167 10162 10161 10158 ] final  163.60 input  -65.29 | X-H torsion
[ 10718 10713 10712 10709 ] final -172.70 input   66.30 | X-H torsion
[ 10763 10752 10751 10750 ] final  127.39 input  -60.55 | X-H torsion
[ 11005 11000 10999 10996 ] final  -53.49 input  -57.11 | X-H torsion

> <Gold.Protein.ActiveResidues>
 VAL166  LYS551  ARG553  GLY616  TRP617  ASP618  TYR619  PRO620  LYS621  CYS622 
 ASP623  PHE694  ASN695  SER759  ASP760  ASP761  ALA762  ILE779  LEU786  VAL792 
 PHE793  MET794  SER795  GLU796  ALA797  LYS798  CYS799  TRP800  GLU811  SER814 

> <Gold.Protein.RotatedAtoms>
  152.4634  134.5131  159.9759 H   0  0  0  0  0  0  0  0  0  0  0  0  # atno 6907 bound_to 6896
  151.5175  133.3467  159.2903 H   0  0  0  0  0  0  0  0  0  0  0  0  # atno 6908 bound_to 6896
  150.8607  134.7988  159.7143 H   0  0  0  0  0  0  0  0  0  0  0  0  # atno 6909 bound_to 6896
  144.7230  139.9736  143.6437 H   0  0  0  0  0  0  0  0  0  0  0  0  # atno 7974 bound_to 7965
  155.3656  140.3421  155.4242 H   0  0  0  0  0  0  0  0  0  0  0  0  # atno 8008 bound_to 7997
  156.1690  140.1625  156.8514 H   0  0  0  0  0  0  0  0  0  0  0  0  # atno 8009 bound_to 7997
  154.5214  140.0766  156.8161 H   0  0  0  0  0  0  0  0  0  0  0  0  # atno 8010 bound_to 7997
  139.4876  144.4321  151.9058 H   0  0  0  0  0  0  0  0  0  0  0  0  # atno 10167 bound_to 10162
  156.7595  130.9408  151.3117 H   0  0  0  0  0  0  0  0  0  0  0  0  # atno 10718 bound_to 10713
  153.7086  135.3272  155.3241 H   0  0  0  0  0  0  0  0  0  0  0  0  # atno 10763 bound_to 10752
  154.8391  135.4471  154.1337 H   0  0  0  0  0  0  0  0  0  0  0  0  # atno 10764 bound_to 10752
  153.2424  135.6972  153.7847 H   0  0  0  0  0  0  0  0  0  0  0  0  # atno 10765 bound_to 10752
  141.0978  133.6622  156.4179 H   0  0  0  0  0  0  0  0  0  0  0  0  # atno 11005 bound_to 11000
  146.0543  139.3541  143.0620 LP  0  0  0  0  0  0  0  0  0  0  0  0  # atno 17320 bound_to 7965
  145.8174  140.9696  143.0916 LP  0  0  0  0  0  0  0  0  0  0  0  0  # atno 17321 bound_to 7965
  140.3769  144.2785  150.5913 LP  0  0  0  0  0  0  0  0  0  0  0  0  # atno 17342 bound_to 10162
  140.5269  143.2252  151.8301 LP  0  0  0  0  0  0  0  0  0  0  0  0  # atno 17343 bound_to 10162
  157.6741  130.9078  150.0109 LP  0  0  0  0  0  0  0  0  0  0  0  0  # atno 17370 bound_to 10713
  156.1348  130.3643  149.9674 LP  0  0  0  0  0  0  0  0  0  0  0  0  # atno 17371 bound_to 10713
  140.5096  134.6407  157.5279 LP  0  0  0  0  0  0  0  0  0  0  0  0  # atno 17394 bound_to 11000
  139.9820  134.7122  155.9842 LP  0  0  0  0  0  0  0  0  0  0  0  0  # atno 17395 bound_to 11000

$$$$
