AV-unprocessed.smi:2527|AV-procd|sdf|9943|dock3
  -GOLD-   2272013583D 1   1.00000     0.00000
 Structure written by MMmdl.
 35 37  0  0  0  0  0  0  0  0  2 V2000
  150.9649  138.6429  154.4221 C   0  0  0  0  0  0  0  0  0  0  0  0
  150.8804  140.0340  154.6734 O   0  0  0  0  0  0  0  0  0  0  0  0
  150.7601  140.3304  156.0557 C   0  0  0  0  0  0  0  0  0  0  0  0
  151.9065  139.6638  156.8294 C   0  0  0  0  0  0  0  0  0  0  0  0
  152.2055  140.3613  158.0716 N   0  0  0  0  0  0  0  0  0  0  0  0
  152.6844  139.8357  159.2268 C   0  0  0  0  0  0  0  0  0  0  0  0
  153.0366  138.1075  159.3710 S   0  0  0  0  0  0  0  0  0  0  0  0
  153.5994  138.0340  161.0974 C   0  0  0  0  0  0  0  0  0  0  0  0
  154.1220  136.6872  161.5056 C   0  0  0  0  0  0  0  0  0  0  0  0
  154.0958  135.6662  160.6078 N   0  5  0  0  0  0  0  0  0  0  0  0
  154.6267  134.6322  161.2844 C   0  0  0  0  0  0  0  0  0  0  0  0
  154.8256  133.4754  160.9195 O   0  0  0  0  0  0  0  0  0  0  0  0
  154.9273  135.0833  162.5044 N   0  0  0  0  0  0  0  0  0  0  0  0
  154.6102  136.3808  162.6494 N   0  0  0  0  0  0  0  0  0  0  0  0
  152.8755  140.7115  160.2160 N   0  0  0  0  0  0  0  0  0  0  0  0
  152.4835  141.9085  159.6512 C   0  0  0  0  0  0  0  0  0  0  0  0
  152.4505  143.2128  160.1941 C   0  0  0  0  0  0  0  0  0  0  0  0
  152.0075  144.3002  159.4126 C   0  0  0  0  0  0  0  0  0  0  0  0
  151.9737  145.8863  160.0905 Cl  0  0  0  0  0  0  0  0  0  0  0  0
  151.5933  144.0981  158.0797 C   0  0  0  0  0  0  0  0  0  0  0  0
  151.6181  142.8060  157.5203 C   0  0  0  0  0  0  0  0  0  0  0  0
  152.0594  141.7246  158.3061 C   0  0  0  0  0  0  0  0  0  0  0  0
  155.3400  134.5718  163.2706 H   0  0  0  0  0  0  0  0  0  0  0  0
  151.0551  138.4697  153.3499 H   0  0  0  0  0  0  0  0  0  0  0  0
  150.0722  138.1238  154.7735 H   0  0  0  0  0  0  0  0  0  0  0  0
  151.8385  138.2068  154.9082 H   0  0  0  0  0  0  0  0  0  0  0  0
  150.7900  141.4099  156.2092 H   0  0  0  0  0  0  0  0  0  0  0  0
  149.7997  139.9747  156.4322 H   0  0  0  0  0  0  0  0  0  0  0  0
  151.6467  138.6310  157.0629 H   0  0  0  0  0  0  0  0  0  0  0  0
  152.8066  139.6180  156.2162 H   0  0  0  0  0  0  0  0  0  0  0  0
  154.3793  138.7824  161.2415 H   0  0  0  0  0  0  0  0  0  0  0  0
  152.7713  138.3193  161.7478 H   0  0  0  0  0  0  0  0  0  0  0  0
  152.7678  143.3751  161.2136 H   0  0  0  0  0  0  0  0  0  0  0  0
  151.2569  144.9348  157.4851 H   0  0  0  0  0  0  0  0  0  0  0  0
  151.3043  142.6488  156.4991 H   0  0  0  0  0  0  0  0  0  0  0  0
  1  2  1  0  0  0  0
  1 24  1  0  0  0  0
  1 25  1  0  0  0  0
  1 26  1  0  0  0  0
  2  3  1  0  0  0  0
  3  4  1  0  0  0  0
  3 27  1  0  0  0  0
  3 28  1  0  0  0  0
  4  5  1  0  0  0  0
  4 29  1  0  0  0  0
  4 30  1  0  0  0  0
  5 22  1  0  0  0  0
  5  6  1  0  0  0  0
  6  7  1  0  0  0  0
  6 15  2  0  0  0  0
  7  8  1  0  0  0  0
  8 31  1  0  0  0  0
  8 32  1  0  0  0  0
  8  9  1  0  0  0  0
  9 14  2  0  0  0  0
  9 10  1  0  0  0  0
 10 11  1  0  0  0  0
 11 13  1  0  0  0  0
 11 12  2  0  0  0  0
 13 14  1  0  0  0  0
 13 23  1  0  0  0  0
 15 16  1  0  0  0  0
 16 22  2  0  0  0  0
 16 17  1  0  0  0  0
 17 18  2  0  0  0  0
 17 33  1  0  0  0  0
 18 19  1  0  0  0  0
 18 20  1  0  0  0  0
 20 21  2  0  0  0  0
 20 34  1  0  0  0  0
 21 22  1  0  0  0  0
 21 35  1  0  0  0  0
M  CHG  1  10  -1
M  END
> <s_m_source_file>
AV-unprocessed.smi

> <i_m_source_file_index>
2527

> <i_lp_mmshare_version>
43012

> <i_f3d_flags>
0

> <s_epik_input>
W2NIXTFjKENsKVtjSF1bY0hdYyhjMTIpbihbQ0gyXVtDSDJdT1tDSDNdKWMobjIpU1tDSDJdYzNuYyg9TylbbkhdW25IXTM=

> <s_epik_cmdline>
J2VwaWtfcHl0aG9uJywgJy1waCcsICc3LjAnLCAnLXRuJywgJzgnLCAnLW1hJywgJzIwMCcsICctbWV0YWxfYmluZGluZycsICctaW1hZScsICc8aW5maWxlLm1hZT4nLCAnLW9tYWUnLCAnPG91dGZpbGUubWFlPic=

> <r_lp_tautomer_probability>
0.992605

> <r_epik_Ionization_Penalty>
1.73518

> <r_epik_Ionization_Penalty_Charging>
3.40377e-05

> <r_epik_Ionization_Penalty_Neutral>
1.73514

> <r_epik_State_Penalty>
1.84086

> <r_epik_Charging_Adjusted_Penalty>
1.8409

> <i_epik_Tot_Q>
-1

> <i_epik_Tot_abs_Q>
1

> <r_epik_Metal_State_Penalty>
0.488407

> <b_epik_Metal_Only>
0

> <s_lp_Force_Field>
OPLS_2005

> <r_lp_Energy>
20.2593

> <b_lp_Chiralities_Consistent>
1

> <s_lp_Variant>
AV-unprocessed.smi:2527-2

> <Gold.Version>
5.8.1

> <Gold.Id.Protein>
6NUR|6NUR_protein|mol2

> <Gold.PLP.Fitness>
49.8981

> <Gold.PLP.PLP>
-42.0174

> <Gold.PLP.part.hbond>
-2.0000

> <Gold.PLP.part.metal>
0.0000

> <Gold.PLP.part.buried>
-6.8493

> <Gold.PLP.part.nonpolar>
-34.6447

> <Gold.PLP.part.repulsive>
0.1147

> <Gold.PLP.ligand.clash>
0.0000

> <Gold.PLP.ligand.torsion>
0.5413

> <Gold.PLP.Chemscore.Hbond>
2.9825

> <Gold.PLP.Chemscore.CHOScore>
0.0000

> <Gold.PLP.Chemscore.Metal>
0.0000

> <Gold.Chemscore.Hbonds>
donor molecule, donor type, donor heavy atom, donor atom, acceptor molecule, acceptor atom, score
      P1  H  6896  6908       L1    10  1.98
      P1  H  7989  7998       L1     2  1.00

> <Gold.PLP.Chemscore.Internal.Correction>
0.0158

> <Gold.Rescore>
     Score         DG    S(hbond)    S(metal)    S(lipo)     H(rot)  DE(clash)    DE(int)     intcor
     13.98     -15.33       1.43        0.00     104.99       2.81       0.12       1.23       ----

> <Gold.Chemscore.Fitness>
13.9848

> <Gold.Chemscore.DG>
-15.3337

> <Gold.Chemscore.ZeroCoef>
-5.4800

> <Gold.Chemscore.Hbond>
1.4257

> <Gold.Chemscore.Metal>
0.0000

> <Gold.Chemscore.Lipo>
104.9867

> <Gold.Chemscore.Internal_Hbond>
0.0000

> <Gold.Chemscore.DEClash>
0.1237

> <Gold.Chemscore.DEInternal>
1.2253

> <Gold.Chemscore.Rot>
2.8092

> <Gold.Chemscore.Internal.Correction>
   9.000000E+99

> <Gold.Chemscore.Hbonds>
donor molecule, donor type, donor heavy atom, donor atom, acceptor molecule, acceptor atom, score
      P1  H  6896  6908       L1    10  0.23
      P1  H  7989  7998       L1     2  0.74

> <Gold.Chemscore.Hbond.Weighted>
-4.7619

> <Gold.Chemscore.Metal.Weighted>
-0.0000

> <Gold.Chemscore.Lipo.Weighted>
-12.2834

> <Gold.Chemscore.Internal_Hbond.Weighted>
0.0000

> <Gold.Chemscore.DEClash.Weighted>
0.1237

> <Gold.Chemscore.DEInternal.Weighted>
1.2253

> <Gold.Chemscore.Rot.Weighted>
7.1916

> <Gold.Chemscore.Internal.Correction.Weighted>
   9.000000E+99

> <Gold.Protein.RotatedTorsions>
[ 6907 6896 6895 6894 ] final  -73.85 input  -60.11 | X-H torsion
[ 7974 7965 7964 7962 ] final   -4.17 input  175.53 | X-H torsion
[ 8008 7997 7996 7995 ] final -162.84 input   59.86 | X-H torsion
[ 10167 10162 10161 10158 ] final  -18.03 input  -65.29 | X-H torsion
[ 10718 10713 10712 10709 ] final   59.67 input   66.30 | X-H torsion
[ 10763 10752 10751 10750 ] final  -88.43 input  -60.55 | X-H torsion
[ 11005 11000 10999 10996 ] final  154.78 input  -57.11 | X-H torsion

> <Gold.Protein.ActiveResidues>
 VAL166  LYS551  ARG553  GLY616  TRP617  ASP618  TYR619  PRO620  LYS621  CYS622 
 ASP623  PHE694  ASN695  SER759  ASP760  ASP761  ALA762  ILE779  LEU786  VAL792 
 PHE793  MET794  SER795  GLU796  ALA797  LYS798  CYS799  TRP800  GLU811  SER814 

> <Gold.Protein.RotatedAtoms>
  150.7115  134.4956  159.5536 H   0  0  0  0  0  0  0  0  0  0  0  0  # atno 6907 bound_to 6896
  152.2564  134.8076  160.0447 H   0  0  0  0  0  0  0  0  0  0  0  0  # atno 6908 bound_to 6896
  151.8806  133.3459  159.3802 H   0  0  0  0  0  0  0  0  0  0  0  0  # atno 6909 bound_to 6896
  146.2377  140.1831  142.8332 H   0  0  0  0  0  0  0  0  0  0  0  0  # atno 7974 bound_to 7965
  155.8126  140.0908  157.1895 H   0  0  0  0  0  0  0  0  0  0  0  0  # atno 8008 bound_to 7997
  154.3979  140.1452  156.3464 H   0  0  0  0  0  0  0  0  0  0  0  0  # atno 8009 bound_to 7997
  155.8349  140.3441  155.5598 H   0  0  0  0  0  0  0  0  0  0  0  0  # atno 8010 bound_to 7997
  140.7254  143.4956  150.9935 H   0  0  0  0  0  0  0  0  0  0  0  0  # atno 10167 bound_to 10162
  157.5694  130.8895  149.9241 H   0  0  0  0  0  0  0  0  0  0  0  0  # atno 10718 bound_to 10713
  154.6444  135.5377  153.7828 H   0  0  0  0  0  0  0  0  0  0  0  0  # atno 10763 bound_to 10752
  153.0351  135.6467  154.1111 H   0  0  0  0  0  0  0  0  0  0  0  0  # atno 10764 bound_to 10752
  154.1033  135.2932  155.3227 H   0  0  0  0  0  0  0  0  0  0  0  0  # atno 10765 bound_to 10752
  140.1520  134.8668  157.2467 H   0  0  0  0  0  0  0  0  0  0  0  0  # atno 11005 bound_to 11000
  144.9918  140.8554  143.5335 LP  0  0  0  0  0  0  0  0  0  0  0  0  # atno 17320 bound_to 7965
  145.1838  139.2337  143.5278 LP  0  0  0  0  0  0  0  0  0  0  0  0  # atno 17321 bound_to 7965
  139.8663  143.7249  152.3170 LP  0  0  0  0  0  0  0  0  0  0  0  0  # atno 17342 bound_to 10162
  139.7483  144.7541  151.0546 LP  0  0  0  0  0  0  0  0  0  0  0  0  # atno 17343 bound_to 10162
  156.0740  130.3681  150.0716 LP  0  0  0  0  0  0  0  0  0  0  0  0  # atno 17370 bound_to 10713
  156.8871  130.9576  151.3593 LP  0  0  0  0  0  0  0  0  0  0  0  0  # atno 17371 bound_to 10713
  140.2593  134.3591  155.7413 LP  0  0  0  0  0  0  0  0  0  0  0  0  # atno 17394 bound_to 11000
  141.2200  133.7360  156.9055 LP  0  0  0  0  0  0  0  0  0  0  0  0  # atno 17395 bound_to 11000

$$$$
