AV-unprocessed.smi:3083|AV-procd|sdf|11745|dock7
  -GOLD-   2272017143D 1   1.00000     0.00000
 Structure written by MMmdl.
 28 29  0  0  0  0  0  0  0  0  2 V2000
  142.5703  132.5276  151.1194 N   0  3  0  0  0  0  0  0  0  0  0  0
  143.9452  132.2103  150.6899 C   0  0  1  0  0  0  0  0  0  0  0  0
  144.1971  132.6777  149.2392 C   0  0  0  0  0  0  0  0  0  0  0  0
  145.6386  132.3866  148.7922 C   0  0  0  0  0  0  0  0  0  0  0  0
  146.6646  132.9767  149.7716 C   0  0  0  0  0  0  0  0  0  0  0  0
  146.4323  132.4466  151.1965 C   0  0  0  0  0  0  0  0  0  0  0  0
  145.0029  132.7252  151.7087 C   0  0  1  0  0  0  0  0  0  0  0  0
  144.8488  134.1208  152.1266 N   0  0  0  0  0  0  0  0  0  0  0  0
  144.4897  134.5776  153.3794 C   0  0  0  0  0  0  0  0  0  0  0  0
  144.5054  135.9422  153.3457 C   0  0  0  0  0  0  0  0  0  0  0  0
  144.9109  136.2403  152.0163 C   0  0  0  0  0  0  0  0  0  0  0  0
  145.1211  135.1520  151.2948 N   0  0  0  0  0  0  0  0  0  0  0  0
  141.9455  131.8041  150.7919 H   0  0  0  0  0  0  0  0  0  0  0  0
  142.2897  133.4158  150.7293 H   0  0  0  0  0  0  0  0  0  0  0  0
  144.0105  131.1213  150.6857 H   0  0  0  0  0  0  0  0  0  0  0  0
  143.5042  132.1727  148.5651 H   0  0  0  0  0  0  0  0  0  0  0  0
  143.9915  133.7413  149.1270 H   0  0  0  0  0  0  0  0  0  0  0  0
  145.7866  131.3083  148.7186 H   0  0  0  0  0  0  0  0  0  0  0  0
  145.8051  132.7885  147.7924 H   0  0  0  0  0  0  0  0  0  0  0  0
  147.6735  132.7229  149.4449 H   0  0  0  0  0  0  0  0  0  0  0  0
  146.6064  134.0655  149.7605 H   0  0  0  0  0  0  0  0  0  0  0  0
  146.6087  131.3701  151.2020 H   0  0  0  0  0  0  0  0  0  0  0  0
  147.1687  132.8741  151.8781 H   0  0  0  0  0  0  0  0  0  0  0  0
  144.8737  132.1359  152.6181 H   0  0  0  0  0  0  0  0  0  0  0  0
  144.2546  133.8989  154.1861 H   0  0  0  0  0  0  0  0  0  0  0  0
  144.2719  136.6232  154.1509 H   0  0  0  0  0  0  0  0  0  0  0  0
  145.0612  137.2070  151.5586 H   0  0  0  0  0  0  0  0  0  0  0  0
  142.5326  132.5742  152.1275 H   0  0  0  0  0  0  0  0  0  0  0  0
  1  2  1  0  0  0  0
  1 13  1  0  0  0  0
  1 14  1  0  0  0  0
  1 28  1  0  0  0  0
  2  7  1  0  0  0  0
  2  3  1  0  0  0  0
  2 15  1  0  0  0  0
  3  4  1  0  0  0  0
  3 16  1  0  0  0  0
  3 17  1  0  0  0  0
  4  5  1  0  0  0  0
  4 18  1  0  0  0  0
  4 19  1  0  0  0  0
  5  6  1  0  0  0  0
  5 20  1  0  0  0  0
  5 21  1  0  0  0  0
  6  7  1  0  0  0  0
  6 22  1  0  0  0  0
  6 23  1  0  0  0  0
  7  8  1  0  0  0  0
  7 24  1  0  0  0  0
  8 12  1  0  0  0  0
  8  9  1  0  0  0  0
  9 10  2  0  0  0  0
  9 25  1  0  0  0  0
 10 11  1  0  0  0  0
 10 26  1  0  0  0  0
 11 12  2  0  0  0  0
 11 27  1  0  0  0  0
M  CHG  1   1   1
M  END
> <s_m_source_file>
AV-unprocessed.smi

> <i_m_source_file_index>
3083

> <i_lp_mmshare_version>
43012

> <i_f3d_flags>
0

> <s_epik_input>
W05IMl1bQ0BASF0xW0NIMl1bQ0gyXVtDSDJdW0NIMl1bQ0BIXTFuMltjSF1bY0hdW2NIXW4y

> <s_epik_cmdline>
J2VwaWtfcHl0aG9uJywgJy1waCcsICc3LjAnLCAnLXRuJywgJzgnLCAnLW1hJywgJzIwMCcsICctbWV0YWxfYmluZGluZycsICctaW1hZScsICc8aW5maWxlLm1hZT4nLCAnLW9tYWUnLCAnPG91dGZpbGUubWFlPic=

> <r_lp_tautomer_probability>
1

> <r_epik_Ionization_Penalty>
0.00385053

> <r_epik_Ionization_Penalty_Charging>
0.0038389

> <r_epik_Ionization_Penalty_Neutral>
1.16305e-05

> <r_epik_State_Penalty>
-0

> <r_epik_Charging_Adjusted_Penalty>
0.0038389

> <i_epik_Tot_Q>
1

> <i_epik_Tot_abs_Q>
1

> <r_epik_Metal_State_Penalty>
-0

> <b_epik_Metal_Only>
0

> <s_lp_Force_Field>
OPLS_2005

> <r_lp_Energy>
16.3847

> <b_lp_Chiralities_Consistent>
1

> <s_lp_Variant>
AV-unprocessed.smi:3083-2

> <Gold.Version>
5.8.1

> <Gold.Id.Protein>
6NUR|6NUR_protein|mol2

> <Gold.PLP.Fitness>
38.4299

> <Gold.PLP.PLP>
-24.4864

> <Gold.PLP.part.hbond>
-2.0000

> <Gold.PLP.part.metal>
0.0000

> <Gold.PLP.part.buried>
-1.3264

> <Gold.PLP.part.nonpolar>
-21.4227

> <Gold.PLP.part.repulsive>
0.3043

> <Gold.PLP.ligand.clash>
0.0000

> <Gold.PLP.ligand.torsion>
0.1046

> <Gold.PLP.Chemscore.Hbond>
2.6960

> <Gold.PLP.Chemscore.CHOScore>
2.0000

> <Gold.PLP.Chemscore.Metal>
0.0000

> <Gold.Chemscore.Hbonds>
donor molecule, donor type, donor heavy atom, donor atom, acceptor molecule, acceptor atom, score
      L1  H     1    13       P1 10952  0.45
      L1  H     1    14       P1 10186  1.89
      L1  C     9    25       P1 10957  0.51
      L1  C    11    27       P1 10171  1.00

> <Gold.PLP.Chemscore.Internal.Correction>
0.0647

> <Gold.Rescore>
     Score         DG    S(hbond)    S(metal)    S(lipo)     H(rot)  DE(clash)    DE(int)     intcor
     15.16     -17.59       1.75        0.00      75.34       1.00       1.43       1.00       ----

> <Gold.Chemscore.Fitness>
15.1567

> <Gold.Chemscore.DG>
-17.5863

> <Gold.Chemscore.ZeroCoef>
-5.4800

> <Gold.Chemscore.Hbond>
1.7520

> <Gold.Chemscore.Metal>
0.0000

> <Gold.Chemscore.Lipo>
75.3382

> <Gold.Chemscore.Internal_Hbond>
0.0000

> <Gold.Chemscore.DEClash>
1.4293

> <Gold.Chemscore.DEInternal>
1.0003

> <Gold.Chemscore.Rot>
1.0000

> <Gold.Chemscore.Internal.Correction>
   9.000000E+99

> <Gold.Chemscore.Hbonds>
donor molecule, donor type, donor heavy atom, donor atom, acceptor molecule, acceptor atom, score
      L1  H     1    13       P1 10952  0.06
      L1  H     1    14       P1 10186  0.82

> <Gold.Chemscore.Hbond.Weighted>
-5.8518

> <Gold.Chemscore.Metal.Weighted>
-0.0000

> <Gold.Chemscore.Lipo.Weighted>
-8.8146

> <Gold.Chemscore.Internal_Hbond.Weighted>
0.0000

> <Gold.Chemscore.DEClash.Weighted>
1.4293

> <Gold.Chemscore.DEInternal.Weighted>
1.0003

> <Gold.Chemscore.Rot.Weighted>
2.5600

> <Gold.Chemscore.Internal.Correction.Weighted>
   9.000000E+99

> <Gold.Protein.RotatedTorsions>
[ 6907 6896 6895 6894 ] final   77.38 input  -60.11 | X-H torsion
[ 7974 7965 7964 7962 ] final -168.93 input  175.53 | X-H torsion
[ 8008 7997 7996 7995 ] final   20.97 input   59.86 | X-H torsion
[ 10167 10162 10161 10158 ] final  -42.21 input  -65.29 | X-H torsion
[ 10718 10713 10712 10709 ] final   59.15 input   66.30 | X-H torsion
[ 10763 10752 10751 10750 ] final -128.83 input  -60.55 | X-H torsion
[ 11005 11000 10999 10996 ] final  101.60 input  -57.11 | X-H torsion

> <Gold.Protein.ActiveResidues>
 VAL166  LYS551  ARG553  GLY616  TRP617  ASP618  TYR619  PRO620  LYS621  CYS622 
 ASP623  PHE694  ASN695  SER759  ASP760  ASP761  ALA762  ILE779  LEU786  VAL792 
 PHE793  MET794  SER795  GLU796  ALA797  LYS798  CYS799  TRP800  GLU811  SER814 

> <Gold.Protein.RotatedAtoms>
  152.5115  134.3826  159.9356 H   0  0  0  0  0  0  0  0  0  0  0  0  # atno 6907 bound_to 6896
  151.3783  133.3824  159.2715 H   0  0  0  0  0  0  0  0  0  0  0  0  # atno 6908 bound_to 6896
  150.9524  134.8942  159.7739 H   0  0  0  0  0  0  0  0  0  0  0  0  # atno 6909 bound_to 6896
  144.7194  140.2297  143.6305 H   0  0  0  0  0  0  0  0  0  0  0  0  # atno 7974 bound_to 7965
  154.9436  140.3056  155.5109 H   0  0  0  0  0  0  0  0  0  0  0  0  # atno 8008 bound_to 7997
  156.2993  140.2332  156.4445 H   0  0  0  0  0  0  0  0  0  0  0  0  # atno 8009 bound_to 7997
  154.8122  140.0428  157.1339 H   0  0  0  0  0  0  0  0  0  0  0  0  # atno 8010 bound_to 7997
  140.6977  143.3050  151.3177 H   0  0  0  0  0  0  0  0  0  0  0  0  # atno 10167 bound_to 10162
  157.5653  130.8866  149.9177 H   0  0  0  0  0  0  0  0  0  0  0  0  # atno 10718 bound_to 10713
  154.8757  135.3915  154.3821 H   0  0  0  0  0  0  0  0  0  0  0  0  # atno 10763 bound_to 10752
  153.4567  135.7029  153.6080 H   0  0  0  0  0  0  0  0  0  0  0  0  # atno 10764 bound_to 10752
  153.4597  135.3815  155.2299 H   0  0  0  0  0  0  0  0  0  0  0  0  # atno 10765 bound_to 10752
  139.8774  134.9190  156.4931 H   0  0  0  0  0  0  0  0  0  0  0  0  # atno 11005 bound_to 11000
  145.8422  139.2135  143.1821 LP  0  0  0  0  0  0  0  0  0  0  0  0  # atno 17320 bound_to 7965
  146.0336  140.8234  142.9864 LP  0  0  0  0  0  0  0  0  0  0  0  0  # atno 17321 bound_to 7965
  139.6453  144.0463  152.2586 LP  0  0  0  0  0  0  0  0  0  0  0  0  # atno 17342 bound_to 10162
  139.9982  144.6313  150.7754 LP  0  0  0  0  0  0  0  0  0  0  0  0  # atno 17343 bound_to 10162
  156.0702  130.3686  150.0792 LP  0  0  0  0  0  0  0  0  0  0  0  0  # atno 17370 bound_to 10713
  156.8952  130.9602  151.3583 LP  0  0  0  0  0  0  0  0  0  0  0  0  # atno 17371 bound_to 10713
  140.8644  133.8035  155.9298 LP  0  0  0  0  0  0  0  0  0  0  0  0  # atno 17394 bound_to 11000
  140.9017  134.2370  157.5038 LP  0  0  0  0  0  0  0  0  0  0  0  0  # atno 17395 bound_to 11000

$$$$
