AV-unprocessed.smi:823|AV-procd|sdf|3847|dock3
  -GOLD-   22720 1293D 1   1.00000     0.00000
 Structure written by MMmdl.
 46 47  0  0  0  0  0  0  0  0  1 V2000
  152.5488  143.3251  161.9111 C   0  0  0  0  0  0  0  0  0  0  0  0
  152.9071  141.9533  161.3300 C   0  0  1  0  0  0  0  0  0  0  0  0
  152.4658  141.8151  159.8605 C   0  0  0  0  0  0  0  0  0  0  0  0
  152.9200  140.5411  159.3061 N   0  0  0  0  0  0  0  0  0  0  0  0
  152.3862  140.1311  158.0646 C   0  0  0  0  0  0  0  0  0  0  0  0
  151.1996  140.7219  157.5684 C   0  0  0  0  0  0  0  0  0  0  0  0
  150.6884  140.2989  156.3266 C   0  0  0  0  0  0  0  0  0  0  0  0
  151.3740  139.3020  155.6056 C   0  0  0  0  0  0  0  0  0  0  0  0
  150.8382  138.8289  154.2604 C   0  0  0  0  0  0  0  0  0  0  0  0
  150.6681  137.3836  154.1517 N   0  0  0  0  0  0  0  0  0  0  0  0
  150.0704  136.6098  155.0703 C   0  0  0  0  0  0  0  0  0  0  0  0
  149.6285  137.0445  156.1351 O   0  0  0  0  0  0  0  0  0  0  0  0
  149.9532  135.1167  154.7276 C   0  0  1  0  0  0  0  0  0  0  0  0
  150.4733  134.2992  155.9218 C   0  0  0  0  0  0  0  0  0  0  0  0
  148.5535  134.7589  154.5052 N   0  0  0  0  0  0  0  0  0  0  0  0
  147.5707  134.9047  155.4065 C   0  0  0  0  0  0  0  0  0  0  0  0
  146.3935  134.4800  154.9466 N   0  0  0  0  0  0  0  0  0  0  0  0
  147.7217  135.3739  156.5331 O   0  0  0  0  0  0  0  0  0  0  0  0
  152.5481  138.7673  156.1797 C   0  0  0  0  0  0  0  0  0  0  0  0
  153.0424  139.1697  157.3691 N   0  0  0  0  0  0  0  0  0  0  0  0
  154.3496  140.3073  159.4921 C   0  0  0  0  0  0  0  0  0  0  0  0
  154.7344  140.4988  160.9687 C   0  0  0  0  0  0  0  0  0  0  0  0
  154.3199  141.7867  161.4123 O   0  0  0  0  0  0  0  0  0  0  0  0
  151.4723  143.4958  161.8775 H   0  0  0  0  0  0  0  0  0  0  0  0
  153.0327  144.1280  161.3543 H   0  0  0  0  0  0  0  0  0  0  0  0
  152.8656  143.4028  162.9513 H   0  0  0  0  0  0  0  0  0  0  0  0
  152.4209  141.1836  161.9326 H   0  0  0  0  0  0  0  0  0  0  0  0
  151.3785  141.8831  159.8031 H   0  0  0  0  0  0  0  0  0  0  0  0
  152.8760  142.6324  159.2653 H   0  0  0  0  0  0  0  0  0  0  0  0
  150.6875  141.5010  158.1129 H   0  0  0  0  0  0  0  0  0  0  0  0
  149.7855  140.7415  155.9325 H   0  0  0  0  0  0  0  0  0  0  0  0
  149.8679  139.2978  154.0962 H   0  0  0  0  0  0  0  0  0  0  0  0
  151.4907  139.1802  153.4592 H   0  0  0  0  0  0  0  0  0  0  0  0
  151.0034  136.9449  153.3062 H   0  0  0  0  0  0  0  0  0  0  0  0
  150.5428  134.8809  153.8392 H   0  0  0  0  0  0  0  0  0  0  0  0
  151.5191  134.5273  156.1319 H   0  0  0  0  0  0  0  0  0  0  0  0
  150.4103  133.2299  155.7172 H   0  0  0  0  0  0  0  0  0  0  0  0
  149.9009  134.4940  156.8304 H   0  0  0  0  0  0  0  0  0  0  0  0
  148.3248  134.3537  153.6097 H   0  0  0  0  0  0  0  0  0  0  0  0
  145.5698  134.5390  155.5266 H   0  0  0  0  0  0  0  0  0  0  0  0
  146.3316  134.1032  154.0119 H   0  0  0  0  0  0  0  0  0  0  0  0
  153.1119  137.9943  155.6784 H   0  0  0  0  0  0  0  0  0  0  0  0
  154.6422  139.3067  159.1775 H   0  0  0  0  0  0  0  0  0  0  0  0
  154.9038  141.0101  158.8684 H   0  0  0  0  0  0  0  0  0  0  0  0
  154.2830  139.7246  161.5914 H   0  0  0  0  0  0  0  0  0  0  0  0
  155.8143  140.4136  161.0889 H   0  0  0  0  0  0  0  0  0  0  0  0
  1  2  1  0  0  0  0
  1 24  1  0  0  0  0
  1 25  1  0  0  0  0
  1 26  1  0  0  0  0
  2 23  1  0  0  0  0
  2  3  1  0  0  0  0
  2 27  1  0  0  0  0
  3  4  1  0  0  0  0
  3 28  1  0  0  0  0
  3 29  1  0  0  0  0
  4  5  1  0  0  0  0
  4 21  1  0  0  0  0
  5 20  1  0  0  0  0
  5  6  2  0  0  0  0
  6  7  1  0  0  0  0
  6 30  1  0  0  0  0
  7  8  2  0  0  0  0
  7 31  1  0  0  0  0
  8  9  1  0  0  0  0
  8 19  1  0  0  0  0
  9 10  1  0  0  0  0
  9 32  1  0  0  0  0
  9 33  1  0  0  0  0
 10 11  1  0  0  0  0
 10 34  1  0  0  0  0
 11 12  2  0  0  0  0
 11 13  1  0  0  0  0
 13 14  1  0  0  0  0
 13 15  1  0  0  0  0
 13 35  1  0  0  0  0
 14 36  1  0  0  0  0
 14 37  1  0  0  0  0
 14 38  1  0  0  0  0
 15 16  1  0  0  0  0
 15 39  1  0  0  0  0
 16 17  1  0  0  0  0
 16 18  2  0  0  0  0
 17 40  1  0  0  0  0
 17 41  1  0  0  0  0
 19 20  2  0  0  0  0
 19 42  1  0  0  0  0
 21 22  1  0  0  0  0
 21 43  1  0  0  0  0
 21 44  1  0  0  0  0
 22 23  1  0  0  0  0
 22 45  1  0  0  0  0
 22 46  1  0  0  0  0
M  END
> <s_m_source_file>
AV-unprocessed.smi

> <i_m_source_file_index>
823

> <i_lp_mmshare_version>
43012

> <i_f3d_flags>
0

> <s_epik_input>
W0NIM11bQ0BASF0xW0NIMl1OKFtDSDJdW0NIMl1PMSljMltjSF1bY0hdYyhbY0hdbjIpW0NIMl1bTkhdQyg9TylbQ0BIXShbQ0gzXSlbTkhdQyg9TylbTkgyXQ==

> <s_epik_cmdline>
J2VwaWtfcHl0aG9uJywgJy1waCcsICc3LjAnLCAnLXRuJywgJzgnLCAnLW1hJywgJzIwMCcsICctbWV0YWxfYmluZGluZycsICctaW1hZScsICc8aW5maWxlLm1hZT4nLCAnLW9tYWUnLCAnPG91dGZpbGUubWFlPic=

> <r_lp_tautomer_probability>
1

> <r_epik_Ionization_Penalty>
0.00555043

> <r_epik_Ionization_Penalty_Charging>
0

> <r_epik_Ionization_Penalty_Neutral>
0.00555043

> <r_epik_State_Penalty>
0.00402575

> <r_epik_Charging_Adjusted_Penalty>
0.00402575

> <i_epik_Tot_Q>
0

> <i_epik_Tot_abs_Q>
0

> <r_epik_Metal_State_Penalty>
-0

> <b_epik_Metal_Only>
0

> <s_lp_Force_Field>
OPLS_2005

> <r_lp_Energy>
10.1678

> <b_lp_Chiralities_Consistent>
1

> <s_lp_Variant>
AV-unprocessed.smi:823-4

> <Gold.Version>
5.8.1

> <Gold.Id.Protein>
6NUR|6NUR_protein|mol2

> <Gold.PLP.Fitness>
43.1589

> <Gold.PLP.PLP>
-38.4898

> <Gold.PLP.part.hbond>
-4.6789

> <Gold.PLP.part.metal>
0.0000

> <Gold.PLP.part.buried>
-1.6033

> <Gold.PLP.part.nonpolar>
-31.0226

> <Gold.PLP.part.repulsive>
0.1401

> <Gold.PLP.ligand.clash>
0.0000

> <Gold.PLP.ligand.torsion>
0.8513

> <Gold.PLP.Chemscore.Hbond>
2.0000

> <Gold.PLP.Chemscore.CHOScore>
0.0000

> <Gold.PLP.Chemscore.Metal>
0.0000

> <Gold.Chemscore.Hbonds>
donor molecule, donor type, donor heavy atom, donor atom, acceptor molecule, acceptor atom, score
      L1  H    10    34       P1  7949  0.93
      P1  H  7997  8008       L1    20  1.00

> <Gold.PLP.Chemscore.Internal.Correction>
0.3717

> <Gold.Rescore>
     Score         DG    S(hbond)    S(metal)    S(lipo)     H(rot)  DE(clash)    DE(int)     intcor
      7.14     -12.99       1.02        0.00      92.22       2.62       0.08       5.77       ----

> <Gold.Chemscore.Fitness>
7.1429

> <Gold.Chemscore.DG>
-12.9885

> <Gold.Chemscore.ZeroCoef>
-5.4800

> <Gold.Chemscore.Hbond>
1.0229

> <Gold.Chemscore.Metal>
0.0000

> <Gold.Chemscore.Lipo>
92.2208

> <Gold.Chemscore.Internal_Hbond>
0.0000

> <Gold.Chemscore.DEClash>
0.0766

> <Gold.Chemscore.DEInternal>
5.7690

> <Gold.Chemscore.Rot>
2.6163

> <Gold.Chemscore.Internal.Correction>
   9.000000E+99

> <Gold.Chemscore.Hbonds>
donor molecule, donor type, donor heavy atom, donor atom, acceptor molecule, acceptor atom, score
      L1  H    10    34       P1  7949  0.27
      P1  H  7997  8008       L1    20  0.16

> <Gold.Chemscore.Hbond.Weighted>
-3.4164

> <Gold.Chemscore.Metal.Weighted>
-0.0000

> <Gold.Chemscore.Lipo.Weighted>
-10.7898

> <Gold.Chemscore.Internal_Hbond.Weighted>
0.0000

> <Gold.Chemscore.DEClash.Weighted>
0.0766

> <Gold.Chemscore.DEInternal.Weighted>
5.7690

> <Gold.Chemscore.Rot.Weighted>
6.6978

> <Gold.Chemscore.Internal.Correction.Weighted>
   9.000000E+99

> <Gold.Protein.RotatedTorsions>
[ 6907 6896 6895 6894 ] final   71.60 input  -60.11 | X-H torsion
[ 7974 7965 7964 7962 ] final -160.68 input  175.53 | X-H torsion
[ 8008 7997 7996 7995 ] final  -90.23 input   59.86 | X-H torsion
[ 10167 10162 10161 10158 ] final   67.25 input  -65.29 | X-H torsion
[ 10718 10713 10712 10709 ] final  -98.79 input   66.30 | X-H torsion
[ 10763 10752 10751 10750 ] final  -31.69 input  -60.55 | X-H torsion
[ 11005 11000 10999 10996 ] final -173.99 input  -57.11 | X-H torsion

> <Gold.Protein.ActiveResidues>
 VAL166  LYS551  ARG553  GLY616  TRP617  ASP618  TYR619  PRO620  LYS621  CYS622 
 ASP623  PHE694  ASN695  SER759  ASP760  ASP761  ALA762  ILE779  LEU786  VAL792 
 PHE793  MET794  SER795  GLU796  ALA797  LYS798  CYS799  TRP800  GLU811  SER814 

> <Gold.Protein.RotatedAtoms>
  152.4819  134.4696  159.9631 H   0  0  0  0  0  0  0  0  0  0  0  0  # atno 6907 bound_to 6896
  151.4701  133.3565  159.2830 H   0  0  0  0  0  0  0  0  0  0  0  0  # atno 6908 bound_to 6896
  150.8898  134.8326  159.7346 H   0  0  0  0  0  0  0  0  0  0  0  0  # atno 6909 bound_to 6896
  144.7418  140.3506  143.6116 H   0  0  0  0  0  0  0  0  0  0  0  0  # atno 7974 bound_to 7965
  154.6961  140.0533  157.0411 H   0  0  0  0  0  0  0  0  0  0  0  0  # atno 8008 bound_to 7997
  155.0750  140.3203  155.4600 H   0  0  0  0  0  0  0  0  0  0  0  0  # atno 8009 bound_to 7997
  156.2744  140.2075  156.5877 H   0  0  0  0  0  0  0  0  0  0  0  0  # atno 8010 bound_to 7997
  140.0915  144.4983  150.7095 H   0  0  0  0  0  0  0  0  0  0  0  0  # atno 10167 bound_to 10162
  156.0117  130.5254  150.6575 H   0  0  0  0  0  0  0  0  0  0  0  0  # atno 10718 bound_to 10713
  153.8016  135.6890  153.4855 H   0  0  0  0  0  0  0  0  0  0  0  0  # atno 10763 bound_to 10752
  153.1685  135.4552  154.9868 H   0  0  0  0  0  0  0  0  0  0  0  0  # atno 10764 bound_to 10752
  154.8004  135.3335  154.7504 H   0  0  0  0  0  0  0  0  0  0  0  0  # atno 10765 bound_to 10752
  140.4795  134.6088  157.4914 H   0  0  0  0  0  0  0  0  0  0  0  0  # atno 11005 bound_to 11000
  145.7280  139.1728  143.2447 LP  0  0  0  0  0  0  0  0  0  0  0  0  # atno 17320 bound_to 7965
  146.1228  140.7287  142.9449 LP  0  0  0  0  0  0  0  0  0  0  0  0  # atno 17321 bound_to 7965
  140.7026  143.2445  151.4821 LP  0  0  0  0  0  0  0  0  0  0  0  0  # atno 17342 bound_to 10162
  139.5722  144.1902  152.1852 LP  0  0  0  0  0  0  0  0  0  0  0  0  # atno 17343 bound_to 10162
  157.4324  131.0851  151.1025 LP  0  0  0  0  0  0  0  0  0  0  0  0  # atno 17370 bound_to 10713
  157.1594  130.6219  149.5606 LP  0  0  0  0  0  0  0  0  0  0  0  0  # atno 17371 bound_to 10713
  139.9835  134.7099  155.9816 LP  0  0  0  0  0  0  0  0  0  0  0  0  # atno 17394 bound_to 11000
  141.1538  133.6545  156.4096 LP  0  0  0  0  0  0  0  0  0  0  0  0  # atno 17395 bound_to 11000

$$$$
