AV-unprocessed.smi:136|AV-procd|sdf|1172|dock8
  -GOLD-   2262018323D 1   1.00000     0.00000
 Structure written by MMmdl.
 54 58  0  0  0  0  0  0  0  0  1 V2000
  148.5313  138.5278  159.1919 O   0  0  0  0  0  0  0  0  0  0  0  0
  149.2523  137.6911  158.6448 C   0  0  0  0  0  0  0  0  0  0  0  0
  150.6096  138.1194  158.0462 C   0  0  0  0  0  0  0  0  0  0  0  0
  150.6253  139.5148  157.5555 N   0  0  0  0  0  0  0  0  0  0  0  0
  149.9400  139.8208  156.3538 C   0  0  0  0  0  0  0  0  0  0  0  0
  149.3348  138.9521  155.7244 O   0  0  0  0  0  0  0  0  0  0  0  0
  150.0101  141.2136  155.9267 C   0  0  0  0  0  0  0  0  0  0  0  0
  149.3716  141.5994  154.8088 F   0  0  0  0  0  0  0  0  0  0  0  0
  150.7043  142.1253  156.6382 C   0  0  0  0  0  0  0  0  0  0  0  0
  151.3895  141.8074  157.7978 N   0  0  0  0  0  0  0  0  0  0  0  0
  152.1652  142.8432  158.5864 C   0  0  1  0  0  0  0  0  0  0  0  0
  152.2569  144.1687  157.8042 C   0  0  0  0  0  0  0  0  0  0  0  0
  151.7359  145.1868  158.7998 C   0  0  0  0  0  0  0  0  0  0  0  0
  150.7894  144.3482  159.6449 C   0  0  0  0  0  0  0  0  0  0  0  0
  151.5003  143.1256  159.7849 O   0  0  0  0  0  0  0  0  0  0  0  0
  151.3522  140.4836  158.2874 C   0  0  0  0  0  0  0  0  0  0  0  0
  151.9468  140.1820  159.3248 O   0  0  0  0  0  0  0  0  0  0  0  0
  148.8894  136.3931  158.5421 N   0  0  0  0  0  0  0  0  0  0  0  0
  149.6113  135.4722  157.8556 N   0  0  0  0  0  0  0  0  0  0  0  0
  148.9715  134.3629  157.8146 C   0  0  0  0  0  0  0  0  0  0  0  0
  149.4633  133.1371  157.1477 C   0  0  0  0  0  0  0  0  0  0  0  0
  148.6556  131.9772  157.1440 C   0  0  0  0  0  0  0  0  0  0  0  0
  149.1231  130.8095  156.5101 C   0  0  0  0  0  0  0  0  0  0  0  0
  150.3867  130.7999  155.8858 C   0  0  0  0  0  0  0  0  0  0  0  0
  150.9539  129.3660  155.1118 Cl  0  0  0  0  0  0  0  0  0  0  0  0
  151.1881  131.9593  155.8931 C   0  0  0  0  0  0  0  0  0  0  0  0
  150.7314  133.1330  156.5242 C   0  0  0  0  0  0  0  0  0  0  0  0
  147.6566  134.4000  158.5180 C   0  0  0  0  0  0  0  0  0  0  0  0
  147.6363  135.8309  159.0620 C   0  0  1  0  0  0  0  0  0  0  0  0
  147.5378  135.8869  160.5580 C   0  0  0  0  0  0  0  0  0  0  0  0
  147.5305  134.9289  161.5338 C   0  0  0  0  0  0  0  0  0  0  0  0
  147.4285  135.6186  162.7735 C   0  0  0  0  0  0  0  0  0  0  0  0
  147.3872  136.9478  162.4626 C   0  0  0  0  0  0  0  0  0  0  0  0
  147.4576  137.1292  161.1164 O   0  0  0  0  0  0  0  0  0  0  0  0
  151.3854  137.9655  158.7981 H   0  0  0  0  0  0  0  0  0  0  0  0
  150.8763  137.4293  157.2441 H   0  0  0  0  0  0  0  0  0  0  0  0
  150.7112  143.1392  156.2686 H   0  0  0  0  0  0  0  0  0  0  0  0
  153.1306  142.3822  158.8024 H   0  0  0  0  0  0  0  0  0  0  0  0
  153.2818  144.3652  157.4886 H   0  0  0  0  0  0  0  0  0  0  0  0
  151.6149  144.1351  156.9224 H   0  0  0  0  0  0  0  0  0  0  0  0
  152.5536  145.5618  159.4166 H   0  0  0  0  0  0  0  0  0  0  0  0
  151.2458  146.0373  158.3251 H   0  0  0  0  0  0  0  0  0  0  0  0
  150.5726  144.8003  160.6126 H   0  0  0  0  0  0  0  0  0  0  0  0
  149.8469  144.1799  159.1223 H   0  0  0  0  0  0  0  0  0  0  0  0
  147.6835  131.9647  157.6156 H   0  0  0  0  0  0  0  0  0  0  0  0
  148.5099  129.9205  156.5035 H   0  0  0  0  0  0  0  0  0  0  0  0
  152.1562  131.9494  155.4140 H   0  0  0  0  0  0  0  0  0  0  0  0
  151.3650  134.0074  156.5176 H   0  0  0  0  0  0  0  0  0  0  0  0
  146.8326  134.2239  157.8255 H   0  0  0  0  0  0  0  0  0  0  0  0
  147.6138  133.6530  159.3121 H   0  0  0  0  0  0  0  0  0  0  0  0
  146.7991  136.3752  158.6216 H   0  0  0  0  0  0  0  0  0  0  0  0
  147.5886  133.8625  161.3740 H   0  0  0  0  0  0  0  0  0  0  0  0
  147.3913  135.1965  163.7669 H   0  0  0  0  0  0  0  0  0  0  0  0
  147.3143  137.8536  163.0464 H   0  0  0  0  0  0  0  0  0  0  0  0
  1  2  2  0  0  0  0
  2  3  1  0  0  0  0
  2 18  1  0  0  0  0
  3  4  1  0  0  0  0
  3 35  1  0  0  0  0
  3 36  1  0  0  0  0
  4 16  1  0  0  0  0
  4  5  1  0  0  0  0
  5  6  2  0  0  0  0
  5  7  1  0  0  0  0
  7  8  1  0  0  0  0
  7  9  2  0  0  0  0
  9 10  1  0  0  0  0
  9 37  1  0  0  0  0
 10 11  1  0  0  0  0
 10 16  1  0  0  0  0
 11 15  1  0  0  0  0
 11 12  1  0  0  0  0
 11 38  1  0  0  0  0
 12 13  1  0  0  0  0
 12 39  1  0  0  0  0
 12 40  1  0  0  0  0
 13 14  1  0  0  0  0
 13 41  1  0  0  0  0
 13 42  1  0  0  0  0
 14 15  1  0  0  0  0
 14 43  1  0  0  0  0
 14 44  1  0  0  0  0
 16 17  2  0  0  0  0
 18 29  1  0  0  0  0
 18 19  1  0  0  0  0
 19 20  2  0  0  0  0
 20 21  1  0  0  0  0
 20 28  1  0  0  0  0
 21 27  1  0  0  0  0
 21 22  2  0  0  0  0
 22 23  1  0  0  0  0
 22 45  1  0  0  0  0
 23 24  2  0  0  0  0
 23 46  1  0  0  0  0
 24 25  1  0  0  0  0
 24 26  1  0  0  0  0
 26 27  2  0  0  0  0
 26 47  1  0  0  0  0
 27 48  1  0  0  0  0
 28 29  1  0  0  0  0
 28 49  1  0  0  0  0
 28 50  1  0  0  0  0
 29 30  1  0  0  0  0
 29 51  1  0  0  0  0
 30 34  1  0  0  0  0
 30 31  2  0  0  0  0
 31 32  1  0  0  0  0
 31 52  1  0  0  0  0
 32 33  2  0  0  0  0
 32 53  1  0  0  0  0
 33 34  1  0  0  0  0
 33 54  1  0  0  0  0
M  END
> <s_m_source_file>
AV-unprocessed.smi

> <i_m_source_file_index>
136

> <i_lp_mmshare_version>
43012

> <i_f3d_flags>
0

> <s_epik_input>
bzFbY0hdW2NIXVtjSF1jMVtDQEBIXTJbQ0gyXUMoYzNbY0hdW2NIXWMoQ2wpW2NIXVtjSF0zKT1OTjJDKD1PKVtDSDJdbjRjKD1PKWMoRilbY0hdbihjND1PKVtDQEBIXTVbQ0gyXVtDSDJdW0NIMl1PNQ==

> <s_epik_cmdline>
J2VwaWtfcHl0aG9uJywgJy1waCcsICc3LjAnLCAnLXRuJywgJzgnLCAnLW1hJywgJzIwMCcsICctbWV0YWxfYmluZGluZycsICctaW1hZScsICc8aW5maWxlLm1hZT4nLCAnLW9tYWUnLCAnPG91dGZpbGUubWFlPic=

> <r_lp_tautomer_probability>
1

> <r_epik_Ionization_Penalty>
2.55467e-08

> <r_epik_Ionization_Penalty_Charging>
4.85705e-09

> <r_epik_Ionization_Penalty_Neutral>
2.06897e-08

> <r_epik_State_Penalty>
-0

> <r_epik_Charging_Adjusted_Penalty>
4.85705e-09

> <i_epik_Tot_Q>
0

> <i_epik_Tot_abs_Q>
0

> <r_epik_Metal_State_Penalty>
-0

> <b_epik_Metal_Only>
0

> <s_epik_Chemistry_Notes>
This compound has an imine and may undergo hydrolysis. This compound contains an acetal/aminal-like group ( X-CH(R)-Y where X, Y are N, S, or O) that may be acid/base labile, releasing an aldehyde.

> <s_lp_Force_Field>
OPLS_2005

> <r_lp_Energy>
41.711

> <b_lp_Chiralities_Consistent>
1

> <s_lp_Variant>
AV-unprocessed.smi:136-2

> <Gold.Version>
5.8.1

> <Gold.Id.Protein>
6NUR|6NUR_protein|mol2

> <Gold.PLP.Fitness>
61.5872

> <Gold.PLP.PLP>
-56.5705

> <Gold.PLP.part.hbond>
-4.7259

> <Gold.PLP.part.metal>
0.0000

> <Gold.PLP.part.buried>
-3.7675

> <Gold.PLP.part.nonpolar>
-50.5018

> <Gold.PLP.part.repulsive>
0.0342

> <Gold.PLP.ligand.clash>
0.0000

> <Gold.PLP.ligand.torsion>
0.7611

> <Gold.PLP.Chemscore.Hbond>
1.1559

> <Gold.PLP.Chemscore.CHOScore>
1.0000

> <Gold.PLP.Chemscore.Metal>
0.0000

> <Gold.Chemscore.Hbonds>
donor molecule, donor type, donor heavy atom, donor atom, acceptor molecule, acceptor atom, score
      P1  H  6896  6909       L1    19  0.17
      P1  H  6934  6947       L1    34  1.00
      L1  C     9    37       P1  8028  1.00

> <Gold.PLP.Chemscore.Internal.Correction>
0.0714

> <Gold.Rescore>
     Score         DG    S(hbond)    S(metal)    S(lipo)     H(rot)  DE(clash)    DE(int)     intcor
     12.30     -16.28       0.47        0.00     118.37       1.81       0.65       3.34       ----

> <Gold.Chemscore.Fitness>
12.2972

> <Gold.Chemscore.DG>
-16.2812

> <Gold.Chemscore.ZeroCoef>
-5.4800

> <Gold.Chemscore.Hbond>
0.4712

> <Gold.Chemscore.Metal>
0.0000

> <Gold.Chemscore.Lipo>
118.3734

> <Gold.Chemscore.Internal_Hbond>
0.0000

> <Gold.Chemscore.DEClash>
0.6485

> <Gold.Chemscore.DEInternal>
3.3355

> <Gold.Chemscore.Rot>
1.8056

> <Gold.Chemscore.Internal.Correction>
   9.000000E+99

> <Gold.Chemscore.Hbonds>
donor molecule, donor type, donor heavy atom, donor atom, acceptor molecule, acceptor atom, score
      P1  H  6934  6947       L1    34  0.33

> <Gold.Chemscore.Hbond.Weighted>
-1.5738

> <Gold.Chemscore.Metal.Weighted>
-0.0000

> <Gold.Chemscore.Lipo.Weighted>
-13.8497

> <Gold.Chemscore.Internal_Hbond.Weighted>
0.0000

> <Gold.Chemscore.DEClash.Weighted>
0.6485

> <Gold.Chemscore.DEInternal.Weighted>
3.3355

> <Gold.Chemscore.Rot.Weighted>
4.6223

> <Gold.Chemscore.Internal.Correction.Weighted>
   9.000000E+99

> <Gold.Protein.RotatedTorsions>
[ 6907 6896 6895 6894 ] final   51.10 input  -60.11 | X-H torsion
[ 7974 7965 7964 7962 ] final  -96.18 input  175.53 | X-H torsion
[ 8008 7997 7996 7995 ] final  174.45 input   59.86 | X-H torsion
[ 10167 10162 10161 10158 ] final -111.10 input  -65.29 | X-H torsion
[ 10718 10713 10712 10709 ] final   34.25 input   66.30 | X-H torsion
[ 10763 10752 10751 10750 ] final  -82.91 input  -60.55 | X-H torsion
[ 11005 11000 10999 10996 ] final   35.44 input  -57.11 | X-H torsion

> <Gold.Protein.ActiveResidues>
 VAL166  LYS551  ARG553  GLY616  TRP617  ASP618  TYR619  PRO620  LYS621  CYS622 
 ASP623  PHE694  ASN695  SER759  ASP760  ASP761  ALA762  ILE779  LEU786  VAL792 
 PHE793  MET794  SER795  GLU796  ALA797  LYS798  CYS799  TRP800  GLU811  SER814 

> <Gold.Protein.RotatedAtoms>
  152.3090  134.7520  160.0340 H   0  0  0  0  0  0  0  0  0  0  0  0  # atno 6907 bound_to 6896
  151.8007  133.3364  159.3534 H   0  0  0  0  0  0  0  0  0  0  0  0  # atno 6908 bound_to 6896
  150.7311  134.5686  159.5923 H   0  0  0  0  0  0  0  0  0  0  0  0  # atno 6909 bound_to 6896
  145.3503  140.9475  143.2558 H   0  0  0  0  0  0  0  0  0  0  0  0  # atno 7974 bound_to 7965
  156.0972  140.1434  156.9515 H   0  0  0  0  0  0  0  0  0  0  0  0  # atno 8008 bound_to 7997
  154.4679  140.0920  156.7115 H   0  0  0  0  0  0  0  0  0  0  0  0  # atno 8009 bound_to 7997
  155.4820  140.3445  155.4343 H   0  0  0  0  0  0  0  0  0  0  0  0  # atno 8010 bound_to 7997
  140.1372  143.4310  152.1587 H   0  0  0  0  0  0  0  0  0  0  0  0  # atno 10167 bound_to 10162
  157.3080  130.7384  149.6707 H   0  0  0  0  0  0  0  0  0  0  0  0  # atno 10718 bound_to 10713
  154.5814  135.5574  153.7189 H   0  0  0  0  0  0  0  0  0  0  0  0  # atno 10763 bound_to 10752
  153.0083  135.6321  154.1976 H   0  0  0  0  0  0  0  0  0  0  0  0  # atno 10764 bound_to 10752
  154.1917  135.2882  155.3000 H   0  0  0  0  0  0  0  0  0  0  0  0  # atno 10765 bound_to 10752
  140.2426  134.3397  155.7920 H   0  0  0  0  0  0  0  0  0  0  0  0  # atno 11005 bound_to 11000
  144.8723  139.5021  143.6762 LP  0  0  0  0  0  0  0  0  0  0  0  0  # atno 17320 bound_to 7965
  146.2971  139.7311  142.9119 LP  0  0  0  0  0  0  0  0  0  0  0  0  # atno 17321 bound_to 7965
  139.5490  144.7322  151.4494 LP  0  0  0  0  0  0  0  0  0  0  0  0  # atno 17342 bound_to 10162
  140.6782  143.8142  150.7086 LP  0  0  0  0  0  0  0  0  0  0  0  0  # atno 17343 bound_to 10162
  155.9676  130.4260  150.4678 LP  0  0  0  0  0  0  0  0  0  0  0  0  # atno 17370 bound_to 10713
  157.2671  131.0579  151.2283 LP  0  0  0  0  0  0  0  0  0  0  0  0  # atno 17371 bound_to 10713
  141.2209  133.7307  156.8910 LP  0  0  0  0  0  0  0  0  0  0  0  0  # atno 17394 bound_to 11000
  140.1638  134.9147  157.2748 LP  0  0  0  0  0  0  0  0  0  0  0  0  # atno 17395 bound_to 11000

$$$$
