#       Name:                AV-unprocessed.smi:2175
#       Creating user name   scv26
#       Creation time:       Fri Mar 27 12:03:46 2020


#       File generated by GOLD software.
#

@<TRIPOS>MOLECULE
AV-unprocessed.smi:2175
    39    40     1
SMALL
NO_CHARGES


@<TRIPOS>ATOM
      1 ****        -5.7661  -0.9643   0.9152 C.3            1 S1                 0.0000
      2 ****        -4.2547  -0.8892   0.9489 C.2            1 S1                 0.0000
      3 ****        -3.6903   0.2365   1.1686 N.2            1 S1                 0.0000
      4 ****        -2.2877   0.3117   1.2031 C.2            1 S1                 0.0000
      5 ****        -1.7047   1.6871   1.4774 C.3            1 S1                 0.0000
      6 ****        -1.5161  -0.7951   1.0027 C.2            1 S1                 0.0000
      7 ****         0.0117  -0.7646   1.0404 C.3            1 S1                 0.0000
      8 ****         0.6987  -0.2511  -0.2274 C.2            1 S1                 0.0000
      9 ****         0.2654  -0.5569  -1.3383 O.2            1 S1                 0.0000
     10 ****         1.7701   0.5356  -0.0457 N.am           1 S1                 0.0000
     11 ****         2.5567   1.1392  -1.1131 C.3            1 S1                 0.0000
     12 ****         3.5235   0.1986  -1.8070 C.3            1 S1                 0.0000
     13 ****         4.9400   0.0303  -1.3098 C.3            1 S1                 0.0000
     14 ****         4.6777   0.7474  -2.6125 C.3            1 S1                 0.0000
     15 ****        -2.2059  -2.0725   0.7464 C.2            1 S1                 0.0000
     16 ****        -1.5584  -3.0993   0.5458 O.2            1 S1                 0.0000
     17 ****        -3.5696  -2.0646   0.7385 N.pl3          1 S1                -1.0000
     18 ****        -6.2093   0.0324   0.9322 H              1 S1                 0.0000
     19 ****        -6.1341  -1.5185   1.7789 H              1 S1                 0.0000
     20 ****        -6.1021  -1.4700   0.0093 H              1 S1                 0.0000
     21 ****        -1.1419   1.6848   2.4110 H              1 S1                 0.0000
     22 ****        -2.4906   2.4388   1.5625 H              1 S1                 0.0000
     23 ****        -1.0390   1.9912   0.6696 H              1 S1                 0.0000
     24 ****         0.3158  -0.1441   1.8841 H              1 S1                 0.0000
     25 ****         0.4148  -1.7516   1.2681 H              1 S1                 0.0000
     26 ****         2.0572   0.7334   0.9019 H              1 S1                 0.0000
     27 ****         1.8884   1.5671  -1.8620 H              1 S1                 0.0000
     28 ****         3.1129   1.9758  -0.6891 H              1 S1                 0.0000
     29 ****         3.0509  -0.6912  -2.2191 H              1 S1                 0.0000
     30 ****         5.2545   0.6323  -0.4594 H              1 S1                 0.0000
     31 ****         5.3743  -0.9659  -1.3617 H              1 S1                 0.0000
     32 ****         4.9394   0.2299  -3.5332 H              1 S1                 0.0000
     33 ****         4.8195   1.8262  -2.6277 H              1 S1                 0.0000
     34 ****        -4.2427   1.0572   1.3148 LP             1 S1                 0.0000
     35 ****        -0.5402  -1.1442  -1.4164 LP             1 S1                 0.0000
     36 ****         0.7189  -0.2180  -2.1625 LP             1 S1                 0.0000
     37 ****        -0.5589  -3.0701   0.5561 LP             1 S1                 0.0000
     38 ****        -2.0317  -3.9630   0.3725 LP             1 S1                 0.0000
     39 ****        -4.0728  -2.9140   0.5796 LP             1 S1                 0.0000
@<TRIPOS>BOND
    1    1    2 1     
    2    1   18 1     
    3    1   19 1     
    4    1   20 1     
    5    2   17 1     
    6    2    3 2     
    7    3    4 1     
    8    4    5 1     
    9    4    6 2     
   10    5   21 1     
   11    5   22 1     
   12    5   23 1     
   13    6    7 1     
   14    6   15 1     
   15    7    8 1     
   16    7   24 1     
   17    7   25 1     
   18    8    9 2     
   19    8   10 am    
   20   10   11 1     
   21   10   26 1     
   22   11   12 1     
   23   11   27 1     
   24   11   28 1     
   25   12   14 1     
   26   12   13 1     
   27   12   29 1     
   28   13   14 1     
   29   13   30 1     
   30   13   31 1     
   31   14   32 1     
   32   14   33 1     
   33   15   16 2     
   34   15   17 1     
   35    3   34 1     
   36    9   35 1     
   37    9   36 1     
   38   16   37 1     
   39   16   38 1     
   40   17   39 1     
@<TRIPOS>SUBSTRUCTURE
      1 S1             1
@<TRIPOS>SET
LONE_PAIRS      STATIC     ATOMS    <user>   **** ""
6 34 35 36 37 38 39
DONOR_HYDROGENS      STATIC     ATOMS    <user>   **** ""
1 26
ATOM$BLUE        STATIC     ATOMS    COLORGROUP SYSTEM
6 34 35 36 37 38 39
ATOM$RED        STATIC     ATOMS    COLORGROUP SYSTEM
1 26
