#       Name:                AV-unprocessed.smi:3068
#       Creating user name   scv26
#       Creation time:       Fri Mar 27 17:10:18 2020


#       File generated by GOLD software.
#

@<TRIPOS>MOLECULE
AV-unprocessed.smi:3068
    45    47     1
SMALL
NO_CHARGES


@<TRIPOS>ATOM
      1 ****        -1.7049  -5.3335  -2.3664 N.1            1 S1                 0.0000
      2 ****        -2.1758  -4.2785  -2.3016 C.1            1 S1                 0.0000
      3 ****        -2.7675  -2.9491  -2.2194 C.ar           1 S1                 0.0000
      4 ****        -4.1129  -2.8903  -2.0872 N.ar           1 S1                 0.0000
      5 ****        -4.6741  -1.6653  -2.0074 C.ar           1 S1                 0.0000
      6 ****        -3.8954  -0.4931  -2.0585 C.ar           1 S1                 0.0000
      7 ****        -2.5526  -0.5419  -2.1891 N.ar           1 S1                 0.0000
      8 ****        -1.9753  -1.7672  -2.2704 C.ar           1 S1                 0.0000
      9 ****        -0.5761  -1.8346  -2.4071 N.pl3          1 S1                 0.0000
     10 ****         0.2659  -0.6461  -2.3348 C.3            1 S1                 0.0000
     11 ****         0.4819  -0.1648  -0.8900 C.3            1 S1                 0.0000
     12 ****         1.1993   1.2024  -0.8533 C.3            1 S1                 0.0000
     13 ****         1.5209   1.6128   0.5351 N.4            1 S1                 1.0000
     14 ****         0.3470   2.1386   1.2842 C.3            1 S1                 0.0000
     15 ****         0.7478   2.6129   2.6885 C.3            1 S1                 0.0000
     16 ****         1.4180   1.4784   3.4713 C.3            1 S1                 0.0000
     17 ****         2.6269   0.9489   2.6883 C.3            1 S1                 0.0000
     18 ****         2.2636   0.5353   1.2462 C.3            1 S1                 0.0000
     19 ****         1.5040  -0.8047   1.1517 C.3            1 S1                 0.0000
     20 ****         1.2915  -1.1258  -0.2181 O.3            1 S1                 0.0000
     21 ****        -5.7481  -1.6206  -1.9022 H              1 S1                 0.0000
     22 ****        -4.3494   0.4847  -1.9945 H              1 S1                 0.0000
     23 ****        -0.1264  -2.7383  -2.4548 H              1 S1                 0.0000
     24 ****         1.2266  -0.8749  -2.7968 H              1 S1                 0.0000
     25 ****        -0.1763   0.1480  -2.9375 H              1 S1                 0.0000
     26 ****        -0.4832  -0.0878  -0.3880 H              1 S1                 0.0000
     27 ****         2.1326   1.1398  -1.4148 H              1 S1                 0.0000
     28 ****         0.5970   1.9697  -1.3413 H              1 S1                 0.0000
     29 ****        -0.0884   2.9718   0.7315 H              1 S1                 0.0000
     30 ****        -0.4298   1.3783   1.3657 H              1 S1                 0.0000
     31 ****         1.4290   3.4614   2.6112 H              1 S1                 0.0000
     32 ****        -0.1309   2.9691   3.2269 H              1 S1                 0.0000
     33 ****         1.7347   1.8357   4.4518 H              1 S1                 0.0000
     34 ****         0.7027   0.6749   3.6496 H              1 S1                 0.0000
     35 ****         3.3881   1.7295   2.6508 H              1 S1                 0.0000
     36 ****         3.0811   0.1114   3.2191 H              1 S1                 0.0000
     37 ****         3.2056   0.3993   0.7122 H              1 S1                 0.0000
     38 ****         2.0925  -1.6025   1.6052 H              1 S1                 0.0000
     39 ****         0.5523  -0.7749   1.6834 H              1 S1                 0.0000
     40 ****         2.1584   2.3926   0.4601 H              1 S1                 0.0000
     41 ****        -1.2980  -6.2453  -2.4224 LP             1 S1                 0.0000
     42 ****        -4.6688  -3.7207  -2.0501 LP             1 S1                 0.0000
     43 ****        -2.0041   0.2934  -2.2246 LP             1 S1                 0.0000
     44 ****         2.1788  -1.1731  -0.6768 LP             1 S1                 0.0000
     45 ****         0.8408  -2.0169  -0.2714 LP             1 S1                 0.0000
@<TRIPOS>BOND
    1    1    2 3     
    2    2    3 1     
    3    3    8 ar    
    4    3    4 ar    
    5    4    5 ar    
    6    5    6 ar    
    7    5   21 1     
    8    6    7 ar    
    9    6   22 1     
   10    7    8 ar    
   11    8    9 1     
   12    9   10 1     
   13    9   23 1     
   14   10   11 1     
   15   10   24 1     
   16   10   25 1     
   17   11   20 1     
   18   11   12 1     
   19   11   26 1     
   20   12   13 1     
   21   12   27 1     
   22   12   28 1     
   23   13   18 1     
   24   13   14 1     
   25   13   40 1     
   26   14   15 1     
   27   14   29 1     
   28   14   30 1     
   29   15   16 1     
   30   15   31 1     
   31   15   32 1     
   32   16   17 1     
   33   16   33 1     
   34   16   34 1     
   35   17   18 1     
   36   17   35 1     
   37   17   36 1     
   38   18   19 1     
   39   18   37 1     
   40   19   20 1     
   41   19   38 1     
   42   19   39 1     
   43    1   41 1     
   44    4   42 1     
   45    7   43 1     
   46   20   44 1     
   47   20   45 1     
@<TRIPOS>SUBSTRUCTURE
      1 S1             1
@<TRIPOS>SET
LONE_PAIRS      STATIC     ATOMS    <user>   **** ""
5 41 42 43 44 45
DONOR_HYDROGENS      STATIC     ATOMS    <user>   **** ""
2 23 40
ATOM$BLUE        STATIC     ATOMS    COLORGROUP SYSTEM
5 41 42 43 44 45
ATOM$RED        STATIC     ATOMS    COLORGROUP SYSTEM
2 23 40
