AV-unprocessed.smi:2110|AV-procd|sdf|8610|dock6
  -GOLD-   2272011353D 1   1.00000     0.00000
 Structure written by MMmdl.
 45 46  0  0  0  0  0  0  0  0  2 V2000
  145.9692  137.0951  161.6732 C   0  0  0  0  0  0  0  0  0  0  0  0
  147.3255  136.3734  161.6118 C   0  0  0  0  0  0  0  0  0  0  0  0
  147.5351  135.6421  160.3455 N   0  0  0  0  0  0  0  0  0  0  0  0
  147.0396  134.2522  160.2870 C   0  0  0  0  0  0  0  0  0  0  0  0
  146.2993  133.8226  161.5628 C   0  0  0  0  0  0  0  0  0  0  0  0
  147.9317  136.4969  158.8805 S   0  0  0  0  0  0  0  0  0  0  0  0
  147.3074  135.7419  157.7812 O   0  0  0  0  0  0  0  0  0  0  0  0
  147.5048  137.8907  159.0855 O   0  0  0  0  0  0  0  0  0  0  0  0
  149.5389  136.3106  158.9607 N   0  5  0  0  0  0  0  0  0  0  0  0
  150.3275  137.2813  159.6955 C   0  0  0  0  0  0  0  0  0  0  0  0
  151.1390  138.1689  158.7609 C   0  0  0  0  0  0  0  0  0  0  0  0
  151.7440  137.6326  157.6026 C   0  0  0  0  0  0  0  0  0  0  0  0
  152.4858  138.4945  156.7749 C   0  0  0  0  0  0  0  0  0  0  0  0
  152.6412  139.8110  157.0243 N   0  0  0  0  0  0  0  0  0  0  0  0
  152.0584  140.3420  158.1275 C   0  0  0  0  0  0  0  0  0  0  0  0
  152.2205  141.7241  158.3685 N   0  0  0  0  0  0  0  0  0  0  0  0
  152.4466  142.0987  159.7624 C   0  0  0  0  0  0  0  0  0  0  0  0
  152.9092  143.5630  159.8552 C   0  0  0  0  0  0  0  0  0  0  0  0
  151.9681  144.4091  159.2028 O   0  0  0  0  0  0  0  0  0  0  0  0
  151.8465  144.0962  157.8192 C   0  0  0  0  0  0  0  0  0  0  0  0
  151.3434  142.6519  157.6568 C   0  0  0  0  0  0  0  0  0  0  0  0
  151.3048  139.5481  159.0256 C   0  0  0  0  0  0  0  0  0  0  0  0
  145.8233  137.5530  162.6512 H   0  0  0  0  0  0  0  0  0  0  0  0
  145.1361  136.4150  161.4999 H   0  0  0  0  0  0  0  0  0  0  0  0
  145.9072  137.8918  160.9320 H   0  0  0  0  0  0  0  0  0  0  0  0
  148.1286  137.1007  161.7313 H   0  0  0  0  0  0  0  0  0  0  0  0
  147.4160  135.6842  162.4518 H   0  0  0  0  0  0  0  0  0  0  0  0
  146.3775  134.1387  159.4293 H   0  0  0  0  0  0  0  0  0  0  0  0
  147.8830  133.5847  160.1094 H   0  0  0  0  0  0  0  0  0  0  0  0
  145.9008  132.8145  161.4501 H   0  0  0  0  0  0  0  0  0  0  0  0
  145.4602  134.4819  161.7831 H   0  0  0  0  0  0  0  0  0  0  0  0
  146.9603  133.8133  162.4289 H   0  0  0  0  0  0  0  0  0  0  0  0
  149.6994  137.9376  160.2987 H   0  0  0  0  0  0  0  0  0  0  0  0
  151.0039  136.7960  160.4000 H   0  0  0  0  0  0  0  0  0  0  0  0
  151.6577  136.5852  157.3473 H   0  0  0  0  0  0  0  0  0  0  0  0
  152.9669  138.1164  155.8851 H   0  0  0  0  0  0  0  0  0  0  0  0
  151.5164  141.9662  160.3163 H   0  0  0  0  0  0  0  0  0  0  0  0
  153.1908  141.4618  160.2384 H   0  0  0  0  0  0  0  0  0  0  0  0
  152.9921  143.8641  160.8996 H   0  0  0  0  0  0  0  0  0  0  0  0
  153.8975  143.6870  159.4093 H   0  0  0  0  0  0  0  0  0  0  0  0
  151.1454  144.7918  157.3579 H   0  0  0  0  0  0  0  0  0  0  0  0
  152.8066  144.2320  157.3185 H   0  0  0  0  0  0  0  0  0  0  0  0
  151.3067  142.3992  156.5964 H   0  0  0  0  0  0  0  0  0  0  0  0
  150.3293  142.5643  158.0492 H   0  0  0  0  0  0  0  0  0  0  0  0
  150.8725  139.9929  159.9114 H   0  0  0  0  0  0  0  0  0  0  0  0
  1  2  1  0  0  0  0
  1 23  1  0  0  0  0
  1 24  1  0  0  0  0
  1 25  1  0  0  0  0
  2  3  1  0  0  0  0
  2 26  1  0  0  0  0
  2 27  1  0  0  0  0
  3  4  1  0  0  0  0
  3  6  1  0  0  0  0
  4  5  1  0  0  0  0
  4 28  1  0  0  0  0
  4 29  1  0  0  0  0
  5 30  1  0  0  0  0
  5 31  1  0  0  0  0
  5 32  1  0  0  0  0
  6  7  2  0  0  0  0
  6  8  2  0  0  0  0
  6  9  1  0  0  0  0
  9 10  1  0  0  0  0
 10 11  1  0  0  0  0
 10 33  1  0  0  0  0
 10 34  1  0  0  0  0
 11 22  1  0  0  0  0
 11 12  2  0  0  0  0
 12 13  1  0  0  0  0
 12 35  1  0  0  0  0
 13 14  2  0  0  0  0
 13 36  1  0  0  0  0
 14 15  1  0  0  0  0
 15 16  1  0  0  0  0
 15 22  2  0  0  0  0
 16 21  1  0  0  0  0
 16 17  1  0  0  0  0
 17 18  1  0  0  0  0
 17 37  1  0  0  0  0
 17 38  1  0  0  0  0
 18 19  1  0  0  0  0
 18 39  1  0  0  0  0
 18 40  1  0  0  0  0
 19 20  1  0  0  0  0
 20 21  1  0  0  0  0
 20 41  1  0  0  0  0
 20 42  1  0  0  0  0
 21 43  1  0  0  0  0
 21 44  1  0  0  0  0
 22 45  1  0  0  0  0
M  CHG  1   9  -1
M  END
> <s_m_source_file>
AV-unprocessed.smi

> <i_m_source_file_index>
2110

> <i_lp_mmshare_version>
43012

> <i_f3d_flags>
0

> <s_epik_input>
W0NIM11bQ0gyXU4oW0NIMl1bQ0gzXSlTKD1PKSg9TylbTkhdW0NIMl1jMVtjSF1bY0hdbmMoW2NIXTEpTjJbQ0gyXVtDSDJdT1tDSDJdW0NIMl0y

> <s_epik_cmdline>
J2VwaWtfcHl0aG9uJywgJy1waCcsICc3LjAnLCAnLXRuJywgJzgnLCAnLW1hJywgJzIwMCcsICctbWV0YWxfYmluZGluZycsICctaW1hZScsICc8aW5maWxlLm1hZT4nLCAnLW9tYWUnLCAnPG91dGZpbGUubWFlPic=

> <r_lp_tautomer_probability>
1

> <r_epik_Ionization_Penalty>
2.67693

> <r_epik_Ionization_Penalty_Charging>
2.41478

> <r_epik_Ionization_Penalty_Neutral>
0.262148

> <r_epik_State_Penalty>
2.66454

> <r_epik_Charging_Adjusted_Penalty>
5.07933

> <i_epik_Tot_Q>
-1

> <i_epik_Tot_abs_Q>
1

> <r_epik_Metal_State_Penalty>
0.588443

> <b_epik_Metal_Only>
0

> <s_lp_Force_Field>
OPLS_2005

> <r_lp_Energy>
11.2641

> <b_lp_Chiralities_Consistent>
1

> <s_lp_Variant>
AV-unprocessed.smi:2110-3

> <Gold.Version>
5.8.1

> <Gold.Id.Protein>
6NUR|6NUR_protein|mol2

> <Gold.PLP.Fitness>
48.2694

> <Gold.PLP.PLP>
-39.7629

> <Gold.PLP.part.hbond>
-3.4489

> <Gold.PLP.part.metal>
0.0000

> <Gold.PLP.part.buried>
-3.0856

> <Gold.PLP.part.nonpolar>
-33.6957

> <Gold.PLP.part.repulsive>
0.0268

> <Gold.PLP.ligand.clash>
0.0021

> <Gold.PLP.ligand.torsion>
2.9161

> <Gold.PLP.Chemscore.Hbond>
3.5440

> <Gold.PLP.Chemscore.CHOScore>
0.0000

> <Gold.PLP.Chemscore.Metal>
0.0000

> <Gold.Chemscore.Hbonds>
donor molecule, donor type, donor heavy atom, donor atom, acceptor molecule, acceptor atom, score
      P1  H  6896  6909       L1     9  1.11
      P1  H  6934  6947       L1     8  0.34
      P1  H  7997  8009       L1    14  1.00

> <Gold.PLP.Chemscore.Internal.Correction>
3.7089

> <Gold.Rescore>
     Score         DG    S(hbond)    S(metal)    S(lipo)     H(rot)  DE(clash)    DE(int)     intcor
     15.56     -19.41       1.74        0.00     105.82       1.66       0.65       3.20       ----

> <Gold.Chemscore.Fitness>
15.5608

> <Gold.Chemscore.DG>
-19.4139

> <Gold.Chemscore.ZeroCoef>
-5.4800

> <Gold.Chemscore.Hbond>
1.7404

> <Gold.Chemscore.Metal>
0.0000

> <Gold.Chemscore.Lipo>
105.8225

> <Gold.Chemscore.Internal_Hbond>
0.0000

> <Gold.Chemscore.DEClash>
0.6483

> <Gold.Chemscore.DEInternal>
3.2049

> <Gold.Chemscore.Rot>
1.6642

> <Gold.Chemscore.Internal.Correction>
   9.000000E+99

> <Gold.Chemscore.Hbonds>
donor molecule, donor type, donor heavy atom, donor atom, acceptor molecule, acceptor atom, score
      P1  H  6896  6909       L1     9  0.06
      P1  H  6934  6947       L1     8  0.34
      P1  H  7997  8009       L1    14  0.39

> <Gold.Chemscore.Hbond.Weighted>
-5.8131

> <Gold.Chemscore.Metal.Weighted>
-0.0000

> <Gold.Chemscore.Lipo.Weighted>
-12.3812

> <Gold.Chemscore.Internal_Hbond.Weighted>
0.0000

> <Gold.Chemscore.DEClash.Weighted>
0.6483

> <Gold.Chemscore.DEInternal.Weighted>
3.2049

> <Gold.Chemscore.Rot.Weighted>
4.2604

> <Gold.Chemscore.Internal.Correction.Weighted>
   9.000000E+99

> <Gold.Protein.RotatedTorsions>
[ 6907 6896 6895 6894 ] final   54.60 input  -60.11 | X-H torsion
[ 7974 7965 7964 7962 ] final   89.21 input  175.53 | X-H torsion
[ 8008 7997 7996 7995 ] final -174.40 input   59.86 | X-H torsion
[ 10167 10162 10161 10158 ] final -164.13 input  -65.29 | X-H torsion
[ 10718 10713 10712 10709 ] final  -77.80 input   66.30 | X-H torsion
[ 10763 10752 10751 10750 ] final  -83.87 input  -60.55 | X-H torsion
[ 11005 11000 10999 10996 ] final -152.72 input  -57.11 | X-H torsion

> <Gold.Protein.ActiveResidues>
 VAL166  LYS551  ARG553  GLY616  TRP617  ASP618  TYR619  PRO620  LYS621  CYS622 
 ASP623  PHE694  ASN695  SER759  ASP760  ASP761  ALA762  ILE779  LEU786  VAL792 
 PHE793  MET794  SER795  GLU796  ALA797  LYS798  CYS799  TRP800  GLU811  SER814 

> <Gold.Protein.RotatedAtoms>
  152.3455  134.7076  160.0251 H   0  0  0  0  0  0  0  0  0  0  0  0  # atno 6907 bound_to 6896
  151.7447  133.3318  159.3383 H   0  0  0  0  0  0  0  0  0  0  0  0  # atno 6908 bound_to 6896
  150.7506  134.6179  159.6165 H   0  0  0  0  0  0  0  0  0  0  0  0  # atno 6909 bound_to 6896
  145.5354  139.2285  143.2595 H   0  0  0  0  0  0  0  0  0  0  0  0  # atno 7974 bound_to 7965
  155.9696  140.1160  157.0824 H   0  0  0  0  0  0  0  0  0  0  0  0  # atno 8008 bound_to 7997
  154.4153  140.1166  156.5355 H   0  0  0  0  0  0  0  0  0  0  0  0  # atno 8009 bound_to 7997
  155.6614  140.3473  155.4786 H   0  0  0  0  0  0  0  0  0  0  0  0  # atno 8010 bound_to 7997
  139.6272  144.0509  152.1985 H   0  0  0  0  0  0  0  0  0  0  0  0  # atno 10167 bound_to 10162
  156.0135  130.4501  150.3400 H   0  0  0  0  0  0  0  0  0  0  0  0  # atno 10718 bound_to 10713
  154.5928  135.5541  153.7296 H   0  0  0  0  0  0  0  0  0  0  0  0  # atno 10763 bound_to 10752
  153.0123  135.6347  154.1825 H   0  0  0  0  0  0  0  0  0  0  0  0  # atno 10764 bound_to 10752
  154.1765  135.2889  155.3045 H   0  0  0  0  0  0  0  0  0  0  0  0  # atno 10765 bound_to 10752
  140.7159  134.3781  157.5191 H   0  0  0  0  0  0  0  0  0  0  0  0  # atno 11005 bound_to 11000
  146.2017  140.6172  142.9099 LP  0  0  0  0  0  0  0  0  0  0  0  0  # atno 17320 bound_to 7965
  144.7604  140.5409  143.6739 LP  0  0  0  0  0  0  0  0  0  0  0  0  # atno 17321 bound_to 7965
  140.0165  144.6185  150.7602 LP  0  0  0  0  0  0  0  0  0  0  0  0  # atno 17342 bound_to 10162
  140.7418  143.2823  151.3563 LP  0  0  0  0  0  0  0  0  0  0  0  0  # atno 17343 bound_to 10162
  157.1496  131.0317  151.2891 LP  0  0  0  0  0  0  0  0  0  0  0  0  # atno 17370 bound_to 10713
  157.4403  130.7540  149.7064 LP  0  0  0  0  0  0  0  0  0  0  0  0  # atno 17371 bound_to 10713
  139.8860  134.8921  156.2610 LP  0  0  0  0  0  0  0  0  0  0  0  0  # atno 17394 bound_to 11000
  141.0045  133.7132  156.1013 LP  0  0  0  0  0  0  0  0  0  0  0  0  # atno 17395 bound_to 11000

$$$$
