#       Name:                AV-unprocessed.smi:240
#       Creating user name   scv26
#       Creation time:       Thu Mar 26 20:43:10 2020


#       File generated by GOLD software.
#

@<TRIPOS>MOLECULE
AV-unprocessed.smi:240
    67    71     1
SMALL
NO_CHARGES


@<TRIPOS>ATOM
      1 ****        -3.1415  -3.1841  -1.8999 O.3            1 S1                 0.0000
      2 ****        -2.9334  -3.6401  -0.5747 C.3            1 S1                 0.0000
      3 ****        -2.0019  -4.8526  -0.6173 C.3            1 S1                 0.0000
      4 ****        -0.5833  -4.2756  -0.6378 C.3            1 S1                 0.0000
      5 ****        -0.7113  -2.8042  -0.2178 C.3            1 S1                 0.0000
      6 ****        -2.1625  -2.6004   0.2658 C.3            1 S1                 0.0000
      7 ****        -2.7307  -1.1415   0.2278 C.3            1 S1                 0.0000
      8 ****        -4.2665  -1.1591   0.4550 C.3            1 S1                 0.0000
      9 ****        -4.8057   0.1563   0.4691 O.3            1 S1                 0.0000
     10 ****        -4.2714   0.9291   1.5317 C.3            1 S1                 0.0000
     11 ****        -2.7625   1.0688   1.3132 C.3            1 S1                 0.0000
     12 ****        -2.1318  -0.2459   1.2341 N.3            1 S1                 0.0000
     13 ****        -0.7897  -0.0947   1.2215 C.ar           1 S1                 0.0000
     14 ****        -0.1247  -0.4084   2.3605 N.ar           1 S1                 0.0000
     15 ****         1.2038  -0.2735   2.4156 C.ar           1 S1                 0.0000
     16 ****         2.0397   0.1575   1.4683 N.ar           1 S1                 0.0000
     17 ****         1.3701   0.4881   0.3267 C.ar           1 S1                 0.0000
     18 ****        -0.0344   0.3953   0.1182 C.ar           1 S1                 0.0000
     19 ****        -0.3527   0.8192  -1.1662 N.2            1 S1                 0.0000
     20 ****         0.7992   1.1415  -1.6884 C.2            1 S1                 0.0000
     21 ****         1.8862   0.9822  -0.8584 N.pl3          1 S1                 0.0000
     22 ****         3.2761   1.2713  -1.1772 C.3            1 S1                 0.0000
     23 ****         3.6449   2.7639  -1.0110 C.3            1 S1                 0.0000
     24 ****         2.9248   3.5230  -1.9672 O.3            1 S1                 0.0000
     25 ****         3.3541   3.3306   0.3757 C.3            1 S1                 0.0000
     26 ****         4.4370   4.3867   0.5441 C.3            1 S1                 0.0000
     27 ****         5.5691   3.7634  -0.0378 O.3            1 S1                 0.0000
     28 ****         5.1488   3.0492  -1.1963 C.3            1 S1                 0.0000
     29 ****        -3.6891  -2.4145  -1.8717 H              1 S1                 0.0000
     30 ****        -3.8953  -3.9016  -0.1325 H              1 S1                 0.0000
     31 ****        -2.1348  -5.4374   0.2938 H              1 S1                 0.0000
     32 ****        -2.2004  -5.5177  -1.4588 H              1 S1                 0.0000
     33 ****         0.0678  -4.8294   0.0392 H              1 S1                 0.0000
     34 ****        -0.1508  -4.3444  -1.6365 H              1 S1                 0.0000
     35 ****         0.0231  -2.5610   0.5489 H              1 S1                 0.0000
     36 ****        -0.5112  -2.1680  -1.0806 H              1 S1                 0.0000
     37 ****        -2.2093  -2.9429   1.3011 H              1 S1                 0.0000
     38 ****        -2.5473  -0.7172  -0.7597 H              1 S1                 0.0000
     39 ****        -4.7757  -1.6968  -0.3435 H              1 S1                 0.0000
     40 ****        -4.5159  -1.6695   1.3869 H              1 S1                 0.0000
     41 ****        -4.7452   1.9107   1.5339 H              1 S1                 0.0000
     42 ****        -4.4902   0.4627   2.4937 H              1 S1                 0.0000
     43 ****        -2.5772   1.6252   0.3933 H              1 S1                 0.0000
     44 ****        -2.3272   1.6456   2.1309 H              1 S1                 0.0000
     45 ****         1.6626  -0.5496   3.3536 H              1 S1                 0.0000
     46 ****         0.8880   1.5145  -2.6985 H              1 S1                 0.0000
     47 ****         3.9074   0.6568  -0.5341 H              1 S1                 0.0000
     48 ****         3.4709   0.9428  -2.1989 H              1 S1                 0.0000
     49 ****         3.1706   4.4308  -1.8743 H              1 S1                 0.0000
     50 ****         2.3432   3.7249   0.4895 H              1 S1                 0.0000
     51 ****         3.4983   2.5614   1.1350 H              1 S1                 0.0000
     52 ****         4.1904   5.2954  -0.0072 H              1 S1                 0.0000
     53 ****         4.6130   4.6496   1.5873 H              1 S1                 0.0000
     54 ****         5.7373   2.1352  -1.2806 H              1 S1                 0.0000
     55 ****         5.3481   3.6472  -2.0871 H              1 S1                 0.0000
     56 ****        -3.5920  -3.8986  -2.4351 LP             1 S1                 0.0000
     57 ****        -2.2628  -2.9570  -2.3199 LP             1 S1                 0.0000
     58 ****        -5.7982   0.0989   0.5769 LP             1 S1                 0.0000
     59 ****        -4.5900   0.6046  -0.3984 LP             1 S1                 0.0000
     60 ****        -2.3335  -0.7707   2.0611 LP             1 S1                 0.0000
     61 ****        -0.6277  -0.7403   3.1585 LP             1 S1                 0.0000
     62 ****         3.0307   0.2290   1.5811 LP             1 S1                 0.0000
     63 ****        -1.2562   0.8665  -1.5923 LP             1 S1                 0.0000
     64 ****         1.9427   3.4212  -1.8089 LP             1 S1                 0.0000
     65 ****         3.1486   3.2052  -2.8886 LP             1 S1                 0.0000
     66 ****         5.9793   3.1299   0.6182 LP             1 S1                 0.0000
     67 ****         6.2409   4.4579  -0.2954 LP             1 S1                 0.0000
@<TRIPOS>BOND
    1    1    2 1     
    2    1   29 1     
    3    2    6 1     
    4    2    3 1     
    5    2   30 1     
    6    3    4 1     
    7    3   31 1     
    8    3   32 1     
    9    4    5 1     
   10    4   33 1     
   11    4   34 1     
   12    5    6 1     
   13    5   35 1     
   14    5   36 1     
   15    6    7 1     
   16    6   37 1     
   17    7   12 1     
   18    7    8 1     
   19    7   38 1     
   20    8    9 1     
   21    8   39 1     
   22    8   40 1     
   23    9   10 1     
   24   10   11 1     
   25   10   41 1     
   26   10   42 1     
   27   11   12 1     
   28   11   43 1     
   29   11   44 1     
   30   12   13 1     
   31   13   18 ar    
   32   13   14 ar    
   33   14   15 ar    
   34   15   16 ar    
   35   15   45 1     
   36   16   17 ar    
   37   17   21 1     
   38   17   18 ar    
   39   18   19 1     
   40   19   20 2     
   41   20   21 1     
   42   20   46 1     
   43   21   22 1     
   44   22   23 1     
   45   22   47 1     
   46   22   48 1     
   47   23   28 1     
   48   23   24 1     
   49   23   25 1     
   50   24   49 1     
   51   25   26 1     
   52   25   50 1     
   53   25   51 1     
   54   26   27 1     
   55   26   52 1     
   56   26   53 1     
   57   27   28 1     
   58   28   54 1     
   59   28   55 1     
   60    1   56 1     
   61    1   57 1     
   62    9   58 1     
   63    9   59 1     
   64   12   60 1     
   65   14   61 1     
   66   16   62 1     
   67   19   63 1     
   68   24   64 1     
   69   24   65 1     
   70   27   66 1     
   71   27   67 1     
@<TRIPOS>SUBSTRUCTURE
      1 S1             1
@<TRIPOS>SET
LONE_PAIRS      STATIC     ATOMS    <user>   **** ""
12 56 57 58 59 60 61 62 63 64 65 66 67
DONOR_HYDROGENS      STATIC     ATOMS    <user>   **** ""
2 29 49
ATOM$BLUE        STATIC     ATOMS    COLORGROUP SYSTEM
12 56 57 58 59 60 61 62 63 64 65 66 67
ATOM$RED        STATIC     ATOMS    COLORGROUP SYSTEM
2 29 49
