AV-unprocessed.smi:635|AV-procd|sdf|3139|dock6
  -GOLD-   22720 0 63D 1   1.00000     0.00000
 Structure written by MMmdl.
 37 38  0  0  0  0  0  0  0  0  1 V2000
  145.8905  132.2410  150.1161 C   0  0  0  0  0  0  0  0  0  0  0  0
  145.4507  132.1917  151.5834 C   0  0  0  0  0  0  0  0  0  0  0  0
  146.1805  133.2267  152.4536 C   0  0  0  0  0  0  0  0  0  0  0  0
  147.6541  132.8757  152.6945 C   0  0  0  0  0  0  0  0  0  0  0  0
  148.1715  133.7144  153.7211 O   0  0  0  0  0  0  0  0  0  0  0  0
  149.5431  133.4968  154.0396 C   0  0  0  0  0  0  0  0  0  0  0  0
  150.0974  134.6167  154.9274 C   0  0  0  0  0  0  0  0  0  0  0  0
  150.5805  134.3332  156.0231 O   0  0  0  0  0  0  0  0  0  0  0  0
  150.0007  135.8642  154.4305 N   0  0  0  0  0  0  0  0  0  0  0  0
  150.4117  137.0825  155.0311 C   0  0  0  0  0  0  0  0  0  0  0  0
  151.0015  138.0189  154.1564 C   0  0  0  0  0  0  0  0  0  0  0  0
  151.4261  139.2496  154.6852 C   0  0  0  0  0  0  0  0  0  0  0  0
  151.2330  139.4644  156.0625 C   0  0  0  0  0  0  0  0  0  0  0  0
  151.6299  140.7396  156.7388 C   0  0  0  0  0  0  0  0  0  0  0  0
  151.4863  140.9144  158.2344 C   0  0  0  0  0  0  0  0  0  0  0  0
  150.5838  141.6772  157.2967 C   0  0  0  0  0  0  0  0  0  0  0  0
  150.6560  138.5373  156.8590 N   0  0  0  0  0  0  0  0  0  0  0  0
  150.2568  137.3672  156.3501 N   0  0  0  0  0  0  0  0  0  0  0  0
  145.3540  131.4985  149.5250 H   0  0  0  0  0  0  0  0  0  0  0  0
  146.9572  132.0377  150.0175 H   0  0  0  0  0  0  0  0  0  0  0  0
  145.6931  133.2202  149.6785 H   0  0  0  0  0  0  0  0  0  0  0  0
  144.3743  132.3574  151.6387 H   0  0  0  0  0  0  0  0  0  0  0  0
  145.6289  131.1909  151.9779 H   0  0  0  0  0  0  0  0  0  0  0  0
  146.1246  134.2023  151.9693 H   0  0  0  0  0  0  0  0  0  0  0  0
  145.6709  133.3308  153.4122 H   0  0  0  0  0  0  0  0  0  0  0  0
  147.7500  131.8264  152.9771 H   0  0  0  0  0  0  0  0  0  0  0  0
  148.2125  133.0145  151.7682 H   0  0  0  0  0  0  0  0  0  0  0  0
  149.6254  132.5563  154.5848 H   0  0  0  0  0  0  0  0  0  0  0  0
  150.1389  133.3911  153.1315 H   0  0  0  0  0  0  0  0  0  0  0  0
  149.5939  135.9458  153.5100 H   0  0  0  0  0  0  0  0  0  0  0  0
  151.1261  137.8030  153.1052 H   0  0  0  0  0  0  0  0  0  0  0  0
  151.8807  140.0001  154.0557 H   0  0  0  0  0  0  0  0  0  0  0  0
  152.5030  141.1802  156.2610 H   0  0  0  0  0  0  0  0  0  0  0  0
  151.0358  140.1065  158.8074 H   0  0  0  0  0  0  0  0  0  0  0  0
  152.2498  141.4889  158.7551 H   0  0  0  0  0  0  0  0  0  0  0  0
  150.7602  142.7469  157.2039 H   0  0  0  0  0  0  0  0  0  0  0  0
  149.5420  141.3669  157.2438 H   0  0  0  0  0  0  0  0  0  0  0  0
  1  2  1  0  0  0  0
  1 19  1  0  0  0  0
  1 20  1  0  0  0  0
  1 21  1  0  0  0  0
  2  3  1  0  0  0  0
  2 22  1  0  0  0  0
  2 23  1  0  0  0  0
  3  4  1  0  0  0  0
  3 24  1  0  0  0  0
  3 25  1  0  0  0  0
  4  5  1  0  0  0  0
  4 26  1  0  0  0  0
  4 27  1  0  0  0  0
  5  6  1  0  0  0  0
  6  7  1  0  0  0  0
  6 28  1  0  0  0  0
  6 29  1  0  0  0  0
  7  8  2  0  0  0  0
  7  9  1  0  0  0  0
  9 10  1  0  0  0  0
  9 30  1  0  0  0  0
 10 18  1  0  0  0  0
 10 11  2  0  0  0  0
 11 12  1  0  0  0  0
 11 31  1  0  0  0  0
 12 13  2  0  0  0  0
 12 32  1  0  0  0  0
 13 14  1  0  0  0  0
 13 17  1  0  0  0  0
 14 16  1  0  0  0  0
 14 15  1  0  0  0  0
 14 33  1  0  0  0  0
 15 16  1  0  0  0  0
 15 34  1  0  0  0  0
 15 35  1  0  0  0  0
 16 36  1  0  0  0  0
 16 37  1  0  0  0  0
 17 18  2  0  0  0  0
M  END
> <s_m_source_file>
AV-unprocessed.smi

> <i_m_source_file_index>
635

> <i_lp_mmshare_version>
43012

> <i_f3d_flags>
0

> <s_epik_input>
W0NIM11bQ0gyXVtDSDJdW0NIMl1PW0NIMl1DKD1PKVtOSF1jMVtjSF1bY0hdYyhubjEpW0NIXTJbQ0gyXVtDSDJdMg==

> <s_epik_cmdline>
J2VwaWtfcHl0aG9uJywgJy1waCcsICc3LjAnLCAnLXRuJywgJzgnLCAnLW1hJywgJzIwMCcsICctbWV0YWxfYmluZGluZycsICctaW1hZScsICc8aW5maWxlLm1hZT4nLCAnLW9tYWUnLCAnPG91dGZpbGUubWFlPic=

> <r_lp_tautomer_probability>
1

> <r_epik_Ionization_Penalty>
0.00559584

> <r_epik_Ionization_Penalty_Charging>
0

> <r_epik_Ionization_Penalty_Neutral>
0.00559584

> <r_epik_State_Penalty>
-0

> <r_epik_Charging_Adjusted_Penalty>
0

> <i_epik_Tot_Q>
0

> <i_epik_Tot_abs_Q>
0

> <r_epik_Metal_State_Penalty>
-0

> <b_epik_Metal_Only>
0

> <s_lp_Force_Field>
OPLS_2005

> <r_lp_Energy>
16.6483

> <b_lp_Chiralities_Consistent>
1

> <s_lp_Variant>
AV-unprocessed.smi:635-1

> <Gold.Version>
5.8.1

> <Gold.Id.Protein>
6NUR|6NUR_protein|mol2

> <Gold.PLP.Fitness>
34.3482

> <Gold.PLP.PLP>
-32.1250

> <Gold.PLP.part.hbond>
-1.5726

> <Gold.PLP.part.metal>
0.0000

> <Gold.PLP.part.buried>
-2.9782

> <Gold.PLP.part.nonpolar>
-27.9754

> <Gold.PLP.part.repulsive>
0.6800

> <Gold.PLP.ligand.clash>
0.0000

> <Gold.PLP.ligand.torsion>
0.4841

> <Gold.PLP.Chemscore.Hbond>
1.0000

> <Gold.PLP.Chemscore.CHOScore>
0.0000

> <Gold.PLP.Chemscore.Metal>
0.0000

> <Gold.Chemscore.Hbonds>
donor molecule, donor type, donor heavy atom, donor atom, acceptor molecule, acceptor atom, score
      L1  H     9    30       P1  7948  1.00

> <Gold.PLP.Chemscore.Internal.Correction>
0.1915

> <Gold.Rescore>
     Score         DG    S(hbond)    S(metal)    S(lipo)     H(rot)  DE(clash)    DE(int)     intcor
     10.18     -11.63       0.78        0.00      69.92       1.82       0.05       1.40       ----

> <Gold.Chemscore.Fitness>
10.1805

> <Gold.Chemscore.DG>
-11.6324

> <Gold.Chemscore.ZeroCoef>
-5.4800

> <Gold.Chemscore.Hbond>
0.7842

> <Gold.Chemscore.Metal>
0.0000

> <Gold.Chemscore.Lipo>
69.9168

> <Gold.Chemscore.Internal_Hbond>
0.0000

> <Gold.Chemscore.DEClash>
0.0531

> <Gold.Chemscore.DEInternal>
1.3988

> <Gold.Chemscore.Rot>
1.8153

> <Gold.Chemscore.Internal.Correction>
   9.000000E+99

> <Gold.Chemscore.Hbonds>
donor molecule, donor type, donor heavy atom, donor atom, acceptor molecule, acceptor atom, score
      L1  H     9    30       P1  7948  0.26

> <Gold.Chemscore.Hbond.Weighted>
-2.6194

> <Gold.Chemscore.Metal.Weighted>
-0.0000

> <Gold.Chemscore.Lipo.Weighted>
-8.1803

> <Gold.Chemscore.Internal_Hbond.Weighted>
0.0000

> <Gold.Chemscore.DEClash.Weighted>
0.0531

> <Gold.Chemscore.DEInternal.Weighted>
1.3988

> <Gold.Chemscore.Rot.Weighted>
4.6472

> <Gold.Chemscore.Internal.Correction.Weighted>
   9.000000E+99

> <Gold.Protein.RotatedTorsions>
[ 6907 6896 6895 6894 ] final -173.26 input  -60.11 | X-H torsion
[ 7974 7965 7964 7962 ] final -132.07 input  175.53 | X-H torsion
[ 8008 7997 7996 7995 ] final  154.34 input   59.86 | X-H torsion
[ 10167 10162 10161 10158 ] final  114.45 input  -65.29 | X-H torsion
[ 10718 10713 10712 10709 ] final  -31.66 input   66.30 | X-H torsion
[ 10763 10752 10751 10750 ] final    1.90 input  -60.55 | X-H torsion
[ 11005 11000 10999 10996 ] final  -92.12 input  -57.11 | X-H torsion

> <Gold.Protein.ActiveResidues>
 VAL166  LYS551  ARG553  GLY616  TRP617  ASP618  TYR619  PRO620  LYS621  CYS622 
 ASP623  PHE694  ASN695  SER759  ASP760  ASP761  ALA762  ILE779  LEU786  VAL792 
 PHE793  MET794  SER795  GLU796  ALA797  LYS798  CYS799  TRP800  GLU811  SER814 

> <Gold.Protein.RotatedAtoms>
  151.5532  133.3414  159.2956 H   0  0  0  0  0  0  0  0  0  0  0  0  # atno 6907 bound_to 6896
  150.8466  134.7780  159.6986 H   0  0  0  0  0  0  0  0  0  0  0  0  # atno 6908 bound_to 6896
  152.4522  134.5376  159.9881 H   0  0  0  0  0  0  0  0  0  0  0  0  # atno 6909 bound_to 6896
  144.9320  140.7139  143.4900 H   0  0  0  0  0  0  0  0  0  0  0  0  # atno 7974 bound_to 7965
  156.2536  140.1969  156.6631 H   0  0  0  0  0  0  0  0  0  0  0  0  # atno 8008 bound_to 7997
  154.6449  140.0579  156.9914 H   0  0  0  0  0  0  0  0  0  0  0  0  # atno 8009 bound_to 7997
  155.1506  140.3251  155.4435 H   0  0  0  0  0  0  0  0  0  0  0  0  # atno 8010 bound_to 7997
  139.6388  144.7122  151.2280 H   0  0  0  0  0  0  0  0  0  0  0  0  # atno 10167 bound_to 10162
  156.3846  130.4362  149.7442 H   0  0  0  0  0  0  0  0  0  0  0  0  # atno 10718 bound_to 10713
  153.3022  135.6956  153.7192 H   0  0  0  0  0  0  0  0  0  0  0  0  # atno 10763 bound_to 10752
  153.6102  135.3446  155.2977 H   0  0  0  0  0  0  0  0  0  0  0  0  # atno 10764 bound_to 10752
  154.8553  135.4361  154.2136 H   0  0  0  0  0  0  0  0  0  0  0  0  # atno 10765 bound_to 10752
  141.1529  133.7800  156.9975 H   0  0  0  0  0  0  0  0  0  0  0  0  # atno 11005 bound_to 11000
  145.3127  139.1813  143.4630 LP  0  0  0  0  0  0  0  0  0  0  0  0  # atno 17320 bound_to 7965
  146.3251  140.3134  142.8628 LP  0  0  0  0  0  0  0  0  0  0  0  0  # atno 17321 bound_to 7965
  140.7479  143.6349  150.8388 LP  0  0  0  0  0  0  0  0  0  0  0  0  # atno 17342 bound_to 10162
  139.9984  143.5771  152.2885 LP  0  0  0  0  0  0  0  0  0  0  0  0  # atno 17343 bound_to 10162
  156.4520  130.7911  151.2932 LP  0  0  0  0  0  0  0  0  0  0  0  0  # atno 17370 bound_to 10713
  157.7495  131.0092  150.3260 LP  0  0  0  0  0  0  0  0  0  0  0  0  # atno 17371 bound_to 10713
  140.0962  134.9563  157.1853 LP  0  0  0  0  0  0  0  0  0  0  0  0  # atno 17394 bound_to 11000
  140.3379  134.2736  155.7217 LP  0  0  0  0  0  0  0  0  0  0  0  0  # atno 17395 bound_to 11000

$$$$
