AV-unprocessed.smi:3351|AV-procd|sdf|12949|dock1
  -GOLD-   2272019383D 1   1.00000     0.00000
 Structure written by MMmdl.
 34 35  0  0  0  0  0  0  0  0  1 V2000
  152.5568  137.7395  159.3144 C   0  0  0  0  0  0  0  0  0  0  0  0
  153.6752  137.8458  160.3599 C   0  0  2  0  0  0  0  0  0  0  0  0
  153.5232  136.7680  161.4566 C   0  0  0  0  0  0  0  0  0  0  0  0
  154.3535  137.0224  162.6213 N   0  0  0  0  0  0  0  0  0  0  0  0
  153.9416  137.0782  163.9466 C   0  0  0  0  0  0  0  0  0  0  0  0
  155.0597  137.3665  164.6953 C   0  0  0  0  0  0  0  0  0  0  0  0
  156.1681  137.4752  163.8589 N   0  0  0  0  0  0  0  0  0  0  0  0
  155.6737  137.2527  162.6477 C   0  0  0  0  0  0  0  0  0  0  0  0
  153.6573  139.1872  160.9426 N   0  0  0  0  0  0  0  0  0  0  0  0
  153.9979  140.3177  160.3036 C   0  0  0  0  0  0  0  0  0  0  0  0
  154.3006  140.3597  159.1109 O   0  0  0  0  0  0  0  0  0  0  0  0
  154.0048  141.6006  161.1365 C   0  0  0  0  0  0  0  0  0  0  0  0
  153.0915  142.5877  160.5635 N   0  0  0  0  0  0  0  0  0  0  0  0
  153.1433  142.8736  159.1356 C   0  0  0  0  0  0  0  0  0  0  0  0
  152.4790  144.2336  158.9150 C   0  0  0  0  0  0  0  0  0  0  0  0
  151.3215  144.4962  160.2731 S   0  0  0  0  0  0  0  0  0  0  0  0
  152.1521  143.2874  161.3088 C   0  0  0  0  0  0  0  0  0  0  0  0
  151.8929  143.1561  162.5037 O   0  0  0  0  0  0  0  0  0  0  0  0
  152.5584  136.7588  158.8379 H   0  0  0  0  0  0  0  0  0  0  0  0
  152.6805  138.4860  158.5290 H   0  0  0  0  0  0  0  0  0  0  0  0
  151.5748  137.8882  159.7648 H   0  0  0  0  0  0  0  0  0  0  0  0
  154.6193  137.6826  159.8369 H   0  0  0  0  0  0  0  0  0  0  0  0
  152.4830  136.6956  161.7780 H   0  0  0  0  0  0  0  0  0  0  0  0
  153.7960  135.7892  161.0602 H   0  0  0  0  0  0  0  0  0  0  0  0
  152.9131  136.9261  164.2388 H   0  0  0  0  0  0  0  0  0  0  0  0
  155.1506  137.5025  165.7628 H   0  0  0  0  0  0  0  0  0  0  0  0
  156.2836  137.2715  161.7567 H   0  0  0  0  0  0  0  0  0  0  0  0
  153.4190  139.2531  161.9218 H   0  0  0  0  0  0  0  0  0  0  0  0
  153.6990  141.3619  162.1559 H   0  0  0  0  0  0  0  0  0  0  0  0
  155.0138  142.0118  161.2049 H   0  0  0  0  0  0  0  0  0  0  0  0
  154.1672  142.8694  158.7600 H   0  0  0  0  0  0  0  0  0  0  0  0
  152.5939  142.0928  158.6085 H   0  0  0  0  0  0  0  0  0  0  0  0
  153.2289  145.0243  158.9584 H   0  0  0  0  0  0  0  0  0  0  0  0
  151.9792  144.2995  157.9484 H   0  0  0  0  0  0  0  0  0  0  0  0
  1  2  1  0  0  0  0
  1 19  1  0  0  0  0
  1 20  1  0  0  0  0
  1 21  1  0  0  0  0
  2  3  1  0  0  0  0
  2  9  1  0  0  0  0
  2 22  1  0  0  0  0
  3  4  1  0  0  0  0
  3 23  1  0  0  0  0
  3 24  1  0  0  0  0
  4  8  1  0  0  0  0
  4  5  1  0  0  0  0
  5  6  2  0  0  0  0
  5 25  1  0  0  0  0
  6  7  1  0  0  0  0
  6 26  1  0  0  0  0
  7  8  2  0  0  0  0
  8 27  1  0  0  0  0
  9 10  1  0  0  0  0
  9 28  1  0  0  0  0
 10 11  2  0  0  0  0
 10 12  1  0  0  0  0
 12 13  1  0  0  0  0
 12 29  1  0  0  0  0
 12 30  1  0  0  0  0
 13 17  1  0  0  0  0
 13 14  1  0  0  0  0
 14 15  1  0  0  0  0
 14 31  1  0  0  0  0
 14 32  1  0  0  0  0
 15 16  1  0  0  0  0
 15 33  1  0  0  0  0
 15 34  1  0  0  0  0
 16 17  1  0  0  0  0
 17 18  2  0  0  0  0
M  END
> <s_m_source_file>
AV-unprocessed.smi

> <i_m_source_file_index>
3351

> <i_lp_mmshare_version>
43012

> <i_f3d_flags>
0

> <s_epik_input>
W2NIXTFuW2NIXVtjSF1uMVtDSDJdW0NAQEhdKFtDSDNdKVtOSF1DKD1PKVtDSDJdTjJbQ0gyXVtDSDJdU0MyPU8=

> <s_epik_cmdline>
J2VwaWtfcHl0aG9uJywgJy1waCcsICc3LjAnLCAnLXRuJywgJzgnLCAnLW1hJywgJzIwMCcsICctbWV0YWxfYmluZGluZycsICctaW1hZScsICc8aW5maWxlLm1hZT4nLCAnLW9tYWUnLCAnPG91dGZpbGUubWFlPic=

> <r_lp_tautomer_probability>
1

> <r_epik_Ionization_Penalty>
0.618163

> <r_epik_Ionization_Penalty_Charging>
0.618163

> <r_epik_Ionization_Penalty_Neutral>
6.6929e-08

> <r_epik_State_Penalty>
0.633954

> <r_epik_Charging_Adjusted_Penalty>
1.25212

> <i_epik_Tot_Q>
0

> <i_epik_Tot_abs_Q>
0

> <r_epik_Metal_State_Penalty>
0.305924

> <b_epik_Metal_Only>
0

> <s_lp_Force_Field>
OPLS_2005

> <r_lp_Energy>
3.88922

> <b_lp_Chiralities_Consistent>
1

> <s_lp_Variant>
AV-unprocessed.smi:3351-3

> <Gold.Version>
5.8.1

> <Gold.Id.Protein>
6NUR|6NUR_protein|mol2

> <Gold.PLP.Fitness>
41.6759

> <Gold.PLP.PLP>
-37.2923

> <Gold.PLP.part.hbond>
-2.0000

> <Gold.PLP.part.metal>
0.0000

> <Gold.PLP.part.buried>
-2.9367

> <Gold.PLP.part.nonpolar>
-35.6801

> <Gold.PLP.part.repulsive>
3.2433

> <Gold.PLP.ligand.clash>
0.0000

> <Gold.PLP.ligand.torsion>
0.3867

> <Gold.PLP.Chemscore.Hbond>
1.6800

> <Gold.PLP.Chemscore.CHOScore>
0.0000

> <Gold.PLP.Chemscore.Metal>
0.0000

> <Gold.Chemscore.Hbonds>
donor molecule, donor type, donor heavy atom, donor atom, acceptor molecule, acceptor atom, score
      P1  H  6933  6945       L1    18  0.23
      P1  H  7997  8010       L1    11  0.75

> <Gold.PLP.Chemscore.Internal.Correction>
0.1170

> <Gold.Rescore>
     Score         DG    S(hbond)    S(metal)    S(lipo)     H(rot)  DE(clash)    DE(int)     intcor
     11.49     -14.56       1.62        0.00      82.23       2.33       1.47       1.60       ----

> <Gold.Chemscore.Fitness>
11.4879

> <Gold.Chemscore.DG>
-14.5553

> <Gold.Chemscore.ZeroCoef>
-5.4800

> <Gold.Chemscore.Hbond>
1.6238

> <Gold.Chemscore.Metal>
0.0000

> <Gold.Chemscore.Lipo>
82.2297

> <Gold.Chemscore.Internal_Hbond>
0.0000

> <Gold.Chemscore.DEClash>
1.4692

> <Gold.Chemscore.DEInternal>
1.5982

> <Gold.Chemscore.Rot>
2.3317

> <Gold.Chemscore.Internal.Correction>
   9.000000E+99

> <Gold.Chemscore.Hbonds>
donor molecule, donor type, donor heavy atom, donor atom, acceptor molecule, acceptor atom, score
      P1  H  6933  6945       L1    18  0.04
      P1  H  7997  8010       L1    11  0.73

> <Gold.Chemscore.Hbond.Weighted>
-5.4237

> <Gold.Chemscore.Metal.Weighted>
-0.0000

> <Gold.Chemscore.Lipo.Weighted>
-9.6209

> <Gold.Chemscore.Internal_Hbond.Weighted>
0.0000

> <Gold.Chemscore.DEClash.Weighted>
1.4692

> <Gold.Chemscore.DEInternal.Weighted>
1.5982

> <Gold.Chemscore.Rot.Weighted>
5.9692

> <Gold.Chemscore.Internal.Correction.Weighted>
   9.000000E+99

> <Gold.Protein.RotatedTorsions>
[ 6907 6896 6895 6894 ] final   84.09 input  -60.11 | X-H torsion
[ 7974 7965 7964 7962 ] final  -73.56 input  175.53 | X-H torsion
[ 8008 7997 7996 7995 ] final   -5.41 input   59.86 | X-H torsion
[ 10167 10162 10161 10158 ] final    3.60 input  -65.29 | X-H torsion
[ 10718 10713 10712 10709 ] final -140.50 input   66.30 | X-H torsion
[ 10763 10752 10751 10750 ] final   18.00 input  -60.55 | X-H torsion
[ 11005 11000 10999 10996 ] final  -48.86 input  -57.11 | X-H torsion

> <Gold.Protein.ActiveResidues>
 VAL166  LYS551  ARG553  GLY616  TRP617  ASP618  TYR619  PRO620  LYS621  CYS622 
 ASP623  PHE694  ASN695  SER759  ASP760  ASP761  ALA762  ILE779  LEU786  VAL792 
 PHE793  MET794  SER795  GLU796  ALA797  LYS798  CYS799  TRP800  GLU811  SER814 

> <Gold.Protein.RotatedAtoms>
  152.5344  134.2795  159.9001 H   0  0  0  0  0  0  0  0  0  0  0  0  # atno 6907 bound_to 6896
  151.2749  133.4230  159.2631 H   0  0  0  0  0  0  0  0  0  0  0  0  # atno 6908 bound_to 6896
  151.0334  134.9571  159.8180 H   0  0  0  0  0  0  0  0  0  0  0  0  # atno 6909 bound_to 6896
  145.6506  140.9284  143.0987 H   0  0  0  0  0  0  0  0  0  0  0  0  # atno 7974 bound_to 7965
  154.6042  140.2459  155.7752 H   0  0  0  0  0  0  0  0  0  0  0  0  # atno 8008 bound_to 7997
  156.2330  140.2960  156.0190 H   0  0  0  0  0  0  0  0  0  0  0  0  # atno 8009 bound_to 7997
  155.2159  140.0399  157.2931 H   0  0  0  0  0  0  0  0  0  0  0  0  # atno 8010 bound_to 7997
  140.6577  143.7384  150.7683 H   0  0  0  0  0  0  0  0  0  0  0  0  # atno 10167 bound_to 10162
  156.3230  130.7545  151.1647 H   0  0  0  0  0  0  0  0  0  0  0  0  # atno 10718 bound_to 10713
  153.1288  135.6735  153.9212 H   0  0  0  0  0  0  0  0  0  0  0  0  # atno 10763 bound_to 10752
  153.8705  135.3070  155.3443 H   0  0  0  0  0  0  0  0  0  0  0  0  # atno 10764 bound_to 10752
  154.7689  135.4950  153.9690 H   0  0  0  0  0  0  0  0  0  0  0  0  # atno 10765 bound_to 10752
  141.0726  133.6675  156.3502 H   0  0  0  0  0  0  0  0  0  0  0  0  # atno 11005 bound_to 11000
  144.7124  139.8321  143.7410 LP  0  0  0  0  0  0  0  0  0  0  0  0  # atno 17320 bound_to 7965
  146.1207  139.4224  143.0230 LP  0  0  0  0  0  0  0  0  0  0  0  0  # atno 17321 bound_to 7965
  140.1047  143.4755  152.2405 LP  0  0  0  0  0  0  0  0  0  0  0  0  # atno 17342 bound_to 10162
  139.5804  144.7507  151.3655 LP  0  0  0  0  0  0  0  0  0  0  0  0  # atno 17343 bound_to 10162
  157.7416  131.0502  150.5088 LP  0  0  0  0  0  0  0  0  0  0  0  0  # atno 17370 bound_to 10713
  156.5243  130.4169  149.6234 LP  0  0  0  0  0  0  0  0  0  0  0  0  # atno 17371 bound_to 10713
  140.5642  134.5904  157.5441 LP  0  0  0  0  0  0  0  0  0  0  0  0  # atno 17394 bound_to 11000
  139.9538  134.7570  156.0387 LP  0  0  0  0  0  0  0  0  0  0  0  0  # atno 17395 bound_to 11000

$$$$
