#       Name:                AV-unprocessed.smi:3104
#       Creating user name   scv26
#       Creation time:       Fri Mar 27 17:18:55 2020


#       File generated by GOLD software.
#

@<TRIPOS>MOLECULE
AV-unprocessed.smi:3104
    38    39     1
SMALL
NO_CHARGES


@<TRIPOS>ATOM
      1 ****        -2.0585  -0.1277  -3.4959 C.3            1 S1                 0.0000
      2 ****        -1.9049  -0.0717  -2.0035 C.2            1 S1                 0.0000
      3 ****        -2.2204  -1.0838  -1.0541 C.2            1 S1                 0.0000
      4 ****        -1.9529  -0.7221   0.1896 N.2            1 S1                 0.0000
      5 ****        -1.4764   0.5375   0.0848 N.pl3          1 S1                 0.0000
      6 ****        -1.0402   1.2432   1.2850 C.3            1 S1                 0.0000
      7 ****        -1.6489   2.6581   1.3118 C.3            1 S1                 0.0000
      8 ****         0.5075   1.2362   1.4102 C.3            1 S1                 0.0000
      9 ****         1.0000   1.9013   2.7063 C.3            1 S1                 0.0000
     10 ****         1.0288  -0.1506   1.3647 N.4            1 S1                 1.0000
     11 ****         1.7528  -0.5023   0.1265 C.3            1 S1                 0.0000
     12 ****         2.1386  -1.9661   0.1174 C.3            1 S1                 0.0000
     13 ****         2.6137  -2.6163  -1.1618 C.3            1 S1                 0.0000
     14 ****         1.2738  -2.9915  -0.5799 C.3            1 S1                 0.0000
     15 ****        -1.4284   0.9502  -1.2323 C.2            1 S1                 0.0000
     16 ****        -2.6877  -0.9616  -3.8081 H              1 S1                 0.0000
     17 ****        -1.0963  -0.2474  -3.9940 H              1 S1                 0.0000
     18 ****        -2.5143   0.7816  -3.8882 H              1 S1                 0.0000
     19 ****        -2.6254  -2.0693  -1.2325 H              1 S1                 0.0000
     20 ****        -1.4497   0.7062   2.1431 H              1 S1                 0.0000
     21 ****        -1.4947   3.1443   2.2747 H              1 S1                 0.0000
     22 ****        -2.7262   2.6226   1.1451 H              1 S1                 0.0000
     23 ****        -1.2147   3.2978   0.5429 H              1 S1                 0.0000
     24 ****         0.9284   1.8005   0.5761 H              1 S1                 0.0000
     25 ****         0.7504   2.9617   2.7368 H              1 S1                 0.0000
     26 ****         2.0848   1.8299   2.7938 H              1 S1                 0.0000
     27 ****         0.5645   1.4288   3.5874 H              1 S1                 0.0000
     28 ****         1.6577  -0.2826   2.1438 H              1 S1                 0.0000
     29 ****         1.1396  -0.2838  -0.7481 H              1 S1                 0.0000
     30 ****         2.6563   0.1039   0.0520 H              1 S1                 0.0000
     31 ****         2.6508  -2.2946   1.0200 H              1 S1                 0.0000
     32 ****         2.6144  -2.0150  -2.0688 H              1 S1                 0.0000
     33 ****         3.4163  -3.3474  -1.0870 H              1 S1                 0.0000
     34 ****         1.1835  -3.9715  -0.1160 H              1 S1                 0.0000
     35 ****         0.3856  -2.6393  -1.1009 H              1 S1                 0.0000
     36 ****        -1.0574   1.9253  -1.5120 H              1 S1                 0.0000
     37 ****         0.2478  -0.7830   1.4725 H              1 S1                 0.0000
     38 ****        -2.0760  -1.2614   1.0226 LP             1 S1                 0.0000
@<TRIPOS>BOND
    1    1    2 1     
    2    1   16 1     
    3    1   17 1     
    4    1   18 1     
    5    2   15 2     
    6    2    3 1     
    7    3    4 2     
    8    3   19 1     
    9    4    5 1     
   10    5    6 1     
   11    5   15 1     
   12    6    7 1     
   13    6    8 1     
   14    6   20 1     
   15    7   21 1     
   16    7   22 1     
   17    7   23 1     
   18    8    9 1     
   19    8   10 1     
   20    8   24 1     
   21    9   25 1     
   22    9   26 1     
   23    9   27 1     
   24   10   11 1     
   25   10   28 1     
   26   10   37 1     
   27   11   12 1     
   28   11   29 1     
   29   11   30 1     
   30   12   14 1     
   31   12   13 1     
   32   12   31 1     
   33   13   14 1     
   34   13   32 1     
   35   13   33 1     
   36   14   34 1     
   37   14   35 1     
   38   15   36 1     
   39    4   38 1     
@<TRIPOS>SUBSTRUCTURE
      1 S1             1
@<TRIPOS>SET
LONE_PAIRS      STATIC     ATOMS    <user>   **** ""
1 38
DONOR_HYDROGENS      STATIC     ATOMS    <user>   **** ""
2 28 37
ATOM$BLUE        STATIC     ATOMS    COLORGROUP SYSTEM
1 38
ATOM$RED        STATIC     ATOMS    COLORGROUP SYSTEM
2 28 37
