#       Name:                AV-unprocessed.smi:3132
#       Creating user name   scv26
#       Creation time:       Fri Mar 27 17:32:33 2020


#       File generated by GOLD software.
#

@<TRIPOS>MOLECULE
AV-unprocessed.smi:3132
    38    39     1
SMALL
NO_CHARGES


@<TRIPOS>ATOM
      1 ****        -0.0859  -2.8724  -1.7366 C.3            1 S1                 0.0000
      2 ****         0.4213  -1.9985  -0.5801 C.3            1 S1                 0.0000
      3 ****         1.9526  -2.0811  -0.4349 C.3            1 S1                 0.0000
      4 ****         2.4299  -1.3778   0.7416 N.pl3          1 S1                 0.0000
      5 ****         2.9914  -0.1085   0.7906 C.2            1 S1                 0.0000
      6 ****         3.2832   0.1411   2.1125 C.2            1 S1                 0.0000
      7 ****         2.9151  -0.9551   2.8891 N.2            1 S1                 0.0000
      8 ****         2.4178  -1.8141   2.0086 C.2            1 S1                 0.0000
      9 ****         0.0150  -0.6111  -0.7945 N.am           1 S1                 0.0000
     10 ****        -1.0975  -0.0376  -0.3117 C.2            1 S1                 0.0000
     11 ****        -1.9328  -0.6407   0.3629 O.2            1 S1                 0.0000
     12 ****        -1.2782   1.4513  -0.6289 C.3            1 S1                 0.0000
     13 ****        -2.7394   1.8789  -0.8640 C.3            1 S1                 0.0000
     14 ****        -3.0691   2.7133   0.3580 C.3            1 S1                 0.0000
     15 ****        -1.7078   3.2920   0.7160 C.3            1 S1                 0.0000
     16 ****        -0.8278   2.2003   0.4985 O.3            1 S1                 0.0000
     17 ****         0.1918  -3.9164  -1.5894 H              1 S1                 0.0000
     18 ****         0.3303  -2.5491  -2.6912 H              1 S1                 0.0000
     19 ****        -1.1728  -2.8305  -1.8141 H              1 S1                 0.0000
     20 ****        -0.0235  -2.3731   0.3438 H              1 S1                 0.0000
     21 ****         2.2683  -3.1222  -0.3556 H              1 S1                 0.0000
     22 ****         2.4478  -1.6706  -1.3162 H              1 S1                 0.0000
     23 ****         3.1289   0.4971  -0.0930 H              1 S1                 0.0000
     24 ****         3.7262   1.0182   2.5605 H              1 S1                 0.0000
     25 ****         2.0324  -2.7826   2.2922 H              1 S1                 0.0000
     26 ****         0.6445  -0.0328  -1.3317 H              1 S1                 0.0000
     27 ****        -0.6761   1.7219  -1.4980 H              1 S1                 0.0000
     28 ****        -2.7997   2.4950  -1.7619 H              1 S1                 0.0000
     29 ****        -3.4359   1.0496  -0.9945 H              1 S1                 0.0000
     30 ****        -3.8219   3.4780   0.1652 H              1 S1                 0.0000
     31 ****        -3.4272   2.0729   1.1652 H              1 S1                 0.0000
     32 ****        -1.4447   4.1131   0.0472 H              1 S1                 0.0000
     33 ****        -1.6570   3.6514   1.7441 H              1 S1                 0.0000
     34 ****         3.0047  -1.0682   3.8786 LP             1 S1                 0.0000
     35 ****        -1.7989  -1.6085   0.5762 LP             1 S1                 0.0000
     36 ****        -2.7449  -0.1627   0.6974 LP             1 S1                 0.0000
     37 ****         0.0950   2.5442   0.3245 LP             1 S1                 0.0000
     38 ****        -0.8174   1.6129   1.3077 LP             1 S1                 0.0000
@<TRIPOS>BOND
    1    1    2 1     
    2    1   17 1     
    3    1   18 1     
    4    1   19 1     
    5    2    3 1     
    6    2    9 1     
    7    2   20 1     
    8    3    4 1     
    9    3   21 1     
   10    3   22 1     
   11    4    8 1     
   12    4    5 1     
   13    5    6 2     
   14    5   23 1     
   15    6    7 1     
   16    6   24 1     
   17    7    8 2     
   18    8   25 1     
   19    9   10 am    
   20    9   26 1     
   21   10   11 2     
   22   10   12 1     
   23   12   16 1     
   24   12   13 1     
   25   12   27 1     
   26   13   14 1     
   27   13   28 1     
   28   13   29 1     
   29   14   15 1     
   30   14   30 1     
   31   14   31 1     
   32   15   16 1     
   33   15   32 1     
   34   15   33 1     
   35    7   34 1     
   36   11   35 1     
   37   11   36 1     
   38   16   37 1     
   39   16   38 1     
@<TRIPOS>SUBSTRUCTURE
      1 S1             1
@<TRIPOS>SET
LONE_PAIRS      STATIC     ATOMS    <user>   **** ""
5 34 35 36 37 38
DONOR_HYDROGENS      STATIC     ATOMS    <user>   **** ""
1 26
ATOM$BLUE        STATIC     ATOMS    COLORGROUP SYSTEM
5 34 35 36 37 38
ATOM$RED        STATIC     ATOMS    COLORGROUP SYSTEM
1 26
