#       Name:                AV-unprocessed.smi:2324
#       Creating user name   scv26
#       Creation time:       Fri Mar 27 12:51:36 2020


#       File generated by GOLD software.
#

@<TRIPOS>MOLECULE
AV-unprocessed.smi:2324
    43    45     1
SMALL
NO_CHARGES


@<TRIPOS>ATOM
      1 ****        -1.3306   2.6777  -1.6871 O.2            1 S1                 0.0000
      2 ****        -1.6983   1.6006  -1.2211 C.2            1 S1                 0.0000
      3 ****        -2.9995   1.2410  -1.2484 N.am           1 S1                 0.0000
      4 ****        -4.1557   1.9098  -1.7471 C.ar           1 S1                 0.0000
      5 ****        -5.3687   1.2144  -1.5541 C.ar           1 S1                 0.0000
      6 ****        -6.5586   1.8006  -2.0177 C.ar           1 S1                 0.0000
      7 ****        -6.4557   3.0517  -2.6486 C.ar           1 S1                 0.0000
      8 ****        -5.2742   3.6840  -2.8138 N.ar           1 S1                 0.0000
      9 ****        -4.1469   3.1185  -2.3699 N.ar           1 S1                 0.0000
     10 ****        -0.8467   0.7210  -0.6680 N.am           1 S1                 0.0000
     11 ****         0.5964   0.8986  -0.5441 C.3            1 S1                 0.0000
     12 ****         1.3086   0.5294  -1.8562 C.3            1 S1                 0.0000
     13 ****         2.8340   0.5551  -1.6716 C.3            1 S1                 0.0000
     14 ****         3.2110  -0.3123  -0.6077 O.3            1 S1                 0.0000
     15 ****         2.6708   0.0770   0.6514 C.3            1 S1                 0.0000
     16 ****         3.2337  -0.8494   1.7109 C.3            1 S1                 0.0000
     17 ****         3.3155  -0.4123   3.1550 C.3            1 S1                 0.0000
     18 ****         4.5782  -0.5738   2.3428 C.3            1 S1                 0.0000
     19 ****         1.1331   0.0148   0.5914 C.3            1 S1                 0.0000
     20 ****        -3.1876   0.3373  -0.8398 H              1 S1                 0.0000
     21 ****        -5.3905   0.2529  -1.0616 H              1 S1                 0.0000
     22 ****        -7.5128   1.3100  -1.8943 H              1 S1                 0.0000
     23 ****        -7.3336   3.5545  -3.0266 H              1 S1                 0.0000
     24 ****        -1.2308  -0.1410  -0.3071 H              1 S1                 0.0000
     25 ****         0.8128   1.9402  -0.2995 H              1 S1                 0.0000
     26 ****         1.0040  -0.4684  -2.1752 H              1 S1                 0.0000
     27 ****         1.0193   1.2141  -2.6542 H              1 S1                 0.0000
     28 ****         3.3269   0.2243  -2.5858 H              1 S1                 0.0000
     29 ****         3.1849   1.5686  -1.4710 H              1 S1                 0.0000
     30 ****         2.9889   1.0965   0.8780 H              1 S1                 0.0000
     31 ****         2.9946  -1.8985   1.5465 H              1 S1                 0.0000
     32 ****         3.0013   0.6011   3.3974 H              1 S1                 0.0000
     33 ****         3.1075  -1.1600   3.9175 H              1 S1                 0.0000
     34 ****         5.2133  -1.4290   2.5642 H              1 S1                 0.0000
     35 ****         5.1028   0.3316   2.0441 H              1 S1                 0.0000
     36 ****         0.7077   0.3302   1.5449 H              1 S1                 0.0000
     37 ****         0.8178  -1.0183   0.4356 H              1 S1                 0.0000
     38 ****        -1.9988   3.3009  -2.0934 LP             1 S1                 0.0000
     39 ****        -0.3634   2.9303  -1.6597 LP             1 S1                 0.0000
     40 ****        -5.2423   4.5744  -3.2677 LP             1 S1                 0.0000
     41 ****        -3.2775   3.5954  -2.4989 LP             1 S1                 0.0000
     42 ****         4.2086  -0.3154  -0.5383 LP             1 S1                 0.0000
     43 ****         2.8888  -1.2348  -0.8203 LP             1 S1                 0.0000
@<TRIPOS>BOND
    1    1    2 2     
    2    2    3 am    
    3    2   10 am    
    4    3    4 1     
    5    3   20 1     
    6    4    9 ar    
    7    4    5 ar    
    8    5    6 ar    
    9    5   21 1     
   10    6    7 ar    
   11    6   22 1     
   12    7    8 ar    
   13    7   23 1     
   14    8    9 ar    
   15   10   11 1     
   16   10   24 1     
   17   11   19 1     
   18   11   12 1     
   19   11   25 1     
   20   12   13 1     
   21   12   26 1     
   22   12   27 1     
   23   13   14 1     
   24   13   28 1     
   25   13   29 1     
   26   14   15 1     
   27   15   16 1     
   28   15   19 1     
   29   15   30 1     
   30   16   18 1     
   31   16   17 1     
   32   16   31 1     
   33   17   18 1     
   34   17   32 1     
   35   17   33 1     
   36   18   34 1     
   37   18   35 1     
   38   19   36 1     
   39   19   37 1     
   40    1   38 1     
   41    1   39 1     
   42    8   40 1     
   43    9   41 1     
   44   14   42 1     
   45   14   43 1     
@<TRIPOS>SUBSTRUCTURE
      1 S1             1
@<TRIPOS>SET
LONE_PAIRS      STATIC     ATOMS    <user>   **** ""
6 38 39 40 41 42 43
DONOR_HYDROGENS      STATIC     ATOMS    <user>   **** ""
2 20 24
ATOM$BLUE        STATIC     ATOMS    COLORGROUP SYSTEM
6 38 39 40 41 42 43
ATOM$RED        STATIC     ATOMS    COLORGROUP SYSTEM
2 20 24
