AV-unprocessed.smi:203|AV-procd|sdf|1592|dock4
  -GOLD-   2262019493D 1   1.00000     0.00000
 Structure written by MMmdl.
 57 61  0  0  0  0  0  0  0  0  1 V2000
  153.7212  135.9274  160.3142 O   0  0  0  0  0  0  0  0  0  0  0  0
  153.7624  137.0995  159.9478 C   0  0  0  0  0  0  0  0  0  0  0  0
  152.5434  138.0068  159.9010 C   0  0  0  0  0  0  0  0  0  0  0  0
  153.0600  139.2223  159.1093 C   0  0  1  0  0  0  0  0  0  0  0  0
  152.4232  140.6044  159.4562 C   0  0  1  0  0  0  0  0  0  0  0  0
  153.1819  141.3620  160.5785 C   0  0  0  0  0  0  0  0  0  0  0  0
  152.5311  142.7157  160.8924 C   0  0  0  0  0  0  0  0  0  0  0  0
  152.4353  143.5565  159.6157 C   0  0  0  0  0  0  0  0  0  0  0  0
  151.6702  142.7875  158.5316 C   0  0  0  0  0  0  0  0  0  0  0  0
  152.2746  141.4797  158.2782 N   0  0  0  0  0  0  0  0  0  0  0  0
  151.7274  140.9293  157.1708 C   0  0  0  0  0  0  0  0  0  0  0  0
  152.4697  140.0092  156.5072 N   0  0  0  0  0  0  0  0  0  0  0  0
  151.9844  139.4298  155.4049 C   0  0  0  0  0  0  0  0  0  0  0  0
  150.8077  139.6270  154.8062 N   0  0  0  0  0  0  0  0  0  0  0  0
  150.0646  140.5602  155.4679 C   0  0  0  0  0  0  0  0  0  0  0  0
  150.4449  141.2583  156.6478 C   0  0  0  0  0  0  0  0  0  0  0  0
  149.4361  142.1364  157.0259 N   0  0  0  0  0  0  0  0  0  0  0  0
  148.5135  141.9708  156.1177 C   0  0  0  0  0  0  0  0  0  0  0  0
  148.8112  141.0472  155.1420 N   0  0  0  0  0  0  0  0  0  0  0  0
  147.9796  140.6857  154.0091 C   0  0  0  0  0  0  0  0  0  0  0  0
  147.6619  139.1764  153.9549 C   0  0  2  0  0  0  0  0  0  0  0  0
  148.8233  138.5201  153.4876 O   0  0  0  0  0  0  0  0  0  0  0  0
  146.4703  138.8103  153.0418 C   0  0  1  0  0  0  0  0  0  0  0  0
  146.7005  139.0686  151.5520 C   0  0  0  0  0  0  0  0  0  0  0  0
  145.7001  138.1453  150.8754 C   0  0  0  0  0  0  0  0  0  0  0  0
  145.3594  137.1168  151.9568 C   0  0  0  0  0  0  0  0  0  0  0  0
  146.2378  137.4093  153.0338 O   0  0  0  0  0  0  0  0  0  0  0  0
  154.5971  139.1356  159.2008 C   0  0  0  0  0  0  0  0  0  0  0  0
  154.8526  137.7502  159.5425 N   0  0  0  0  0  0  0  0  0  0  0  0
  151.7017  137.5216  159.4058 H   0  0  0  0  0  0  0  0  0  0  0  0
  152.2510  138.2419  160.9220 H   0  0  0  0  0  0  0  0  0  0  0  0
  152.8038  138.9868  158.0754 H   0  0  0  0  0  0  0  0  0  0  0  0
  151.4200  140.4092  159.8366 H   0  0  0  0  0  0  0  0  0  0  0  0
  153.2123  140.7782  161.4965 H   0  0  0  0  0  0  0  0  0  0  0  0
  154.2182  141.5361  160.2912 H   0  0  0  0  0  0  0  0  0  0  0  0
  151.5357  142.5598  161.3103 H   0  0  0  0  0  0  0  0  0  0  0  0
  153.1102  143.2454  161.6495 H   0  0  0  0  0  0  0  0  0  0  0  0
  151.9380  144.5039  159.8247 H   0  0  0  0  0  0  0  0  0  0  0  0
  153.4361  143.8010  159.2571 H   0  0  0  0  0  0  0  0  0  0  0  0
  150.6326  142.6515  158.8403 H   0  0  0  0  0  0  0  0  0  0  0  0
  151.6529  143.3771  157.6133 H   0  0  0  0  0  0  0  0  0  0  0  0
  152.6323  138.7050  154.9346 H   0  0  0  0  0  0  0  0  0  0  0  0
  147.5881  142.5280  156.1290 H   0  0  0  0  0  0  0  0  0  0  0  0
  147.0573  141.2667  154.0558 H   0  0  0  0  0  0  0  0  0  0  0  0
  148.4954  140.9961  153.0994 H   0  0  0  0  0  0  0  0  0  0  0  0
  147.4642  138.8115  154.9636 H   0  0  0  0  0  0  0  0  0  0  0  0
  148.5881  137.9865  152.7440 H   0  0  0  0  0  0  0  0  0  0  0  0
  145.5653  139.3246  153.3714 H   0  0  0  0  0  0  0  0  0  0  0  0
  146.5636  140.1148  151.2767 H   0  0  0  0  0  0  0  0  0  0  0  0
  147.7143  138.7766  151.2738 H   0  0  0  0  0  0  0  0  0  0  0  0
  144.8041  138.6892  150.5741 H   0  0  0  0  0  0  0  0  0  0  0  0
  146.1281  137.6805  149.9867 H   0  0  0  0  0  0  0  0  0  0  0  0
  144.3276  137.2349  152.2907 H   0  0  0  0  0  0  0  0  0  0  0  0
  145.4932  136.0898  151.6164 H   0  0  0  0  0  0  0  0  0  0  0  0
  155.0769  139.4024  158.2586 H   0  0  0  0  0  0  0  0  0  0  0  0
  155.0134  139.7688  159.9825 H   0  0  0  0  0  0  0  0  0  0  0  0
  155.7739  137.3392  159.4969 H   0  0  0  0  0  0  0  0  0  0  0  0
  1  2  2  0  0  0  0
  2 29  1  0  0  0  0
  2  3  1  0  0  0  0
  3  4  1  0  0  0  0
  3 30  1  0  0  0  0
  3 31  1  0  0  0  0
  4  5  1  0  0  0  0
  4 28  1  0  0  0  0
  4 32  1  0  0  0  0
  5 10  1  0  0  0  0
  5  6  1  0  0  0  0
  5 33  1  0  0  0  0
  6  7  1  0  0  0  0
  6 34  1  0  0  0  0
  6 35  1  0  0  0  0
  7  8  1  0  0  0  0
  7 36  1  0  0  0  0
  7 37  1  0  0  0  0
  8  9  1  0  0  0  0
  8 38  1  0  0  0  0
  8 39  1  0  0  0  0
  9 10  1  0  0  0  0
  9 40  1  0  0  0  0
  9 41  1  0  0  0  0
 10 11  1  0  0  0  0
 11 16  1  0  0  0  0
 11 12  2  0  0  0  0
 12 13  1  0  0  0  0
 13 14  2  0  0  0  0
 13 42  1  0  0  0  0
 14 15  1  0  0  0  0
 15 19  1  0  0  0  0
 15 16  2  0  0  0  0
 16 17  1  0  0  0  0
 17 18  2  0  0  0  0
 18 19  1  0  0  0  0
 18 43  1  0  0  0  0
 19 20  1  0  0  0  0
 20 21  1  0  0  0  0
 20 44  1  0  0  0  0
 20 45  1  0  0  0  0
 21 22  1  0  0  0  0
 21 23  1  0  0  0  0
 21 46  1  0  0  0  0
 22 47  1  0  0  0  0
 23 27  1  0  0  0  0
 23 24  1  0  0  0  0
 23 48  1  0  0  0  0
 24 25  1  0  0  0  0
 24 49  1  0  0  0  0
 24 50  1  0  0  0  0
 25 26  1  0  0  0  0
 25 51  1  0  0  0  0
 25 52  1  0  0  0  0
 26 27  1  0  0  0  0
 26 53  1  0  0  0  0
 26 54  1  0  0  0  0
 28 29  1  0  0  0  0
 28 55  1  0  0  0  0
 28 56  1  0  0  0  0
 29 57  1  0  0  0  0
M  END
> <s_m_source_file>
AV-unprocessed.smi

> <i_m_source_file_index>
203

> <i_lp_mmshare_version>
43012

> <i_f3d_flags>
0

> <s_epik_input>
Tz1DMVtDSDJdW0NASF0oW0NIMl1bTkhdMSlbQ0BASF0yW0NIMl1bQ0gyXVtDSDJdW0NIMl1OMmMobltjSF1uMyljKGMzNCluW2NIXW40W0NIMl1bQ0BIXShbT0hdKVtDQEBIXTVbQ0gyXVtDSDJdW0NIMl1PNQ==

> <s_epik_cmdline>
J2VwaWtfcHl0aG9uJywgJy1waCcsICc3LjAnLCAnLXRuJywgJzgnLCAnLW1hJywgJzIwMCcsICctbWV0YWxfYmluZGluZycsICctaW1hZScsICc8aW5maWxlLm1hZT4nLCAnLW9tYWUnLCAnPG91dGZpbGUubWFlPic=

> <r_lp_tautomer_probability>
1

> <r_epik_Ionization_Penalty>
0.00175146

> <r_epik_Ionization_Penalty_Charging>
0

> <r_epik_Ionization_Penalty_Neutral>
0.00175146

> <r_epik_State_Penalty>
0.00109045

> <r_epik_Charging_Adjusted_Penalty>
0.00109045

> <i_epik_Tot_Q>
0

> <i_epik_Tot_abs_Q>
0

> <r_epik_Metal_State_Penalty>
-0

> <b_epik_Metal_Only>
0

> <s_lp_Force_Field>
OPLS_2005

> <r_lp_Energy>
55.4973

> <b_lp_Chiralities_Consistent>
1

> <s_lp_Variant>
AV-unprocessed.smi:203-11

> <Gold.Version>
5.8.1

> <Gold.Id.Protein>
6NUR|6NUR_protein|mol2

> <Gold.PLP.Fitness>
53.7198

> <Gold.PLP.PLP>
-46.0439

> <Gold.PLP.part.hbond>
-5.0000

> <Gold.PLP.part.metal>
0.0000

> <Gold.PLP.part.buried>
4.8491

> <Gold.PLP.part.nonpolar>
-47.8080

> <Gold.PLP.part.repulsive>
2.0612

> <Gold.PLP.ligand.clash>
1.1480

> <Gold.PLP.ligand.torsion>
1.3434

> <Gold.PLP.Chemscore.Hbond>
3.5625

> <Gold.PLP.Chemscore.CHOScore>
0.1727

> <Gold.PLP.Chemscore.Metal>
0.0000

> <Gold.Chemscore.Hbonds>
donor molecule, donor type, donor heavy atom, donor atom, acceptor molecule, acceptor atom, score
      L1  H    22    47       P1  7948  0.86
      P1  H  6896  6908       L1     1  1.00
      P1  H  7989  7998       L1    14  0.47
      P1  H  7997  8008       L1    12  1.00
      L1  C    18    43       P1  8028  0.21

> <Gold.PLP.Chemscore.Internal.Correction>
0.3051

> <Gold.Rescore>
     Score         DG    S(hbond)    S(metal)    S(lipo)     H(rot)  DE(clash)    DE(int)     intcor
     14.65     -21.75       2.84        0.00     117.35       2.72       2.72       4.38       ----

> <Gold.Chemscore.Fitness>
14.6471

> <Gold.Chemscore.DG>
-21.7474

> <Gold.Chemscore.ZeroCoef>
-5.4800

> <Gold.Chemscore.Hbond>
2.8421

> <Gold.Chemscore.Metal>
0.0000

> <Gold.Chemscore.Lipo>
117.3548

> <Gold.Chemscore.Internal_Hbond>
0.0000

> <Gold.Chemscore.DEClash>
2.7160

> <Gold.Chemscore.DEInternal>
4.3843

> <Gold.Chemscore.Rot>
2.7171

> <Gold.Chemscore.Internal.Correction>
   9.000000E+99

> <Gold.Chemscore.Hbonds>
donor molecule, donor type, donor heavy atom, donor atom, acceptor molecule, acceptor atom, score
      L1  H    22    47       P1  7948  0.83
      P1  H  6896  6908       L1     1  1.00
      P1  H  7997  8008       L1    12  0.87

> <Gold.Chemscore.Hbond.Weighted>
-9.4926

> <Gold.Chemscore.Metal.Weighted>
-0.0000

> <Gold.Chemscore.Lipo.Weighted>
-13.7305

> <Gold.Chemscore.Internal_Hbond.Weighted>
0.0000

> <Gold.Chemscore.DEClash.Weighted>
2.7160

> <Gold.Chemscore.DEInternal.Weighted>
4.3843

> <Gold.Chemscore.Rot.Weighted>
6.9557

> <Gold.Chemscore.Internal.Correction.Weighted>
   9.000000E+99

> <Gold.Protein.RotatedTorsions>
[ 6907 6896 6895 6894 ] final  -73.65 input  -60.11 | X-H torsion
[ 7974 7965 7964 7962 ] final    0.57 input  175.53 | X-H torsion
[ 8008 7997 7996 7995 ] final  -60.24 input   59.86 | X-H torsion
[ 10167 10162 10161 10158 ] final   11.75 input  -65.29 | X-H torsion
[ 10718 10713 10712 10709 ] final   82.67 input   66.30 | X-H torsion
[ 10763 10752 10751 10750 ] final  -55.76 input  -60.55 | X-H torsion
[ 11005 11000 10999 10996 ] final  -70.42 input  -57.11 | X-H torsion

> <Gold.Protein.ActiveResidues>
 VAL166  LYS551  ARG553  GLY616  TRP617  ASP618  TYR619  PRO620  LYS621  CYS622 
 ASP623  PHE694  ASN695  SER759  ASP760  ASP761  ALA762  ILE779  LEU786  VAL792 
 PHE793  MET794  SER795  GLU796  ALA797  LYS798  CYS799  TRP800  GLU811  SER814 

> <Gold.Protein.RotatedAtoms>
  150.7122  134.4985  159.5549 H   0  0  0  0  0  0  0  0  0  0  0  0  # atno 6907 bound_to 6896
  152.2587  134.8054  160.0443 H   0  0  0  0  0  0  0  0  0  0  0  0  # atno 6908 bound_to 6896
  151.8775  133.3453  159.3792 H   0  0  0  0  0  0  0  0  0  0  0  0  # atno 6909 bound_to 6896
  146.2435  140.1117  142.8343 H   0  0  0  0  0  0  0  0  0  0  0  0  # atno 7974 bound_to 7965
  154.4389  140.1044  156.6242 H   0  0  0  0  0  0  0  0  0  0  0  0  # atno 8008 bound_to 7997
  155.5674  140.3488  155.4488 H   0  0  0  0  0  0  0  0  0  0  0  0  # atno 8009 bound_to 7997
  156.0415  140.1283  157.0140 H   0  0  0  0  0  0  0  0  0  0  0  0  # atno 8010 bound_to 7997
  140.6112  143.8404  150.7067 H   0  0  0  0  0  0  0  0  0  0  0  0  # atno 10167 bound_to 10162
  157.6862  131.0058  150.2409 H   0  0  0  0  0  0  0  0  0  0  0  0  # atno 10718 bound_to 10713
  154.1959  135.6419  153.5073 H   0  0  0  0  0  0  0  0  0  0  0  0  # atno 10763 bound_to 10752
  153.0023  135.5440  154.6366 H   0  0  0  0  0  0  0  0  0  0  0  0  # atno 10764 bound_to 10752
  154.5767  135.2921  155.0747 H   0  0  0  0  0  0  0  0  0  0  0  0  # atno 10765 bound_to 10752
  141.1574  133.6789  156.6750 H   0  0  0  0  0  0  0  0  0  0  0  0  # atno 11005 bound_to 11000
  145.0481  140.8997  143.5012 LP  0  0  0  0  0  0  0  0  0  0  0  0  # atno 17320 bound_to 7965
  145.1210  139.2693  143.5588 LP  0  0  0  0  0  0  0  0  0  0  0  0  # atno 17321 bound_to 7965
  140.1972  143.3988  152.1819 LP  0  0  0  0  0  0  0  0  0  0  0  0  # atno 17342 bound_to 10162
  139.5363  144.7212  151.4883 LP  0  0  0  0  0  0  0  0  0  0  0  0  # atno 17343 bound_to 10162
  156.3024  130.3760  149.7738 LP  0  0  0  0  0  0  0  0  0  0  0  0  # atno 17370 bound_to 10713
  156.5364  130.8280  151.3254 LP  0  0  0  0  0  0  0  0  0  0  0  0  # atno 17371 bound_to 10713
  140.3146  134.8058  157.4203 LP  0  0  0  0  0  0  0  0  0  0  0  0  # atno 17394 bound_to 11000
  140.1149  134.5296  155.8233 LP  0  0  0  0  0  0  0  0  0  0  0  0  # atno 17395 bound_to 11000

$$$$
