#       Name:                AV-unprocessed.smi:613
#       Creating user name   scv26
#       Creation time:       Thu Mar 26 23:59:10 2020


#       File generated by GOLD software.
#

@<TRIPOS>MOLECULE
AV-unprocessed.smi:613
    45    46     1
SMALL
NO_CHARGES


@<TRIPOS>ATOM
      1 ****        -3.2473   0.1136  -0.3759 C.3            1 S1                 0.0000
      2 ****        -2.1156  -0.6064  -0.9476 N.pl3          1 S1                 0.0000
      3 ****        -0.8686   0.1227  -1.1831 C.3            1 S1                 0.0000
      4 ****        -0.0749   0.3758   0.1118 C.3            1 S1                 0.0000
      5 ****         1.0692   1.3859  -0.1086 C.3            1 S1                 0.0000
      6 ****         1.8768   1.5708   1.1007 N.3            1 S1                 0.0000
      7 ****         2.9695   2.5408   0.9490 C.3            1 S1                 0.0000
      8 ****         2.5152   3.9617   0.5901 C.2            1 S1                 0.0000
      9 ****         3.1255   4.5555  -0.4385 N.am           1 S1                 0.0000
     10 ****         1.6220   4.5134   1.2299 O.2            1 S1                 0.0000
     11 ****         2.3689   0.2772   1.5648 C.3            1 S1                 0.0000
     12 ****         1.2262  -0.7315   1.7644 C.3            1 S1                 0.0000
     13 ****         0.4892  -0.8565   0.5535 O.3            1 S1                 0.0000
     14 ****        -2.1255  -2.0209  -0.9234 C.ar           1 S1                 0.0000
     15 ****        -3.2494  -2.7747  -0.5043 C.ar           1 S1                 0.0000
     16 ****        -3.1665  -4.1773  -0.5109 C.ar           1 S1                 0.0000
     17 ****        -1.9605  -4.7556  -0.9403 C.ar           1 S1                 0.0000
     18 ****        -0.8956  -4.0291  -1.3421 N.ar           1 S1                 0.0000
     19 ****        -1.0095  -2.6901  -1.3240 N.pl3          1 S1                 1.0000
     20 ****        -4.1565  -0.0852  -0.9440 H              1 S1                 0.0000
     21 ****        -3.0749   1.1902  -0.3934 H              1 S1                 0.0000
     22 ****        -3.4090  -0.1804   0.6617 H              1 S1                 0.0000
     23 ****        -0.2457  -0.3729  -1.9280 H              1 S1                 0.0000
     24 ****        -1.1356   1.0824  -1.6273 H              1 S1                 0.0000
     25 ****        -0.7456   0.7631   0.8814 H              1 S1                 0.0000
     26 ****         1.7048   1.0473  -0.9288 H              1 S1                 0.0000
     27 ****         0.6305   2.3317  -0.4270 H              1 S1                 0.0000
     28 ****         3.5266   2.6127   1.8842 H              1 S1                 0.0000
     29 ****         3.6784   2.1846   0.1989 H              1 S1                 0.0000
     30 ****         2.8576   5.4886  -0.7156 H              1 S1                 0.0000
     31 ****         3.8519   4.0648  -0.9399 H              1 S1                 0.0000
     32 ****         3.0851  -0.1283   0.8479 H              1 S1                 0.0000
     33 ****         2.9065   0.3976   2.5062 H              1 S1                 0.0000
     34 ****         1.6249  -1.7077   2.0413 H              1 S1                 0.0000
     35 ****         0.5641  -0.4143   2.5715 H              1 S1                 0.0000
     36 ****        -4.1658  -2.3053  -0.1795 H              1 S1                 0.0000
     37 ****        -3.9992  -4.7894  -0.1971 H              1 S1                 0.0000
     38 ****        -1.8450  -5.8294  -0.9635 H              1 S1                 0.0000
     39 ****        -0.2052  -2.1370  -1.6210 H              1 S1                 0.0000
     40 ****         1.2756   1.9701   1.7929 LP             1 S1                 0.0000
     41 ****         1.1846   4.0359   1.9919 LP             1 S1                 0.0000
     42 ****         1.3329   5.4397   0.9883 LP             1 S1                 0.0000
     43 ****         1.1025  -1.1989  -0.1583 LP             1 S1                 0.0000
     44 ****        -0.2520  -1.5118   0.6984 LP             1 S1                 0.0000
     45 ****        -0.0511  -4.4722  -1.6429 LP             1 S1                 0.0000
@<TRIPOS>BOND
    1    1    2 1     
    2    1   20 1     
    3    1   21 1     
    4    1   22 1     
    5    2    3 1     
    6    2   14 1     
    7    3    4 1     
    8    3   23 1     
    9    3   24 1     
   10    4   13 1     
   11    4    5 1     
   12    4   25 1     
   13    5    6 1     
   14    5   26 1     
   15    5   27 1     
   16    6    7 1     
   17    6   11 1     
   18    7    8 1     
   19    7   28 1     
   20    7   29 1     
   21    8    9 am    
   22    8   10 2     
   23    9   30 1     
   24    9   31 1     
   25   11   12 1     
   26   11   32 1     
   27   11   33 1     
   28   12   13 1     
   29   12   34 1     
   30   12   35 1     
   31   14   19 ar    
   32   14   15 ar    
   33   15   16 ar    
   34   15   36 1     
   35   16   17 ar    
   36   16   37 1     
   37   17   18 ar    
   38   17   38 1     
   39   18   19 ar    
   40   19   39 1     
   41    6   40 1     
   42   10   41 1     
   43   10   42 1     
   44   13   43 1     
   45   13   44 1     
   46   18   45 1     
@<TRIPOS>SUBSTRUCTURE
      1 S1             1
@<TRIPOS>SET
LONE_PAIRS      STATIC     ATOMS    <user>   **** ""
6 40 41 42 43 44 45
DONOR_HYDROGENS      STATIC     ATOMS    <user>   **** ""
3 30 31 39
ATOM$BLUE        STATIC     ATOMS    COLORGROUP SYSTEM
6 40 41 42 43 44 45
ATOM$RED        STATIC     ATOMS    COLORGROUP SYSTEM
3 30 31 39
