AV-unprocessed.smi:42|AV-procd|sdf|388|dock3
  -GOLD-   2262016243D 1   1.00000     0.00000
 Structure written by MMmdl.
 27 28  0  0  0  0  0  0  0  0  2 V2000
  152.4551  144.9918  158.6194 C   0  0  0  0  0  0  0  0  0  0  0  0
  152.4260  143.4598  158.5980 C   0  0  0  0  0  0  0  0  0  0  0  0
  151.0465  142.9160  158.4332 C   0  0  0  0  0  0  0  0  0  0  0  0
  150.0275  143.0177  159.2895 N   0  0  0  0  0  0  0  0  0  0  0  0
  148.9550  142.4205  158.6681 N   0  0  0  0  0  0  0  0  0  0  0  0
  149.4065  141.9975  157.4818 C   0  0  0  0  0  0  0  0  0  0  0  0
  148.6365  141.3450  156.3740 C   0  0  2  0  0  0  0  0  0  0  0  0
  149.4398  141.0864  155.0960 C   0  0  0  0  0  0  0  0  0  0  0  0
  148.4732  141.4163  153.9470 C   0  0  1  0  0  0  0  0  0  0  0  0
  148.1761  140.2669  153.1817 O   0  0  0  0  0  0  0  0  0  0  0  0
  147.2024  141.9702  154.6135 C   0  0  0  0  0  0  0  0  0  0  0  0
  147.5859  142.3032  155.9940 N   0  3  0  0  0  0  0  0  0  0  0  0
  150.7111  142.3079  157.2656 O   0  0  0  0  0  0  0  0  0  0  0  0
  148.1673  140.4255  156.7273 H   0  0  0  0  0  0  0  0  0  0  0  0
  148.9172  142.1693  153.2943 H   0  0  0  0  0  0  0  0  0  0  0  0
  153.4740  145.3591  158.7433 H   0  0  0  0  0  0  0  0  0  0  0  0
  151.8566  145.3854  159.4415 H   0  0  0  0  0  0  0  0  0  0  0  0
  152.0624  145.4058  157.6904 H   0  0  0  0  0  0  0  0  0  0  0  0
  153.0497  143.0859  157.7855 H   0  0  0  0  0  0  0  0  0  0  0  0
  152.8491  143.0678  159.5235 H   0  0  0  0  0  0  0  0  0  0  0  0
  150.2888  141.7698  155.0412 H   0  0  0  0  0  0  0  0  0  0  0  0
  149.8413  140.0727  155.0627 H   0  0  0  0  0  0  0  0  0  0  0  0
  148.7351  140.2573  152.4191 H   0  0  0  0  0  0  0  0  0  0  0  0
  146.7954  142.8363  154.0911 H   0  0  0  0  0  0  0  0  0  0  0  0
  146.4219  141.2086  154.6582 H   0  0  0  0  0  0  0  0  0  0  0  0
  146.7983  142.2673  156.6252 H   0  0  0  0  0  0  0  0  0  0  0  0
  147.9903  143.2291  156.0010 H   0  0  0  0  0  0  0  0  0  0  0  0
  1  2  1  0  0  0  0
  1 16  1  0  0  0  0
  1 17  1  0  0  0  0
  1 18  1  0  0  0  0
  2  3  1  0  0  0  0
  2 19  1  0  0  0  0
  2 20  1  0  0  0  0
  3 13  1  0  0  0  0
  3  4  2  0  0  0  0
  4  5  1  0  0  0  0
  5  6  2  0  0  0  0
  6  7  1  0  0  0  0
  6 13  1  0  0  0  0
  7 14  1  0  0  0  0
  7 12  1  0  0  0  0
  7  8  1  0  0  0  0
  8  9  1  0  0  0  0
  8 21  1  0  0  0  0
  8 22  1  0  0  0  0
  9 15  1  0  0  0  0
  9 10  1  0  0  0  0
  9 11  1  0  0  0  0
 10 23  1  0  0  0  0
 11 12  1  0  0  0  0
 11 24  1  0  0  0  0
 11 25  1  0  0  0  0
 12 26  1  0  0  0  0
 12 27  1  0  0  0  0
M  CHG  1  12   1
M  END
> <s_m_source_file>
AV-unprocessed.smi

> <i_m_source_file_index>
42

> <i_lp_mmshare_version>
43012

> <i_f3d_flags>
0

> <s_epik_input>
W0NIM11bQ0gyXWMxbm5jKG8xKVtDQEhdMltDSDJdW0NAQEhdKFtPSF0pW0NIMl1bTkhdMg==

> <s_epik_cmdline>
J2VwaWtfcHl0aG9uJywgJy1waCcsICc3LjAnLCAnLXRuJywgJzgnLCAnLW1hJywgJzIwMCcsICctbWV0YWxfYmluZGluZycsICctaW1hZScsICc8aW5maWxlLm1hZT4nLCAnLW9tYWUnLCAnPG91dGZpbGUubWFlPic=

> <r_lp_tautomer_probability>
1

> <r_epik_Ionization_Penalty>
0.00247063

> <r_epik_Ionization_Penalty_Charging>
0.0024706

> <r_epik_Ionization_Penalty_Neutral>
3.27814e-08

> <r_epik_State_Penalty>
0.00171198

> <r_epik_Charging_Adjusted_Penalty>
0.00418258

> <i_epik_Tot_Q>
1

> <i_epik_Tot_abs_Q>
1

> <r_epik_Metal_State_Penalty>
-0

> <b_epik_Metal_Only>
0

> <s_lp_Force_Field>
OPLS_2005

> <r_lp_Energy>
19.0872

> <b_lp_Chiralities_Consistent>
1

> <s_lp_Variant>
AV-unprocessed.smi:42-2

> <Gold.Version>
5.8.1

> <Gold.Id.Protein>
6NUR|6NUR_protein|mol2

> <Gold.PLP.Fitness>
35.6602

> <Gold.PLP.PLP>
-26.7708

> <Gold.PLP.part.hbond>
-3.3415

> <Gold.PLP.part.metal>
0.0000

> <Gold.PLP.part.buried>
-3.4964

> <Gold.PLP.part.nonpolar>
-19.9443

> <Gold.PLP.part.repulsive>
0.3490

> <Gold.PLP.ligand.clash>
0.0000

> <Gold.PLP.ligand.torsion>
0.0819

> <Gold.PLP.Chemscore.Hbond>
3.0000

> <Gold.PLP.Chemscore.CHOScore>
0.0000

> <Gold.PLP.Chemscore.Metal>
0.0000

> <Gold.Chemscore.Hbonds>
donor molecule, donor type, donor heavy atom, donor atom, acceptor molecule, acceptor atom, score
      L1  H    10    23       P1  7957  1.00
      L1  H    12    27       P1  8028  2.00

> <Gold.PLP.Chemscore.Internal.Correction>
0.0532

> <Gold.Rescore>
     Score         DG    S(hbond)    S(metal)    S(lipo)     H(rot)  DE(clash)    DE(int)     intcor
     13.19     -13.43       1.90        0.00      54.33       1.86       0.17       0.07       ----

> <Gold.Chemscore.Fitness>
13.1858

> <Gold.Chemscore.DG>
-13.4306

> <Gold.Chemscore.ZeroCoef>
-5.4800

> <Gold.Chemscore.Hbond>
1.9002

> <Gold.Chemscore.Metal>
0.0000

> <Gold.Chemscore.Lipo>
54.3343

> <Gold.Chemscore.Internal_Hbond>
0.0000

> <Gold.Chemscore.DEClash>
0.1737

> <Gold.Chemscore.DEInternal>
0.0711

> <Gold.Chemscore.Rot>
1.8567

> <Gold.Chemscore.Internal.Correction>
   9.000000E+99

> <Gold.Chemscore.Hbonds>
donor molecule, donor type, donor heavy atom, donor atom, acceptor molecule, acceptor atom, score
      L1  H    10    23       P1  7957  0.94
      L1  H    12    27       P1  8028  0.40

> <Gold.Chemscore.Hbond.Weighted>
-6.3466

> <Gold.Chemscore.Metal.Weighted>
-0.0000

> <Gold.Chemscore.Lipo.Weighted>
-6.3571

> <Gold.Chemscore.Internal_Hbond.Weighted>
0.0000

> <Gold.Chemscore.DEClash.Weighted>
0.1737

> <Gold.Chemscore.DEInternal.Weighted>
0.0711

> <Gold.Chemscore.Rot.Weighted>
4.7531

> <Gold.Chemscore.Internal.Correction.Weighted>
   9.000000E+99

> <Gold.Protein.RotatedTorsions>
[ 6907 6896 6895 6894 ] final -165.19 input  -60.11 | X-H torsion
[ 7974 7965 7964 7962 ] final  -10.83 input  175.53 | X-H torsion
[ 8008 7997 7996 7995 ] final  -26.19 input   59.86 | X-H torsion
[ 10167 10162 10161 10158 ] final  -81.14 input  -65.29 | X-H torsion
[ 10718 10713 10712 10709 ] final    9.38 input   66.30 | X-H torsion
[ 10763 10752 10751 10750 ] final  107.49 input  -60.55 | X-H torsion
[ 11005 11000 10999 10996 ] final -144.95 input  -57.11 | X-H torsion

> <Gold.Protein.ActiveResidues>
 VAL166  LYS551  ARG553  GLY616  TRP617  ASP618  TYR619  PRO620  LYS621  CYS622 
 ASP623  PHE694  ASN695  SER759  ASP760  ASP761  ALA762  ILE779  LEU786  VAL792 
 PHE793  MET794  SER795  GLU796  ALA797  LYS798  CYS799  TRP800  GLU811  SER814 

> <Gold.Protein.RotatedAtoms>
  151.4237  133.3690  159.2759 H   0  0  0  0  0  0  0  0  0  0  0  0  # atno 6907 bound_to 6896
  150.9275  134.8692  159.7540 H   0  0  0  0  0  0  0  0  0  0  0  0  # atno 6908 bound_to 6896
  152.5012  134.4179  159.9523 H   0  0  0  0  0  0  0  0  0  0  0  0  # atno 6909 bound_to 6896
  146.2208  140.2822  142.8363 H   0  0  0  0  0  0  0  0  0  0  0  0  # atno 7974 bound_to 7965
  154.4437  140.1906  156.0737 H   0  0  0  0  0  0  0  0  0  0  0  0  # atno 8008 bound_to 7997
  156.0492  140.3310  155.7304 H   0  0  0  0  0  0  0  0  0  0  0  0  # atno 8009 bound_to 7997
  155.5583  140.0601  157.2825 H   0  0  0  0  0  0  0  0  0  0  0  0  # atno 8010 bound_to 7997
  140.4439  143.2505  151.8586 H   0  0  0  0  0  0  0  0  0  0  0  0  # atno 10167 bound_to 10162
  156.9655  130.5949  149.5665 H   0  0  0  0  0  0  0  0  0  0  0  0  # atno 10718 bound_to 10713
  153.4075  135.3842  155.2028 H   0  0  0  0  0  0  0  0  0  0  0  0  # atno 10763 bound_to 10752
  154.8735  135.3786  154.4542 H   0  0  0  0  0  0  0  0  0  0  0  0  # atno 10764 bound_to 10752
  153.5046  135.7088  153.5875 H   0  0  0  0  0  0  0  0  0  0  0  0  # atno 10765 bound_to 10752
  140.7972  134.2899  157.4992 H   0  0  0  0  0  0  0  0  0  0  0  0  # atno 11005 bound_to 11000
  144.9189  140.7844  143.5761 LP  0  0  0  0  0  0  0  0  0  0  0  0  # atno 17320 bound_to 7965
  145.2757  139.1937  143.4818 LP  0  0  0  0  0  0  0  0  0  0  0  0  # atno 17321 bound_to 7965
  139.4791  144.5197  151.8818 LP  0  0  0  0  0  0  0  0  0  0  0  0  # atno 17342 bound_to 10162
  140.4286  144.2146  150.5887 LP  0  0  0  0  0  0  0  0  0  0  0  0  # atno 17343 bound_to 10162
  156.0304  130.5396  150.8520 LP  0  0  0  0  0  0  0  0  0  0  0  0  # atno 17370 bound_to 10713
  157.5629  131.0946  150.9533 LP  0  0  0  0  0  0  0  0  0  0  0  0  # atno 17371 bound_to 10713
  139.8725  134.9409  156.3781 LP  0  0  0  0  0  0  0  0  0  0  0  0  # atno 17394 bound_to 11000
  140.9331  133.7566  156.0050 LP  0  0  0  0  0  0  0  0  0  0  0  0  # atno 17395 bound_to 11000

$$$$
