AV-unprocessed.smi:1879|AV-procd|sdf|7634|dock3
  -GOLD-   22720 9363D 1   1.00000     0.00000
 Structure written by MMmdl.
 47 49  0  0  0  0  0  0  0  0  2 V2000
  150.3639  134.2806  155.8478 O   0  0  0  0  0  0  0  0  0  0  0  0
  149.7763  134.8311  154.9167 C   0  0  0  0  0  0  0  0  0  0  0  0
  149.0389  134.2021  153.9863 N   0  0  0  0  0  0  0  0  0  0  0  0
  148.7761  132.8080  153.8608 C   0  0  0  0  0  0  0  0  0  0  0  0
  149.4101  131.8568  154.7015 C   0  0  0  0  0  0  0  0  0  0  0  0
  149.1430  130.4846  154.5378 C   0  0  0  0  0  0  0  0  0  0  0  0
  148.2419  130.0817  153.5379 C   0  0  0  0  0  0  0  0  0  0  0  0
  147.6394  131.0111  152.7682 N   0  3  0  0  0  0  0  0  0  0  0  0
  147.8432  132.3469  152.8865 C   0  0  0  0  0  0  0  0  0  0  0  0
  147.1264  133.2027  152.0190 N   0  0  0  0  0  0  0  0  0  0  0  0
  146.4205  132.6600  150.8639 C   0  0  0  0  0  0  0  0  0  0  0  0
  145.4930  133.7812  150.4038 C   0  0  0  0  0  0  0  0  0  0  0  0
  145.0949  134.4377  151.7219 C   0  0  0  0  0  0  0  0  0  0  0  0
  146.3493  134.2979  152.5909 C   0  0  0  0  0  0  0  0  0  0  0  0
  149.8131  136.1520  154.6922 N   0  0  0  0  0  0  0  0  0  0  0  0
  150.5330  137.1276  155.5052 C   0  0  2  0  0  0  0  0  0  0  0  0
  149.5212  138.0279  156.2374 C   0  0  0  0  0  0  0  0  0  0  0  0
  150.2246  139.1185  157.0640 C   0  0  0  0  0  0  0  0  0  0  0  0
  151.1985  139.9559  156.2144 C   0  0  2  0  0  0  0  0  0  0  0  0
  150.4759  140.7645  155.3071 O   0  0  0  0  0  0  0  0  0  0  0  0
  152.1919  139.0618  155.4492 C   0  0  0  0  0  0  0  0  0  0  0  0
  151.4823  137.9703  154.6288 C   0  0  0  0  0  0  0  0  0  0  0  0
  148.7025  134.7775  153.2283 H   0  0  0  0  0  0  0  0  0  0  0  0
  150.0961  132.1579  155.4785 H   0  0  0  0  0  0  0  0  0  0  0  0
  149.6245  129.7531  155.1701 H   0  0  0  0  0  0  0  0  0  0  0  0
  147.9789  129.0533  153.3372 H   0  0  0  0  0  0  0  0  0  0  0  0
  147.1135  132.3599  150.0774 H   0  0  0  0  0  0  0  0  0  0  0  0
  145.8272  131.7908  151.1512 H   0  0  0  0  0  0  0  0  0  0  0  0
  146.0423  134.4922  149.7848 H   0  0  0  0  0  0  0  0  0  0  0  0
  144.6392  133.4191  149.8305 H   0  0  0  0  0  0  0  0  0  0  0  0
  144.7744  135.4731  151.6025 H   0  0  0  0  0  0  0  0  0  0  0  0
  144.2721  133.8815  152.1726 H   0  0  0  0  0  0  0  0  0  0  0  0
  146.0895  134.1179  153.6351 H   0  0  0  0  0  0  0  0  0  0  0  0
  146.9415  135.2120  152.5392 H   0  0  0  0  0  0  0  0  0  0  0  0
  149.3053  136.5153  153.8989 H   0  0  0  0  0  0  0  0  0  0  0  0
  151.1223  136.5987  156.2570 H   0  0  0  0  0  0  0  0  0  0  0  0
  148.8517  138.4967  155.5146 H   0  0  0  0  0  0  0  0  0  0  0  0
  148.8907  137.4248  156.8919 H   0  0  0  0  0  0  0  0  0  0  0  0
  149.4851  139.7644  157.5388 H   0  0  0  0  0  0  0  0  0  0  0  0
  150.7786  138.6445  157.8752 H   0  0  0  0  0  0  0  0  0  0  0  0
  151.7539  140.6293  156.8682 H   0  0  0  0  0  0  0  0  0  0  0  0
  149.6067  140.9004  155.6522 H   0  0  0  0  0  0  0  0  0  0  0  0
  152.8242  139.6679  154.7991 H   0  0  0  0  0  0  0  0  0  0  0  0
  152.8626  138.5841  156.1645 H   0  0  0  0  0  0  0  0  0  0  0  0
  152.2293  137.3298  154.1585 H   0  0  0  0  0  0  0  0  0  0  0  0
  150.9211  138.4335  153.8159 H   0  0  0  0  0  0  0  0  0  0  0  0
  146.9819  130.6879  152.0584 H   0  0  0  0  0  0  0  0  0  0  0  0
  1  2  2  0  0  0  0
  2  3  1  0  0  0  0
  2 15  1  0  0  0  0
  3  4  1  0  0  0  0
  3 23  1  0  0  0  0
  4  9  1  0  0  0  0
  4  5  2  0  0  0  0
  5  6  1  0  0  0  0
  5 24  1  0  0  0  0
  6  7  2  0  0  0  0
  6 25  1  0  0  0  0
  7  8  1  0  0  0  0
  7 26  1  0  0  0  0
  8  9  2  0  0  0  0
  8 47  1  0  0  0  0
  9 10  1  0  0  0  0
 10 14  1  0  0  0  0
 10 11  1  0  0  0  0
 11 12  1  0  0  0  0
 11 27  1  0  0  0  0
 11 28  1  0  0  0  0
 12 13  1  0  0  0  0
 12 29  1  0  0  0  0
 12 30  1  0  0  0  0
 13 14  1  0  0  0  0
 13 31  1  0  0  0  0
 13 32  1  0  0  0  0
 14 33  1  0  0  0  0
 14 34  1  0  0  0  0
 15 16  1  0  0  0  0
 15 35  1  0  0  0  0
 16 22  1  0  0  0  0
 16 17  1  0  0  0  0
 16 36  1  0  0  0  0
 17 18  1  0  0  0  0
 17 37  1  0  0  0  0
 17 38  1  0  0  0  0
 18 19  1  0  0  0  0
 18 39  1  0  0  0  0
 18 40  1  0  0  0  0
 19 20  1  0  0  0  0
 19 21  1  0  0  0  0
 19 41  1  0  0  0  0
 20 42  1  0  0  0  0
 21 22  1  0  0  0  0
 21 43  1  0  0  0  0
 21 44  1  0  0  0  0
 22 45  1  0  0  0  0
 22 46  1  0  0  0  0
M  CHG  1   8   1
M  END
> <s_m_source_file>
AV-unprocessed.smi

> <i_m_source_file_index>
1879

> <i_lp_mmshare_version>
43012

> <i_f3d_flags>
0

> <s_epik_input>
W0NIMl0xW0NIMl1bQ0BIXShbT0hdKVtDSDJdW0NIMl1bQ0BIXTFbTkhdQyg9TylbTkhdYzJbY0hdW2NIXVtjSF1uYzJOM1tDSDJdW0NIMl1bQ0gyXVtDSDJdMw==

> <s_epik_cmdline>
J2VwaWtfcHl0aG9uJywgJy1waCcsICc3LjAnLCAnLXRuJywgJzgnLCAnLW1hJywgJzIwMCcsICctbWV0YWxfYmluZGluZycsICctaW1hZScsICc8aW5maWxlLm1hZT4nLCAnLW9tYWUnLCAnPG91dGZpbGUubWFlPic=

> <r_lp_tautomer_probability>
0.999994

> <r_epik_Ionization_Penalty>
1.08454

> <r_epik_Ionization_Penalty_Charging>
1.08452

> <r_epik_Ionization_Penalty_Neutral>
2.17987e-05

> <r_epik_State_Penalty>
1.14025

> <r_epik_Charging_Adjusted_Penalty>
2.22477

> <i_epik_Tot_Q>
1

> <i_epik_Tot_abs_Q>
1

> <r_epik_Metal_State_Penalty>
1.22973

> <b_epik_Metal_Only>
0

> <s_lp_Force_Field>
OPLS_2005

> <r_lp_Energy>
43.5089

> <b_lp_Chiralities_Consistent>
1

> <s_lp_Variant>
AV-unprocessed.smi:1879-4

> <Gold.Version>
5.8.1

> <Gold.Id.Protein>
6NUR|6NUR_protein|mol2

> <Gold.PLP.Fitness>
45.7338

> <Gold.PLP.PLP>
-37.6564

> <Gold.PLP.part.hbond>
-4.3711

> <Gold.PLP.part.metal>
0.0000

> <Gold.PLP.part.buried>
-3.9251

> <Gold.PLP.part.nonpolar>
-30.4172

> <Gold.PLP.part.repulsive>
0.2717

> <Gold.PLP.ligand.clash>
0.0000

> <Gold.PLP.ligand.torsion>
0.2530

> <Gold.PLP.Chemscore.Hbond>
2.7360

> <Gold.PLP.Chemscore.CHOScore>
0.0000

> <Gold.PLP.Chemscore.Metal>
0.0000

> <Gold.Chemscore.Hbonds>
donor molecule, donor type, donor heavy atom, donor atom, acceptor molecule, acceptor atom, score
      L1  H     3    23       P1  7948  1.00
      L1  H    15    35       P1  7948  0.77
      P1  H  7989  7998       L1    20  0.61

> <Gold.PLP.Chemscore.Internal.Correction>
0.3754

> <Gold.Rescore>
     Score         DG    S(hbond)    S(metal)    S(lipo)     H(rot)  DE(clash)    DE(int)     intcor
     15.11     -16.88       1.99        0.00      77.68       1.69       0.10       1.67       ----

> <Gold.Chemscore.Fitness>
15.1098

> <Gold.Chemscore.DG>
-16.8811

> <Gold.Chemscore.ZeroCoef>
-5.4800

> <Gold.Chemscore.Hbond>
1.9898

> <Gold.Chemscore.Metal>
0.0000

> <Gold.Chemscore.Lipo>
77.6840

> <Gold.Chemscore.Internal_Hbond>
0.0000

> <Gold.Chemscore.DEClash>
0.1009

> <Gold.Chemscore.DEInternal>
1.6704

> <Gold.Chemscore.Rot>
1.6929

> <Gold.Chemscore.Internal.Correction>
   9.000000E+99

> <Gold.Chemscore.Hbonds>
donor molecule, donor type, donor heavy atom, donor atom, acceptor molecule, acceptor atom, score
      L1  H     3    23       P1  7948  0.32
      L1  H    15    35       P1  7948  0.70
      P1  H  7989  7998       L1    20  0.38

> <Gold.Chemscore.Hbond.Weighted>
-6.6459

> <Gold.Chemscore.Metal.Weighted>
-0.0000

> <Gold.Chemscore.Lipo.Weighted>
-9.0890

> <Gold.Chemscore.Internal_Hbond.Weighted>
0.0000

> <Gold.Chemscore.DEClash.Weighted>
0.1009

> <Gold.Chemscore.DEInternal.Weighted>
1.6704

> <Gold.Chemscore.Rot.Weighted>
4.3338

> <Gold.Chemscore.Internal.Correction.Weighted>
   9.000000E+99

> <Gold.Protein.RotatedTorsions>
[ 6907 6896 6895 6894 ] final  -26.71 input  -60.11 | X-H torsion
[ 7974 7965 7964 7962 ] final   44.89 input  175.53 | X-H torsion
[ 8008 7997 7996 7995 ] final  -75.30 input   59.86 | X-H torsion
[ 10167 10162 10161 10158 ] final    5.36 input  -65.29 | X-H torsion
[ 10718 10713 10712 10709 ] final   36.85 input   66.30 | X-H torsion
[ 10763 10752 10751 10750 ] final    3.47 input  -60.55 | X-H torsion
[ 11005 11000 10999 10996 ] final -100.74 input  -57.11 | X-H torsion

> <Gold.Protein.ActiveResidues>
 VAL166  LYS551  ARG553  GLY616  TRP617  ASP618  TYR619  PRO620  LYS621  CYS622 
 ASP623  PHE694  ASN695  SER759  ASP760  ASP761  ALA762  ILE779  LEU786  VAL792 
 PHE793  MET794  SER795  GLU796  ALA797  LYS798  CYS799  TRP800  GLU811  SER814 

> <Gold.Protein.RotatedAtoms>
  151.1571  135.0255  159.8693 H   0  0  0  0  0  0  0  0  0  0  0  0  # atno 6907 bound_to 6896
  152.5452  134.1322  159.8454 H   0  0  0  0  0  0  0  0  0  0  0  0  # atno 6908 bound_to 6896
  151.1413  133.4923  159.2629 H   0  0  0  0  0  0  0  0  0  0  0  0  # atno 6909 bound_to 6896
  146.0529  139.5025  142.9707 H   0  0  0  0  0  0  0  0  0  0  0  0  # atno 7974 bound_to 7965
  154.5405  140.0746  156.8501 H   0  0  0  0  0  0  0  0  0  0  0  0  # atno 8008 bound_to 7997
  155.3191  140.3395  155.4223 H   0  0  0  0  0  0  0  0  0  0  0  0  # atno 8009 bound_to 7997
  156.1869  140.1672  156.8154 H   0  0  0  0  0  0  0  0  0  0  0  0  # atno 8010 bound_to 7997
  140.6486  143.7600  150.7539 H   0  0  0  0  0  0  0  0  0  0  0  0  # atno 10167 bound_to 10162
  157.3399  130.7542  149.6904 H   0  0  0  0  0  0  0  0  0  0  0  0  # atno 10718 bound_to 10713
  153.2830  135.6942  153.7367 H   0  0  0  0  0  0  0  0  0  0  0  0  # atno 10763 bound_to 10752
  153.6347  135.3404  155.3053 H   0  0  0  0  0  0  0  0  0  0  0  0  # atno 10764 bound_to 10752
  154.8501  135.4417  154.1889 H   0  0  0  0  0  0  0  0  0  0  0  0  # atno 10765 bound_to 10752
  141.1258  133.8423  157.1142 H   0  0  0  0  0  0  0  0  0  0  0  0  # atno 11005 bound_to 11000
  145.6694  141.0220  143.1666 LP  0  0  0  0  0  0  0  0  0  0  0  0  # atno 17320 bound_to 7965
  144.7132  139.8293  143.7407 LP  0  0  0  0  0  0  0  0  0  0  0  0  # atno 17321 bound_to 7965
  140.1246  143.4580  152.2292 LP  0  0  0  0  0  0  0  0  0  0  0  0  # atno 17342 bound_to 10162
  139.5699  144.7457  151.3920 LP  0  0  0  0  0  0  0  0  0  0  0  0  # atno 17343 bound_to 10162
  155.9706  130.4171  150.4261 LP  0  0  0  0  0  0  0  0  0  0  0  0  # atno 17370 bound_to 10713
  157.2307  131.0503  151.2494 LP  0  0  0  0  0  0  0  0  0  0  0  0  # atno 17371 bound_to 10713
  140.0256  134.9925  157.0680 LP  0  0  0  0  0  0  0  0  0  0  0  0  # atno 17394 bound_to 11000
  140.4368  134.1723  155.7171 LP  0  0  0  0  0  0  0  0  0  0  0  0  # atno 17395 bound_to 11000

$$$$
