AV-unprocessed.smi:929|AV-procd|sdf|4195|dock10
  -GOLD-   22720 2103D 1   1.00000     0.00000
 Structure written by MMmdl.
 34 35  0  0  0  0  0  0  0  0  1 V2000
  154.2393  132.7680  165.5320 C   0  0  0  0  0  0  0  0  0  0  0  0
  154.5462  133.3723  164.1972 C   0  0  0  0  0  0  0  0  0  0  0  0
  154.4587  134.7686  163.8962 C   0  0  0  0  0  0  0  0  0  0  0  0
  154.7985  135.0472  162.5957 C   0  0  0  0  0  0  0  0  0  0  0  0
  154.8578  136.2131  161.9050 N   0  0  0  0  0  0  0  0  0  0  0  0
  154.6809  137.4603  162.3727 C   0  0  0  0  0  0  0  0  0  0  0  0
  154.3994  137.7519  163.5355 O   0  0  0  0  0  0  0  0  0  0  0  0
  154.8523  138.3707  161.4026 N   0  0  0  0  0  0  0  0  0  0  0  0
  154.7653  139.8189  161.5813 C   0  0  0  0  0  0  0  0  0  0  0  0
  154.1777  140.5511  160.3599 C   0  0  0  0  0  0  0  0  0  0  0  0
  154.3318  140.0846  159.2295 O   0  0  0  0  0  0  0  0  0  0  0  0
  153.4917  141.6928  160.5734 N   0  0  0  0  0  0  0  0  0  0  0  0
  153.2302  142.3015  161.8775 C   0  0  0  0  0  0  0  0  0  0  0  0
  152.2148  143.4148  161.6167 C   0  0  0  0  0  0  0  0  0  0  0  0
  152.4442  143.7943  160.1604 C   0  0  0  0  0  0  0  0  0  0  0  0
  152.8971  142.4905  159.5028 C   0  0  0  0  0  0  0  0  0  0  0  0
  155.2011  133.5395  161.8419 S   0  0  0  0  0  0  0  0  0  0  0  0
  154.9248  132.5975  163.2028 N   0  0  0  0  0  0  0  0  0  0  0  0
  154.1698  133.5305  166.3083 H   0  0  0  0  0  0  0  0  0  0  0  0
  155.0131  132.0626  165.8357 H   0  0  0  0  0  0  0  0  0  0  0  0
  153.2904  132.2318  165.5114 H   0  0  0  0  0  0  0  0  0  0  0  0
  154.1569  135.4910  164.6395 H   0  0  0  0  0  0  0  0  0  0  0  0
  155.0745  136.1264  160.9229 H   0  0  0  0  0  0  0  0  0  0  0  0
  155.0875  138.0419  160.4778 H   0  0  0  0  0  0  0  0  0  0  0  0
  154.1294  140.0120  162.4454 H   0  0  0  0  0  0  0  0  0  0  0  0
  155.7525  140.2183  161.8195 H   0  0  0  0  0  0  0  0  0  0  0  0
  152.8448  141.5827  162.6018 H   0  0  0  0  0  0  0  0  0  0  0  0
  154.1586  142.7188  162.2698 H   0  0  0  0  0  0  0  0  0  0  0  0
  151.2038  143.0222  161.7351 H   0  0  0  0  0  0  0  0  0  0  0  0
  152.3276  144.2587  162.2979 H   0  0  0  0  0  0  0  0  0  0  0  0
  151.5590  144.2216  159.6886 H   0  0  0  0  0  0  0  0  0  0  0  0
  153.2451  144.5323  160.0985 H   0  0  0  0  0  0  0  0  0  0  0  0
  153.6015  142.6801  158.6911 H   0  0  0  0  0  0  0  0  0  0  0  0
  152.0426  141.9508  159.0917 H   0  0  0  0  0  0  0  0  0  0  0  0
  1  2  1  0  0  0  0
  1 19  1  0  0  0  0
  1 20  1  0  0  0  0
  1 21  1  0  0  0  0
  2 18  2  0  0  0  0
  2  3  1  0  0  0  0
  3  4  2  0  0  0  0
  3 22  1  0  0  0  0
  4  5  1  0  0  0  0
  4 17  1  0  0  0  0
  5  6  1  0  0  0  0
  5 23  1  0  0  0  0
  6  7  2  0  0  0  0
  6  8  1  0  0  0  0
  8  9  1  0  0  0  0
  8 24  1  0  0  0  0
  9 10  1  0  0  0  0
  9 25  1  0  0  0  0
  9 26  1  0  0  0  0
 10 11  2  0  0  0  0
 10 12  1  0  0  0  0
 12 16  1  0  0  0  0
 12 13  1  0  0  0  0
 13 14  1  0  0  0  0
 13 27  1  0  0  0  0
 13 28  1  0  0  0  0
 14 15  1  0  0  0  0
 14 29  1  0  0  0  0
 14 30  1  0  0  0  0
 15 16  1  0  0  0  0
 15 31  1  0  0  0  0
 15 32  1  0  0  0  0
 16 33  1  0  0  0  0
 16 34  1  0  0  0  0
 17 18  1  0  0  0  0
M  END
> <s_m_source_file>
AV-unprocessed.smi

> <i_m_source_file_index>
929

> <i_lp_mmshare_version>
43012

> <i_f3d_flags>
0

> <s_epik_input>
W0NIM11jMVtjSF1jKHNuMSlbTkhdQyg9TylbTkhdW0NIMl1DKD1PKU4yW0NIMl1bQ0gyXVtDSDJdW0NIMl0y

> <s_epik_cmdline>
J2VwaWtfcHl0aG9uJywgJy1waCcsICc3LjAnLCAnLXRuJywgJzgnLCAnLW1hJywgJzIwMCcsICctbWV0YWxfYmluZGluZycsICctaW1hZScsICc8aW5maWxlLm1hZT4nLCAnLW9tYWUnLCAnPG91dGZpbGUubWFlPic=

> <r_lp_tautomer_probability>
1

> <r_epik_Ionization_Penalty>
3.14678e-05

> <r_epik_Ionization_Penalty_Charging>
0

> <r_epik_Ionization_Penalty_Neutral>
3.14678e-05

> <r_epik_State_Penalty>
-0

> <r_epik_Charging_Adjusted_Penalty>
0

> <i_epik_Tot_Q>
0

> <i_epik_Tot_abs_Q>
0

> <r_epik_Metal_State_Penalty>
-0

> <b_epik_Metal_Only>
0

> <s_lp_Force_Field>
OPLS_2005

> <r_lp_Energy>
23.5851

> <b_lp_Chiralities_Consistent>
1

> <s_lp_Variant>
AV-unprocessed.smi:929-1

> <Gold.Version>
5.8.1

> <Gold.Id.Protein>
6NUR|6NUR_protein|mol2

> <Gold.PLP.Fitness>
40.4860

> <Gold.PLP.PLP>
-38.6030

> <Gold.PLP.part.hbond>
-1.0000

> <Gold.PLP.part.metal>
0.0000

> <Gold.PLP.part.buried>
-3.6679

> <Gold.PLP.part.nonpolar>
-34.0728

> <Gold.PLP.part.repulsive>
0.0579

> <Gold.PLP.ligand.clash>
0.0000

> <Gold.PLP.ligand.torsion>
0.5597

> <Gold.PLP.Chemscore.Hbond>
1.0000

> <Gold.PLP.Chemscore.CHOScore>
0.0000

> <Gold.PLP.Chemscore.Metal>
0.0000

> <Gold.Chemscore.Hbonds>
donor molecule, donor type, donor heavy atom, donor atom, acceptor molecule, acceptor atom, score
      P1  H  7997  8009       L1    11  0.97

> <Gold.PLP.Chemscore.Internal.Correction>
0.0024

> <Gold.Rescore>
     Score         DG    S(hbond)    S(metal)    S(lipo)     H(rot)  DE(clash)    DE(int)     intcor
     14.46     -16.03       1.00        0.00      89.92       1.29       0.01       1.56       ----

> <Gold.Chemscore.Fitness>
14.4617

> <Gold.Chemscore.DG>
-16.0277

> <Gold.Chemscore.ZeroCoef>
-5.4800

> <Gold.Chemscore.Hbond>
0.9992

> <Gold.Chemscore.Metal>
0.0000

> <Gold.Chemscore.Lipo>
89.9229

> <Gold.Chemscore.Internal_Hbond>
0.0000

> <Gold.Chemscore.DEClash>
0.0084

> <Gold.Chemscore.DEInternal>
1.5576

> <Gold.Chemscore.Rot>
1.2931

> <Gold.Chemscore.Internal.Correction>
   9.000000E+99

> <Gold.Chemscore.Hbonds>
donor molecule, donor type, donor heavy atom, donor atom, acceptor molecule, acceptor atom, score
      P1  H  7997  8009       L1    11  0.86

> <Gold.Chemscore.Hbond.Weighted>
-3.3372

> <Gold.Chemscore.Metal.Weighted>
-0.0000

> <Gold.Chemscore.Lipo.Weighted>
-10.5210

> <Gold.Chemscore.Internal_Hbond.Weighted>
0.0000

> <Gold.Chemscore.DEClash.Weighted>
0.0084

> <Gold.Chemscore.DEInternal.Weighted>
1.5576

> <Gold.Chemscore.Rot.Weighted>
3.3105

> <Gold.Chemscore.Internal.Correction.Weighted>
   9.000000E+99

> <Gold.Protein.RotatedTorsions>
[ 6907 6896 6895 6894 ] final  -68.14 input  -60.11 | X-H torsion
[ 7974 7965 7964 7962 ] final  -13.95 input  175.53 | X-H torsion
[ 8008 7997 7996 7995 ] final  131.30 input   59.86 | X-H torsion
[ 10167 10162 10161 10158 ] final  -64.15 input  -65.29 | X-H torsion
[ 10718 10713 10712 10709 ] final   49.56 input   66.30 | X-H torsion
[ 10763 10752 10751 10750 ] final  158.67 input  -60.55 | X-H torsion
[ 11005 11000 10999 10996 ] final   63.77 input  -57.11 | X-H torsion

> <Gold.Protein.ActiveResidues>
 VAL166  LYS551  ARG553  GLY616  TRP617  ASP618  TYR619  PRO620  LYS621  CYS622 
 ASP623  PHE694  ASN695  SER759  ASP760  ASP761  ALA762  ILE779  LEU786  VAL792 
 PHE793  MET794  SER795  GLU796  ALA797  LYS798  CYS799  TRP800  GLU811  SER814 

> <Gold.Protein.RotatedAtoms>
  150.7372  134.5781  159.5924 H   0  0  0  0  0  0  0  0  0  0  0  0  # atno 6907 bound_to 6896
  152.3202  134.7386  160.0324 H   0  0  0  0  0  0  0  0  0  0  0  0  # atno 6908 bound_to 6896
  151.7905  133.3323  159.3534 H   0  0  0  0  0  0  0  0  0  0  0  0  # atno 6909 bound_to 6896
  146.2094  140.3278  142.8396 H   0  0  0  0  0  0  0  0  0  0  0  0  # atno 7974 bound_to 7965
  156.2968  140.2575  156.2903 H   0  0  0  0  0  0  0  0  0  0  0  0  # atno 8008 bound_to 7997
  154.9516  140.0394  157.2165 H   0  0  0  0  0  0  0  0  0  0  0  0  # atno 8009 bound_to 7997
  154.8030  140.2831  155.5912 H   0  0  0  0  0  0  0  0  0  0  0  0  # atno 8010 bound_to 7997
  140.5821  143.2328  151.6320 H   0  0  0  0  0  0  0  0  0  0  0  0  # atno 10167 bound_to 10162
  157.4799  130.8308  149.8081 H   0  0  0  0  0  0  0  0  0  0  0  0  # atno 10718 bound_to 10713
  154.2197  135.2782  155.2929 H   0  0  0  0  0  0  0  0  0  0  0  0  # atno 10763 bound_to 10752
  154.5712  135.5618  153.7100 H   0  0  0  0  0  0  0  0  0  0  0  0  # atno 10764 bound_to 10752
  153.0044  135.6322  154.2337 H   0  0  0  0  0  0  0  0  0  0  0  0  # atno 10765 bound_to 10752
  140.0002  134.6454  155.9943 H   0  0  0  0  0  0  0  0  0  0  0  0  # atno 11005 bound_to 11000
  144.8874  140.7479  143.5948 LP  0  0  0  0  0  0  0  0  0  0  0  0  # atno 17320 bound_to 7965
  145.3200  139.1791  143.4593 LP  0  0  0  0  0  0  0  0  0  0  0  0  # atno 17321 bound_to 7965
  139.5176  144.3311  152.0826 LP  0  0  0  0  0  0  0  0  0  0  0  0  # atno 17342 bound_to 10162
  140.2462  144.4217  150.6240 LP  0  0  0  0  0  0  0  0  0  0  0  0  # atno 17343 bound_to 10162
  156.0116  130.3831  150.2246 LP  0  0  0  0  0  0  0  0  0  0  0  0  # atno 17370 bound_to 10713
  157.0432  131.0041  151.3277 LP  0  0  0  0  0  0  0  0  0  0  0  0  # atno 17371 bound_to 10713
  141.1636  133.6537  156.4403 LP  0  0  0  0  0  0  0  0  0  0  0  0  # atno 17394 bound_to 11000
  140.4742  134.6725  157.5142 LP  0  0  0  0  0  0  0  0  0  0  0  0  # atno 17395 bound_to 11000

$$$$
