#       Name:                AV-unprocessed.smi:1419
#       Creating user name   scv26
#       Creation time:       Fri Mar 27 05:42:49 2020


#       File generated by GOLD software.
#

@<TRIPOS>MOLECULE
AV-unprocessed.smi:1419
    46    47     1
SMALL
NO_CHARGES


@<TRIPOS>ATOM
      1 ****        -3.7591  -0.3755   1.5374 C.3            1 S1                 0.0000
      2 ****        -2.7665  -0.0547   0.4121 C.3            1 S1                 0.0000
      3 ****        -2.7436  -1.1662  -0.6570 C.3            1 S1                 0.0000
      4 ****        -1.8348  -0.8693  -1.7503 N.pl3          1 S1                 0.0000
      5 ****        -1.9945   0.0935  -2.7382 C.2            1 S1                 0.0000
      6 ****        -0.8821   0.0163  -3.5455 C.2            1 S1                 0.0000
      7 ****        -0.0334  -0.9856  -3.0804 N.2            1 S1                 0.0000
      8 ****        -0.6647  -1.4659  -2.0172 C.2            1 S1                 0.0000
      9 ****        -1.4326   0.1227   0.9836 N.am           1 S1                 0.0000
     10 ****        -0.6055   1.1576   0.7546 C.2            1 S1                 0.0000
     11 ****        -0.9507   2.1499   0.1116 O.2            1 S1                 0.0000
     12 ****         0.6278   1.0223   1.3007 N.am           1 S1                 0.0000
     13 ****         1.2214  -0.2153   1.8231 C.3            1 S1                 0.0000
     14 ****         2.2551  -0.7192   0.7969 C.3            1 S1                 0.0000
     15 ****         2.9745  -1.9844   1.2762 C.3            1 S1                 0.0000
     16 ****         3.2403   0.2942   0.5795 O.3            1 S1                 0.0000
     17 ****         2.7387   1.5728   0.1752 C.3            1 S1                 0.0000
     18 ****         2.2708   1.5531  -1.2916 C.3            1 S1                 0.0000
     19 ****         1.6620   2.0521   1.1733 C.3            1 S1                 0.0000
     20 ****        -4.7684  -0.5011   1.1447 H              1 S1                 0.0000
     21 ****        -3.7908   0.4281   2.2741 H              1 S1                 0.0000
     22 ****        -3.4880  -1.2950   2.0578 H              1 S1                 0.0000
     23 ****        -3.1019   0.8697  -0.0615 H              1 S1                 0.0000
     24 ****        -2.4558  -2.1197  -0.2111 H              1 S1                 0.0000
     25 ****        -3.7407  -1.3057  -1.0763 H              1 S1                 0.0000
     26 ****        -2.8587   0.7402  -2.7791 H              1 S1                 0.0000
     27 ****        -0.6294   0.6001  -4.4182 H              1 S1                 0.0000
     28 ****        -0.2616  -2.2654  -1.4130 H              1 S1                 0.0000
     29 ****        -1.0794  -0.6376   1.5460 H              1 S1                 0.0000
     30 ****         1.7084  -0.0058   2.7767 H              1 S1                 0.0000
     31 ****         0.4939  -0.9990   2.0342 H              1 S1                 0.0000
     32 ****         1.7551  -0.9497  -0.1443 H              1 S1                 0.0000
     33 ****         2.2687  -2.7994   1.4382 H              1 S1                 0.0000
     34 ****         3.5031  -1.8069   2.2132 H              1 S1                 0.0000
     35 ****         3.7052  -2.3194   0.5394 H              1 S1                 0.0000
     36 ****         3.5797   2.2642   0.2328 H              1 S1                 0.0000
     37 ****         1.9744   2.5509  -1.6159 H              1 S1                 0.0000
     38 ****         1.4166   0.8961  -1.4466 H              1 S1                 0.0000
     39 ****         3.0713   1.2158  -1.9501 H              1 S1                 0.0000
     40 ****         1.2616   3.0190   0.8648 H              1 S1                 0.0000
     41 ****         2.1147   2.2215   2.1514 H              1 S1                 0.0000
     42 ****         0.8457  -1.2749  -3.4592 LP             1 S1                 0.0000
     43 ****        -1.8766   2.2064  -0.2621 LP             1 S1                 0.0000
     44 ****        -0.3051   2.8991  -0.0368 LP             1 S1                 0.0000
     45 ****         3.8628  -0.0305  -0.1326 LP             1 S1                 0.0000
     46 ****         3.7461   0.4188   1.4330 LP             1 S1                 0.0000
@<TRIPOS>BOND
    1    1    2 1     
    2    1   20 1     
    3    1   21 1     
    4    1   22 1     
    5    2    3 1     
    6    2    9 1     
    7    2   23 1     
    8    3    4 1     
    9    3   24 1     
   10    3   25 1     
   11    4    8 1     
   12    4    5 1     
   13    5    6 2     
   14    5   26 1     
   15    6    7 1     
   16    6   27 1     
   17    7    8 2     
   18    8   28 1     
   19    9   10 am    
   20    9   29 1     
   21   10   11 2     
   22   10   12 am    
   23   12   19 1     
   24   12   13 1     
   25   13   14 1     
   26   13   30 1     
   27   13   31 1     
   28   14   15 1     
   29   14   16 1     
   30   14   32 1     
   31   15   33 1     
   32   15   34 1     
   33   15   35 1     
   34   16   17 1     
   35   17   18 1     
   36   17   19 1     
   37   17   36 1     
   38   18   37 1     
   39   18   38 1     
   40   18   39 1     
   41   19   40 1     
   42   19   41 1     
   43    7   42 1     
   44   11   43 1     
   45   11   44 1     
   46   16   45 1     
   47   16   46 1     
@<TRIPOS>SUBSTRUCTURE
      1 S1             1
@<TRIPOS>SET
LONE_PAIRS      STATIC     ATOMS    <user>   **** ""
5 42 43 44 45 46
DONOR_HYDROGENS      STATIC     ATOMS    <user>   **** ""
1 29
ATOM$BLUE        STATIC     ATOMS    COLORGROUP SYSTEM
5 42 43 44 45 46
ATOM$RED        STATIC     ATOMS    COLORGROUP SYSTEM
1 29
