AV-unprocessed.smi:183|AV-procd|sdf|1460|dock6
  -GOLD-   2262019273D 1   1.00000     0.00000
 Structure written by MMmdl.
 55 57  0  0  0  0  0  0  0  0  1 V2000
  151.8838  144.8503  159.5458 C   0  0  0  0  0  0  0  0  0  0  0  0
  150.7892  143.8077  159.3480 C   0  0  0  0  0  0  0  0  0  0  0  0
  149.8113  143.7894  160.0956 O   0  0  0  0  0  0  0  0  0  0  0  0
  150.9650  142.9452  158.3346 N   0  0  0  0  0  0  0  0  0  0  0  0
  150.0346  141.8786  157.9884 C   0  0  0  0  0  0  0  0  0  0  0  0
  150.6494  140.9124  156.9548 C   0  0  0  0  0  0  0  0  0  0  0  0
  149.7407  139.8374  156.5449 N   0  0  0  0  0  0  0  0  0  0  0  0
  149.7489  138.8214  157.4441 C   0  0  0  0  0  0  0  0  0  0  0  0
  150.9605  138.3264  157.8023 N   0  0  0  0  0  0  0  0  0  0  0  0
  151.0418  137.3009  158.6543 C   0  0  0  0  0  0  0  0  0  0  0  0
  150.0539  136.6267  159.2453 N   0  0  0  0  0  0  0  0  0  0  0  0
  148.8334  137.1131  158.8801 C   0  0  0  0  0  0  0  0  0  0  0  0
  148.5900  138.2062  158.0009 C   0  0  0  0  0  0  0  0  0  0  0  0
  147.2212  138.4146  157.8765 N   0  0  0  0  0  0  0  0  0  0  0  0
  146.6875  137.4963  158.6337 C   0  0  0  0  0  0  0  0  0  0  0  0
  147.5825  136.6577  159.2582 N   0  0  0  0  0  0  0  0  0  0  0  0
  147.2628  135.5422  160.1344 C   0  0  0  0  0  0  0  0  0  0  0  0
  146.3015  135.9103  161.2993 C   0  0  2  0  0  0  0  0  0  0  0  0
  145.0226  136.2232  160.7810 O   0  0  0  0  0  0  0  0  0  0  0  0
  146.7827  137.0746  162.1574 C   0  0  0  0  0  0  0  0  0  0  0  0
  147.7490  136.3971  163.1242 C   0  0  0  0  0  0  0  0  0  0  0  0
  147.2632  135.0674  163.2862 O   0  0  0  0  0  0  0  0  0  0  0  0
  146.1864  134.8228  162.3846 C   0  0  2  0  0  0  0  0  0  0  0  0
  146.1968  133.3637  161.9050 C   0  0  0  0  0  0  0  0  0  0  0  0
  149.5911  139.5053  155.1179 C   0  0  0  0  0  0  0  0  0  0  0  0
  150.8083  138.7253  154.5847 C   0  0  0  0  0  0  0  0  0  0  0  0
  149.3844  140.7569  154.2369 C   0  0  0  0  0  0  0  0  0  0  0  0
  151.9391  145.5117  158.6808 H   0  0  0  0  0  0  0  0  0  0  0  0
  152.8527  144.3675  159.6760 H   0  0  0  0  0  0  0  0  0  0  0  0
  151.6844  145.4584  160.4290 H   0  0  0  0  0  0  0  0  0  0  0  0
  151.7968  143.0329  157.7688 H   0  0  0  0  0  0  0  0  0  0  0  0
  149.7599  141.3390  158.8948 H   0  0  0  0  0  0  0  0  0  0  0  0
  149.1159  142.3293  157.6139 H   0  0  0  0  0  0  0  0  0  0  0  0
  150.9536  141.4740  156.0697 H   0  0  0  0  0  0  0  0  0  0  0  0
  151.5732  140.4856  157.3445 H   0  0  0  0  0  0  0  0  0  0  0  0
  152.0415  136.9684  158.8915 H   0  0  0  0  0  0  0  0  0  0  0  0
  145.6179  137.3936  158.7456 H   0  0  0  0  0  0  0  0  0  0  0  0
  146.8322  134.7490  159.5223 H   0  0  0  0  0  0  0  0  0  0  0  0
  148.2001  135.1464  160.5271 H   0  0  0  0  0  0  0  0  0  0  0  0
  144.4278  135.5241  161.0047 H   0  0  0  0  0  0  0  0  0  0  0  0
  147.2330  137.8985  161.6054 H   0  0  0  0  0  0  0  0  0  0  0  0
  145.9509  137.4909  162.7286 H   0  0  0  0  0  0  0  0  0  0  0  0
  148.7520  136.3534  162.6984 H   0  0  0  0  0  0  0  0  0  0  0  0
  147.8099  136.9175  164.0802 H   0  0  0  0  0  0  0  0  0  0  0  0
  145.2710  134.9915  162.9553 H   0  0  0  0  0  0  0  0  0  0  0  0
  145.3937  133.1810  161.1905 H   0  0  0  0  0  0  0  0  0  0  0  0
  146.0553  132.6823  162.7440 H   0  0  0  0  0  0  0  0  0  0  0  0
  147.1410  133.1006  161.4282 H   0  0  0  0  0  0  0  0  0  0  0  0
  148.7171  138.8634  155.0083 H   0  0  0  0  0  0  0  0  0  0  0  0
  150.7048  138.5191  153.5192 H   0  0  0  0  0  0  0  0  0  0  0  0
  150.9248  137.7613  155.0789 H   0  0  0  0  0  0  0  0  0  0  0  0
  151.7317  139.2885  154.7239 H   0  0  0  0  0  0  0  0  0  0  0  0
  149.3170  140.4846  153.1834 H   0  0  0  0  0  0  0  0  0  0  0  0
  150.2147  141.4556  154.3438 H   0  0  0  0  0  0  0  0  0  0  0  0
  148.4668  141.2923  154.4777 H   0  0  0  0  0  0  0  0  0  0  0  0
  1  2  1  0  0  0  0
  1 28  1  0  0  0  0
  1 29  1  0  0  0  0
  1 30  1  0  0  0  0
  2  3  2  0  0  0  0
  2  4  1  0  0  0  0
  4  5  1  0  0  0  0
  4 31  1  0  0  0  0
  5  6  1  0  0  0  0
  5 32  1  0  0  0  0
  5 33  1  0  0  0  0
  6  7  1  0  0  0  0
  6 34  1  0  0  0  0
  6 35  1  0  0  0  0
  7  8  1  0  0  0  0
  7 25  1  0  0  0  0
  8 13  1  0  0  0  0
  8  9  2  0  0  0  0
  9 10  1  0  0  0  0
 10 11  2  0  0  0  0
 10 36  1  0  0  0  0
 11 12  1  0  0  0  0
 12 16  1  0  0  0  0
 12 13  2  0  0  0  0
 13 14  1  0  0  0  0
 14 15  2  0  0  0  0
 15 16  1  0  0  0  0
 15 37  1  0  0  0  0
 16 17  1  0  0  0  0
 17 18  1  0  0  0  0
 17 38  1  0  0  0  0
 17 39  1  0  0  0  0
 18 23  1  0  0  0  0
 18 19  1  0  0  0  0
 18 20  1  0  0  0  0
 19 40  1  0  0  0  0
 20 21  1  0  0  0  0
 20 41  1  0  0  0  0
 20 42  1  0  0  0  0
 21 22  1  0  0  0  0
 21 43  1  0  0  0  0
 21 44  1  0  0  0  0
 22 23  1  0  0  0  0
 23 24  1  0  0  0  0
 23 45  1  0  0  0  0
 24 46  1  0  0  0  0
 24 47  1  0  0  0  0
 24 48  1  0  0  0  0
 25 26  1  0  0  0  0
 25 27  1  0  0  0  0
 25 49  1  0  0  0  0
 26 50  1  0  0  0  0
 26 51  1  0  0  0  0
 26 52  1  0  0  0  0
 27 53  1  0  0  0  0
 27 54  1  0  0  0  0
 27 55  1  0  0  0  0
M  END
> <s_m_source_file>
AV-unprocessed.smi

> <i_m_source_file_index>
183

> <i_lp_mmshare_version>
43012

> <i_f3d_flags>
0

> <s_epik_input>
W0NIM11DKD1PKVtOSF1bQ0gyXVtDSDJdTihbQ0hdKFtDSDNdKVtDSDNdKWMobltjSF1uMSljKGMxMiluW2NIXW4yW0NIMl1bQ0BAXTMoW09IXSlbQ0gyXVtDSDJdT1tDQEhdM1tDSDNd

> <s_epik_cmdline>
J2VwaWtfcHl0aG9uJywgJy1waCcsICc3LjAnLCAnLXRuJywgJzgnLCAnLW1hJywgJzIwMCcsICctbWV0YWxfYmluZGluZycsICctaW1hZScsICc8aW5maWxlLm1hZT4nLCAnLW9tYWUnLCAnPG91dGZpbGUubWFlPic=

> <r_lp_tautomer_probability>
1

> <r_epik_Ionization_Penalty>
0.00156158

> <r_epik_Ionization_Penalty_Charging>
0

> <r_epik_Ionization_Penalty_Neutral>
0.00156158

> <r_epik_State_Penalty>
0.000865808

> <r_epik_Charging_Adjusted_Penalty>
0.000865808

> <i_epik_Tot_Q>
0

> <i_epik_Tot_abs_Q>
0

> <r_epik_Metal_State_Penalty>
-0

> <b_epik_Metal_Only>
0

> <s_lp_Force_Field>
OPLS_2005

> <r_lp_Energy>
30.6117

> <b_lp_Chiralities_Consistent>
1

> <s_lp_Variant>
AV-unprocessed.smi:183-4

> <Gold.Version>
5.8.1

> <Gold.Id.Protein>
6NUR|6NUR_protein|mol2

> <Gold.PLP.Fitness>
47.6429

> <Gold.PLP.PLP>
-44.0894

> <Gold.PLP.part.hbond>
-2.8485

> <Gold.PLP.part.metal>
0.0000

> <Gold.PLP.part.buried>
-7.7436

> <Gold.PLP.part.nonpolar>
-35.4049

> <Gold.PLP.part.repulsive>
0.2396

> <Gold.PLP.ligand.clash>
0.0000

> <Gold.PLP.ligand.torsion>
1.1757

> <Gold.PLP.Chemscore.Hbond>
1.6240

> <Gold.PLP.Chemscore.CHOScore>
0.0000

> <Gold.PLP.Chemscore.Metal>
0.0000

> <Gold.Chemscore.Hbonds>
donor molecule, donor type, donor heavy atom, donor atom, acceptor molecule, acceptor atom, score
      P1  H  6896  6907       L1    11  1.00
      P1  H  6933  6944       L1     3  0.06

> <Gold.PLP.Chemscore.Internal.Correction>
1.0328

> <Gold.Rescore>
     Score         DG    S(hbond)    S(metal)    S(lipo)     H(rot)  DE(clash)    DE(int)     intcor
     10.45     -12.12       1.74        0.00      82.40       3.45       0.07       1.59       ----

> <Gold.Chemscore.Fitness>
10.4517

> <Gold.Chemscore.DG>
-12.1184

> <Gold.Chemscore.ZeroCoef>
-5.4800

> <Gold.Chemscore.Hbond>
1.7417

> <Gold.Chemscore.Metal>
0.0000

> <Gold.Chemscore.Lipo>
82.3982

> <Gold.Chemscore.Internal_Hbond>
0.0000

> <Gold.Chemscore.DEClash>
0.0727

> <Gold.Chemscore.DEInternal>
1.5940

> <Gold.Chemscore.Rot>
3.4451

> <Gold.Chemscore.Internal.Correction>
   9.000000E+99

> <Gold.Chemscore.Hbonds>
donor molecule, donor type, donor heavy atom, donor atom, acceptor molecule, acceptor atom, score
      P1  H  6896  6907       L1    11  0.34
      P1  H  6933  6944       L1     3  0.06

> <Gold.Chemscore.Hbond.Weighted>
-5.8172

> <Gold.Chemscore.Metal.Weighted>
-0.0000

> <Gold.Chemscore.Lipo.Weighted>
-9.6406

> <Gold.Chemscore.Internal_Hbond.Weighted>
0.0000

> <Gold.Chemscore.DEClash.Weighted>
0.0727

> <Gold.Chemscore.DEInternal.Weighted>
1.5940

> <Gold.Chemscore.Rot.Weighted>
8.8194

> <Gold.Chemscore.Internal.Correction.Weighted>
   9.000000E+99

> <Gold.Protein.RotatedTorsions>
[ 6907 6896 6895 6894 ] final  -41.42 input  -60.11 | X-H torsion
[ 7974 7965 7964 7962 ] final  159.87 input  175.53 | X-H torsion
[ 8008 7997 7996 7995 ] final  124.85 input   59.86 | X-H torsion
[ 10167 10162 10161 10158 ] final   -7.83 input  -65.29 | X-H torsion
[ 10718 10713 10712 10709 ] final -115.25 input   66.30 | X-H torsion
[ 10763 10752 10751 10750 ] final   23.82 input  -60.55 | X-H torsion
[ 11005 11000 10999 10996 ] final  -90.00 input  -57.11 | X-H torsion

> <Gold.Protein.ActiveResidues>
 VAL166  LYS551  ARG553  GLY616  TRP617  ASP618  TYR619  PRO620  LYS621  CYS622 
 ASP623  PHE694  ASN695  SER759  ASP760  ASP761  ALA762  ILE779  LEU786  VAL792 
 PHE793  MET794  SER795  GLU796  ALA797  LYS798  CYS799  TRP800  GLU811  SER814 

> <Gold.Protein.RotatedAtoms>
  150.9669  134.9048  159.7764 H   0  0  0  0  0  0  0  0  0  0  0  0  # atno 6907 bound_to 6896
  152.5176  134.3595  159.9289 H   0  0  0  0  0  0  0  0  0  0  0  0  # atno 6908 bound_to 6896
  151.3605  133.3851  159.2724 H   0  0  0  0  0  0  0  0  0  0  0  0  # atno 6909 bound_to 6896
  144.7767  139.7677  143.6276 H   0  0  0  0  0  0  0  0  0  0  0  0  # atno 7974 bound_to 7965
  156.2815  140.2730  156.1854 H   0  0  0  0  0  0  0  0  0  0  0  0  # atno 8008 bound_to 7997
  155.0513  140.0386  157.2562 H   0  0  0  0  0  0  0  0  0  0  0  0  # atno 8009 bound_to 7997
  154.7193  140.2684  155.6562 H   0  0  0  0  0  0  0  0  0  0  0  0  # atno 8010 bound_to 7997
  140.7041  143.6037  150.8772 H   0  0  0  0  0  0  0  0  0  0  0  0  # atno 10167 bound_to 10162
  156.0883  130.6071  150.8881 H   0  0  0  0  0  0  0  0  0  0  0  0  # atno 10718 bound_to 10713
  153.0809  135.6618  154.0046 H   0  0  0  0  0  0  0  0  0  0  0  0  # atno 10763 bound_to 10752
  153.9668  135.2968  155.3431 H   0  0  0  0  0  0  0  0  0  0  0  0  # atno 10764 bound_to 10752
  154.7209  135.5165  153.8881 H   0  0  0  0  0  0  0  0  0  0  0  0  # atno 10765 bound_to 10752
  141.1574  133.7665  156.9675 H   0  0  0  0  0  0  0  0  0  0  0  0  # atno 11005 bound_to 11000
  146.1951  139.5212  142.9780 LP  0  0  0  0  0  0  0  0  0  0  0  0  # atno 17320 bound_to 7965
  145.6166  141.0330  143.1937 LP  0  0  0  0  0  0  0  0  0  0  0  0  # atno 17321 bound_to 7965
  139.9761  143.6003  152.2958 LP  0  0  0  0  0  0  0  0  0  0  0  0  # atno 17342 bound_to 10162
  139.6607  144.7662  151.1968 LP  0  0  0  0  0  0  0  0  0  0  0  0  # atno 17343 bound_to 10162
  157.6025  131.0940  150.8936 LP  0  0  0  0  0  0  0  0  0  0  0  0  # atno 17370 bound_to 10713
  156.9091  130.5274  149.5281 LP  0  0  0  0  0  0  0  0  0  0  0  0  # atno 17371 bound_to 10713
  140.1151  134.9452  157.2123 LP  0  0  0  0  0  0  0  0  0  0  0  0  # atno 17394 bound_to 11000
  140.3143  134.2988  155.7260 LP  0  0  0  0  0  0  0  0  0  0  0  0  # atno 17395 bound_to 11000

$$$$
