#       Name:                AV-unprocessed.smi:3161
#       Creating user name   scv26
#       Creation time:       Fri Mar 27 17:48:21 2020


#       File generated by GOLD software.
#

@<TRIPOS>MOLECULE
AV-unprocessed.smi:3161
    44    45     1
SMALL
NO_CHARGES


@<TRIPOS>ATOM
      1 ****        -3.3174   5.6177   1.6843 C.3            1 S1                 0.0000
      2 ****        -2.5399   4.5549   0.9627 C.2            1 S1                 0.0000
      3 ****        -1.8343   4.6716  -0.2687 C.2            1 S1                 0.0000
      4 ****        -1.2512   3.5420  -0.6365 N.2            1 S1                 0.0000
      5 ****        -1.5581   2.6692   0.3461 N.pl3          1 S1                 0.0000
      6 ****        -1.0793   1.3007   0.2688 C.3            1 S1                 0.0000
      7 ****         0.4580   1.1877   0.4000 C.3            1 S1                 0.0000
      8 ****         0.9935   1.8748   1.6680 C.3            1 S1                 0.0000
      9 ****         0.8938  -0.2266   0.3941 N.4            1 S1                 1.0000
     10 ****         0.8066  -0.9164  -0.9108 C.3            1 S1                 0.0000
     11 ****         1.3800  -2.3376  -0.8174 C.3            1 S1                 0.0000
     12 ****         1.4415  -3.0265  -2.1950 C.3            1 S1                 0.0000
     13 ****         1.9318  -4.4722  -2.0533 C.3            1 S1                 0.0000
     14 ****         1.0737  -5.2100  -1.0203 C.3            1 S1                 0.0000
     15 ****         1.0176  -4.4144   0.2933 C.3            1 S1                 0.0000
     16 ****         0.5339  -3.0981   0.0428 O.3            1 S1                 0.0000
     17 ****        -2.3411   3.2515   1.3203 C.2            1 S1                 0.0000
     18 ****        -2.9657   6.6182   1.4314 H              1 S1                 0.0000
     19 ****        -3.2357   5.5142   2.7665 H              1 S1                 0.0000
     20 ****        -4.3781   5.5768   1.4362 H              1 S1                 0.0000
     21 ****        -1.7303   5.5394  -0.9033 H              1 S1                 0.0000
     22 ****        -1.5659   0.7243   1.0570 H              1 S1                 0.0000
     23 ****        -1.4232   0.8844  -0.6782 H              1 S1                 0.0000
     24 ****         0.9221   1.6813  -0.4554 H              1 S1                 0.0000
     25 ****         0.7836   2.9447   1.6660 H              1 S1                 0.0000
     26 ****         2.0752   1.7615   1.7479 H              1 S1                 0.0000
     27 ****         0.5471   1.4498   2.5677 H              1 S1                 0.0000
     28 ****         1.8622  -0.2470   0.6797 H              1 S1                 0.0000
     29 ****        -0.2278  -0.9571  -1.2521 H              1 S1                 0.0000
     30 ****         1.3680  -0.3422  -1.6489 H              1 S1                 0.0000
     31 ****         2.3840  -2.2896  -0.3913 H              1 S1                 0.0000
     32 ****         0.4519  -3.0220  -2.6544 H              1 S1                 0.0000
     33 ****         2.1001  -2.4748  -2.8664 H              1 S1                 0.0000
     34 ****         1.8941  -4.9840  -3.0153 H              1 S1                 0.0000
     35 ****         2.9751  -4.4775  -1.7351 H              1 S1                 0.0000
     36 ****         0.0635  -5.3417  -1.4100 H              1 S1                 0.0000
     37 ****         1.4728  -6.2088  -0.8405 H              1 S1                 0.0000
     38 ****         0.3504  -4.9065   1.0011 H              1 S1                 0.0000
     39 ****         2.0013  -4.3684   0.7632 H              1 S1                 0.0000
     40 ****        -2.6867   2.6973   2.1807 H              1 S1                 0.0000
     41 ****         0.3509  -0.7402   1.0739 H              1 S1                 0.0000
     42 ****        -0.7059   3.3731  -1.4576 LP             1 S1                 0.0000
     43 ****        -0.3690  -3.1676  -0.3813 LP             1 S1                 0.0000
     44 ****         0.4558  -2.6176   0.9163 LP             1 S1                 0.0000
@<TRIPOS>BOND
    1    1    2 1     
    2    1   18 1     
    3    1   19 1     
    4    1   20 1     
    5    2   17 2     
    6    2    3 1     
    7    3    4 2     
    8    3   21 1     
    9    4    5 1     
   10    5    6 1     
   11    5   17 1     
   12    6    7 1     
   13    6   22 1     
   14    6   23 1     
   15    7    8 1     
   16    7    9 1     
   17    7   24 1     
   18    8   25 1     
   19    8   26 1     
   20    8   27 1     
   21    9   10 1     
   22    9   28 1     
   23    9   41 1     
   24   10   11 1     
   25   10   29 1     
   26   10   30 1     
   27   11   16 1     
   28   11   12 1     
   29   11   31 1     
   30   12   13 1     
   31   12   32 1     
   32   12   33 1     
   33   13   14 1     
   34   13   34 1     
   35   13   35 1     
   36   14   15 1     
   37   14   36 1     
   38   14   37 1     
   39   15   16 1     
   40   15   38 1     
   41   15   39 1     
   42   17   40 1     
   43    4   42 1     
   44   16   43 1     
   45   16   44 1     
@<TRIPOS>SUBSTRUCTURE
      1 S1             1
@<TRIPOS>SET
LONE_PAIRS      STATIC     ATOMS    <user>   **** ""
3 42 43 44
DONOR_HYDROGENS      STATIC     ATOMS    <user>   **** ""
2 28 41
ATOM$BLUE        STATIC     ATOMS    COLORGROUP SYSTEM
3 42 43 44
ATOM$RED        STATIC     ATOMS    COLORGROUP SYSTEM
2 28 41
