AV-unprocessed.smi:1563|AV-procd|sdf|6291|dock5
  -GOLD-   22720 6493D 1   1.00000     0.00000
 Structure written by MMmdl.
 44 45  0  0  0  0  0  0  0  0  2 V2000
  149.5738  130.9786  153.7520 C   0  0  0  0  0  0  0  0  0  0  0  0
  148.2357  131.6930  153.5981 C   0  0  0  0  0  0  0  0  0  0  0  0
  147.6667  132.1595  154.5853 O   0  0  0  0  0  0  0  0  0  0  0  0
  147.7454  131.7699  152.3514 N   0  0  0  0  0  0  0  0  0  0  0  0
  146.4895  132.4149  151.9848 C   0  0  2  0  0  0  0  0  0  0  0  0
  145.5819  131.4306  151.2171 C   0  0  0  0  0  0  0  0  0  0  0  0
  144.3112  132.1233  150.6842 C   0  0  0  0  0  0  0  0  0  0  0  0
  144.6624  133.4191  149.9293 C   0  0  0  0  0  0  0  0  0  0  0  0
  145.4502  134.2834  150.8230 N   0  0  0  0  0  0  0  0  0  0  0  0
  145.0042  135.3841  151.4767 C   0  0  0  0  0  0  0  0  0  0  0  0
  143.8088  135.6485  151.6126 O   0  0  0  0  0  0  0  0  0  0  0  0
  145.9722  136.2244  151.8849 N   0  0  0  0  0  0  0  0  0  0  0  0
  145.7578  137.5689  152.4167 C   0  0  0  0  0  0  0  0  0  0  0  0
  146.5635  138.6387  151.6487 C   0  0  0  0  0  0  0  0  0  0  0  0
  147.4854  139.4676  152.5289 C   0  0  0  0  0  0  0  0  0  0  0  0
  147.1933  140.8062  152.8728 C   0  0  0  0  0  0  0  0  0  0  0  0
  148.0677  141.5039  153.7316 C   0  0  0  0  0  0  0  0  0  0  0  0
  149.2140  140.8505  154.2288 C   0  0  0  0  0  0  0  0  0  0  0  0
  149.4614  139.5162  153.8477 C   0  0  0  0  0  0  0  0  0  0  0  0
  148.6021  138.8822  153.0196 N   0  3  0  0  0  0  0  0  0  0  0  0
  146.7493  133.6786  151.1371 C   0  0  0  0  0  0  0  0  0  0  0  0
  150.3347  131.4576  153.1350 H   0  0  0  0  0  0  0  0  0  0  0  0
  149.4858  129.9358  153.4463 H   0  0  0  0  0  0  0  0  0  0  0  0
  149.9106  131.0037  154.7890 H   0  0  0  0  0  0  0  0  0  0  0  0
  148.2835  131.3574  151.6029 H   0  0  0  0  0  0  0  0  0  0  0  0
  145.9624  132.7091  152.8939 H   0  0  0  0  0  0  0  0  0  0  0  0
  146.1338  131.0122  150.3741 H   0  0  0  0  0  0  0  0  0  0  0  0
  145.3090  130.5893  151.8552 H   0  0  0  0  0  0  0  0  0  0  0  0
  143.7615  131.4443  150.0319 H   0  0  0  0  0  0  0  0  0  0  0  0
  143.6471  132.3575  151.5171 H   0  0  0  0  0  0  0  0  0  0  0  0
  145.2560  133.1832  149.0449 H   0  0  0  0  0  0  0  0  0  0  0  0
  143.7590  133.8959  149.5484 H   0  0  0  0  0  0  0  0  0  0  0  0
  146.9305  135.9413  151.7387 H   0  0  0  0  0  0  0  0  0  0  0  0
  144.6957  137.8187  152.3993 H   0  0  0  0  0  0  0  0  0  0  0  0
  146.0499  137.5745  153.4667 H   0  0  0  0  0  0  0  0  0  0  0  0
  147.1552  138.1620  150.8664 H   0  0  0  0  0  0  0  0  0  0  0  0
  145.8735  139.3107  151.1368 H   0  0  0  0  0  0  0  0  0  0  0  0
  146.3029  141.2889  152.4970 H   0  0  0  0  0  0  0  0  0  0  0  0
  147.8561  142.5248  154.0145 H   0  0  0  0  0  0  0  0  0  0  0  0
  149.8905  141.3635  154.8970 H   0  0  0  0  0  0  0  0  0  0  0  0
  150.3100  138.9383  154.1839 H   0  0  0  0  0  0  0  0  0  0  0  0
  147.4132  134.3626  151.6682 H   0  0  0  0  0  0  0  0  0  0  0  0
  147.2687  133.4207  150.2127 H   0  0  0  0  0  0  0  0  0  0  0  0
  148.7944  137.9121  152.7691 H   0  0  0  0  0  0  0  0  0  0  0  0
  1  2  1  0  0  0  0
  1 22  1  0  0  0  0
  1 23  1  0  0  0  0
  1 24  1  0  0  0  0
  2  3  2  0  0  0  0
  2  4  1  0  0  0  0
  4  5  1  0  0  0  0
  4 25  1  0  0  0  0
  5 21  1  0  0  0  0
  5  6  1  0  0  0  0
  5 26  1  0  0  0  0
  6  7  1  0  0  0  0
  6 27  1  0  0  0  0
  6 28  1  0  0  0  0
  7  8  1  0  0  0  0
  7 29  1  0  0  0  0
  7 30  1  0  0  0  0
  8  9  1  0  0  0  0
  8 31  1  0  0  0  0
  8 32  1  0  0  0  0
  9 10  1  0  0  0  0
  9 21  1  0  0  0  0
 10 11  2  0  0  0  0
 10 12  1  0  0  0  0
 12 13  1  0  0  0  0
 12 33  1  0  0  0  0
 13 14  1  0  0  0  0
 13 34  1  0  0  0  0
 13 35  1  0  0  0  0
 14 15  1  0  0  0  0
 14 36  1  0  0  0  0
 14 37  1  0  0  0  0
 15 20  1  0  0  0  0
 15 16  2  0  0  0  0
 16 17  1  0  0  0  0
 16 38  1  0  0  0  0
 17 18  2  0  0  0  0
 17 39  1  0  0  0  0
 18 19  1  0  0  0  0
 18 40  1  0  0  0  0
 19 20  2  0  0  0  0
 19 41  1  0  0  0  0
 20 44  1  0  0  0  0
 21 42  1  0  0  0  0
 21 43  1  0  0  0  0
M  CHG  1  20   1
M  END
> <s_m_source_file>
AV-unprocessed.smi

> <i_m_source_file_index>
1563

> <i_lp_mmshare_version>
43012

> <i_f3d_flags>
0

> <s_epik_input>
W0NIM11DKD1PKVtOSF1bQ0BASF0xW0NIMl1bQ0gyXVtDSDJdTihbQ0gyXTEpQyg9TylbTkhdW0NIMl1bQ0gyXWMyW2NIXVtjSF1bY0hdW2NIXW4y

> <s_epik_cmdline>
J2VwaWtfcHl0aG9uJywgJy1waCcsICc3LjAnLCAnLXRuJywgJzgnLCAnLW1hJywgJzIwMCcsICctbWV0YWxfYmluZGluZycsICctaW1hZScsICc8aW5maWxlLm1hZT4nLCAnLW9tYWUnLCAnPG91dGZpbGUubWFlPic=

> <r_epik_Ionization_Penalty>
1.56048

> <r_epik_Ionization_Penalty_Charging>
1.56043

> <r_epik_Ionization_Penalty_Neutral>
4.90601e-05

> <r_epik_State_Penalty>
1.65539

> <r_epik_Charging_Adjusted_Penalty>
3.21583

> <i_epik_Tot_Q>
1

> <i_epik_Tot_abs_Q>
1

> <r_epik_Metal_State_Penalty>
1.6969

> <b_epik_Metal_Only>
0

> <s_lp_Force_Field>
OPLS_2005

> <r_lp_Energy>
29.9669

> <b_lp_Chiralities_Consistent>
1

> <s_lp_Variant>
AV-unprocessed.smi:1563-3

> <Gold.Version>
5.8.1

> <Gold.Id.Protein>
6NUR|6NUR_protein|mol2

> <Gold.PLP.Fitness>
53.3303

> <Gold.PLP.PLP>
-42.8958

> <Gold.PLP.part.hbond>
-4.0000

> <Gold.PLP.part.metal>
0.0000

> <Gold.PLP.part.buried>
-1.8653

> <Gold.PLP.part.nonpolar>
-37.0242

> <Gold.PLP.part.repulsive>
0.2981

> <Gold.PLP.ligand.clash>
0.0000

> <Gold.PLP.ligand.torsion>
0.8229

> <Gold.PLP.Chemscore.Hbond>
3.9913

> <Gold.PLP.Chemscore.CHOScore>
0.0000

> <Gold.PLP.Chemscore.Metal>
0.0000

> <Gold.Chemscore.Hbonds>
donor molecule, donor type, donor heavy atom, donor atom, acceptor molecule, acceptor atom, score
      L1  H     4    25       P1 10747  1.00
      L1  H    12    33       P1  7948  1.00
      L1  H    20    44       P1  7948  2.00

> <Gold.PLP.Chemscore.Internal.Correction>
0.1066

> <Gold.Rescore>
     Score         DG    S(hbond)    S(metal)    S(lipo)     H(rot)  DE(clash)    DE(int)     intcor
     19.76     -22.29       2.96        0.00      97.77       1.77       1.69       0.84       ----

> <Gold.Chemscore.Fitness>
19.7633

> <Gold.Chemscore.DG>
-22.2935

> <Gold.Chemscore.ZeroCoef>
-5.4800

> <Gold.Chemscore.Hbond>
2.9626

> <Gold.Chemscore.Metal>
0.0000

> <Gold.Chemscore.Lipo>
97.7728

> <Gold.Chemscore.Internal_Hbond>
0.0000

> <Gold.Chemscore.DEClash>
1.6865

> <Gold.Chemscore.DEInternal>
0.8437

> <Gold.Chemscore.Rot>
1.7661

> <Gold.Chemscore.Internal.Correction>
   9.000000E+99

> <Gold.Chemscore.Hbonds>
donor molecule, donor type, donor heavy atom, donor atom, acceptor molecule, acceptor atom, score
      L1  H     4    25       P1 10747  0.97
      L1  H    12    33       P1  7948  0.92
      L1  H    20    44       P1  7948  1.00

> <Gold.Chemscore.Hbond.Weighted>
-9.8952

> <Gold.Chemscore.Metal.Weighted>
-0.0000

> <Gold.Chemscore.Lipo.Weighted>
-11.4394

> <Gold.Chemscore.Internal_Hbond.Weighted>
0.0000

> <Gold.Chemscore.DEClash.Weighted>
1.6865

> <Gold.Chemscore.DEInternal.Weighted>
0.8437

> <Gold.Chemscore.Rot.Weighted>
4.5211

> <Gold.Chemscore.Internal.Correction.Weighted>
   9.000000E+99

> <Gold.Protein.RotatedTorsions>
[ 6907 6896 6895 6894 ] final   64.86 input  -60.11 | X-H torsion
[ 7974 7965 7964 7962 ] final   16.36 input  175.53 | X-H torsion
[ 8008 7997 7996 7995 ] final   75.56 input   59.86 | X-H torsion
[ 10167 10162 10161 10158 ] final -106.29 input  -65.29 | X-H torsion
[ 10718 10713 10712 10709 ] final -152.57 input   66.30 | X-H torsion
[ 10763 10752 10751 10750 ] final  143.69 input  -60.55 | X-H torsion
[ 11005 11000 10999 10996 ] final -129.88 input  -57.11 | X-H torsion

> <Gold.Protein.ActiveResidues>
 VAL166  LYS551  ARG553  GLY616  TRP617  ASP618  TYR619  PRO620  LYS621  CYS622 
 ASP623  PHE694  ASN695  SER759  ASP760  ASP761  ALA762  ILE779  LEU786  VAL792 
 PHE793  MET794  SER795  GLU796  ALA797  LYS798  CYS799  TRP800  GLU811  SER814 

> <Gold.Protein.RotatedAtoms>
  152.4364  134.5679  159.9912 H   0  0  0  0  0  0  0  0  0  0  0  0  # atno 6907 bound_to 6896
  151.5788  133.3374  159.3012 H   0  0  0  0  0  0  0  0  0  0  0  0  # atno 6908 bound_to 6896
  150.8263  134.7529  159.6879 H   0  0  0  0  0  0  0  0  0  0  0  0  # atno 6909 bound_to 6896
  146.2252  139.8760  142.8579 H   0  0  0  0  0  0  0  0  0  0  0  0  # atno 7974 bound_to 7965
  155.8147  140.3472  155.5478 H   0  0  0  0  0  0  0  0  0  0  0  0  # atno 8008 bound_to 7997
  155.8404  140.0940  157.1758 H   0  0  0  0  0  0  0  0  0  0  0  0  # atno 8009 bound_to 7997
  154.4005  140.1395  156.3709 H   0  0  0  0  0  0  0  0  0  0  0  0  # atno 8010 bound_to 7997
  140.1893  143.3904  152.1219 H   0  0  0  0  0  0  0  0  0  0  0  0  # atno 10167 bound_to 10162
  156.4742  130.8273  151.2501 H   0  0  0  0  0  0  0  0  0  0  0  0  # atno 10718 bound_to 10713
  153.9765  135.2945  155.3423 H   0  0  0  0  0  0  0  0  0  0  0  0  # atno 10763 bound_to 10752
  154.7293  135.5075  153.8940 H   0  0  0  0  0  0  0  0  0  0  0  0  # atno 10764 bound_to 10752
  153.0875  135.6697  154.0034 H   0  0  0  0  0  0  0  0  0  0  0  0  # atno 10765 bound_to 10752
  140.9394  134.1213  157.4164 H   0  0  0  0  0  0  0  0  0  0  0  0  # atno 11005 bound_to 11000
  145.2561  141.0061  143.3853 LP  0  0  0  0  0  0  0  0  0  0  0  0  # atno 17320 bound_to 7965
  144.9336  139.4270  143.6483 LP  0  0  0  0  0  0  0  0  0  0  0  0  # atno 17321 bound_to 7965
  139.5263  144.7105  151.5219 LP  0  0  0  0  0  0  0  0  0  0  0  0  # atno 17342 bound_to 10162
  140.6467  143.8781  150.6744 LP  0  0  0  0  0  0  0  0  0  0  0  0  # atno 17343 bound_to 10162
  157.7489  131.0066  150.3158 LP  0  0  0  0  0  0  0  0  0  0  0  0  # atno 17370 bound_to 10713
  156.3587  130.3843  149.7269 LP  0  0  0  0  0  0  0  0  0  0  0  0  # atno 17371 bound_to 10713
  139.8816  135.0031  156.6169 LP  0  0  0  0  0  0  0  0  0  0  0  0  # atno 17394 bound_to 11000
  140.7755  133.8703  155.8525 LP  0  0  0  0  0  0  0  0  0  0  0  0  # atno 17395 bound_to 11000

$$$$
