AV-unprocessed.smi:3129|AV-procd|sdf|11922|dock8
  -GOLD-   2272017303D 1   1.00000     0.00000
 Structure written by MMmdl.
 40 40  0  0  0  0  0  0  0  0  2 V2000
  144.7019  134.3613  150.3863 C   0  0  0  0  0  0  0  0  0  0  0  0
  145.9421  133.6156  150.8986 C   0  0  0  0  0  0  0  0  0  0  0  0
  145.7683  132.0952  150.7389 C   0  0  0  0  0  0  0  0  0  0  0  0
  146.2665  134.0287  152.3518 C   0  0  0  0  0  0  0  0  0  0  0  0
  146.5775  135.4488  152.4856 N   0  0  0  0  0  0  0  0  0  0  0  0
  145.7687  136.3665  153.0363 C   0  0  0  0  0  0  0  0  0  0  0  0
  144.6686  136.0959  153.5195 O   0  0  0  0  0  0  0  0  0  0  0  0
  146.2697  137.8163  153.0376 C   0  0  2  0  0  0  0  0  0  0  0  0
  146.5679  138.2754  151.6023 C   0  0  0  0  0  0  0  0  0  0  0  0
  147.4874  137.9326  153.8680 N   0  3  0  0  0  0  0  0  0  0  0  0
  147.7802  139.2989  154.3554 C   0  0  0  0  0  0  0  0  0  0  0  0
  149.0892  139.8349  153.7554 C   0  0  0  0  0  0  0  0  0  0  0  0
  150.2553  139.2783  154.4189 N   0  0  0  0  0  0  0  0  0  0  0  0
  150.5972  137.9531  154.5888 C   0  0  0  0  0  0  0  0  0  0  0  0
  151.7739  137.9228  155.2803 C   0  0  0  0  0  0  0  0  0  0  0  0
  152.0828  139.2965  155.4836 C   0  0  0  0  0  0  0  0  0  0  0  0
  151.1739  140.1050  154.9637 N   0  0  0  0  0  0  0  0  0  0  0  0
  143.8156  134.1038  150.9669 H   0  0  0  0  0  0  0  0  0  0  0  0
  144.4994  134.1167  149.3432 H   0  0  0  0  0  0  0  0  0  0  0  0
  144.8389  135.4412  150.4489 H   0  0  0  0  0  0  0  0  0  0  0  0
  146.7761  133.9177  150.2648 H   0  0  0  0  0  0  0  0  0  0  0  0
  144.9581  131.7212  151.3656 H   0  0  0  0  0  0  0  0  0  0  0  0
  146.6761  131.5556  151.0086 H   0  0  0  0  0  0  0  0  0  0  0  0
  145.5367  131.8351  149.7057 H   0  0  0  0  0  0  0  0  0  0  0  0
  145.4343  133.7783  153.0120 H   0  0  0  0  0  0  0  0  0  0  0  0
  147.1254  133.4631  152.7145 H   0  0  0  0  0  0  0  0  0  0  0  0
  147.4665  135.7547  152.1168 H   0  0  0  0  0  0  0  0  0  0  0  0
  145.5020  138.4737  153.4503 H   0  0  0  0  0  0  0  0  0  0  0  0
  145.6799  138.2062  150.9726 H   0  0  0  0  0  0  0  0  0  0  0  0
  147.3511  137.6727  151.1400 H   0  0  0  0  0  0  0  0  0  0  0  0
  146.8978  139.3146  151.5858 H   0  0  0  0  0  0  0  0  0  0  0  0
  147.3638  137.3244  154.6653 H   0  0  0  0  0  0  0  0  0  0  0  0
  146.9451  139.9470  154.0889 H   0  0  0  0  0  0  0  0  0  0  0  0
  147.8469  139.3165  155.4442 H   0  0  0  0  0  0  0  0  0  0  0  0
  149.1453  139.6108  152.6893 H   0  0  0  0  0  0  0  0  0  0  0  0
  149.1285  140.9205  153.8523 H   0  0  0  0  0  0  0  0  0  0  0  0
  149.9801  137.1504  154.2127 H   0  0  0  0  0  0  0  0  0  0  0  0
  152.3309  137.0518  155.5923 H   0  0  0  0  0  0  0  0  0  0  0  0
  152.9334  139.7278  155.9905 H   0  0  0  0  0  0  0  0  0  0  0  0
  148.2839  137.6113  153.3367 H   0  0  0  0  0  0  0  0  0  0  0  0
  1  2  1  0  0  0  0
  1 18  1  0  0  0  0
  1 19  1  0  0  0  0
  1 20  1  0  0  0  0
  2  3  1  0  0  0  0
  2  4  1  0  0  0  0
  2 21  1  0  0  0  0
  3 22  1  0  0  0  0
  3 23  1  0  0  0  0
  3 24  1  0  0  0  0
  4  5  1  0  0  0  0
  4 25  1  0  0  0  0
  4 26  1  0  0  0  0
  5  6  1  0  0  0  0
  5 27  1  0  0  0  0
  6  7  2  0  0  0  0
  6  8  1  0  0  0  0
  8  9  1  0  0  0  0
  8 10  1  0  0  0  0
  8 28  1  0  0  0  0
  9 29  1  0  0  0  0
  9 30  1  0  0  0  0
  9 31  1  0  0  0  0
 10 11  1  0  0  0  0
 10 32  1  0  0  0  0
 10 40  1  0  0  0  0
 11 12  1  0  0  0  0
 11 33  1  0  0  0  0
 11 34  1  0  0  0  0
 12 13  1  0  0  0  0
 12 35  1  0  0  0  0
 12 36  1  0  0  0  0
 13 17  1  0  0  0  0
 13 14  1  0  0  0  0
 14 15  2  0  0  0  0
 14 37  1  0  0  0  0
 15 16  1  0  0  0  0
 15 38  1  0  0  0  0
 16 17  2  0  0  0  0
 16 39  1  0  0  0  0
M  CHG  1  10   1
M  END
> <s_m_source_file>
AV-unprocessed.smi

> <i_m_source_file_index>
3129

> <i_lp_mmshare_version>
43012

> <i_f3d_flags>
0

> <s_epik_input>
W0NIM11bQ0hdKFtDSDNdKVtDSDJdW05IXUMoPU8pW0NASF0oW0NIM10pW05IXVtDSDJdW0NIMl1uMVtjSF1bY0hdW2NIXW4x

> <s_epik_cmdline>
J2VwaWtfcHl0aG9uJywgJy1waCcsICc3LjAnLCAnLXRuJywgJzgnLCAnLW1hJywgJzIwMCcsICctbWV0YWxfYmluZGluZycsICctaW1hZScsICc8aW5maWxlLm1hZT4nLCAnLW9tYWUnLCAnPG91dGZpbGUubWFlPic=

> <r_lp_tautomer_probability>
1

> <r_epik_Ionization_Penalty>
0.20724

> <r_epik_Ionization_Penalty_Charging>
0.207237

> <r_epik_Ionization_Penalty_Neutral>
3.32432e-06

> <r_epik_State_Penalty>
0.197234

> <r_epik_Charging_Adjusted_Penalty>
0.404471

> <i_epik_Tot_Q>
1

> <i_epik_Tot_abs_Q>
1

> <r_epik_Metal_State_Penalty>
0.197522

> <b_epik_Metal_Only>
0

> <s_lp_Force_Field>
OPLS_2005

> <r_lp_Energy>
5.48994

> <b_lp_Chiralities_Consistent>
1

> <s_lp_Variant>
AV-unprocessed.smi:3129-1

> <Gold.Version>
5.8.1

> <Gold.Id.Protein>
6NUR|6NUR_protein|mol2

> <Gold.PLP.Fitness>
43.5574

> <Gold.PLP.PLP>
-30.0690

> <Gold.PLP.part.hbond>
-3.0000

> <Gold.PLP.part.metal>
0.0000

> <Gold.PLP.part.buried>
1.1294

> <Gold.PLP.part.nonpolar>
-29.2809

> <Gold.PLP.part.repulsive>
0.1373

> <Gold.PLP.ligand.clash>
0.0000

> <Gold.PLP.ligand.torsion>
0.7675

> <Gold.PLP.Chemscore.Hbond>
3.9520

> <Gold.PLP.Chemscore.CHOScore>
1.0000

> <Gold.PLP.Chemscore.Metal>
0.0000

> <Gold.Chemscore.Hbonds>
donor molecule, donor type, donor heavy atom, donor atom, acceptor molecule, acceptor atom, score
      L1  H     5    27       P1  7948  1.00
      L1  H    10    40       P1  7948  1.42
      P1  H  7989  7998       L1    17  0.85
      L1  C    14    37       P1  7948  0.60

> <Gold.PLP.Chemscore.Internal.Correction>
0.1675

> <Gold.Rescore>
     Score         DG    S(hbond)    S(metal)    S(lipo)     H(rot)  DE(clash)    DE(int)     intcor
     15.43     -18.01       2.73        0.00      77.84       2.22       1.85       0.74       ----

> <Gold.Chemscore.Fitness>
15.4275

> <Gold.Chemscore.DG>
-18.0107

> <Gold.Chemscore.ZeroCoef>
-5.4800

> <Gold.Chemscore.Hbond>
2.7303

> <Gold.Chemscore.Metal>
0.0000

> <Gold.Chemscore.Lipo>
77.8398

> <Gold.Chemscore.Internal_Hbond>
0.0000

> <Gold.Chemscore.DEClash>
1.8458

> <Gold.Chemscore.DEInternal>
0.7374

> <Gold.Chemscore.Rot>
2.2249

> <Gold.Chemscore.Internal.Correction>
   9.000000E+99

> <Gold.Chemscore.Hbonds>
donor molecule, donor type, donor heavy atom, donor atom, acceptor molecule, acceptor atom, score
      L1  H     5    27       P1  7948  0.96
      L1  H    10    40       P1  7948  0.69
      P1  H  7989  7998       L1    17  0.13

> <Gold.Chemscore.Hbond.Weighted>
-9.1192

> <Gold.Chemscore.Metal.Weighted>
-0.0000

> <Gold.Chemscore.Lipo.Weighted>
-9.1073

> <Gold.Chemscore.Internal_Hbond.Weighted>
0.0000

> <Gold.Chemscore.DEClash.Weighted>
1.8458

> <Gold.Chemscore.DEInternal.Weighted>
0.7374

> <Gold.Chemscore.Rot.Weighted>
5.6957

> <Gold.Chemscore.Internal.Correction.Weighted>
   9.000000E+99

> <Gold.Protein.RotatedTorsions>
[ 6907 6896 6895 6894 ] final  -50.29 input  -60.11 | X-H torsion
[ 7974 7965 7964 7962 ] final  170.62 input  175.53 | X-H torsion
[ 8008 7997 7996 7995 ] final  156.42 input   59.86 | X-H torsion
[ 10167 10162 10161 10158 ] final  162.89 input  -65.29 | X-H torsion
[ 10718 10713 10712 10709 ] final -156.33 input   66.30 | X-H torsion
[ 10763 10752 10751 10750 ] final  -67.78 input  -60.55 | X-H torsion
[ 11005 11000 10999 10996 ] final -105.59 input  -57.11 | X-H torsion

> <Gold.Protein.ActiveResidues>
 VAL166  LYS551  ARG553  GLY616  TRP617  ASP618  TYR619  PRO620  LYS621  CYS622 
 ASP623  PHE694  ASN695  SER759  ASP760  ASP761  ALA762  ILE779  LEU786  VAL792 
 PHE793  MET794  SER795  GLU796  ALA797  LYS798  CYS799  TRP800  GLU811  SER814 

> <Gold.Protein.RotatedAtoms>
  150.8721  134.8097  159.7162 H   0  0  0  0  0  0  0  0  0  0  0  0  # atno 6907 bound_to 6896
  152.4722  134.4929  159.9711 H   0  0  0  0  0  0  0  0  0  0  0  0  # atno 6908 bound_to 6896
  151.5016  133.3464  159.2905 H   0  0  0  0  0  0  0  0  0  0  0  0  # atno 6909 bound_to 6896
  144.7318  139.9230  143.6421 H   0  0  0  0  0  0  0  0  0  0  0  0  # atno 7974 bound_to 7965
  156.2423  140.1913  156.6952 H   0  0  0  0  0  0  0  0  0  0  0  0  # atno 8008 bound_to 7997
  154.6222  140.0607  156.9655 H   0  0  0  0  0  0  0  0  0  0  0  0  # atno 8009 bound_to 7997
  155.1844  140.3279  155.4372 H   0  0  0  0  0  0  0  0  0  0  0  0  # atno 8010 bound_to 7997
  139.4866  144.4392  151.8974 H   0  0  0  0  0  0  0  0  0  0  0  0  # atno 10167 bound_to 10162
  156.5251  130.8495  151.2696 H   0  0  0  0  0  0  0  0  0  0  0  0  # atno 10718 bound_to 10713
  154.3794  135.6077  153.5783 H   0  0  0  0  0  0  0  0  0  0  0  0  # atno 10763 bound_to 10752
  152.9788  135.5857  154.4428 H   0  0  0  0  0  0  0  0  0  0  0  0  # atno 10764 bound_to 10752
  154.4194  135.2845  155.1963 H   0  0  0  0  0  0  0  0  0  0  0  0  # atno 10765 bound_to 10752
  141.1046  133.8821  157.1753 H   0  0  0  0  0  0  0  0  0  0  0  0  # atno 11005 bound_to 11000
  146.0915  139.3905  143.0402 LP  0  0  0  0  0  0  0  0  0  0  0  0  # atno 17320 bound_to 7965
  145.7704  140.9899  143.1152 LP  0  0  0  0  0  0  0  0  0  0  0  0  # atno 17321 bound_to 7965
  140.3843  144.2697  150.5905 LP  0  0  0  0  0  0  0  0  0  0  0  0  # atno 17342 bound_to 10162
  140.5205  143.2267  151.8396 LP  0  0  0  0  0  0  0  0  0  0  0  0  # atno 17343 bound_to 10162
  157.7431  130.9904  150.2564 LP  0  0  0  0  0  0  0  0  0  0  0  0  # atno 17370 bound_to 10713
  156.3112  130.3772  149.7659 LP  0  0  0  0  0  0  0  0  0  0  0  0  # atno 17371 bound_to 10713
  139.9910  135.0064  156.9976 LP  0  0  0  0  0  0  0  0  0  0  0  0  # atno 17394 bound_to 11000
  140.4936  134.1168  155.7237 LP  0  0  0  0  0  0  0  0  0  0  0  0  # atno 17395 bound_to 11000

$$$$
