AV-unprocessed.smi:1154|AV-procd|sdf|4901|dock3
  -GOLD-   22720 3473D 1   1.00000     0.00000
 Structure written by MMmdl.
 42 43  0  0  0  0  0  0  0  0  2 V2000
  151.7190  145.2273  159.1395 C   0  0  0  0  0  0  0  0  0  0  0  0
  152.3359  143.8502  158.8553 C   0  0  1  0  0  0  0  0  0  0  0  0
  152.9240  143.2239  160.1307 C   0  0  0  0  0  0  0  0  0  0  0  0
  153.5203  141.8392  159.8289 C   0  0  1  0  0  0  0  0  0  0  0  0
  154.0933  141.1876  161.0955 C   0  0  0  0  0  0  0  0  0  0  0  0
  152.4641  140.9386  159.1596 C   0  0  0  0  0  0  0  0  0  0  0  0
  151.9168  141.5657  157.9286 N   0  3  1  0  0  0  0  0  0  0  0  0
  151.0050  140.6527  157.1930 C   0  0  0  0  0  0  0  0  0  0  0  0
  151.7566  139.5007  156.5061 C   0  0  0  0  0  0  0  0  0  0  0  0
  150.8209  138.4856  156.0430 N   0  0  0  0  0  0  0  0  0  0  0  0
  151.1825  137.3400  155.4451 C   0  0  0  0  0  0  0  0  0  0  0  0
  152.3532  137.0479  155.2041 O   0  0  0  0  0  0  0  0  0  0  0  0
  150.0584  136.3789  155.0485 C   0  0  0  0  0  0  0  0  0  0  0  0
  150.2496  135.0592  155.6231 N   0  0  0  0  0  0  0  0  0  0  0  0
  150.3488  133.8592  155.0479 C   0  0  0  0  0  0  0  0  0  0  0  0
  150.5054  132.8980  155.9449 N   0  0  0  0  0  0  0  0  0  0  0  0
  150.5053  133.5862  157.1467 N   0  0  0  0  0  0  0  0  0  0  0  0
  150.3559  134.8692  156.9620 N   0  0  0  0  0  0  0  0  0  0  0  0
  151.3113  142.8935  158.2158 C   0  0  0  0  0  0  0  0  0  0  0  0
  150.8947  145.1554  159.8498 H   0  0  0  0  0  0  0  0  0  0  0  0
  151.3324  145.6809  158.2263 H   0  0  0  0  0  0  0  0  0  0  0  0
  152.4594  145.9104  159.5571 H   0  0  0  0  0  0  0  0  0  0  0  0
  153.1501  143.9972  158.1439 H   0  0  0  0  0  0  0  0  0  0  0  0
  153.6925  143.8776  160.5457 H   0  0  0  0  0  0  0  0  0  0  0  0
  152.1474  143.1346  160.8922 H   0  0  0  0  0  0  0  0  0  0  0  0
  154.3450  141.9720  159.1268 H   0  0  0  0  0  0  0  0  0  0  0  0
  153.3165  141.0211  161.8423 H   0  0  0  0  0  0  0  0  0  0  0  0
  154.8602  141.8169  161.5482 H   0  0  0  0  0  0  0  0  0  0  0  0
  154.5505  140.2237  160.8700 H   0  0  0  0  0  0  0  0  0  0  0  0
  152.9210  139.9809  158.9067 H   0  0  0  0  0  0  0  0  0  0  0  0
  151.6483  140.7274  159.8532 H   0  0  0  0  0  0  0  0  0  0  0  0
  150.2926  140.2156  157.8945 H   0  0  0  0  0  0  0  0  0  0  0  0
  150.4167  141.2204  156.4703 H   0  0  0  0  0  0  0  0  0  0  0  0
  152.3274  139.8559  155.6480 H   0  0  0  0  0  0  0  0  0  0  0  0
  152.4662  139.0537  157.2047 H   0  0  0  0  0  0  0  0  0  0  0  0
  149.8378  138.6554  156.1989 H   0  0  0  0  0  0  0  0  0  0  0  0
  149.1009  136.7778  155.3856 H   0  0  0  0  0  0  0  0  0  0  0  0
  150.0058  136.2866  153.9626 H   0  0  0  0  0  0  0  0  0  0  0  0
  150.2999  133.6904  153.9824 H   0  0  0  0  0  0  0  0  0  0  0  0
  150.4510  142.7653  158.8750 H   0  0  0  0  0  0  0  0  0  0  0  0
  150.9377  143.3423  157.2963 H   0  0  0  0  0  0  0  0  0  0  0  0
  152.7080  141.7275  157.3219 H   0  0  0  0  0  0  0  0  0  0  0  0
  1  2  1  0  0  0  0
  1 20  1  0  0  0  0
  1 21  1  0  0  0  0
  1 22  1  0  0  0  0
  2 19  1  0  0  0  0
  2  3  1  0  0  0  0
  2 23  1  0  0  0  0
  3  4  1  0  0  0  0
  3 24  1  0  0  0  0
  3 25  1  0  0  0  0
  4  5  1  0  0  0  0
  4  6  1  0  0  0  0
  4 26  1  0  0  0  0
  5 27  1  0  0  0  0
  5 28  1  0  0  0  0
  5 29  1  0  0  0  0
  6  7  1  0  0  0  0
  6 30  1  0  0  0  0
  6 31  1  0  0  0  0
  7  8  1  0  0  0  0
  7 19  1  0  0  0  0
  7 42  1  0  0  0  0
  8  9  1  0  0  0  0
  8 32  1  0  0  0  0
  8 33  1  0  0  0  0
  9 10  1  0  0  0  0
  9 34  1  0  0  0  0
  9 35  1  0  0  0  0
 10 11  1  0  0  0  0
 10 36  1  0  0  0  0
 11 12  2  0  0  0  0
 11 13  1  0  0  0  0
 13 14  1  0  0  0  0
 13 37  1  0  0  0  0
 13 38  1  0  0  0  0
 14 18  1  0  0  0  0
 14 15  1  0  0  0  0
 15 16  2  0  0  0  0
 15 39  1  0  0  0  0
 16 17  1  0  0  0  0
 17 18  2  0  0  0  0
 19 40  1  0  0  0  0
 19 41  1  0  0  0  0
M  CHG  1   7   1
M  END
> <s_m_source_file>
AV-unprocessed.smi

> <i_m_source_file_index>
1154

> <i_lp_mmshare_version>
43012

> <i_f3d_flags>
0

> <s_epik_input>
W0NIM11bQ0BASF0xW0NIMl1bQ0BASF0oW0NIM10pW0NIMl1OKFtDSDJdMSlbQ0gyXVtDSDJdW05IXUMoPU8pW0NIMl1uMltjSF1ubm4y

> <s_epik_cmdline>
J2VwaWtfcHl0aG9uJywgJy1waCcsICc3LjAnLCAnLXRuJywgJzgnLCAnLW1hJywgJzIwMCcsICctbWV0YWxfYmluZGluZycsICctaW1hZScsICc8aW5maWxlLm1hZT4nLCAnLW9tYWUnLCAnPG91dGZpbGUubWFlPic=

> <r_lp_tautomer_probability>
1

> <r_epik_Ionization_Penalty>
0.00217773

> <r_epik_Ionization_Penalty_Charging>
0.00217329

> <r_epik_Ionization_Penalty_Neutral>
4.43997e-06

> <r_epik_State_Penalty>
0.00149294

> <r_epik_Charging_Adjusted_Penalty>
0.00366623

> <i_epik_Tot_Q>
1

> <i_epik_Tot_abs_Q>
1

> <r_epik_Metal_State_Penalty>
-0

> <b_epik_Metal_Only>
0

> <s_lp_Force_Field>
OPLS_2005

> <r_lp_Energy>
19.913

> <b_lp_Chiralities_Consistent>
1

> <s_lp_Variant>
AV-unprocessed.smi:1154-2

> <Gold.Version>
5.8.1

> <Gold.Id.Protein>
6NUR|6NUR_protein|mol2

> <Gold.PLP.Fitness>
43.1249

> <Gold.PLP.PLP>
-37.6544

> <Gold.PLP.part.hbond>
-2.8490

> <Gold.PLP.part.metal>
0.0000

> <Gold.PLP.part.buried>
-5.2984

> <Gold.PLP.part.nonpolar>
-30.5131

> <Gold.PLP.part.repulsive>
0.1309

> <Gold.PLP.ligand.clash>
0.0000

> <Gold.PLP.ligand.torsion>
0.1801

> <Gold.PLP.Chemscore.Hbond>
1.9200

> <Gold.PLP.Chemscore.CHOScore>
0.0000

> <Gold.PLP.Chemscore.Metal>
0.0000

> <Gold.Chemscore.Hbonds>
donor molecule, donor type, donor heavy atom, donor atom, acceptor molecule, acceptor atom, score
      P1  H  6896  6909       L1    17  0.64
      P1  H 10752 10764       L1    12  0.75

> <Gold.PLP.Chemscore.Internal.Correction>
0.0707

> <Gold.Rescore>
     Score         DG    S(hbond)    S(metal)    S(lipo)     H(rot)  DE(clash)    DE(int)     intcor
     14.78     -14.92       1.66        0.00      91.69       2.67       0.00       0.14       ----

> <Gold.Chemscore.Fitness>
14.7805

> <Gold.Chemscore.DG>
-14.9169

> <Gold.Chemscore.ZeroCoef>
-5.4800

> <Gold.Chemscore.Hbond>
1.6580

> <Gold.Chemscore.Metal>
0.0000

> <Gold.Chemscore.Lipo>
91.6912

> <Gold.Chemscore.Internal_Hbond>
0.0000

> <Gold.Chemscore.DEClash>
0.0004

> <Gold.Chemscore.DEInternal>
0.1360

> <Gold.Chemscore.Rot>
2.6674

> <Gold.Chemscore.Internal.Correction>
   9.000000E+99

> <Gold.Chemscore.Hbonds>
donor molecule, donor type, donor heavy atom, donor atom, acceptor molecule, acceptor atom, score
      P1  H  6896  6909       L1    17  0.14
      P1  H 10752 10764       L1    12  0.74

> <Gold.Chemscore.Hbond.Weighted>
-5.5377

> <Gold.Chemscore.Metal.Weighted>
-0.0000

> <Gold.Chemscore.Lipo.Weighted>
-10.7279

> <Gold.Chemscore.Internal_Hbond.Weighted>
0.0000

> <Gold.Chemscore.DEClash.Weighted>
0.0004

> <Gold.Chemscore.DEInternal.Weighted>
0.1360

> <Gold.Chemscore.Rot.Weighted>
6.8286

> <Gold.Chemscore.Internal.Correction.Weighted>
   9.000000E+99

> <Gold.Protein.RotatedTorsions>
[ 6907 6896 6895 6894 ] final  -14.32 input  -60.11 | X-H torsion
[ 7974 7965 7964 7962 ] final  -37.71 input  175.53 | X-H torsion
[ 8008 7997 7996 7995 ] final -119.33 input   59.86 | X-H torsion
[ 10167 10162 10161 10158 ] final   67.10 input  -65.29 | X-H torsion
[ 10718 10713 10712 10709 ] final   25.45 input   66.30 | X-H torsion
[ 10763 10752 10751 10750 ] final  -44.54 input  -60.55 | X-H torsion
[ 11005 11000 10999 10996 ] final -170.55 input  -57.11 | X-H torsion

> <Gold.Protein.ActiveResidues>
 VAL166  LYS551  ARG553  GLY616  TRP617  ASP618  TYR619  PRO620  LYS621  CYS622 
 ASP623  PHE694  ASN695  SER759  ASP760  ASP761  ALA762  ILE779  LEU786  VAL792 
 PHE793  MET794  SER795  GLU796  ALA797  LYS798  CYS799  TRP800  GLU811  SER814 

> <Gold.Protein.RotatedAtoms>
  151.3412  135.0864  159.9371 H   0  0  0  0  0  0  0  0  0  0  0  0  # atno 6907 bound_to 6896
  152.5211  133.9445  159.7653 H   0  0  0  0  0  0  0  0  0  0  0  0  # atno 6908 bound_to 6896
  150.9802  133.6200  159.2753 H   0  0  0  0  0  0  0  0  0  0  0  0  # atno 6909 bound_to 6896
  146.0550  140.6428  142.9024 H   0  0  0  0  0  0  0  0  0  0  0  0  # atno 7974 bound_to 7965
  155.1139  140.0397  157.2732 H   0  0  0  0  0  0  0  0  0  0  0  0  # atno 8008 bound_to 7997
  154.6664  140.2602  155.7028 H   0  0  0  0  0  0  0  0  0  0  0  0  # atno 8009 bound_to 7997
  156.2640  140.2806  156.1156 H   0  0  0  0  0  0  0  0  0  0  0  0  # atno 8010 bound_to 7997
  140.0932  144.4969  150.7085 H   0  0  0  0  0  0  0  0  0  0  0  0  # atno 10167 bound_to 10162
  157.1935  130.6857  149.6159 H   0  0  0  0  0  0  0  0  0  0  0  0  # atno 10718 bound_to 10713
  154.0137  135.6678  153.4767 H   0  0  0  0  0  0  0  0  0  0  0  0  # atno 10763 bound_to 10752
  153.0609  135.5028  154.8088 H   0  0  0  0  0  0  0  0  0  0  0  0  # atno 10764 bound_to 10752
  154.6979  135.3073  154.9348 H   0  0  0  0  0  0  0  0  0  0  0  0  # atno 10765 bound_to 10752
  140.5182  134.5735  157.5040 H   0  0  0  0  0  0  0  0  0  0  0  0  # atno 11005 bound_to 11000
  144.7143  140.4154  143.7056 LP  0  0  0  0  0  0  0  0  0  0  0  0  # atno 17320 bound_to 7965
  145.6658  139.1590  143.2782 LP  0  0  0  0  0  0  0  0  0  0  0  0  # atno 17321 bound_to 7965
  140.7017  143.2439  151.4844 LP  0  0  0  0  0  0  0  0  0  0  0  0  # atno 17342 bound_to 10162
  139.5713  144.1923  152.1840 LP  0  0  0  0  0  0  0  0  0  0  0  0  # atno 17343 bound_to 10162
  155.9709  130.4606  150.6081 LP  0  0  0  0  0  0  0  0  0  0  0  0  # atno 17370 bound_to 10713
  157.3837  131.0785  151.1454 LP  0  0  0  0  0  0  0  0  0  0  0  0  # atno 17371 bound_to 10713
  139.9620  134.7436  156.0216 LP  0  0  0  0  0  0  0  0  0  0  0  0  # atno 17394 bound_to 11000
  141.1348  133.6577  156.3564 LP  0  0  0  0  0  0  0  0  0  0  0  0  # atno 17395 bound_to 11000

$$$$
