AV-unprocessed.smi:2516|AV-procd|sdf|9898|dock8
  -GOLD-   2272013533D 1   1.00000     0.00000
 Structure written by MMmdl.
 47 48  0  0  0  0  0  0  0  0  1 V2000
  150.2247  141.9567  157.3938 C   0  0  0  0  0  0  0  0  0  0  0  0
  150.8858  141.4443  156.1090 C   0  0  0  0  0  0  0  0  0  0  0  0
  149.9082  140.8825  155.1914 N   0  0  0  0  0  0  0  0  0  0  0  0
  148.9172  141.6850  154.7325 N   0  0  0  0  0  0  0  0  0  0  0  0
  148.1886  140.9233  153.9340 C   0  0  0  0  0  0  0  0  0  0  0  0
  146.9963  141.5078  153.2330 C   0  0  0  0  0  0  0  0  0  0  0  0
  148.6968  139.5977  153.9010 C   0  0  0  0  0  0  0  0  0  0  0  0
  148.1442  138.5467  153.1274 N   0  0  0  0  0  0  0  0  0  0  0  0
  146.8402  138.2978  152.9319 C   0  0  0  0  0  0  0  0  0  0  0  0
  145.9180  138.9250  153.4530 O   0  0  0  0  0  0  0  0  0  0  0  0
  146.6620  137.2825  152.0747 N   0  0  0  0  0  0  0  0  0  0  0  0
  145.3710  136.7732  151.6134 C   0  0  2  0  0  0  0  0  0  0  0  0
  144.4654  136.5455  152.8379 C   0  0  0  0  0  0  0  0  0  0  0  0
  145.5790  135.4986  150.7542 C   0  0  0  0  0  0  0  0  0  0  0  0
  144.2504  134.9380  150.2020 C   0  0  0  0  0  0  0  0  0  0  0  0
  144.4757  133.6368  149.4153 C   0  0  0  0  0  0  0  0  0  0  0  0
  145.1191  132.6748  150.2416 O   0  0  0  0  0  0  0  0  0  0  0  0
  146.4075  133.0960  150.6717 C   0  0  0  0  0  0  0  0  0  0  0  0
  146.2899  134.3685  151.5263 C   0  0  0  0  0  0  0  0  0  0  0  0
  149.8215  139.5941  154.6836 C   0  0  0  0  0  0  0  0  0  0  0  0
  150.8262  138.5292  155.0000 C   0  0  0  0  0  0  0  0  0  0  0  0
  150.9659  142.3913  158.0643 H   0  0  0  0  0  0  0  0  0  0  0  0
  149.7236  141.1504  157.9299 H   0  0  0  0  0  0  0  0  0  0  0  0
  149.4830  142.7252  157.1739 H   0  0  0  0  0  0  0  0  0  0  0  0
  151.4138  142.2602  155.6129 H   0  0  0  0  0  0  0  0  0  0  0  0
  151.6371  140.6892  156.3386 H   0  0  0  0  0  0  0  0  0  0  0  0
  146.4491  140.7484  152.6744 H   0  0  0  0  0  0  0  0  0  0  0  0
  147.2985  142.2830  152.5285 H   0  0  0  0  0  0  0  0  0  0  0  0
  146.3032  141.9559  153.9456 H   0  0  0  0  0  0  0  0  0  0  0  0
  148.7952  138.0269  152.5571 H   0  0  0  0  0  0  0  0  0  0  0  0
  147.4839  136.8325  151.6994 H   0  0  0  0  0  0  0  0  0  0  0  0
  144.8986  137.5265  150.9800 H   0  0  0  0  0  0  0  0  0  0  0  0
  143.4480  136.2871  152.5464 H   0  0  0  0  0  0  0  0  0  0  0  0
  144.3970  137.4470  153.4480 H   0  0  0  0  0  0  0  0  0  0  0  0
  144.8477  135.7449  153.4720 H   0  0  0  0  0  0  0  0  0  0  0  0
  146.2067  135.7648  149.9017 H   0  0  0  0  0  0  0  0  0  0  0  0
  143.5609  134.7461  151.0253 H   0  0  0  0  0  0  0  0  0  0  0  0
  143.7617  135.6636  149.5516 H   0  0  0  0  0  0  0  0  0  0  0  0
  143.5201  133.2307  149.0835 H   0  0  0  0  0  0  0  0  0  0  0  0
  145.0708  133.8213  148.5196 H   0  0  0  0  0  0  0  0  0  0  0  0
  146.8612  132.2949  151.2554 H   0  0  0  0  0  0  0  0  0  0  0  0
  147.0538  133.2652  149.8089 H   0  0  0  0  0  0  0  0  0  0  0  0
  147.2890  134.6771  151.8320 H   0  0  0  0  0  0  0  0  0  0  0  0
  145.7387  134.1410  152.4396 H   0  0  0  0  0  0  0  0  0  0  0  0
  150.8707  137.7856  154.2047 H   0  0  0  0  0  0  0  0  0  0  0  0
  150.5679  138.0186  155.9277 H   0  0  0  0  0  0  0  0  0  0  0  0
  151.8293  138.9400  155.1075 H   0  0  0  0  0  0  0  0  0  0  0  0
  1  2  1  0  0  0  0
  1 22  1  0  0  0  0
  1 23  1  0  0  0  0
  1 24  1  0  0  0  0
  2  3  1  0  0  0  0
  2 25  1  0  0  0  0
  2 26  1  0  0  0  0
  3 20  1  0  0  0  0
  3  4  1  0  0  0  0
  4  5  2  0  0  0  0
  5  6  1  0  0  0  0
  5  7  1  0  0  0  0
  6 27  1  0  0  0  0
  6 28  1  0  0  0  0
  6 29  1  0  0  0  0
  7  8  1  0  0  0  0
  7 20  2  0  0  0  0
  8  9  1  0  0  0  0
  8 30  1  0  0  0  0
  9 10  2  0  0  0  0
  9 11  1  0  0  0  0
 11 12  1  0  0  0  0
 11 31  1  0  0  0  0
 12 13  1  0  0  0  0
 12 14  1  0  0  0  0
 12 32  1  0  0  0  0
 13 33  1  0  0  0  0
 13 34  1  0  0  0  0
 13 35  1  0  0  0  0
 14 19  1  0  0  0  0
 14 15  1  0  0  0  0
 14 36  1  0  0  0  0
 15 16  1  0  0  0  0
 15 37  1  0  0  0  0
 15 38  1  0  0  0  0
 16 17  1  0  0  0  0
 16 39  1  0  0  0  0
 16 40  1  0  0  0  0
 17 18  1  0  0  0  0
 18 19  1  0  0  0  0
 18 41  1  0  0  0  0
 18 42  1  0  0  0  0
 19 43  1  0  0  0  0
 19 44  1  0  0  0  0
 20 21  1  0  0  0  0
 21 45  1  0  0  0  0
 21 46  1  0  0  0  0
 21 47  1  0  0  0  0
M  END
> <s_m_source_file>
AV-unprocessed.smi

> <i_m_source_file_index>
2516

> <i_lp_mmshare_version>
43012

> <i_f3d_flags>
0

> <s_epik_input>
W0NIM11bQ0gyXW4xbmMoW0NIM10pYyhjMVtDSDNdKVtOSF1DKD1PKVtOSF1bQ0BIXShbQ0gzXSlbQ0hdMltDSDJdW0NIMl1PW0NIMl1bQ0gyXTI=

> <s_epik_cmdline>
J2VwaWtfcHl0aG9uJywgJy1waCcsICc3LjAnLCAnLXRuJywgJzgnLCAnLW1hJywgJzIwMCcsICctbWV0YWxfYmluZGluZycsICctaW1hZScsICc8aW5maWxlLm1hZT4nLCAnLW9tYWUnLCAnPG91dGZpbGUubWFlPic=

> <r_lp_tautomer_probability>
1

> <r_epik_Ionization_Penalty>
0.00383358

> <r_epik_Ionization_Penalty_Charging>
0

> <r_epik_Ionization_Penalty_Neutral>
0.00383358

> <r_epik_State_Penalty>
0.00270714

> <r_epik_Charging_Adjusted_Penalty>
0.00270714

> <i_epik_Tot_Q>
0

> <i_epik_Tot_abs_Q>
0

> <r_epik_Metal_State_Penalty>
-0

> <b_epik_Metal_Only>
0

> <s_lp_Force_Field>
OPLS_2005

> <r_lp_Energy>
15.1794

> <b_lp_Chiralities_Consistent>
1

> <s_lp_Variant>
AV-unprocessed.smi:2516-1

> <Gold.Version>
5.8.1

> <Gold.Id.Protein>
6NUR|6NUR_protein|mol2

> <Gold.PLP.Fitness>
43.4464

> <Gold.PLP.PLP>
-38.4113

> <Gold.PLP.part.hbond>
-3.0000

> <Gold.PLP.part.metal>
0.0000

> <Gold.PLP.part.buried>
-3.2502

> <Gold.PLP.part.nonpolar>
-32.7568

> <Gold.PLP.part.repulsive>
0.5406

> <Gold.PLP.ligand.clash>
0.0000

> <Gold.PLP.ligand.torsion>
0.3593

> <Gold.PLP.Chemscore.Hbond>
1.7840

> <Gold.PLP.Chemscore.CHOScore>
0.0000

> <Gold.PLP.Chemscore.Metal>
0.0000

> <Gold.Chemscore.Hbonds>
donor molecule, donor type, donor heavy atom, donor atom, acceptor molecule, acceptor atom, score
      L1  H     8    30       P1  7948  0.78
      L1  H    11    31       P1  7948  1.00

> <Gold.PLP.Chemscore.Internal.Correction>
0.4018

> <Gold.Rescore>
     Score         DG    S(hbond)    S(metal)    S(lipo)     H(rot)  DE(clash)    DE(int)     intcor
     16.77     -18.08       1.92        0.00      81.37       1.30       0.16       1.15       ----

> <Gold.Chemscore.Fitness>
16.7677

> <Gold.Chemscore.DG>
-18.0816

> <Gold.Chemscore.ZeroCoef>
-5.4800

> <Gold.Chemscore.Hbond>
1.9183

> <Gold.Chemscore.Metal>
0.0000

> <Gold.Chemscore.Lipo>
81.3666

> <Gold.Chemscore.Internal_Hbond>
0.0000

> <Gold.Chemscore.DEClash>
0.1638

> <Gold.Chemscore.DEInternal>
1.1501

> <Gold.Chemscore.Rot>
1.2990

> <Gold.Chemscore.Internal.Correction>
   9.000000E+99

> <Gold.Chemscore.Hbonds>
donor molecule, donor type, donor heavy atom, donor atom, acceptor molecule, acceptor atom, score
      L1  H     8    30       P1  7948  0.78
      L1  H    11    31       P1  7948  0.94

> <Gold.Chemscore.Hbond.Weighted>
-6.4072

> <Gold.Chemscore.Metal.Weighted>
-0.0000

> <Gold.Chemscore.Lipo.Weighted>
-9.5199

> <Gold.Chemscore.Internal_Hbond.Weighted>
0.0000

> <Gold.Chemscore.DEClash.Weighted>
0.1638

> <Gold.Chemscore.DEInternal.Weighted>
1.1501

> <Gold.Chemscore.Rot.Weighted>
3.3254

> <Gold.Chemscore.Internal.Correction.Weighted>
   9.000000E+99

> <Gold.Protein.RotatedTorsions>
[ 6907 6896 6895 6894 ] final -107.79 input  -60.11 | X-H torsion
[ 7974 7965 7964 7962 ] final  167.37 input  175.53 | X-H torsion
[ 8008 7997 7996 7995 ] final  105.89 input   59.86 | X-H torsion
[ 10167 10162 10161 10158 ] final  -27.36 input  -65.29 | X-H torsion
[ 10718 10713 10712 10709 ] final  -68.16 input   66.30 | X-H torsion
[ 10763 10752 10751 10750 ] final  157.37 input  -60.55 | X-H torsion
[ 11005 11000 10999 10996 ] final  -99.51 input  -57.11 | X-H torsion

> <Gold.Protein.ActiveResidues>
 VAL166  LYS551  ARG553  GLY616  TRP617  ASP618  TYR619  PRO620  LYS621  CYS622 
 ASP623  PHE694  ASN695  SER759  ASP760  ASP761  ALA762  ILE779  LEU786  VAL792 
 PHE793  MET794  SER795  GLU796  ALA797  LYS798  CYS799  TRP800  GLU811  SER814 

> <Gold.Protein.RotatedAtoms>
  150.7464  133.9774  159.3565 H   0  0  0  0  0  0  0  0  0  0  0  0  # atno 6907 bound_to 6896
  151.7713  135.0783  160.0369 H   0  0  0  0  0  0  0  0  0  0  0  0  # atno 6908 bound_to 6896
  152.3337  133.5950  159.5864 H   0  0  0  0  0  0  0  0  0  0  0  0  # atno 6909 bound_to 6896
  144.7427  139.8751  143.6392 H   0  0  0  0  0  0  0  0  0  0  0  0  # atno 7974 bound_to 7965
  156.1697  140.3122  155.8952 H   0  0  0  0  0  0  0  0  0  0  0  0  # atno 8008 bound_to 7997
  155.3612  140.0476  157.3063 H   0  0  0  0  0  0  0  0  0  0  0  0  # atno 8009 bound_to 7997
  154.5228  140.2204  155.8955 H   0  0  0  0  0  0  0  0  0  0  0  0  # atno 8010 bound_to 7997
  140.7278  143.4100  151.1121 H   0  0  0  0  0  0  0  0  0  0  0  0  # atno 10167 bound_to 10162
  156.0520  130.4290  150.1960 H   0  0  0  0  0  0  0  0  0  0  0  0  # atno 10718 bound_to 10713
  154.1991  135.2791  155.2996 H   0  0  0  0  0  0  0  0  0  0  0  0  # atno 10763 bound_to 10752
  154.5868  135.5572  153.7242 H   0  0  0  0  0  0  0  0  0  0  0  0  # atno 10764 bound_to 10752
  153.0092  135.6358  154.2130 H   0  0  0  0  0  0  0  0  0  0  0  0  # atno 10765 bound_to 10752
  141.1306  133.8327  157.0982 H   0  0  0  0  0  0  0  0  0  0  0  0  # atno 11005 bound_to 11000
  146.1252  139.4277  143.0203 LP  0  0  0  0  0  0  0  0  0  0  0  0  # atno 17320 bound_to 7965
  145.7245  141.0063  143.1384 LP  0  0  0  0  0  0  0  0  0  0  0  0  # atno 17321 bound_to 7965
  139.7732  143.8464  152.3124 LP  0  0  0  0  0  0  0  0  0  0  0  0  # atno 17342 bound_to 10162
  139.8389  144.7219  150.9356 LP  0  0  0  0  0  0  0  0  0  0  0  0  # atno 17343 bound_to 10162
  157.0041  130.9931  151.3383 LP  0  0  0  0  0  0  0  0  0  0  0  0  # atno 17370 bound_to 10713
  157.5455  130.8147  149.8080 LP  0  0  0  0  0  0  0  0  0  0  0  0  # atno 17371 bound_to 10713
  140.0350  134.9882  157.0853 LP  0  0  0  0  0  0  0  0  0  0  0  0  # atno 17394 bound_to 11000
  140.4225  134.1866  155.7165 LP  0  0  0  0  0  0  0  0  0  0  0  0  # atno 17395 bound_to 11000

$$$$
