AV-unprocessed.smi:2061|AV-procd|sdf|8364|dock1
  -GOLD-   2272011 33D 1   1.00000     0.00000
 Structure written by MMmdl.
 45 46  0  0  0  0  0  0  0  0  1 V2000
  143.5100  132.3474  149.1821 C   0  0  0  0  0  0  0  0  0  0  0  0
  144.5894  133.0442  149.9379 C   0  0  0  0  0  0  0  0  0  0  0  0
  144.6535  134.2600  150.5586 C   0  0  0  0  0  0  0  0  0  0  0  0
  145.9769  134.2866  151.0739 C   0  0  0  0  0  0  0  0  0  0  0  0
  146.4538  135.4084  151.7988 N   0  0  0  0  0  0  0  0  0  0  0  0
  145.7360  136.2698  152.5398 C   0  0  0  0  0  0  0  0  0  0  0  0
  144.5146  136.2262  152.6924 O   0  0  0  0  0  0  0  0  0  0  0  0
  146.5215  137.2017  153.0986 N   0  0  0  0  0  0  0  0  0  0  0  0
  146.0672  138.2988  153.9513 C   0  0  0  0  0  0  0  0  0  0  0  0
  146.8046  139.6295  153.6477 C   0  0  2  0  0  0  0  0  0  0  0  0
  147.0359  139.7218  152.1224 C   0  0  0  0  0  0  0  0  0  0  0  0
  148.0344  139.8328  154.4451 N   0  0  0  0  0  0  0  0  0  0  0  0
  148.5425  141.2051  154.3543 C   0  0  0  0  0  0  0  0  0  0  0  0
  149.8300  141.4349  155.1699 C   0  0  1  0  0  0  0  0  0  0  0  0
  149.5870  141.4849  156.6883 C   0  0  0  0  0  0  0  0  0  0  0  0
  150.8166  140.4665  154.8197 O   0  0  0  0  0  0  0  0  0  0  0  0
  150.3840  139.1123  154.9046 C   0  0  2  0  0  0  0  0  0  0  0  0
  151.5328  138.2171  154.4281 C   0  0  0  0  0  0  0  0  0  0  0  0
  149.1134  138.9224  154.0563 C   0  0  0  0  0  0  0  0  0  0  0  0
  146.6583  133.1858  150.7942 N   0  0  0  0  0  0  0  0  0  0  0  0
  145.7726  132.3843  150.0645 O   0  0  0  0  0  0  0  0  0  0  0  0
  142.5304  132.7473  149.4447 H   0  0  0  0  0  0  0  0  0  0  0  0
  143.5080  131.2795  149.4021 H   0  0  0  0  0  0  0  0  0  0  0  0
  143.6498  132.4717  148.1083 H   0  0  0  0  0  0  0  0  0  0  0  0
  143.8776  135.0080  150.6291 H   0  0  0  0  0  0  0  0  0  0  0  0
  147.4494  135.5676  151.7546 H   0  0  0  0  0  0  0  0  0  0  0  0
  147.5121  137.1620  152.9086 H   0  0  0  0  0  0  0  0  0  0  0  0
  144.9889  138.4398  153.8600 H   0  0  0  0  0  0  0  0  0  0  0  0
  146.2104  138.0032  154.9900 H   0  0  0  0  0  0  0  0  0  0  0  0
  146.1062  140.4291  153.8999 H   0  0  0  0  0  0  0  0  0  0  0  0
  146.1402  139.4393  151.5684 H   0  0  0  0  0  0  0  0  0  0  0  0
  147.8429  139.0633  151.7993 H   0  0  0  0  0  0  0  0  0  0  0  0
  147.2807  140.7349  151.8052 H   0  0  0  0  0  0  0  0  0  0  0  0
  148.7379  141.4486  153.3087 H   0  0  0  0  0  0  0  0  0  0  0  0
  147.7983  141.9185  154.7040 H   0  0  0  0  0  0  0  0  0  0  0  0
  150.2393  142.4038  154.8822 H   0  0  0  0  0  0  0  0  0  0  0  0
  148.9249  142.3113  156.9475 H   0  0  0  0  0  0  0  0  0  0  0  0
  150.5234  141.6309  157.2269 H   0  0  0  0  0  0  0  0  0  0  0  0
  149.1256  140.5706  157.0608 H   0  0  0  0  0  0  0  0  0  0  0  0
  150.1674  138.8652  155.9442 H   0  0  0  0  0  0  0  0  0  0  0  0
  151.2617  137.1630  154.4927 H   0  0  0  0  0  0  0  0  0  0  0  0
  152.4237  138.3690  155.0380 H   0  0  0  0  0  0  0  0  0  0  0  0
  151.7976  138.4323  153.3924 H   0  0  0  0  0  0  0  0  0  0  0  0
  148.7986  137.8864  154.1719 H   0  0  0  0  0  0  0  0  0  0  0  0
  149.3519  139.0634  153.0008 H   0  0  0  0  0  0  0  0  0  0  0  0
  1  2  1  0  0  0  0
  1 22  1  0  0  0  0
  1 23  1  0  0  0  0
  1 24  1  0  0  0  0
  2 21  1  0  0  0  0
  2  3  2  0  0  0  0
  3  4  1  0  0  0  0
  3 25  1  0  0  0  0
  4  5  1  0  0  0  0
  4 20  2  0  0  0  0
  5  6  1  0  0  0  0
  5 26  1  0  0  0  0
  6  7  2  0  0  0  0
  6  8  1  0  0  0  0
  8  9  1  0  0  0  0
  8 27  1  0  0  0  0
  9 10  1  0  0  0  0
  9 28  1  0  0  0  0
  9 29  1  0  0  0  0
 10 11  1  0  0  0  0
 10 12  1  0  0  0  0
 10 30  1  0  0  0  0
 11 31  1  0  0  0  0
 11 32  1  0  0  0  0
 11 33  1  0  0  0  0
 12 19  1  0  0  0  0
 12 13  1  0  0  0  0
 13 14  1  0  0  0  0
 13 34  1  0  0  0  0
 13 35  1  0  0  0  0
 14 15  1  0  0  0  0
 14 16  1  0  0  0  0
 14 36  1  0  0  0  0
 15 37  1  0  0  0  0
 15 38  1  0  0  0  0
 15 39  1  0  0  0  0
 16 17  1  0  0  0  0
 17 18  1  0  0  0  0
 17 19  1  0  0  0  0
 17 40  1  0  0  0  0
 18 41  1  0  0  0  0
 18 42  1  0  0  0  0
 18 43  1  0  0  0  0
 19 44  1  0  0  0  0
 19 45  1  0  0  0  0
 20 21  1  0  0  0  0
M  END
> <s_m_source_file>
AV-unprocessed.smi

> <i_m_source_file_index>
2061

> <i_lp_mmshare_version>
43012

> <i_f3d_flags>
0

> <s_epik_input>
W0NIM11jMVtjSF1jKG5vMSlbTkhdQyg9TylbTkhdW0NIMl1bQ0BIXShbQ0gzXSlOMltDSDJdW0NAQEhdKFtDSDNdKU9bQ0BASF0oW0NIM10pW0NIMl0y

> <s_epik_cmdline>
J2VwaWtfcHl0aG9uJywgJy1waCcsICc3LjAnLCAnLXRuJywgJzgnLCAnLW1hJywgJzIwMCcsICctbWV0YWxfYmluZGluZycsICctaW1hZScsICc8aW5maWxlLm1hZT4nLCAnLW9tYWUnLCAnPG91dGZpbGUubWFlPic=

> <r_epik_Ionization_Penalty>
0.214073

> <r_epik_Ionization_Penalty_Charging>
0

> <r_epik_Ionization_Penalty_Neutral>
0.214073

> <r_epik_State_Penalty>
0.204211

> <r_epik_Charging_Adjusted_Penalty>
0.204211

> <i_epik_Tot_Q>
0

> <i_epik_Tot_abs_Q>
0

> <r_epik_Metal_State_Penalty>
0.217067

> <b_epik_Metal_Only>
0

> <s_lp_Force_Field>
OPLS_2005

> <r_lp_Energy>
31.479

> <b_lp_Chiralities_Consistent>
1

> <s_lp_Variant>
AV-unprocessed.smi:2061-5

> <Gold.Version>
5.8.1

> <Gold.Id.Protein>
6NUR|6NUR_protein|mol2

> <Gold.PLP.Fitness>
42.1550

> <Gold.PLP.PLP>
-34.8101

> <Gold.PLP.part.hbond>
-3.0000

> <Gold.PLP.part.metal>
0.0000

> <Gold.PLP.part.buried>
-1.0134

> <Gold.PLP.part.nonpolar>
-31.7808

> <Gold.PLP.part.repulsive>
0.7599

> <Gold.PLP.ligand.clash>
0.0000

> <Gold.PLP.ligand.torsion>
0.6964

> <Gold.PLP.Chemscore.Hbond>
2.8960

> <Gold.PLP.Chemscore.CHOScore>
0.0000

> <Gold.PLP.Chemscore.Metal>
0.0000

> <Gold.Chemscore.Hbonds>
donor molecule, donor type, donor heavy atom, donor atom, acceptor molecule, acceptor atom, score
      L1  H     5    26       P1  7948  1.00
      L1  H     8    27       P1  7948  0.90
      P1  H  7989  7998       L1    16  1.00

> <Gold.PLP.Chemscore.Internal.Correction>
0.0498

> <Gold.Rescore>
     Score         DG    S(hbond)    S(metal)    S(lipo)     H(rot)  DE(clash)    DE(int)     intcor
     18.56     -21.37       2.75        0.00      91.02       1.55       0.84       1.97       ----

> <Gold.Chemscore.Fitness>
18.5602

> <Gold.Chemscore.DG>
-21.3677

> <Gold.Chemscore.ZeroCoef>
-5.4800

> <Gold.Chemscore.Hbond>
2.7542

> <Gold.Chemscore.Metal>
0.0000

> <Gold.Chemscore.Lipo>
91.0238

> <Gold.Chemscore.Internal_Hbond>
0.0000

> <Gold.Chemscore.DEClash>
0.8363

> <Gold.Chemscore.DEInternal>
1.9712

> <Gold.Chemscore.Rot>
1.5474

> <Gold.Chemscore.Internal.Correction>
   9.000000E+99

> <Gold.Chemscore.Hbonds>
donor molecule, donor type, donor heavy atom, donor atom, acceptor molecule, acceptor atom, score
      L1  H     5    26       P1  7948  0.98
      L1  H     8    27       P1  7948  0.85
      P1  H  7989  7998       L1    16  0.75

> <Gold.Chemscore.Hbond.Weighted>
-9.1992

> <Gold.Chemscore.Metal.Weighted>
-0.0000

> <Gold.Chemscore.Lipo.Weighted>
-10.6498

> <Gold.Chemscore.Internal_Hbond.Weighted>
0.0000

> <Gold.Chemscore.DEClash.Weighted>
0.8363

> <Gold.Chemscore.DEInternal.Weighted>
1.9712

> <Gold.Chemscore.Rot.Weighted>
3.9612

> <Gold.Chemscore.Internal.Correction.Weighted>
   9.000000E+99

> <Gold.Protein.RotatedTorsions>
[ 6907 6896 6895 6894 ] final   69.91 input  -60.11 | X-H torsion
[ 7974 7965 7964 7962 ] final   45.49 input  175.53 | X-H torsion
[ 8008 7997 7996 7995 ] final  -32.68 input   59.86 | X-H torsion
[ 10167 10162 10161 10158 ] final -141.57 input  -65.29 | X-H torsion
[ 10718 10713 10712 10709 ] final   32.64 input   66.30 | X-H torsion
[ 10763 10752 10751 10750 ] final  120.57 input  -60.55 | X-H torsion
[ 11005 11000 10999 10996 ] final  -23.29 input  -57.11 | X-H torsion

> <Gold.Protein.ActiveResidues>
 VAL166  LYS551  ARG553  GLY616  TRP617  ASP618  TYR619  PRO620  LYS621  CYS622 
 ASP623  PHE694  ASN695  SER759  ASP760  ASP761  ALA762  ILE779  LEU786  VAL792 
 PHE793  MET794  SER795  GLU796  ALA797  LYS798  CYS799  TRP800  GLU811  SER814 

> <Gold.Protein.RotatedAtoms>
  152.4716  134.4947  159.9705 H   0  0  0  0  0  0  0  0  0  0  0  0  # atno 6907 bound_to 6896
  151.4972  133.3506  159.2871 H   0  0  0  0  0  0  0  0  0  0  0  0  # atno 6908 bound_to 6896
  150.8729  134.8134  159.7230 H   0  0  0  0  0  0  0  0  0  0  0  0  # atno 6909 bound_to 6896
  146.0475  139.4959  142.9739 H   0  0  0  0  0  0  0  0  0  0  0  0  # atno 7974 bound_to 7965
  154.4172  140.1731  156.1765 H   0  0  0  0  0  0  0  0  0  0  0  0  # atno 8008 bound_to 7997
  155.9717  140.3385  155.6558 H   0  0  0  0  0  0  0  0  0  0  0  0  # atno 8009 bound_to 7997
  155.6617  140.0701  157.2542 H   0  0  0  0  0  0  0  0  0  0  0  0  # atno 8010 bound_to 7997
  139.8172  143.7623  152.2665 H   0  0  0  0  0  0  0  0  0  0  0  0  # atno 10167 bound_to 10162
  157.2878  130.7287  149.6593 H   0  0  0  0  0  0  0  0  0  0  0  0  # atno 10718 bound_to 10713
  153.6006  135.3449  155.2944 H   0  0  0  0  0  0  0  0  0  0  0  0  # atno 10763 bound_to 10752
  154.8637  135.4226  154.2417 H   0  0  0  0  0  0  0  0  0  0  0  0  # atno 10764 bound_to 10752
  153.3245  135.7040  153.7073 H   0  0  0  0  0  0  0  0  0  0  0  0  # atno 10765 bound_to 10752
  140.8738  133.7702  156.0218 H   0  0  0  0  0  0  0  0  0  0  0  0  # atno 11005 bound_to 11000
  145.6780  141.0199  143.1621 LP  0  0  0  0  0  0  0  0  0  0  0  0  # atno 17320 bound_to 7965
  144.7105  139.8388  143.7416 LP  0  0  0  0  0  0  0  0  0  0  0  0  # atno 17321 bound_to 7965
  139.7790  144.7451  151.0116 LP  0  0  0  0  0  0  0  0  0  0  0  0  # atno 17342 bound_to 10162
  140.7815  143.4563  151.0341 LP  0  0  0  0  0  0  0  0  0  0  0  0  # atno 17343 bound_to 10162
  155.9666  130.4318  150.4937 LP  0  0  0  0  0  0  0  0  0  0  0  0  # atno 17370 bound_to 10713
  157.2893  131.0623  151.2144 LP  0  0  0  0  0  0  0  0  0  0  0  0  # atno 17371 bound_to 10713
  140.8542  134.2917  157.5262 LP  0  0  0  0  0  0  0  0  0  0  0  0  # atno 17394 bound_to 11000
  139.8714  134.9484  156.3995 LP  0  0  0  0  0  0  0  0  0  0  0  0  # atno 17395 bound_to 11000

$$$$
