AV-unprocessed.smi:1047|AV-procd|sdf|4591|dock8
  -GOLD-   22720 3 73D 1   1.00000     0.00000
 Structure written by MMmdl.
 57 59  0  0  0  0  0  0  0  0  3 V2000
  150.6694  130.4189  153.5765 C   0  0  0  0  0  0  0  0  0  0  0  0
  150.3877  131.9171  153.3915 C   0  0  0  0  0  0  0  0  0  0  0  0
  150.5384  132.7268  154.5994 N   0  0  0  0  0  0  0  0  0  0  0  0
  149.5212  132.3855  155.5877 C   0  0  0  0  0  0  0  0  0  0  0  0
  149.6568  133.2291  156.8664 C   0  0  0  0  0  0  0  0  0  0  0  0
  149.6028  134.6119  156.5309 O   0  0  0  0  0  0  0  0  0  0  0  0
  150.6189  135.0017  155.6098 C   0  0  2  0  0  0  0  0  0  0  0  0
  150.4647  136.5032  155.3327 C   0  0  0  0  0  0  0  0  0  0  0  0
  151.0998  136.8763  154.0535 N   0  3  0  0  0  0  0  0  0  0  0  0
  151.4799  138.3005  153.9625 C   0  0  0  0  0  0  0  0  0  0  0  0
  152.4764  138.6867  155.0685 C   0  0  1  0  0  0  0  0  0  0  0  0
  153.2202  139.8119  154.6416 O   0  0  0  0  0  0  0  0  0  0  0  0
  151.7665  139.0081  156.3988 C   0  0  0  0  0  0  0  0  0  0  0  0
  151.2150  140.3708  156.4356 N   0  0  0  0  0  0  0  0  0  0  0  0
  150.3890  140.9946  155.5519 C   0  0  0  0  0  0  0  0  0  0  0  0
  150.1565  142.2510  156.0215 N   0  3  0  0  0  0  0  0  0  0  0  0
  150.8441  142.4343  157.2226 C   0  0  0  0  0  0  0  0  0  0  0  0
  150.9164  143.5341  158.0691 C   0  0  0  0  0  0  0  0  0  0  0  0
  151.7108  143.4033  159.2303 C   0  0  0  0  0  0  0  0  0  0  0  0
  151.8107  144.5868  160.1777 C   0  0  0  0  0  0  0  0  0  0  0  0
  152.4013  142.1957  159.5094 C   0  0  0  0  0  0  0  0  0  0  0  0
  153.2528  142.0667  160.7611 C   0  0  0  0  0  0  0  0  0  0  0  0
  152.3147  141.0879  158.6359 C   0  0  0  0  0  0  0  0  0  0  0  0
  151.5276  141.2327  157.4951 C   0  0  0  0  0  0  0  0  0  0  0  0
  150.4716  134.1602  154.3258 C   0  0  0  0  0  0  0  0  0  0  0  0
  150.4313  129.8700  152.6652 H   0  0  0  0  0  0  0  0  0  0  0  0
  150.0636  130.0012  154.3810 H   0  0  0  0  0  0  0  0  0  0  0  0
  151.7171  130.2249  153.8049 H   0  0  0  0  0  0  0  0  0  0  0  0
  151.0230  132.3121  152.5975 H   0  0  0  0  0  0  0  0  0  0  0  0
  149.3629  132.0135  153.0303 H   0  0  0  0  0  0  0  0  0  0  0  0
  148.5272  132.5343  155.1626 H   0  0  0  0  0  0  0  0  0  0  0  0
  149.5947  131.3282  155.8449 H   0  0  0  0  0  0  0  0  0  0  0  0
  148.8492  132.9985  157.5612 H   0  0  0  0  0  0  0  0  0  0  0  0
  150.5940  133.0073  157.3793 H   0  0  0  0  0  0  0  0  0  0  0  0
  151.5994  134.8147  156.0518 H   0  0  0  0  0  0  0  0  0  0  0  0
  149.4063  136.7623  155.2837 H   0  0  0  0  0  0  0  0  0  0  0  0
  150.9017  137.0843  156.1460 H   0  0  0  0  0  0  0  0  0  0  0  0
  151.9295  136.3126  153.9337 H   0  0  0  0  0  0  0  0  0  0  0  0
  151.8994  138.5120  152.9777 H   0  0  0  0  0  0  0  0  0  0  0  0
  150.5746  138.9013  154.0586 H   0  0  0  0  0  0  0  0  0  0  0  0
  153.1715  137.8616  155.2317 H   0  0  0  0  0  0  0  0  0  0  0  0
  152.6325  140.5453  154.5424 H   0  0  0  0  0  0  0  0  0  0  0  0
  150.9753  138.2891  156.6125 H   0  0  0  0  0  0  0  0  0  0  0  0
  152.4760  138.9317  157.2237 H   0  0  0  0  0  0  0  0  0  0  0  0
  149.9889  140.5703  154.6422 H   0  0  0  0  0  0  0  0  0  0  0  0
  150.3876  144.4504  157.8502 H   0  0  0  0  0  0  0  0  0  0  0  0
  152.8420  144.9328  160.2496 H   0  0  0  0  0  0  0  0  0  0  0  0
  151.4667  144.3105  161.1748 H   0  0  0  0  0  0  0  0  0  0  0  0
  151.2011  145.4239  159.8363 H   0  0  0  0  0  0  0  0  0  0  0  0
  153.7357  141.0908  160.8180 H   0  0  0  0  0  0  0  0  0  0  0  0
  152.6400  142.1876  161.6548 H   0  0  0  0  0  0  0  0  0  0  0  0
  154.0356  142.8256  160.7721 H   0  0  0  0  0  0  0  0  0  0  0  0
  152.8397  140.1703  158.8542 H   0  0  0  0  0  0  0  0  0  0  0  0
  151.2604  134.4459  153.6302 H   0  0  0  0  0  0  0  0  0  0  0  0
  149.5242  134.3987  153.8392 H   0  0  0  0  0  0  0  0  0  0  0  0
  150.4594  136.6672  153.3006 H   0  0  0  0  0  0  0  0  0  0  0  0
  149.5710  142.9319  155.5550 H   0  0  0  0  0  0  0  0  0  0  0  0
  1  2  1  0  0  0  0
  1 26  1  0  0  0  0
  1 27  1  0  0  0  0
  1 28  1  0  0  0  0
  2  3  1  0  0  0  0
  2 29  1  0  0  0  0
  2 30  1  0  0  0  0
  3 25  1  0  0  0  0
  3  4  1  0  0  0  0
  4  5  1  0  0  0  0
  4 31  1  0  0  0  0
  4 32  1  0  0  0  0
  5  6  1  0  0  0  0
  5 33  1  0  0  0  0
  5 34  1  0  0  0  0
  6  7  1  0  0  0  0
  7  8  1  0  0  0  0
  7 25  1  0  0  0  0
  7 35  1  0  0  0  0
  8  9  1  0  0  0  0
  8 36  1  0  0  0  0
  8 37  1  0  0  0  0
  9 10  1  0  0  0  0
  9 38  1  0  0  0  0
  9 56  1  0  0  0  0
 10 11  1  0  0  0  0
 10 39  1  0  0  0  0
 10 40  1  0  0  0  0
 11 12  1  0  0  0  0
 11 13  1  0  0  0  0
 11 41  1  0  0  0  0
 12 42  1  0  0  0  0
 13 14  1  0  0  0  0
 13 43  1  0  0  0  0
 13 44  1  0  0  0  0
 14 24  1  0  0  0  0
 14 15  1  0  0  0  0
 15 16  2  0  0  0  0
 15 45  1  0  0  0  0
 16 17  1  0  0  0  0
 16 57  1  0  0  0  0
 17 24  2  0  0  0  0
 17 18  1  0  0  0  0
 18 19  2  0  0  0  0
 18 46  1  0  0  0  0
 19 20  1  0  0  0  0
 19 21  1  0  0  0  0
 20 47  1  0  0  0  0
 20 48  1  0  0  0  0
 20 49  1  0  0  0  0
 21 22  1  0  0  0  0
 21 23  2  0  0  0  0
 22 50  1  0  0  0  0
 22 51  1  0  0  0  0
 22 52  1  0  0  0  0
 23 24  1  0  0  0  0
 23 53  1  0  0  0  0
 25 54  1  0  0  0  0
 25 55  1  0  0  0  0
M  CHG  1   9   1
M  CHG  1  16   1
M  END
> <s_m_source_file>
AV-unprocessed.smi

> <i_m_source_file_index>
1047

> <i_lp_mmshare_version>
43012

> <i_f3d_flags>
0

> <s_epik_input>
W0NIM11bQ0gyXU4xW0NIMl1bQ0gyXU9bQ0BIXShbQ0gyXTEpW0NIMl1bTkhdW0NIMl1bQ0BIXShbT0hdKVtDSDJdbihbY0hdbjIpYyhjMjMpW2NIXWMoW0NIM10pYyhbY0hdMylbQ0gzXQ==

> <s_epik_cmdline>
J2VwaWtfcHl0aG9uJywgJy1waCcsICc3LjAnLCAnLXRuJywgJzgnLCAnLW1hJywgJzIwMCcsICctbWV0YWxfYmluZGluZycsICctaW1hZScsICc8aW5maWxlLm1hZT4nLCAnLW9tYWUnLCAnPG91dGZpbGUubWFlPic=

> <r_epik_Ionization_Penalty>
1.75732

> <r_epik_Ionization_Penalty_Charging>
1.18089

> <r_epik_Ionization_Penalty_Neutral>
0.576429

> <r_epik_State_Penalty>
1.69377

> <r_epik_Charging_Adjusted_Penalty>
2.87466

> <i_epik_Tot_Q>
2

> <i_epik_Tot_abs_Q>
2

> <r_epik_Metal_State_Penalty>
5.70174

> <b_epik_Metal_Only>
0

> <s_lp_Force_Field>
OPLS_2005

> <r_lp_Energy>
38.6305

> <b_lp_Chiralities_Consistent>
1

> <s_lp_Variant>
AV-unprocessed.smi:1047-32

> <Gold.Version>
5.8.1

> <Gold.Id.Protein>
6NUR|6NUR_protein|mol2

> <Gold.PLP.Fitness>
65.4373

> <Gold.PLP.PLP>
-52.3960

> <Gold.PLP.part.hbond>
-5.0000

> <Gold.PLP.part.metal>
0.0000

> <Gold.PLP.part.buried>
-7.1760

> <Gold.PLP.part.nonpolar>
-40.8201

> <Gold.PLP.part.repulsive>
0.2216

> <Gold.PLP.ligand.clash>
0.0000

> <Gold.PLP.ligand.torsion>
0.8719

> <Gold.PLP.Chemscore.Hbond>
4.8880

> <Gold.PLP.Chemscore.CHOScore>
0.0000

> <Gold.PLP.Chemscore.Metal>
0.0000

> <Gold.Chemscore.Hbonds>
donor molecule, donor type, donor heavy atom, donor atom, acceptor molecule, acceptor atom, score
      L1  H     9    56       P1  7948  0.46
      L1  H    16    57       P1  8028  1.79
      P1  H  7997  8008       L1    12  1.00

> <Gold.PLP.Chemscore.Internal.Correction>
0.1212

> <Gold.Rescore>
     Score         DG    S(hbond)    S(metal)    S(lipo)     H(rot)  DE(clash)    DE(int)     intcor
     20.48     -21.45       2.51        0.00     123.83       2.69       0.04       0.93       ----

> <Gold.Chemscore.Fitness>
20.4839

> <Gold.Chemscore.DG>
-21.4512

> <Gold.Chemscore.ZeroCoef>
-5.4800

> <Gold.Chemscore.Hbond>
2.5070

> <Gold.Chemscore.Metal>
0.0000

> <Gold.Chemscore.Lipo>
123.8337

> <Gold.Chemscore.Internal_Hbond>
0.0000

> <Gold.Chemscore.DEClash>
0.0359

> <Gold.Chemscore.DEInternal>
0.9314

> <Gold.Chemscore.Rot>
2.6917

> <Gold.Chemscore.Internal.Correction>
   9.000000E+99

> <Gold.Chemscore.Hbonds>
donor molecule, donor type, donor heavy atom, donor atom, acceptor molecule, acceptor atom, score
      L1  H    16    57       P1  8028  0.86
      P1  H  7997  8008       L1    12  0.61

> <Gold.Chemscore.Hbond.Weighted>
-8.3733

> <Gold.Chemscore.Metal.Weighted>
-0.0000

> <Gold.Chemscore.Lipo.Weighted>
-14.4885

> <Gold.Chemscore.Internal_Hbond.Weighted>
0.0000

> <Gold.Chemscore.DEClash.Weighted>
0.0359

> <Gold.Chemscore.DEInternal.Weighted>
0.9314

> <Gold.Chemscore.Rot.Weighted>
6.8907

> <Gold.Chemscore.Internal.Correction.Weighted>
   9.000000E+99

> <Gold.Protein.RotatedTorsions>
[ 6907 6896 6895 6894 ] final  102.03 input  -60.11 | X-H torsion
[ 7974 7965 7964 7962 ] final  -66.20 input  175.53 | X-H torsion
[ 8008 7997 7996 7995 ] final   -9.38 input   59.86 | X-H torsion
[ 10167 10162 10161 10158 ] final -107.94 input  -65.29 | X-H torsion
[ 10718 10713 10712 10709 ] final  176.30 input   66.30 | X-H torsion
[ 10763 10752 10751 10750 ] final   76.53 input  -60.55 | X-H torsion
[ 11005 11000 10999 10996 ] final -105.87 input  -57.11 | X-H torsion

> <Gold.Protein.ActiveResidues>
 VAL166  LYS551  ARG553  GLY616  TRP617  ASP618  TYR619  PRO620  LYS621  CYS622 
 ASP623  PHE694  ASN695  SER759  ASP760  ASP761  ALA762  ILE779  LEU786  VAL792 
 PHE793  MET794  SER795  GLU796  ALA797  LYS798  CYS799  TRP800  GLU811  SER814 

> <Gold.Protein.RotatedAtoms>
  152.5334  134.0036  159.7905 H   0  0  0  0  0  0  0  0  0  0  0  0  # atno 6907 bound_to 6896
  151.0251  133.5834  159.2674 H   0  0  0  0  0  0  0  0  0  0  0  0  # atno 6908 bound_to 6896
  151.2859  135.0734  159.9240 H   0  0  0  0  0  0  0  0  0  0  0  0  # atno 6909 bound_to 6896
  145.7448  140.8936  143.0511 H   0  0  0  0  0  0  0  0  0  0  0  0  # atno 7974 bound_to 7965
  154.5652  140.2356  155.8275 H   0  0  0  0  0  0  0  0  0  0  0  0  # atno 8008 bound_to 7997
  156.2062  140.3039  155.9591 H   0  0  0  0  0  0  0  0  0  0  0  0  # atno 8009 bound_to 7997
  155.2815  140.0422  157.3006 H   0  0  0  0  0  0  0  0  0  0  0  0  # atno 8010 bound_to 7997
  140.1716  143.4038  152.1350 H   0  0  0  0  0  0  0  0  0  0  0  0  # atno 10167 bound_to 10162
  156.9222  130.9944  151.3002 H   0  0  0  0  0  0  0  0  0  0  0  0  # atno 10718 bound_to 10713
  153.0732  135.4948  154.8350 H   0  0  0  0  0  0  0  0  0  0  0  0  # atno 10763 bound_to 10752
  154.7052  135.3009  154.9284 H   0  0  0  0  0  0  0  0  0  0  0  0  # atno 10764 bound_to 10752
  153.9995  135.6768  153.4811 H   0  0  0  0  0  0  0  0  0  0  0  0  # atno 10765 bound_to 10752
  141.1032  133.8845  157.1787 H   0  0  0  0  0  0  0  0  0  0  0  0  # atno 11005 bound_to 11000
  144.6862  139.9510  143.7478 LP  0  0  0  0  0  0  0  0  0  0  0  0  # atno 17320 bound_to 7965
  146.0413  139.3424  143.0695 LP  0  0  0  0  0  0  0  0  0  0  0  0  # atno 17321 bound_to 7965
  139.5335  144.7185  151.4972 LP  0  0  0  0  0  0  0  0  0  0  0  0  # atno 17342 bound_to 10162
  140.6578  143.8562  150.6854 LP  0  0  0  0  0  0  0  0  0  0  0  0  # atno 17343 bound_to 10162
  157.5900  130.8437  149.8646 LP  0  0  0  0  0  0  0  0  0  0  0  0  # atno 17370 bound_to 10713
  156.0486  130.3722  150.1257 LP  0  0  0  0  0  0  0  0  0  0  0  0  # atno 17371 bound_to 10713
  139.9892  135.0071  156.9935 LP  0  0  0  0  0  0  0  0  0  0  0  0  # atno 17394 bound_to 11000
  140.4968  134.1137  155.7243 LP  0  0  0  0  0  0  0  0  0  0  0  0  # atno 17395 bound_to 11000

$$$$
