AV-unprocessed.smi:192|AV-procd|sdf|1495|dock1
  -GOLD-   2262019323D 1   1.00000     0.00000
 Structure written by MMmdl.
 58 60  0  0  0  0  0  0  0  0  1 V2000
  150.2512  140.0095  155.5200 C   0  0  0  0  0  0  0  0  0  0  0  0
  149.1717  140.9574  154.9773 C   0  0  0  0  0  0  0  0  0  0  0  0
  147.9718  140.2427  154.3122 C   0  0  0  0  0  0  0  0  0  0  0  0
  147.0872  141.2359  153.5255 C   0  0  0  0  0  0  0  0  0  0  0  0
  146.4747  142.3478  154.3904 C   0  0  0  0  0  0  0  0  0  0  0  0
  147.1339  139.4822  155.3726 C   0  0  0  0  0  0  0  0  0  0  0  0
  147.7072  138.1989  155.7830 N   0  0  0  0  0  0  0  0  0  0  0  0
  148.0336  137.9950  157.1929 C   0  0  0  0  0  0  0  0  0  0  0  0
  149.3487  137.2281  157.4218 C   0  0  0  0  0  0  0  0  0  0  0  0
  149.7471  137.1250  158.8341 C   0  0  0  0  0  0  0  0  0  0  0  0
  150.0610  137.0437  159.9447 N   0  0  0  0  0  0  0  0  0  0  0  0
  147.3093  137.0749  155.1391 C   0  0  0  0  0  0  0  0  0  0  0  0
  147.6263  135.8876  155.7140 N   0  0  0  0  0  0  0  0  0  0  0  0
  147.2873  134.7410  155.1179 C   0  0  0  0  0  0  0  0  0  0  0  0
  146.6315  134.5590  153.9704 N   0  0  0  0  0  0  0  0  0  0  0  0
  146.2889  135.7497  153.4000 C   0  0  0  0  0  0  0  0  0  0  0  0
  146.5862  137.0450  153.9111 C   0  0  0  0  0  0  0  0  0  0  0  0
  146.0779  138.0152  153.0553 N   0  0  0  0  0  0  0  0  0  0  0  0
  145.5311  137.3345  152.0862 C   0  0  0  0  0  0  0  0  0  0  0  0
  145.5883  135.9668  152.2263 N   0  0  0  0  0  0  0  0  0  0  0  0
  145.1084  134.9908  151.2929 C   0  0  0  0  0  0  0  0  0  0  0  0
  144.3901  133.7267  151.7692 C   0  0  0  0  0  0  0  0  0  0  0  0
  144.9703  132.9531  150.5629 C   0  0  0  0  0  0  0  0  0  0  0  0
  145.4860  131.5314  150.8467 C   0  0  0  0  0  0  0  0  0  0  0  0
  146.5792  131.5347  151.7415 O   0  0  0  0  0  0  0  0  0  0  0  0
  144.1128  132.9376  149.2794 C   0  0  0  0  0  0  0  0  0  0  0  0
  142.9772  132.1067  149.4025 O   0  0  0  0  0  0  0  0  0  0  0  0
  146.0666  134.0422  150.5687 C   0  0  0  0  0  0  0  0  0  0  0  0
  151.0257  140.5717  156.0419 H   0  0  0  0  0  0  0  0  0  0  0  0
  150.7407  139.4463  154.7265 H   0  0  0  0  0  0  0  0  0  0  0  0
  149.8284  139.2967  156.2285 H   0  0  0  0  0  0  0  0  0  0  0  0
  148.8207  141.5554  155.8185 H   0  0  0  0  0  0  0  0  0  0  0  0
  149.6186  141.6638  154.2767 H   0  0  0  0  0  0  0  0  0  0  0  0
  148.3699  139.5285  153.5910 H   0  0  0  0  0  0  0  0  0  0  0  0
  147.6597  141.6781  152.7093 H   0  0  0  0  0  0  0  0  0  0  0  0
  146.2612  140.7038  153.0560 H   0  0  0  0  0  0  0  0  0  0  0  0
  145.7869  142.9560  153.8026 H   0  0  0  0  0  0  0  0  0  0  0  0
  147.2330  143.0176  154.7943 H   0  0  0  0  0  0  0  0  0  0  0  0
  145.9139  141.9312  155.2276 H   0  0  0  0  0  0  0  0  0  0  0  0
  147.0230  140.1124  156.2557 H   0  0  0  0  0  0  0  0  0  0  0  0
  146.1237  139.3077  155.0109 H   0  0  0  0  0  0  0  0  0  0  0  0
  148.0896  138.9646  157.6890 H   0  0  0  0  0  0  0  0  0  0  0  0
  147.2118  137.4632  157.6732 H   0  0  0  0  0  0  0  0  0  0  0  0
  149.2974  136.2222  157.0048 H   0  0  0  0  0  0  0  0  0  0  0  0
  150.1606  137.7393  156.9046 H   0  0  0  0  0  0  0  0  0  0  0  0
  147.5861  133.8399  155.6328 H   0  0  0  0  0  0  0  0  0  0  0  0
  145.0624  137.8166  151.2405 H   0  0  0  0  0  0  0  0  0  0  0  0
  144.4919  135.5382  150.5781 H   0  0  0  0  0  0  0  0  0  0  0  0
  144.7717  133.3636  152.7256 H   0  0  0  0  0  0  0  0  0  0  0  0
  143.3030  133.8066  151.7897 H   0  0  0  0  0  0  0  0  0  0  0  0
  144.6977  130.8974  151.2537 H   0  0  0  0  0  0  0  0  0  0  0  0
  145.8212  131.0494  149.9278 H   0  0  0  0  0  0  0  0  0  0  0  0
  147.3385  131.1987  151.2907 H   0  0  0  0  0  0  0  0  0  0  0  0
  143.7578  133.9379  149.0309 H   0  0  0  0  0  0  0  0  0  0  0  0
  144.6969  132.6048  148.4208 H   0  0  0  0  0  0  0  0  0  0  0  0
  142.2029  132.6452  149.3450 H   0  0  0  0  0  0  0  0  0  0  0  0
  146.3803  134.3855  149.5822 H   0  0  0  0  0  0  0  0  0  0  0  0
  146.9319  133.7823  151.1816 H   0  0  0  0  0  0  0  0  0  0  0  0
  1  2  1  0  0  0  0
  1 29  1  0  0  0  0
  1 30  1  0  0  0  0
  1 31  1  0  0  0  0
  2  3  1  0  0  0  0
  2 32  1  0  0  0  0
  2 33  1  0  0  0  0
  3  4  1  0  0  0  0
  3  6  1  0  0  0  0
  3 34  1  0  0  0  0
  4  5  1  0  0  0  0
  4 35  1  0  0  0  0
  4 36  1  0  0  0  0
  5 37  1  0  0  0  0
  5 38  1  0  0  0  0
  5 39  1  0  0  0  0
  6  7  1  0  0  0  0
  6 40  1  0  0  0  0
  6 41  1  0  0  0  0
  7  8  1  0  0  0  0
  7 12  1  0  0  0  0
  8  9  1  0  0  0  0
  8 42  1  0  0  0  0
  8 43  1  0  0  0  0
  9 10  1  0  0  0  0
  9 44  1  0  0  0  0
  9 45  1  0  0  0  0
 10 11  3  0  0  0  0
 12 17  1  0  0  0  0
 12 13  2  0  0  0  0
 13 14  1  0  0  0  0
 14 15  2  0  0  0  0
 14 46  1  0  0  0  0
 15 16  1  0  0  0  0
 16 20  1  0  0  0  0
 16 17  2  0  0  0  0
 17 18  1  0  0  0  0
 18 19  2  0  0  0  0
 19 20  1  0  0  0  0
 19 47  1  0  0  0  0
 20 21  1  0  0  0  0
 21 28  1  0  0  0  0
 21 22  1  0  0  0  0
 21 48  1  0  0  0  0
 22 23  1  0  0  0  0
 22 49  1  0  0  0  0
 22 50  1  0  0  0  0
 23 24  1  0  0  0  0
 23 26  1  0  0  0  0
 23 28  1  0  0  0  0
 24 25  1  0  0  0  0
 24 51  1  0  0  0  0
 24 52  1  0  0  0  0
 25 53  1  0  0  0  0
 26 27  1  0  0  0  0
 26 54  1  0  0  0  0
 26 55  1  0  0  0  0
 27 56  1  0  0  0  0
 28 57  1  0  0  0  0
 28 58  1  0  0  0  0
M  END
> <s_m_source_file>
AV-unprocessed.smi

> <i_m_source_file_index>
192

> <i_lp_mmshare_version>
43012

> <i_f3d_flags>
0

> <s_epik_input>
W0NIM11bQ0gyXVtDSF0oW0NIMl1bQ0gzXSlbQ0gyXU4oW0NIMl1bQ0gyXUMjTiljKG5bY0hdbjEpYyhjMTIpbltjSF1uMltDSF0oW0NIMl0zKVtDSDJdQzMoW0NIMl1bT0hdKVtDSDJdW09IXQ==

> <s_epik_cmdline>
J2VwaWtfcHl0aG9uJywgJy1waCcsICc3LjAnLCAnLXRuJywgJzgnLCAnLW1hJywgJzIwMCcsICctbWV0YWxfYmluZGluZycsICctaW1hZScsICc8aW5maWxlLm1hZT4nLCAnLW9tYWUnLCAnPG91dGZpbGUubWFlPic=

> <r_lp_tautomer_probability>
1

> <r_epik_Ionization_Penalty>
0.000545077

> <r_epik_Ionization_Penalty_Charging>
0

> <r_epik_Ionization_Penalty_Neutral>
0.000545077

> <r_epik_State_Penalty>
0.000259443

> <r_epik_Charging_Adjusted_Penalty>
0.000259443

> <i_epik_Tot_Q>
0

> <i_epik_Tot_abs_Q>
0

> <r_epik_Metal_State_Penalty>
-0

> <b_epik_Metal_Only>
0

> <s_lp_Force_Field>
OPLS_2005

> <r_lp_Energy>
36.5324

> <b_lp_Chiralities_Consistent>
1

> <s_lp_Variant>
AV-unprocessed.smi:192-1

> <Gold.Version>
5.8.1

> <Gold.Id.Protein>
6NUR|6NUR_protein|mol2

> <Gold.PLP.Fitness>
53.7938

> <Gold.PLP.PLP>
-39.8026

> <Gold.PLP.part.hbond>
-4.8923

> <Gold.PLP.part.metal>
0.0000

> <Gold.PLP.part.buried>
-2.7036

> <Gold.PLP.part.nonpolar>
-32.6425

> <Gold.PLP.part.repulsive>
0.3797

> <Gold.PLP.ligand.clash>
0.0000

> <Gold.PLP.ligand.torsion>
1.3401

> <Gold.PLP.Chemscore.Hbond>
3.7300

> <Gold.PLP.Chemscore.CHOScore>
0.9983

> <Gold.PLP.Chemscore.Metal>
0.0000

> <Gold.Chemscore.Hbonds>
donor molecule, donor type, donor heavy atom, donor atom, acceptor molecule, acceptor atom, score
      L1  H    25    53       P1 10747  1.00
      L1  H    27    56       P1 10186  0.73
      P1  H  6896  6907       L1    11  0.44
      P1  H 10785 10796       L1    27  0.86
      L1  C    19    47       P1 10171  0.96

> <Gold.PLP.Chemscore.Internal.Correction>
2.4865

> <Gold.Rescore>
     Score         DG    S(hbond)    S(metal)    S(lipo)     H(rot)  DE(clash)    DE(int)     intcor
     10.46     -15.16       3.36        0.00      80.21       4.27       0.29       4.41       ----

> <Gold.Chemscore.Fitness>
10.4625

> <Gold.Chemscore.DG>
-15.1631

> <Gold.Chemscore.ZeroCoef>
-5.4800

> <Gold.Chemscore.Hbond>
3.3595

> <Gold.Chemscore.Metal>
0.0000

> <Gold.Chemscore.Lipo>
80.2066

> <Gold.Chemscore.Internal_Hbond>
0.0000

> <Gold.Chemscore.DEClash>
0.2884

> <Gold.Chemscore.DEInternal>
4.4122

> <Gold.Chemscore.Rot>
4.2663

> <Gold.Chemscore.Internal.Correction>
   9.000000E+99

> <Gold.Chemscore.Hbonds>
donor molecule, donor type, donor heavy atom, donor atom, acceptor molecule, acceptor atom, score
      L1  H    25    53       P1 10747  0.99
      L1  H    27    56       P1 10186  0.72
      P1  H  6896  6907       L1    11  0.14
      P1  H  6931  6943       L1    11  0.01
      P1  H 10785 10796       L1    27  0.78

> <Gold.Chemscore.Hbond.Weighted>
-11.2208

> <Gold.Chemscore.Metal.Weighted>
-0.0000

> <Gold.Chemscore.Lipo.Weighted>
-9.3842

> <Gold.Chemscore.Internal_Hbond.Weighted>
0.0000

> <Gold.Chemscore.DEClash.Weighted>
0.2884

> <Gold.Chemscore.DEInternal.Weighted>
4.4122

> <Gold.Chemscore.Rot.Weighted>
10.9218

> <Gold.Chemscore.Internal.Correction.Weighted>
   9.000000E+99

> <Gold.Protein.RotatedTorsions>
[ 6907 6896 6895 6894 ] final  -17.72 input  -60.11 | X-H torsion
[ 7974 7965 7964 7962 ] final   11.69 input  175.53 | X-H torsion
[ 8008 7997 7996 7995 ] final   79.63 input   59.86 | X-H torsion
[ 10167 10162 10161 10158 ] final -144.25 input  -65.29 | X-H torsion
[ 10718 10713 10712 10709 ] final  130.87 input   66.30 | X-H torsion
[ 10763 10752 10751 10750 ] final  -94.20 input  -60.55 | X-H torsion
[ 11005 11000 10999 10996 ] final   35.71 input  -57.11 | X-H torsion

> <Gold.Protein.ActiveResidues>
 VAL166  LYS551  ARG553  GLY616  TRP617  ASP618  TYR619  PRO620  LYS621  CYS622 
 ASP623  PHE694  ASN695  SER759  ASP760  ASP761  ALA762  ILE779  LEU786  VAL792 
 PHE793  MET794  SER795  GLU796  ALA797  LYS798  CYS799  TRP800  GLU811  SER814 

> <Gold.Protein.RotatedAtoms>
  151.2891  135.0736  159.9197 H   0  0  0  0  0  0  0  0  0  0  0  0  # atno 6907 bound_to 6896
  152.5320  133.9951  159.7879 H   0  0  0  0  0  0  0  0  0  0  0  0  # atno 6908 bound_to 6896
  151.0218  133.5819  159.2701 H   0  0  0  0  0  0  0  0  0  0  0  0  # atno 6909 bound_to 6896
  146.2366  139.9448  142.8478 H   0  0  0  0  0  0  0  0  0  0  0  0  # atno 7974 bound_to 7965
  155.8724  140.3448  155.5830 H   0  0  0  0  0  0  0  0  0  0  0  0  # atno 8008 bound_to 7997
  155.7812  140.0858  157.2077 H   0  0  0  0  0  0  0  0  0  0  0  0  # atno 8009 bound_to 7997
  154.4018  140.1500  156.3042 H   0  0  0  0  0  0  0  0  0  0  0  0  # atno 8010 bound_to 7997
  139.7917  143.7957  152.2650 H   0  0  0  0  0  0  0  0  0  0  0  0  # atno 10167 bound_to 10162
  157.5021  131.1094  150.9413 H   0  0  0  0  0  0  0  0  0  0  0  0  # atno 10718 bound_to 10713
  154.7032  135.5166  153.8557 H   0  0  0  0  0  0  0  0  0  0  0  0  # atno 10763 bound_to 10752
  153.0720  135.6604  154.0235 H   0  0  0  0  0  0  0  0  0  0  0  0  # atno 10764 bound_to 10752
  154.0091  135.3004  155.3374 H   0  0  0  0  0  0  0  0  0  0  0  0  # atno 10765 bound_to 10752
  140.2399  134.3428  155.7930 H   0  0  0  0  0  0  0  0  0  0  0  0  # atno 11005 bound_to 11000
  145.1918  140.9815  143.4206 LP  0  0  0  0  0  0  0  0  0  0  0  0  # atno 17320 bound_to 7965
  144.9850  139.3745  143.6243 LP  0  0  0  0  0  0  0  0  0  0  0  0  # atno 17321 bound_to 7965
  139.8050  144.7359  150.9773 LP  0  0  0  0  0  0  0  0  0  0  0  0  # atno 17342 bound_to 10162
  140.7820  143.4307  151.0699 LP  0  0  0  0  0  0  0  0  0  0  0  0  # atno 17343 bound_to 10162
  157.0080  130.5626  149.5318 LP  0  0  0  0  0  0  0  0  0  0  0  0  # atno 17370 bound_to 10713
  156.0235  130.5330  150.8343 LP  0  0  0  0  0  0  0  0  0  0  0  0  # atno 17371 bound_to 10713
  141.2211  133.7292  156.8868 LP  0  0  0  0  0  0  0  0  0  0  0  0  # atno 17394 bound_to 11000
  140.1664  134.9130  157.2779 LP  0  0  0  0  0  0  0  0  0  0  0  0  # atno 17395 bound_to 11000

$$$$
