AV-unprocessed.smi:1673|AV-procd|sdf|6709|dock9
  -GOLD-   22720 7453D 1   1.00000     0.00000
 Structure written by MMmdl.
 39 40  0  0  0  0  0  0  0  0  1 V2000
  150.8251  136.0499  155.7347 C   0  0  0  0  0  0  0  0  0  0  0  0
  150.7988  134.5549  155.5761 C   0  0  0  0  0  0  0  0  0  0  0  0
  151.6336  133.8170  156.2931 N   0  0  0  0  0  0  0  0  0  0  0  0
  151.4415  132.4856  155.8924 O   0  0  0  0  0  0  0  0  0  0  0  0
  150.4817  132.4499  154.9317 C   0  0  0  0  0  0  0  0  0  0  0  0
  150.1464  131.1145  154.3584 C   0  0  0  0  0  0  0  0  0  0  0  0
  150.0258  133.7174  154.7193 C   0  0  0  0  0  0  0  0  0  0  0  0
  149.0382  134.0705  153.7662 N   0  0  0  0  0  0  0  0  0  0  0  0
  147.9495  133.3592  153.4364 C   0  0  0  0  0  0  0  0  0  0  0  0
  147.6697  132.2516  153.8941 O   0  0  0  0  0  0  0  0  0  0  0  0
  147.2057  134.0015  152.5240 N   0  0  0  0  0  0  0  0  0  0  0  0
  145.9597  133.5115  151.9354 C   0  0  2  0  0  0  0  0  0  0  0  0
  146.2250  132.1356  151.2933 C   0  0  0  0  0  0  0  0  0  0  0  0
  144.9721  131.5796  150.6011 C   0  0  0  0  0  0  0  0  0  0  0  0
  144.4335  132.5717  149.5620 C   0  0  0  0  0  0  0  0  0  0  0  0
  144.1511  133.9394  150.2014 C   0  0  0  0  0  0  0  0  0  0  0  0
  145.3999  134.5187  150.8972 C   0  0  1  0  0  0  0  0  0  0  0  0
  145.0835  135.8956  151.5088 C   0  0  0  0  0  0  0  0  0  0  0  0
  150.5987  136.5510  154.7937 H   0  0  0  0  0  0  0  0  0  0  0  0
  151.8059  136.3991  156.0593 H   0  0  0  0  0  0  0  0  0  0  0  0
  150.0959  136.3779  156.4755 H   0  0  0  0  0  0  0  0  0  0  0  0
  149.4452  131.2078  153.5290 H   0  0  0  0  0  0  0  0  0  0  0  0
  149.6920  130.4737  155.1141 H   0  0  0  0  0  0  0  0  0  0  0  0
  151.0429  130.6178  153.9873 H   0  0  0  0  0  0  0  0  0  0  0  0
  149.2203  134.9031  153.2255 H   0  0  0  0  0  0  0  0  0  0  0  0
  147.5248  134.9061  152.2097 H   0  0  0  0  0  0  0  0  0  0  0  0
  145.2086  133.3708  152.7152 H   0  0  0  0  0  0  0  0  0  0  0  0
  147.0321  132.2170  150.5636 H   0  0  0  0  0  0  0  0  0  0  0  0
  146.5654  131.4294  152.0517 H   0  0  0  0  0  0  0  0  0  0  0  0
  145.2025  130.6276  150.1219 H   0  0  0  0  0  0  0  0  0  0  0  0
  144.2024  131.3736  151.3459 H   0  0  0  0  0  0  0  0  0  0  0  0
  145.1572  132.6862  148.7540 H   0  0  0  0  0  0  0  0  0  0  0  0
  143.5234  132.1774  149.1090 H   0  0  0  0  0  0  0  0  0  0  0  0
  143.7960  134.6303  149.4363 H   0  0  0  0  0  0  0  0  0  0  0  0
  143.3406  133.8399  150.9250 H   0  0  0  0  0  0  0  0  0  0  0  0
  146.1613  134.6709  150.1304 H   0  0  0  0  0  0  0  0  0  0  0  0
  144.3577  135.8111  152.3182 H   0  0  0  0  0  0  0  0  0  0  0  0
  144.6683  136.5704  150.7597 H   0  0  0  0  0  0  0  0  0  0  0  0
  145.9764  136.3743  151.9107 H   0  0  0  0  0  0  0  0  0  0  0  0
  1  2  1  0  0  0  0
  1 19  1  0  0  0  0
  1 20  1  0  0  0  0
  1 21  1  0  0  0  0
  2  7  1  0  0  0  0
  2  3  2  0  0  0  0
  3  4  1  0  0  0  0
  4  5  1  0  0  0  0
  5  6  1  0  0  0  0
  5  7  2  0  0  0  0
  6 22  1  0  0  0  0
  6 23  1  0  0  0  0
  6 24  1  0  0  0  0
  7  8  1  0  0  0  0
  8  9  1  0  0  0  0
  8 25  1  0  0  0  0
  9 10  2  0  0  0  0
  9 11  1  0  0  0  0
 11 12  1  0  0  0  0
 11 26  1  0  0  0  0
 12 17  1  0  0  0  0
 12 13  1  0  0  0  0
 12 27  1  0  0  0  0
 13 14  1  0  0  0  0
 13 28  1  0  0  0  0
 13 29  1  0  0  0  0
 14 15  1  0  0  0  0
 14 30  1  0  0  0  0
 14 31  1  0  0  0  0
 15 16  1  0  0  0  0
 15 32  1  0  0  0  0
 15 33  1  0  0  0  0
 16 17  1  0  0  0  0
 16 34  1  0  0  0  0
 16 35  1  0  0  0  0
 17 18  1  0  0  0  0
 17 36  1  0  0  0  0
 18 37  1  0  0  0  0
 18 38  1  0  0  0  0
 18 39  1  0  0  0  0
M  END
> <s_m_source_file>
AV-unprocessed.smi

> <i_m_source_file_index>
1673

> <i_lp_mmshare_version>
43012

> <i_f3d_flags>
0

> <s_epik_input>
W0NIM11jMW5vYyhbQ0gzXSljMVtOSF1DKD1PKVtOSF1bQ0BASF0yW0NIMl1bQ0gyXVtDSDJdW0NIMl1bQ0BIXTJbQ0gzXQ==

> <s_epik_cmdline>
J2VwaWtfcHl0aG9uJywgJy1waCcsICc3LjAnLCAnLXRuJywgJzgnLCAnLW1hJywgJzIwMCcsICctbWV0YWxfYmluZGluZycsICctaW1hZScsICc8aW5maWxlLm1hZT4nLCAnLW9tYWUnLCAnPG91dGZpbGUubWFlPic=

> <r_lp_tautomer_probability>
1

> <r_epik_Ionization_Penalty>
4.01865e-05

> <r_epik_Ionization_Penalty_Charging>
0

> <r_epik_Ionization_Penalty_Neutral>
4.01865e-05

> <r_epik_State_Penalty>
-0

> <r_epik_Charging_Adjusted_Penalty>
0

> <i_epik_Tot_Q>
0

> <i_epik_Tot_abs_Q>
0

> <r_epik_Metal_State_Penalty>
-0

> <b_epik_Metal_Only>
0

> <s_lp_Force_Field>
OPLS_2005

> <r_lp_Energy>
12.0287

> <b_lp_Chiralities_Consistent>
1

> <s_lp_Variant>
AV-unprocessed.smi:1673-1

> <Gold.Version>
5.8.1

> <Gold.Id.Protein>
6NUR|6NUR_protein|mol2

> <Gold.PLP.Fitness>
38.5129

> <Gold.PLP.PLP>
-32.9153

> <Gold.PLP.part.hbond>
-2.4648

> <Gold.PLP.part.metal>
0.0000

> <Gold.PLP.part.buried>
-5.0768

> <Gold.PLP.part.nonpolar>
-26.2832

> <Gold.PLP.part.repulsive>
0.0518

> <Gold.PLP.ligand.clash>
0.0000

> <Gold.PLP.ligand.torsion>
0.2564

> <Gold.PLP.Chemscore.Hbond>
1.9500

> <Gold.PLP.Chemscore.CHOScore>
0.0000

> <Gold.PLP.Chemscore.Metal>
0.0000

> <Gold.Chemscore.Hbonds>
donor molecule, donor type, donor heavy atom, donor atom, acceptor molecule, acceptor atom, score
      L1  H     8    25       P1  7948  0.60
      L1  H    11    26       P1  7948  1.00

> <Gold.PLP.Chemscore.Internal.Correction>
0.2604

> <Gold.Rescore>
     Score         DG    S(hbond)    S(metal)    S(lipo)     H(rot)  DE(clash)    DE(int)     intcor
     14.65     -15.21       1.11        0.00      73.47       1.00       0.07       0.48       ----

> <Gold.Chemscore.Fitness>
14.6548

> <Gold.Chemscore.DG>
-15.2093

> <Gold.Chemscore.ZeroCoef>
-5.4800

> <Gold.Chemscore.Hbond>
1.1057

> <Gold.Chemscore.Metal>
0.0000

> <Gold.Chemscore.Lipo>
73.4731

> <Gold.Chemscore.Internal_Hbond>
0.0000

> <Gold.Chemscore.DEClash>
0.0727

> <Gold.Chemscore.DEInternal>
0.4818

> <Gold.Chemscore.Rot>
1.0000

> <Gold.Chemscore.Internal.Correction>
   9.000000E+99

> <Gold.Chemscore.Hbonds>
donor molecule, donor type, donor heavy atom, donor atom, acceptor molecule, acceptor atom, score
      L1  H     8    25       P1  7948  0.04
      L1  H    11    26       P1  7948  0.88

> <Gold.Chemscore.Hbond.Weighted>
-3.6930

> <Gold.Chemscore.Metal.Weighted>
-0.0000

> <Gold.Chemscore.Lipo.Weighted>
-8.5963

> <Gold.Chemscore.Internal_Hbond.Weighted>
0.0000

> <Gold.Chemscore.DEClash.Weighted>
0.0727

> <Gold.Chemscore.DEInternal.Weighted>
0.4818

> <Gold.Chemscore.Rot.Weighted>
2.5600

> <Gold.Chemscore.Internal.Correction.Weighted>
   9.000000E+99

> <Gold.Protein.RotatedTorsions>
[ 6907 6896 6895 6894 ] final -147.08 input  -60.11 | X-H torsion
[ 7974 7965 7964 7962 ] final   95.32 input  175.53 | X-H torsion
[ 8008 7997 7996 7995 ] final  -75.11 input   59.86 | X-H torsion
[ 10167 10162 10161 10158 ] final   25.85 input  -65.29 | X-H torsion
[ 10718 10713 10712 10709 ] final    4.69 input   66.30 | X-H torsion
[ 10763 10752 10751 10750 ] final  -86.15 input  -60.55 | X-H torsion
[ 11005 11000 10999 10996 ] final  134.29 input  -57.11 | X-H torsion

> <Gold.Protein.ActiveResidues>
 VAL166  LYS551  ARG553  GLY616  TRP617  ASP618  TYR619  PRO620  LYS621  CYS622 
 ASP623  PHE694  ASN695  SER759  ASP760  ASP761  ALA762  ILE779  LEU786  VAL792 
 PHE793  MET794  SER795  GLU796  ALA797  LYS798  CYS799  TRP800  GLU811  SER814 

> <Gold.Protein.RotatedAtoms>
  151.1507  133.4909  159.2595 H   0  0  0  0  0  0  0  0  0  0  0  0  # atno 6907 bound_to 6896
  151.1557  135.0249  159.8698 H   0  0  0  0  0  0  0  0  0  0  0  0  # atno 6908 bound_to 6896
  152.5463  134.1386  159.8522 H   0  0  0  0  0  0  0  0  0  0  0  0  # atno 6909 bound_to 6896
  145.4538  139.2291  143.3025 H   0  0  0  0  0  0  0  0  0  0  0  0  # atno 7974 bound_to 7965
  154.5388  140.0750  156.8474 H   0  0  0  0  0  0  0  0  0  0  0  0  # atno 8008 bound_to 7997
  155.3223  140.3397  155.4223 H   0  0  0  0  0  0  0  0  0  0  0  0  # atno 8009 bound_to 7997
  156.1854  140.1667  156.8181 H   0  0  0  0  0  0  0  0  0  0  0  0  # atno 8010 bound_to 7997
  140.5072  144.0220  150.6357 H   0  0  0  0  0  0  0  0  0  0  0  0  # atno 10167 bound_to 10162
  156.8964  130.5706  149.5649 H   0  0  0  0  0  0  0  0  0  0  0  0  # atno 10718 bound_to 10713
  154.6192  135.5459  153.7556 H   0  0  0  0  0  0  0  0  0  0  0  0  # atno 10763 bound_to 10752
  153.0230  135.6408  154.1466 H   0  0  0  0  0  0  0  0  0  0  0  0  # atno 10764 bound_to 10752
  154.1401  135.2909  155.3143 H   0  0  0  0  0  0  0  0  0  0  0  0  # atno 10765 bound_to 10752
  139.9905  134.9516  156.9845 H   0  0  0  0  0  0  0  0  0  0  0  0  # atno 11005 bound_to 11000
  146.2489  140.5300  142.8902 LP  0  0  0  0  0  0  0  0  0  0  0  0  # atno 17320 bound_to 7965
  144.8045  140.6274  143.6456 LP  0  0  0  0  0  0  0  0  0  0  0  0  # atno 17321 bound_to 7965
  140.3532  143.2951  152.0464 LP  0  0  0  0  0  0  0  0  0  0  0  0  # atno 17342 bound_to 10162
  139.4886  144.6358  151.6978 LP  0  0  0  0  0  0  0  0  0  0  0  0  # atno 17343 bound_to 10162
  156.0603  130.5657  150.9179 LP  0  0  0  0  0  0  0  0  0  0  0  0  # atno 17370 bound_to 10713
  157.6053  131.0939  150.8890 LP  0  0  0  0  0  0  0  0  0  0  0  0  # atno 17371 bound_to 10713
  140.4917  134.1186  155.7234 LP  0  0  0  0  0  0  0  0  0  0  0  0  # atno 17394 bound_to 11000
  141.1562  133.8878  157.1971 LP  0  0  0  0  0  0  0  0  0  0  0  0  # atno 17395 bound_to 11000

$$$$
