AV-unprocessed.smi:952|AV-procd|sdf|4255|dock3
  -GOLD-   22720 2163D 1   1.00000     0.00000
 Structure written by MMmdl.
 35 35  0  0  0  0  0  0  0  0  1 V2000
  146.0649  143.0655  154.1363 C   0  0  0  0  0  0  0  0  0  0  0  0
  146.5644  141.7099  154.6464 C   0  0  0  0  0  0  0  0  0  0  0  0
  148.0579  141.4875  154.3561 C   0  0  0  0  0  0  0  0  0  0  0  0
  148.7589  140.9598  155.5209 N   0  0  0  0  0  0  0  0  0  0  0  0
  150.0490  140.5927  155.5418 C   0  0  0  0  0  0  0  0  0  0  0  0
  150.7825  140.6480  154.5533 O   0  0  0  0  0  0  0  0  0  0  0  0
  150.5802  140.0634  156.8794 C   0  0  0  0  0  0  0  0  0  0  0  0
  151.5616  140.9652  157.4747 N   0  0  0  0  0  0  0  0  0  0  0  0
  152.2628  140.7155  158.5924 C   0  0  0  0  0  0  0  0  0  0  0  0
  152.2023  139.6455  159.1996 O   0  0  0  0  0  0  0  0  0  0  0  0
  153.1483  141.8608  159.1054 C   0  0  2  0  0  0  0  0  0  0  0  0
  153.7862  141.5516  160.4755 C   0  0  0  0  0  0  0  0  0  0  0  0
  152.3882  143.1061  159.1082 N   0  0  0  0  0  0  0  0  0  0  0  0
  152.2830  144.0305  160.1282 C   0  0  0  0  0  0  0  0  0  0  0  0
  151.5198  145.0655  159.6695 C   0  0  0  0  0  0  0  0  0  0  0  0
  151.2108  144.6899  158.3329 C   0  0  0  0  0  0  0  0  0  0  0  0
  151.7378  143.5242  157.9970 N   0  0  0  0  0  0  0  0  0  0  0  0
  145.0047  143.1956  154.3547 H   0  0  0  0  0  0  0  0  0  0  0  0
  146.1962  143.1535  153.0575 H   0  0  0  0  0  0  0  0  0  0  0  0
  146.6049  143.8866  154.6086 H   0  0  0  0  0  0  0  0  0  0  0  0
  146.3805  141.6451  155.7197 H   0  0  0  0  0  0  0  0  0  0  0  0
  145.9787  140.9139  154.1851 H   0  0  0  0  0  0  0  0  0  0  0  0
  148.1746  140.7740  153.5400 H   0  0  0  0  0  0  0  0  0  0  0  0
  148.5265  142.4162  154.0257 H   0  0  0  0  0  0  0  0  0  0  0  0
  148.2274  140.8771  156.3755 H   0  0  0  0  0  0  0  0  0  0  0  0
  149.7558  139.8843  157.5721 H   0  0  0  0  0  0  0  0  0  0  0  0
  151.0590  139.0998  156.7052 H   0  0  0  0  0  0  0  0  0  0  0  0
  151.6678  141.8705  157.0406 H   0  0  0  0  0  0  0  0  0  0  0  0
  153.9659  141.9885  158.3939 H   0  0  0  0  0  0  0  0  0  0  0  0
  154.3998  140.6515  160.4274 H   0  0  0  0  0  0  0  0  0  0  0  0
  153.0380  141.3984  161.2543 H   0  0  0  0  0  0  0  0  0  0  0  0
  154.4322  142.3696  160.7954 H   0  0  0  0  0  0  0  0  0  0  0  0
  152.7584  143.8778  161.0860 H   0  0  0  0  0  0  0  0  0  0  0  0
  151.2334  145.9588  160.2044 H   0  0  0  0  0  0  0  0  0  0  0  0
  150.6287  145.2288  157.6000 H   0  0  0  0  0  0  0  0  0  0  0  0
  1  2  1  0  0  0  0
  1 18  1  0  0  0  0
  1 19  1  0  0  0  0
  1 20  1  0  0  0  0
  2  3  1  0  0  0  0
  2 21  1  0  0  0  0
  2 22  1  0  0  0  0
  3  4  1  0  0  0  0
  3 23  1  0  0  0  0
  3 24  1  0  0  0  0
  4  5  1  0  0  0  0
  4 25  1  0  0  0  0
  5  6  2  0  0  0  0
  5  7  1  0  0  0  0
  7  8  1  0  0  0  0
  7 26  1  0  0  0  0
  7 27  1  0  0  0  0
  8  9  1  0  0  0  0
  8 28  1  0  0  0  0
  9 10  2  0  0  0  0
  9 11  1  0  0  0  0
 11 12  1  0  0  0  0
 11 13  1  0  0  0  0
 11 29  1  0  0  0  0
 12 30  1  0  0  0  0
 12 31  1  0  0  0  0
 12 32  1  0  0  0  0
 13 17  1  0  0  0  0
 13 14  1  0  0  0  0
 14 15  2  0  0  0  0
 14 33  1  0  0  0  0
 15 16  1  0  0  0  0
 15 34  1  0  0  0  0
 16 17  2  0  0  0  0
 16 35  1  0  0  0  0
M  END
> <s_m_source_file>
AV-unprocessed.smi

> <i_m_source_file_index>
952

> <i_lp_mmshare_version>
43012

> <i_f3d_flags>
0

> <s_epik_input>
W0NIM11bQ0gyXVtDSDJdW05IXUMoPU8pW0NIMl1bTkhdQyg9TylbQ0BIXShbQ0gzXSluMVtjSF1bY0hdW2NIXW4x

> <s_epik_cmdline>
J2VwaWtfcHl0aG9uJywgJy1waCcsICc3LjAnLCAnLXRuJywgJzgnLCAnLW1hJywgJzIwMCcsICctbWV0YWxfYmluZGluZycsICctaW1hZScsICc8aW5maWxlLm1hZT4nLCAnLW9tYWUnLCAnPG91dGZpbGUubWFlPic=

> <r_lp_tautomer_probability>
1

> <r_epik_Ionization_Penalty>
2.62173e-05

> <r_epik_Ionization_Penalty_Charging>
0

> <r_epik_Ionization_Penalty_Neutral>
2.62173e-05

> <r_epik_State_Penalty>
-0

> <r_epik_Charging_Adjusted_Penalty>
0

> <i_epik_Tot_Q>
0

> <i_epik_Tot_abs_Q>
0

> <r_epik_Metal_State_Penalty>
-0

> <b_epik_Metal_Only>
0

> <s_lp_Force_Field>
OPLS_2005

> <r_lp_Energy>
2.54984

> <b_lp_Chiralities_Consistent>
1

> <s_lp_Variant>
AV-unprocessed.smi:952-1

> <Gold.Version>
5.8.1

> <Gold.Id.Protein>
6NUR|6NUR_protein|mol2

> <Gold.PLP.Fitness>
43.0320

> <Gold.PLP.PLP>
-38.2852

> <Gold.PLP.part.hbond>
-0.8711

> <Gold.PLP.part.metal>
0.0000

> <Gold.PLP.part.buried>
-5.8546

> <Gold.PLP.part.nonpolar>
-32.2760

> <Gold.PLP.part.repulsive>
0.3077

> <Gold.PLP.ligand.clash>
0.0000

> <Gold.PLP.ligand.torsion>
0.6962

> <Gold.PLP.Chemscore.Hbond>
1.0000

> <Gold.PLP.Chemscore.CHOScore>
1.0000

> <Gold.PLP.Chemscore.Metal>
0.0000

> <Gold.Chemscore.Hbonds>
donor molecule, donor type, donor heavy atom, donor atom, acceptor molecule, acceptor atom, score
      P1  H  7989  7998       L1     6  0.59
      L1  C    16    35       P1  8028  0.60
      L1  C    16    35       P1  8029  0.08

> <Gold.PLP.Chemscore.Internal.Correction>
0.1393

> <Gold.Rescore>
     Score         DG    S(hbond)    S(metal)    S(lipo)     H(rot)  DE(clash)    DE(int)     intcor
     10.82     -12.73       0.99        0.00      82.64       2.24       0.01       1.90       ----

> <Gold.Chemscore.Fitness>
10.8219

> <Gold.Chemscore.DG>
-12.7316

> <Gold.Chemscore.ZeroCoef>
-5.4800

> <Gold.Chemscore.Hbond>
0.9903

> <Gold.Chemscore.Metal>
0.0000

> <Gold.Chemscore.Lipo>
82.6418

> <Gold.Chemscore.Internal_Hbond>
0.0000

> <Gold.Chemscore.DEClash>
0.0093

> <Gold.Chemscore.DEInternal>
1.9004

> <Gold.Chemscore.Rot>
2.2364

> <Gold.Chemscore.Internal.Correction>
   9.000000E+99

> <Gold.Chemscore.Hbonds>
donor molecule, donor type, donor heavy atom, donor atom, acceptor molecule, acceptor atom, score
      P1  H  7989  7998       L1     6  0.54

> <Gold.Chemscore.Hbond.Weighted>
-3.3076

> <Gold.Chemscore.Metal.Weighted>
-0.0000

> <Gold.Chemscore.Lipo.Weighted>
-9.6691

> <Gold.Chemscore.Internal_Hbond.Weighted>
0.0000

> <Gold.Chemscore.DEClash.Weighted>
0.0093

> <Gold.Chemscore.DEInternal.Weighted>
1.9004

> <Gold.Chemscore.Rot.Weighted>
5.7251

> <Gold.Chemscore.Internal.Correction.Weighted>
   9.000000E+99

> <Gold.Protein.RotatedTorsions>
[ 6907 6896 6895 6894 ] final  141.19 input  -60.11 | X-H torsion
[ 7974 7965 7964 7962 ] final   19.51 input  175.53 | X-H torsion
[ 8008 7997 7996 7995 ] final  145.58 input   59.86 | X-H torsion
[ 10167 10162 10161 10158 ] final  -80.30 input  -65.29 | X-H torsion
[ 10718 10713 10712 10709 ] final  -66.29 input   66.30 | X-H torsion
[ 10763 10752 10751 10750 ] final -169.02 input  -60.55 | X-H torsion
[ 11005 11000 10999 10996 ] final  126.02 input  -57.11 | X-H torsion

> <Gold.Protein.ActiveResidues>
 VAL166  LYS551  ARG553  GLY616  TRP617  ASP618  TYR619  PRO620  LYS621  CYS622 
 ASP623  PHE694  ASN695  SER759  ASP760  ASP761  ALA762  ILE779  LEU786  VAL792 
 PHE793  MET794  SER795  GLU796  ALA797  LYS798  CYS799  TRP800  GLU811  SER814 

> <Gold.Protein.RotatedAtoms>
  152.2340  133.5081  159.5231 H   0  0  0  0  0  0  0  0  0  0  0  0  # atno 6907 bound_to 6896
  150.7045  134.1178  159.4033 H   0  0  0  0  0  0  0  0  0  0  0  0  # atno 6908 bound_to 6896
  151.9099  135.0343  160.0564 H   0  0  0  0  0  0  0  0  0  0  0  0  # atno 6909 bound_to 6896
  146.2146  139.8302  142.8661 H   0  0  0  0  0  0  0  0  0  0  0  0  # atno 7974 bound_to 7965
  156.2879  140.2205  156.5238 H   0  0  0  0  0  0  0  0  0  0  0  0  # atno 8008 bound_to 7997
  154.7506  140.0480  157.0912 H   0  0  0  0  0  0  0  0  0  0  0  0  # atno 8009 bound_to 7997
  155.0114  140.3113  155.4831 H   0  0  0  0  0  0  0  0  0  0  0  0  # atno 8010 bound_to 7997
  140.4515  143.2481  151.8481 H   0  0  0  0  0  0  0  0  0  0  0  0  # atno 10167 bound_to 10162
  156.0621  130.4260  150.1687 H   0  0  0  0  0  0  0  0  0  0  0  0  # atno 10718 bound_to 10713
  154.6568  135.2919  154.9918 H   0  0  0  0  0  0  0  0  0  0  0  0  # atno 10763 bound_to 10752
  154.0992  135.6579  153.4869 H   0  0  0  0  0  0  0  0  0  0  0  0  # atno 10764 bound_to 10752
  153.0407  135.5238  154.7500 H   0  0  0  0  0  0  0  0  0  0  0  0  # atno 10765 bound_to 10752
  139.9435  134.9632  156.8644 H   0  0  0  0  0  0  0  0  0  0  0  0  # atno 11005 bound_to 11000
  145.3005  141.0193  143.3611 LP  0  0  0  0  0  0  0  0  0  0  0  0  # atno 17320 bound_to 7965
  144.9009  139.4650  143.6633 LP  0  0  0  0  0  0  0  0  0  0  0  0  # atno 17321 bound_to 7965
  139.4797  144.5114  151.8927 LP  0  0  0  0  0  0  0  0  0  0  0  0  # atno 17342 bound_to 10162
  140.4201  144.2254  150.5887 LP  0  0  0  0  0  0  0  0  0  0  0  0  # atno 17343 bound_to 10162
  156.9754  130.9847  151.3449 LP  0  0  0  0  0  0  0  0  0  0  0  0  # atno 17370 bound_to 10713
  157.5637  130.8263  149.8299 LP  0  0  0  0  0  0  0  0  0  0  0  0  # atno 17371 bound_to 10713
  140.5892  134.0277  155.7493 LP  0  0  0  0  0  0  0  0  0  0  0  0  # atno 17394 bound_to 11000
  141.1078  133.9666  157.2966 LP  0  0  0  0  0  0  0  0  0  0  0  0  # atno 17395 bound_to 11000

$$$$
