AV-unprocessed.smi:977|AV-procd|sdf|4307|dock5
  -GOLD-   22720 2213D 1   1.00000     0.00000
 Structure written by MMmdl.
 37 38  0  0  0  0  0  0  0  0  1 V2000
  151.4330  138.1649  154.4491 C   0  0  0  0  0  0  0  0  0  0  0  0
  150.3744  139.2324  154.4280 C   0  0  0  0  0  0  0  0  0  0  0  0
  150.6971  140.4655  154.7901 N   0  0  0  0  0  0  0  0  0  0  0  0
  149.5498  141.2532  154.6083 O   0  0  0  0  0  0  0  0  0  0  0  0
  148.5475  140.4674  154.1354 C   0  0  0  0  0  0  0  0  0  0  0  0
  147.2399  141.1289  153.8585 C   0  0  0  0  0  0  0  0  0  0  0  0
  149.0050  139.1871  154.0323 C   0  0  0  0  0  0  0  0  0  0  0  0
  148.2428  138.0958  153.5458 N   0  0  0  0  0  0  0  0  0  0  0  0
  146.9465  137.8497  153.7866 C   0  0  0  0  0  0  0  0  0  0  0  0
  146.2027  138.5797  154.4410 O   0  0  0  0  0  0  0  0  0  0  0  0
  146.5511  136.7077  153.2060 N   0  0  0  0  0  0  0  0  0  0  0  0
  145.2040  136.1417  153.2592 C   0  0  1  0  0  0  0  0  0  0  0  0
  144.2136  137.1773  152.7072 C   0  0  0  0  0  0  0  0  0  0  0  0
  145.1415  134.8139  152.4747 C   0  0  1  0  0  0  0  0  0  0  0  0
  145.4630  134.9229  150.9826 C   0  0  0  0  0  0  0  0  0  0  0  0
  145.8663  133.5045  150.6535 C   0  0  0  0  0  0  0  0  0  0  0  0
  146.6289  133.0935  151.9101 C   0  0  0  0  0  0  0  0  0  0  0  0
  146.1080  133.8912  152.9712 O   0  0  0  0  0  0  0  0  0  0  0  0
  151.2860  137.4468  153.6422 H   0  0  0  0  0  0  0  0  0  0  0  0
  151.4200  137.6191  155.3925 H   0  0  0  0  0  0  0  0  0  0  0  0
  152.4302  138.5889  154.3278 H   0  0  0  0  0  0  0  0  0  0  0  0
  146.5789  140.4706  153.2947 H   0  0  0  0  0  0  0  0  0  0  0  0
  147.3828  142.0402  153.2776 H   0  0  0  0  0  0  0  0  0  0  0  0
  146.7385  141.3953  154.7889 H   0  0  0  0  0  0  0  0  0  0  0  0
  148.7078  137.4882  152.8873 H   0  0  0  0  0  0  0  0  0  0  0  0
  147.2383  136.1821  152.6858 H   0  0  0  0  0  0  0  0  0  0  0  0
  144.9278  135.9446  154.2967 H   0  0  0  0  0  0  0  0  0  0  0  0
  143.1878  136.8126  152.7659 H   0  0  0  0  0  0  0  0  0  0  0  0
  144.4234  137.4116  151.6629 H   0  0  0  0  0  0  0  0  0  0  0  0
  144.2616  138.1077  153.2740 H   0  0  0  0  0  0  0  0  0  0  0  0
  144.1571  134.3565  152.5908 H   0  0  0  0  0  0  0  0  0  0  0  0
  144.6200  135.2754  150.3875 H   0  0  0  0  0  0  0  0  0  0  0  0
  146.3053  135.5967  150.8183 H   0  0  0  0  0  0  0  0  0  0  0  0
  144.9777  132.8834  150.5322 H   0  0  0  0  0  0  0  0  0  0  0  0
  146.4650  133.4267  149.7457 H   0  0  0  0  0  0  0  0  0  0  0  0
  146.5237  132.0297  152.1249 H   0  0  0  0  0  0  0  0  0  0  0  0
  147.6917  133.3136  151.8031 H   0  0  0  0  0  0  0  0  0  0  0  0
  1  2  1  0  0  0  0
  1 19  1  0  0  0  0
  1 20  1  0  0  0  0
  1 21  1  0  0  0  0
  2  7  1  0  0  0  0
  2  3  2  0  0  0  0
  3  4  1  0  0  0  0
  4  5  1  0  0  0  0
  5  6  1  0  0  0  0
  5  7  2  0  0  0  0
  6 22  1  0  0  0  0
  6 23  1  0  0  0  0
  6 24  1  0  0  0  0
  7  8  1  0  0  0  0
  8  9  1  0  0  0  0
  8 25  1  0  0  0  0
  9 10  2  0  0  0  0
  9 11  1  0  0  0  0
 11 12  1  0  0  0  0
 11 26  1  0  0  0  0
 12 13  1  0  0  0  0
 12 14  1  0  0  0  0
 12 27  1  0  0  0  0
 13 28  1  0  0  0  0
 13 29  1  0  0  0  0
 13 30  1  0  0  0  0
 14 18  1  0  0  0  0
 14 15  1  0  0  0  0
 14 31  1  0  0  0  0
 15 16  1  0  0  0  0
 15 32  1  0  0  0  0
 15 33  1  0  0  0  0
 16 17  1  0  0  0  0
 16 34  1  0  0  0  0
 16 35  1  0  0  0  0
 17 18  1  0  0  0  0
 17 36  1  0  0  0  0
 17 37  1  0  0  0  0
M  END
> <s_m_source_file>
AV-unprocessed.smi

> <i_m_source_file_index>
977

> <i_lp_mmshare_version>
43012

> <i_f3d_flags>
0

> <s_epik_input>
W0NIM11jMW5vYyhbQ0gzXSljMVtOSF1DKD1PKVtOSF1bQ0BIXShbQ0gzXSlbQ0BASF0yW0NIMl1bQ0gyXVtDSDJdTzI=

> <s_epik_cmdline>
J2VwaWtfcHl0aG9uJywgJy1waCcsICc3LjAnLCAnLXRuJywgJzgnLCAnLW1hJywgJzIwMCcsICctbWV0YWxfYmluZGluZycsICctaW1hZScsICc8aW5maWxlLm1hZT4nLCAnLW9tYWUnLCAnPG91dGZpbGUubWFlPic=

> <r_lp_tautomer_probability>
1

> <r_epik_Ionization_Penalty>
3.41601e-05

> <r_epik_Ionization_Penalty_Charging>
0

> <r_epik_Ionization_Penalty_Neutral>
3.41601e-05

> <r_epik_State_Penalty>
-0

> <r_epik_Charging_Adjusted_Penalty>
0

> <i_epik_Tot_Q>
0

> <i_epik_Tot_abs_Q>
0

> <r_epik_Metal_State_Penalty>
-0

> <b_epik_Metal_Only>
0

> <s_lp_Force_Field>
OPLS_2005

> <r_lp_Energy>
19.4669

> <b_lp_Chiralities_Consistent>
1

> <s_lp_Variant>
AV-unprocessed.smi:977-4

> <Gold.Version>
5.8.1

> <Gold.Id.Protein>
6NUR|6NUR_protein|mol2

> <Gold.PLP.Fitness>
37.2506

> <Gold.PLP.PLP>
-28.7765

> <Gold.PLP.part.hbond>
-4.1391

> <Gold.PLP.part.metal>
0.0000

> <Gold.PLP.part.buried>
-0.5991

> <Gold.PLP.part.nonpolar>
-23.1133

> <Gold.PLP.part.repulsive>
0.4560

> <Gold.PLP.ligand.clash>
0.0000

> <Gold.PLP.ligand.torsion>
0.2883

> <Gold.PLP.Chemscore.Hbond>
2.9280

> <Gold.PLP.Chemscore.CHOScore>
0.0000

> <Gold.PLP.Chemscore.Metal>
0.0000

> <Gold.Chemscore.Hbonds>
donor molecule, donor type, donor heavy atom, donor atom, acceptor molecule, acceptor atom, score
      L1  H     8    25       P1  7948  1.00
      L1  H    11    26       P1  7948  0.93
      P1  H  7989  7998       L1     3  0.95

> <Gold.PLP.Chemscore.Internal.Correction>
0.2668

> <Gold.Rescore>
     Score         DG    S(hbond)    S(metal)    S(lipo)     H(rot)  DE(clash)    DE(int)     intcor
     13.75     -16.41       1.93        0.00      65.03       1.22       0.04       2.62       ----

> <Gold.Chemscore.Fitness>
13.7470

> <Gold.Chemscore.DG>
-16.4056

> <Gold.Chemscore.ZeroCoef>
-5.4800

> <Gold.Chemscore.Hbond>
1.9283

> <Gold.Chemscore.Metal>
0.0000

> <Gold.Chemscore.Lipo>
65.0268

> <Gold.Chemscore.Internal_Hbond>
0.0000

> <Gold.Chemscore.DEClash>
0.0405

> <Gold.Chemscore.DEInternal>
2.6180

> <Gold.Chemscore.Rot>
1.2200

> <Gold.Chemscore.Internal.Correction>
   9.000000E+99

> <Gold.Chemscore.Hbonds>
donor molecule, donor type, donor heavy atom, donor atom, acceptor molecule, acceptor atom, score
      L1  H     8    25       P1  7948  0.99
      L1  H    11    26       P1  7948  0.89
      P1  H  7989  7998       L1     3  0.07

> <Gold.Chemscore.Hbond.Weighted>
-6.4406

> <Gold.Chemscore.Metal.Weighted>
-0.0000

> <Gold.Chemscore.Lipo.Weighted>
-7.6081

> <Gold.Chemscore.Internal_Hbond.Weighted>
0.0000

> <Gold.Chemscore.DEClash.Weighted>
0.0405

> <Gold.Chemscore.DEInternal.Weighted>
2.6180

> <Gold.Chemscore.Rot.Weighted>
3.1232

> <Gold.Chemscore.Internal.Correction.Weighted>
   9.000000E+99

> <Gold.Protein.RotatedTorsions>
[ 6907 6896 6895 6894 ] final   84.12 input  -60.11 | X-H torsion
[ 7974 7965 7964 7962 ] final   61.36 input  175.53 | X-H torsion
[ 8008 7997 7996 7995 ] final  -83.58 input   59.86 | X-H torsion
[ 10167 10162 10161 10158 ] final -158.09 input  -65.29 | X-H torsion
[ 10718 10713 10712 10709 ] final   35.71 input   66.30 | X-H torsion
[ 10763 10752 10751 10750 ] final -138.52 input  -60.55 | X-H torsion
[ 11005 11000 10999 10996 ] final  -15.87 input  -57.11 | X-H torsion

> <Gold.Protein.ActiveResidues>
 VAL166  LYS551  ARG553  GLY616  TRP617  ASP618  TYR619  PRO620  LYS621  CYS622 
 ASP623  PHE694  ASN695  SER759  ASP760  ASP761  ALA762  ILE779  LEU786  VAL792 
 PHE793  MET794  SER795  GLU796  ALA797  LYS798  CYS799  TRP800  GLU811  SER814 

> <Gold.Protein.RotatedAtoms>
  152.5344  134.2790  159.8999 H   0  0  0  0  0  0  0  0  0  0  0  0  # atno 6907 bound_to 6896
  151.2744  133.4233  159.2631 H   0  0  0  0  0  0  0  0  0  0  0  0  # atno 6908 bound_to 6896
  151.0338  134.9574  159.8182 H   0  0  0  0  0  0  0  0  0  0  0  0  # atno 6909 bound_to 6896
  145.8856  139.3474  143.0680 H   0  0  0  0  0  0  0  0  0  0  0  0  # atno 7974 bound_to 7965
  154.6206  140.0617  156.9610 H   0  0  0  0  0  0  0  0  0  0  0  0  # atno 8008 bound_to 7997
  155.1824  140.3300  155.4354 H   0  0  0  0  0  0  0  0  0  0  0  0  # atno 8009 bound_to 7997
  156.2429  140.1895  156.6920 H   0  0  0  0  0  0  0  0  0  0  0  0  # atno 8010 bound_to 7997
  139.6720  143.9729  152.2289 H   0  0  0  0  0  0  0  0  0  0  0  0  # atno 10167 bound_to 10162
  157.3260  130.7473  149.6816 H   0  0  0  0  0  0  0  0  0  0  0  0  # atno 10718 bound_to 10713
  154.8634  135.3609  154.5399 H   0  0  0  0  0  0  0  0  0  0  0  0  # atno 10763 bound_to 10752
  153.6021  135.7012  153.5385 H   0  0  0  0  0  0  0  0  0  0  0  0  # atno 10764 bound_to 10752
  153.3282  135.4132  155.1434 H   0  0  0  0  0  0  0  0  0  0  0  0  # atno 10765 bound_to 10752
  140.8010  133.8214  155.9470 H   0  0  0  0  0  0  0  0  0  0  0  0  # atno 11005 bound_to 11000
  145.8971  140.9267  143.0522 LP  0  0  0  0  0  0  0  0  0  0  0  0  # atno 17320 bound_to 7965
  144.6728  140.0982  143.7462 LP  0  0  0  0  0  0  0  0  0  0  0  0  # atno 17321 bound_to 7965
  139.9496  144.6629  150.8185 LP  0  0  0  0  0  0  0  0  0  0  0  0  # atno 17342 bound_to 10162
  140.7621  143.3191  151.2664 LP  0  0  0  0  0  0  0  0  0  0  0  0  # atno 17343 bound_to 10162
  155.9690  130.4209  150.4444 LP  0  0  0  0  0  0  0  0  0  0  0  0  # atno 17370 bound_to 10713
  157.2468  131.0537  151.2403 LP  0  0  0  0  0  0  0  0  0  0  0  0  # atno 17371 bound_to 10713
  140.9295  134.2040  157.4873 LP  0  0  0  0  0  0  0  0  0  0  0  0  # atno 17394 bound_to 11000
  139.8722  134.9826  156.5165 LP  0  0  0  0  0  0  0  0  0  0  0  0  # atno 17395 bound_to 11000

$$$$
