AV-unprocessed.smi:2583|AV-procd|sdf|10137|dock5
  -GOLD-   2272014153D 1   1.00000     0.00000
 Structure written by MMmdl.
 55 57  0  0  0  0  0  0  0  0  3 V2000
  153.6646  141.9851  160.4144 C   0  0  0  0  0  0  0  0  0  0  0  0
  152.7021  142.1468  159.2564 C   0  0  0  0  0  0  0  0  0  0  0  0
  152.3610  143.4244  158.7667 C   0  0  0  0  0  0  0  0  0  0  0  0
  151.5214  143.6191  157.7280 N   0  0  0  0  0  0  0  0  0  0  0  0
  150.9811  142.5310  157.1394 C   0  0  0  0  0  0  0  0  0  0  0  0
  151.2371  141.2078  157.5566 C   0  0  0  0  0  0  0  0  0  0  0  0
  150.6186  140.1472  156.8418 N   0  0  0  0  0  0  0  0  0  0  0  0
  149.3770  140.1090  156.3286 C   0  0  0  0  0  0  0  0  0  0  0  0
  148.5657  141.0341  156.3625 O   0  0  0  0  0  0  0  0  0  0  0  0
  149.1276  138.9305  155.7390 N   0  0  0  0  0  0  0  0  0  0  0  0
  147.8798  138.5812  155.0655 C   0  0  2  0  0  0  0  0  0  0  0  0
  147.7064  137.0583  155.0230 C   0  0  0  0  0  0  0  0  0  0  0  0
  146.4343  136.6599  154.2535 C   0  0  0  0  0  0  0  0  0  0  0  0
  146.4278  137.2095  152.8652 N   0  3  1  0  0  0  0  0  0  0  0  0
  145.2676  136.7833  152.0104 C   0  0  2  0  0  0  0  0  0  0  0  0
  144.1683  135.9632  152.7327 C   0  0  0  0  0  0  0  0  0  0  0  0
  144.6396  134.5451  153.1075 C   0  0  0  0  0  0  0  0  0  0  0  0
  145.1084  133.8065  151.9098 N   0  3  2  0  0  0  0  0  0  0  0  0
  145.4821  132.4095  152.2194 C   0  0  0  0  0  0  0  0  0  0  0  0
  146.1830  134.5348  151.1915 C   0  0  0  0  0  0  0  0  0  0  0  0
  145.7218  135.9480  150.7888 C   0  0  0  0  0  0  0  0  0  0  0  0
  146.5836  138.6936  152.8952 C   0  0  0  0  0  0  0  0  0  0  0  0
  147.8632  139.1237  153.6290 C   0  0  0  0  0  0  0  0  0  0  0  0
  152.1316  141.0168  158.6368 C   0  0  0  0  0  0  0  0  0  0  0  0
  153.8707  142.9420  160.8947 H   0  0  0  0  0  0  0  0  0  0  0  0
  154.6085  141.5672  160.0633 H   0  0  0  0  0  0  0  0  0  0  0  0
  153.2478  141.3113  161.1635 H   0  0  0  0  0  0  0  0  0  0  0  0
  152.7769  144.3155  159.2132 H   0  0  0  0  0  0  0  0  0  0  0  0
  150.3167  142.7252  156.3100 H   0  0  0  0  0  0  0  0  0  0  0  0
  151.2093  139.3515  156.6488 H   0  0  0  0  0  0  0  0  0  0  0  0
  149.8525  138.2277  155.7564 H   0  0  0  0  0  0  0  0  0  0  0  0
  147.0402  139.0056  155.6201 H   0  0  0  0  0  0  0  0  0  0  0  0
  148.5751  136.5978  154.5498 H   0  0  0  0  0  0  0  0  0  0  0  0
  147.6609  136.6601  156.0375 H   0  0  0  0  0  0  0  0  0  0  0  0
  146.4066  135.5720  154.2454 H   0  0  0  0  0  0  0  0  0  0  0  0
  145.5458  137.0019  154.7865 H   0  0  0  0  0  0  0  0  0  0  0  0
  144.7917  137.6962  151.6484 H   0  0  0  0  0  0  0  0  0  0  0  0
  143.7655  136.4861  153.5994 H   0  0  0  0  0  0  0  0  0  0  0  0
  143.3157  135.8671  152.0585 H   0  0  0  0  0  0  0  0  0  0  0  0
  145.4407  134.5870  153.8464 H   0  0  0  0  0  0  0  0  0  0  0  0
  143.8145  133.9997  153.5675 H   0  0  0  0  0  0  0  0  0  0  0  0
  146.3318  132.3726  152.9026 H   0  0  0  0  0  0  0  0  0  0  0  0
  145.7508  131.8718  151.3095 H   0  0  0  0  0  0  0  0  0  0  0  0
  144.6480  131.8812  152.6823 H   0  0  0  0  0  0  0  0  0  0  0  0
  147.0737  134.5907  151.8191 H   0  0  0  0  0  0  0  0  0  0  0  0
  146.4615  133.9762  150.2971 H   0  0  0  0  0  0  0  0  0  0  0  0
  144.8841  135.8545  150.0960 H   0  0  0  0  0  0  0  0  0  0  0  0
  146.5049  136.4423  150.2173 H   0  0  0  0  0  0  0  0  0  0  0  0
  146.6200  139.1069  151.8896 H   0  0  0  0  0  0  0  0  0  0  0  0
  145.7137  139.1395  153.3806 H   0  0  0  0  0  0  0  0  0  0  0  0
  147.9296  140.2125  153.6380 H   0  0  0  0  0  0  0  0  0  0  0  0
  148.7366  138.7649  153.0819 H   0  0  0  0  0  0  0  0  0  0  0  0
  152.3995  140.0316  158.9867 H   0  0  0  0  0  0  0  0  0  0  0  0
  147.2567  136.8396  152.4224 H   0  0  0  0  0  0  0  0  0  0  0  0
  144.3224  133.7553  151.2769 H   0  0  0  0  0  0  0  0  0  0  0  0
  1  2  1  0  0  0  0
  1 25  1  0  0  0  0
  1 26  1  0  0  0  0
  1 27  1  0  0  0  0
  2 24  1  0  0  0  0
  2  3  2  0  0  0  0
  3  4  1  0  0  0  0
  3 28  1  0  0  0  0
  4  5  2  0  0  0  0
  5  6  1  0  0  0  0
  5 29  1  0  0  0  0
  6  7  1  0  0  0  0
  6 24  2  0  0  0  0
  7  8  1  0  0  0  0
  7 30  1  0  0  0  0
  8  9  2  0  0  0  0
  8 10  1  0  0  0  0
 10 11  1  0  0  0  0
 10 31  1  0  0  0  0
 11 23  1  0  0  0  0
 11 12  1  0  0  0  0
 11 32  1  0  0  0  0
 12 13  1  0  0  0  0
 12 33  1  0  0  0  0
 12 34  1  0  0  0  0
 13 14  1  0  0  0  0
 13 35  1  0  0  0  0
 13 36  1  0  0  0  0
 14 15  1  0  0  0  0
 14 22  1  0  0  0  0
 14 54  1  0  0  0  0
 15 21  1  0  0  0  0
 15 16  1  0  0  0  0
 15 37  1  0  0  0  0
 16 17  1  0  0  0  0
 16 38  1  0  0  0  0
 16 39  1  0  0  0  0
 17 18  1  0  0  0  0
 17 40  1  0  0  0  0
 17 41  1  0  0  0  0
 18 19  1  0  0  0  0
 18 20  1  0  0  0  0
 18 55  1  0  0  0  0
 19 42  1  0  0  0  0
 19 43  1  0  0  0  0
 19 44  1  0  0  0  0
 20 21  1  0  0  0  0
 20 45  1  0  0  0  0
 20 46  1  0  0  0  0
 21 47  1  0  0  0  0
 21 48  1  0  0  0  0
 22 23  1  0  0  0  0
 22 49  1  0  0  0  0
 22 50  1  0  0  0  0
 23 51  1  0  0  0  0
 23 52  1  0  0  0  0
 24 53  1  0  0  0  0
M  CHG  1  14   1
M  CHG  1  18   1
M  END
> <s_m_source_file>
AV-unprocessed.smi

> <i_m_source_file_index>
2583

> <i_lp_mmshare_version>
43012

> <i_f3d_flags>
0

> <s_epik_input>
W0NIM11jMVtjSF1uW2NIXWMoW2NIXTEpW05IXUMoPU8pW05IXVtDSF0yW0NIMl1bQ0gyXU4oW0NIMl1bQ0gyXTIpW0NIXTNbQ0gyXVtDSDJdTihbQ0gzXSlbQ0gyXVtDSDJdMw==

> <s_epik_cmdline>
J2VwaWtfcHl0aG9uJywgJy1waCcsICc3LjAnLCAnLXRuJywgJzgnLCAnLW1hJywgJzIwMCcsICctbWV0YWxfYmluZGluZycsICctaW1hZScsICc8aW5maWxlLm1hZT4nLCAnLW9tYWUnLCAnPG91dGZpbGUubWFlPic=

> <r_epik_Ionization_Penalty>
0.188357

> <r_epik_Ionization_Penalty_Charging>
0.180787

> <r_epik_Ionization_Penalty_Neutral>
0.00756971

> <r_epik_State_Penalty>
0.157948

> <r_epik_Charging_Adjusted_Penalty>
0.338735

> <i_epik_Tot_Q>
2

> <i_epik_Tot_abs_Q>
2

> <r_epik_Metal_State_Penalty>
0.153874

> <b_epik_Metal_Only>
0

> <s_lp_Force_Field>
OPLS_2005

> <r_lp_Energy>
48.801

> <b_lp_Chiralities_Consistent>
1

> <s_lp_Variant>
AV-unprocessed.smi:2583-3

> <Gold.Version>
5.8.1

> <Gold.Id.Protein>
6NUR|6NUR_protein|mol2

> <Gold.PLP.Fitness>
40.6790

> <Gold.PLP.PLP>
-35.8089

> <Gold.PLP.part.hbond>
-1.0000

> <Gold.PLP.part.metal>
0.0000

> <Gold.PLP.part.buried>
-4.8899

> <Gold.PLP.part.nonpolar>
-30.0248

> <Gold.PLP.part.repulsive>
0.2552

> <Gold.PLP.ligand.clash>
0.0000

> <Gold.PLP.ligand.torsion>
2.0820

> <Gold.PLP.Chemscore.Hbond>
2.0000

> <Gold.PLP.Chemscore.CHOScore>
1.0000

> <Gold.PLP.Chemscore.Metal>
0.0000

> <Gold.Chemscore.Hbonds>
donor molecule, donor type, donor heavy atom, donor atom, acceptor molecule, acceptor atom, score
      L1  H    14    54       P1  7948  2.00
      L1  C     5    29       P1  8028  0.98

> <Gold.PLP.Chemscore.Internal.Correction>
0.0341

> <Gold.Rescore>
     Score         DG    S(hbond)    S(metal)    S(lipo)     H(rot)  DE(clash)    DE(int)     intcor
     14.83     -18.02       1.00        0.00     105.20       1.21       0.06       3.12       ----

> <Gold.Chemscore.Fitness>
14.8304

> <Gold.Chemscore.DG>
-18.0172

> <Gold.Chemscore.ZeroCoef>
-5.4800

> <Gold.Chemscore.Hbond>
0.9953

> <Gold.Chemscore.Metal>
0.0000

> <Gold.Chemscore.Lipo>
105.1989

> <Gold.Chemscore.Internal_Hbond>
0.0000

> <Gold.Chemscore.DEClash>
0.0625

> <Gold.Chemscore.DEInternal>
3.1243

> <Gold.Chemscore.Rot>
1.2092

> <Gold.Chemscore.Internal.Correction>
   9.000000E+99

> <Gold.Chemscore.Hbonds>
donor molecule, donor type, donor heavy atom, donor atom, acceptor molecule, acceptor atom, score
      L1  H    14    54       P1  7948  1.00

> <Gold.Chemscore.Hbond.Weighted>
-3.3244

> <Gold.Chemscore.Metal.Weighted>
-0.0000

> <Gold.Chemscore.Lipo.Weighted>
-12.3083

> <Gold.Chemscore.Internal_Hbond.Weighted>
0.0000

> <Gold.Chemscore.DEClash.Weighted>
0.0625

> <Gold.Chemscore.DEInternal.Weighted>
3.1243

> <Gold.Chemscore.Rot.Weighted>
3.0955

> <Gold.Chemscore.Internal.Correction.Weighted>
   9.000000E+99

> <Gold.Protein.RotatedTorsions>
[ 6907 6896 6895 6894 ] final    0.37 input  -60.11 | X-H torsion
[ 7974 7965 7964 7962 ] final   44.22 input  175.53 | X-H torsion
[ 8008 7997 7996 7995 ] final  118.89 input   59.86 | X-H torsion
[ 10167 10162 10161 10158 ] final  -14.05 input  -65.29 | X-H torsion
[ 10718 10713 10712 10709 ] final   89.38 input   66.30 | X-H torsion
[ 10763 10752 10751 10750 ] final   53.20 input  -60.55 | X-H torsion
[ 11005 11000 10999 10996 ] final   44.00 input  -57.11 | X-H torsion

> <Gold.Protein.ActiveResidues>
 VAL166  LYS551  ARG553  GLY616  TRP617  ASP618  TYR619  PRO620  LYS621  CYS622 
 ASP623  PHE694  ASN695  SER759  ASP760  ASP761  ALA762  ILE779  LEU786  VAL792 
 PHE793  MET794  SER795  GLU796  ALA797  LYS798  CYS799  TRP800  GLU811  SER814 

> <Gold.Protein.RotatedAtoms>
  151.5753  135.1061  160.0004 H   0  0  0  0  0  0  0  0  0  0  0  0  # atno 6907 bound_to 6896
  152.4381  133.7393  159.6642 H   0  0  0  0  0  0  0  0  0  0  0  0  # atno 6908 bound_to 6896
  150.8282  133.8067  159.3133 H   0  0  0  0  0  0  0  0  0  0  0  0  # atno 6909 bound_to 6896
  146.0588  139.5099  142.9671 H   0  0  0  0  0  0  0  0  0  0  0  0  # atno 7974 bound_to 7965
  156.2569  140.2865  156.0906 H   0  0  0  0  0  0  0  0  0  0  0  0  # atno 8008 bound_to 7997
  155.1467  140.0396  157.2829 H   0  0  0  0  0  0  0  0  0  0  0  0  # atno 8009 bound_to 7997
  154.6490  140.2540  155.7241 H   0  0  0  0  0  0  0  0  0  0  0  0  # atno 8010 bound_to 7997
  140.7194  143.5362  150.9462 H   0  0  0  0  0  0  0  0  0  0  0  0  # atno 10167 bound_to 10162
  157.6955  131.0331  150.3417 H   0  0  0  0  0  0  0  0  0  0  0  0  # atno 10718 bound_to 10713
  152.9793  135.5787  154.4702 H   0  0  0  0  0  0  0  0  0  0  0  0  # atno 10763 bound_to 10752
  154.4266  135.2772  155.1942 H   0  0  0  0  0  0  0  0  0  0  0  0  # atno 10764 bound_to 10752
  154.3668  135.6176  153.5773 H   0  0  0  0  0  0  0  0  0  0  0  0  # atno 10765 bound_to 10752
  140.1592  134.4363  155.8329 H   0  0  0  0  0  0  0  0  0  0  0  0  # atno 11005 bound_to 11000
  145.6597  141.0243  143.1716 LP  0  0  0  0  0  0  0  0  0  0  0  0  # atno 17320 bound_to 7965
  144.7163  139.8186  143.7397 LP  0  0  0  0  0  0  0  0  0  0  0  0  # atno 17321 bound_to 7965
  139.9083  143.6751  152.3119 LP  0  0  0  0  0  0  0  0  0  0  0  0  # atno 17342 bound_to 10162
  139.7125  144.7617  151.1088 LP  0  0  0  0  0  0  0  0  0  0  0  0  # atno 17343 bound_to 10162
  156.3877  130.3892  149.7054 LP  0  0  0  0  0  0  0  0  0  0  0  0  # atno 17370 bound_to 10713
  156.4414  130.7863  151.2884 LP  0  0  0  0  0  0  0  0  0  0  0  0  # atno 17371 bound_to 10713
  141.2207  133.6906  156.7563 LP  0  0  0  0  0  0  0  0  0  0  0  0  # atno 17394 bound_to 11000
  140.2510  134.8540  157.3667 LP  0  0  0  0  0  0  0  0  0  0  0  0  # atno 17395 bound_to 11000

$$$$
