AV-unprocessed.smi:1417|AV-procd|sdf|5765|dock6
  -GOLD-   22720 5403D 1   1.00000     0.00000
 Structure written by MMmdl.
 39 40  0  0  0  0  0  0  0  0  1 V2000
  143.5112  144.0081  161.6050 C   0  0  0  0  0  0  0  0  0  0  0  0
  144.6531  143.5296  160.7752 C   0  0  0  0  0  0  0  0  0  0  0  0
  145.2553  144.0190  159.6506 C   0  0  0  0  0  0  0  0  0  0  0  0
  146.2788  143.0607  159.3933 C   0  0  0  0  0  0  0  0  0  0  0  0
  147.2056  143.0869  158.3192 N   0  0  0  0  0  0  0  0  0  0  0  0
  147.9029  142.0666  157.7918 C   0  0  0  0  0  0  0  0  0  0  0  0
  147.8296  140.8913  158.1503 O   0  0  0  0  0  0  0  0  0  0  0  0
  148.7061  142.4892  156.8047 N   0  0  0  0  0  0  0  0  0  0  0  0
  149.6044  141.6414  156.0265 C   0  0  0  0  0  0  0  0  0  0  0  0
  148.8132  140.7355  155.0679 C   0  0  0  0  0  0  0  0  0  0  0  0
  149.7353  139.7312  154.3546 C   0  0  0  0  0  0  0  0  0  0  0  0
  150.4591  138.9094  155.3356 N   0  0  0  0  0  0  0  0  0  0  0  0
  151.3009  137.8736  154.6933 C   0  0  0  0  0  0  0  0  0  0  0  0
  150.9457  136.4313  155.0744 C   0  0  0  0  0  0  0  0  0  0  0  0
  149.8931  135.8821  154.4625 N   0  0  0  0  0  0  0  0  0  0  0  0
  151.6074  135.8268  155.9150 O   0  0  0  0  0  0  0  0  0  0  0  0
  151.3001  139.7608  156.1832 C   0  0  0  0  0  0  0  0  0  0  0  0
  150.4363  140.7614  156.9706 C   0  0  0  0  0  0  0  0  0  0  0  0
  146.2928  142.0820  160.2794 N   0  0  0  0  0  0  0  0  0  0  0  0
  145.2547  142.3762  161.1712 O   0  0  0  0  0  0  0  0  0  0  0  0
  142.9689  144.8068  161.0988 H   0  0  0  0  0  0  0  0  0  0  0  0
  143.8641  144.3922  162.5622 H   0  0  0  0  0  0  0  0  0  0  0  0
  142.8099  143.1972  161.8031 H   0  0  0  0  0  0  0  0  0  0  0  0
  144.9914  144.9163  159.1115 H   0  0  0  0  0  0  0  0  0  0  0  0
  147.3593  143.9948  157.9061 H   0  0  0  0  0  0  0  0  0  0  0  0
  148.7003  143.4724  156.5758 H   0  0  0  0  0  0  0  0  0  0  0  0
  150.2852  142.2699  155.4488 H   0  0  0  0  0  0  0  0  0  0  0  0
  148.0446  140.1910  155.6191 H   0  0  0  0  0  0  0  0  0  0  0  0
  148.2902  141.3392  154.3255 H   0  0  0  0  0  0  0  0  0  0  0  0
  149.1178  139.1112  153.7050 H   0  0  0  0  0  0  0  0  0  0  0  0
  150.4411  140.2572  153.7093 H   0  0  0  0  0  0  0  0  0  0  0  0
  151.2498  137.9785  153.6078 H   0  0  0  0  0  0  0  0  0  0  0  0
  152.3445  138.0298  154.9702 H   0  0  0  0  0  0  0  0  0  0  0  0
  149.6188  134.9372  154.6889 H   0  0  0  0  0  0  0  0  0  0  0  0
  149.3716  136.4160  153.7825 H   0  0  0  0  0  0  0  0  0  0  0  0
  151.8547  139.1439  156.8917 H   0  0  0  0  0  0  0  0  0  0  0  0
  152.0384  140.2908  155.5786 H   0  0  0  0  0  0  0  0  0  0  0  0
  151.0741  141.3857  157.5972 H   0  0  0  0  0  0  0  0  0  0  0  0
  149.7785  140.2141  157.6478 H   0  0  0  0  0  0  0  0  0  0  0  0
  1  2  1  0  0  0  0
  1 21  1  0  0  0  0
  1 22  1  0  0  0  0
  1 23  1  0  0  0  0
  2 20  1  0  0  0  0
  2  3  2  0  0  0  0
  3  4  1  0  0  0  0
  3 24  1  0  0  0  0
  4  5  1  0  0  0  0
  4 19  2  0  0  0  0
  5  6  1  0  0  0  0
  5 25  1  0  0  0  0
  6  7  2  0  0  0  0
  6  8  1  0  0  0  0
  8  9  1  0  0  0  0
  8 26  1  0  0  0  0
  9 18  1  0  0  0  0
  9 10  1  0  0  0  0
  9 27  1  0  0  0  0
 10 11  1  0  0  0  0
 10 28  1  0  0  0  0
 10 29  1  0  0  0  0
 11 12  1  0  0  0  0
 11 30  1  0  0  0  0
 11 31  1  0  0  0  0
 12 13  1  0  0  0  0
 12 17  1  0  0  0  0
 13 14  1  0  0  0  0
 13 32  1  0  0  0  0
 13 33  1  0  0  0  0
 14 15  1  0  0  0  0
 14 16  2  0  0  0  0
 15 34  1  0  0  0  0
 15 35  1  0  0  0  0
 17 18  1  0  0  0  0
 17 36  1  0  0  0  0
 17 37  1  0  0  0  0
 18 38  1  0  0  0  0
 18 39  1  0  0  0  0
 19 20  1  0  0  0  0
M  END
> <s_m_source_file>
AV-unprocessed.smi

> <i_m_source_file_index>
1417

> <i_lp_mmshare_version>
43012

> <i_f3d_flags>
0

> <s_epik_input>
W0NIM11jMVtjSF1jKG5vMSlbTkhdQyg9TylbTkhdW0NIXTJbQ0gyXVtDSDJdTihbQ0gyXVtDSDJdMilbQ0gyXUMoPU8pW05IMl0=

> <s_epik_cmdline>
J2VwaWtfcHl0aG9uJywgJy1waCcsICc3LjAnLCAnLXRuJywgJzgnLCAnLW1hJywgJzIwMCcsICctbWV0YWxfYmluZGluZycsICctaW1hZScsICc8aW5maWxlLm1hZT4nLCAnLW9tYWUnLCAnPG91dGZpbGUubWFlPic=

> <r_epik_Ionization_Penalty>
0.155825

> <r_epik_Ionization_Penalty_Charging>
0

> <r_epik_Ionization_Penalty_Neutral>
0.155825

> <r_epik_State_Penalty>
0.145092

> <r_epik_Charging_Adjusted_Penalty>
0.145092

> <i_epik_Tot_Q>
0

> <i_epik_Tot_abs_Q>
0

> <r_epik_Metal_State_Penalty>
0.171119

> <b_epik_Metal_Only>
0

> <s_lp_Force_Field>
OPLS_2005

> <r_lp_Energy>
11.4398

> <b_lp_Chiralities_Consistent>
1

> <s_lp_Variant>
AV-unprocessed.smi:1417-1

> <Gold.Version>
5.8.1

> <Gold.Id.Protein>
6NUR|6NUR_protein|mol2

> <Gold.PLP.Fitness>
39.9077

> <Gold.PLP.PLP>
-27.1622

> <Gold.PLP.part.hbond>
-7.2182

> <Gold.PLP.part.metal>
0.0000

> <Gold.PLP.part.buried>
0.9922

> <Gold.PLP.part.nonpolar>
-21.0616

> <Gold.PLP.part.repulsive>
0.2472

> <Gold.PLP.ligand.clash>
0.0000

> <Gold.PLP.ligand.torsion>
1.2383

> <Gold.PLP.Chemscore.Hbond>
5.0695

> <Gold.PLP.Chemscore.CHOScore>
0.0000

> <Gold.PLP.Chemscore.Metal>
0.0000

> <Gold.Chemscore.Hbonds>
donor molecule, donor type, donor heavy atom, donor atom, acceptor molecule, acceptor atom, score
      L1  H     5    25       P1  8029  0.66
      L1  H     8    26       P1  8028  1.00
      L1  H    15    35       P1  7948  0.69
      P1  H  6934  6946       L1    19  0.76
      P1  H 10752 10763       L1    16  1.00

> <Gold.PLP.Chemscore.Internal.Correction>
0.0136

> <Gold.Rescore>
     Score         DG    S(hbond)    S(metal)    S(lipo)     H(rot)  DE(clash)    DE(int)     intcor
     11.36     -16.49       2.84        0.00      57.26       2.02       1.47       3.66       ----

> <Gold.Chemscore.Fitness>
11.3639

> <Gold.Chemscore.DG>
-16.4950

> <Gold.Chemscore.ZeroCoef>
-5.4800

> <Gold.Chemscore.Hbond>
2.8416

> <Gold.Chemscore.Metal>
0.0000

> <Gold.Chemscore.Lipo>
57.2607

> <Gold.Chemscore.Internal_Hbond>
0.0000

> <Gold.Chemscore.DEClash>
1.4711

> <Gold.Chemscore.DEInternal>
3.6601

> <Gold.Chemscore.Rot>
2.0217

> <Gold.Chemscore.Internal.Correction>
   9.000000E+99

> <Gold.Chemscore.Hbonds>
donor molecule, donor type, donor heavy atom, donor atom, acceptor molecule, acceptor atom, score
      L1  H     5    25       P1  8029  0.10
      L1  H     8    26       P1  8028  0.66
      L1  H    15    35       P1  7948  0.61
      P1  H  6934  6946       L1    19  0.45
      P1  H 10752 10763       L1    16  0.26

> <Gold.Chemscore.Hbond.Weighted>
-9.4910

> <Gold.Chemscore.Metal.Weighted>
-0.0000

> <Gold.Chemscore.Lipo.Weighted>
-6.6995

> <Gold.Chemscore.Internal_Hbond.Weighted>
0.0000

> <Gold.Chemscore.DEClash.Weighted>
1.4711

> <Gold.Chemscore.DEInternal.Weighted>
3.6601

> <Gold.Chemscore.Rot.Weighted>
5.1755

> <Gold.Chemscore.Internal.Correction.Weighted>
   9.000000E+99

> <Gold.Protein.RotatedTorsions>
[ 6907 6896 6895 6894 ] final  122.00 input  -60.11 | X-H torsion
[ 7974 7965 7964 7962 ] final -125.30 input  175.53 | X-H torsion
[ 8008 7997 7996 7995 ] final   23.09 input   59.86 | X-H torsion
[ 10167 10162 10161 10158 ] final  -22.15 input  -65.29 | X-H torsion
[ 10718 10713 10712 10709 ] final  145.18 input   66.30 | X-H torsion
[ 10763 10752 10751 10750 ] final   83.62 input  -60.55 | X-H torsion
[ 11005 11000 10999 10996 ] final  132.93 input  -57.11 | X-H torsion

> <Gold.Protein.ActiveResidues>
 VAL166  LYS551  ARG553  GLY616  TRP617  ASP618  TYR619  PRO620  LYS621  CYS622 
 ASP623  PHE694  ASN695  SER759  ASP760  ASP761  ALA762  ILE779  LEU786  VAL792 
 PHE793  MET794  SER795  GLU796  ALA797  LYS798  CYS799  TRP800  GLU811  SER814 

> <Gold.Protein.RotatedAtoms>
  152.4278  133.7224  159.6540 H   0  0  0  0  0  0  0  0  0  0  0  0  # atno 6907 bound_to 6896
  150.8155  133.8334  159.3168 H   0  0  0  0  0  0  0  0  0  0  0  0  # atno 6908 bound_to 6896
  151.6032  135.1048  160.0116 H   0  0  0  0  0  0  0  0  0  0  0  0  # atno 6909 bound_to 6896
  144.9990  140.7803  143.4507 H   0  0  0  0  0  0  0  0  0  0  0  0  # atno 7974 bound_to 7965
  154.9756  140.3095  155.4969 H   0  0  0  0  0  0  0  0  0  0  0  0  # atno 8008 bound_to 7997
  156.2960  140.2276  156.4791 H   0  0  0  0  0  0  0  0  0  0  0  0  # atno 8009 bound_to 7997
  154.7836  140.0444  157.1135 H   0  0  0  0  0  0  0  0  0  0  0  0  # atno 8010 bound_to 7997
  140.7285  143.4562  151.0445 H   0  0  0  0  0  0  0  0  0  0  0  0  # atno 10167 bound_to 10162
  157.3483  131.0946  151.1022 H   0  0  0  0  0  0  0  0  0  0  0  0  # atno 10718 bound_to 10713
  153.1307  135.4684  154.9345 H   0  0  0  0  0  0  0  0  0  0  0  0  # atno 10763 bound_to 10752
  154.7662  135.3145  154.8284 H   0  0  0  0  0  0  0  0  0  0  0  0  # atno 10764 bound_to 10752
  153.8827  135.6892  153.4820 H   0  0  0  0  0  0  0  0  0  0  0  0  # atno 10765 bound_to 10752
  139.9820  134.9545  156.9653 H   0  0  0  0  0  0  0  0  0  0  0  0  # atno 11005 bound_to 11000
  145.2179  139.2173  143.5108 LP  0  0  0  0  0  0  0  0  0  0  0  0  # atno 17320 bound_to 7965
  146.3448  140.2030  142.8589 LP  0  0  0  0  0  0  0  0  0  0  0  0  # atno 17321 bound_to 7965
  139.8242  143.7778  152.3178 LP  0  0  0  0  0  0  0  0  0  0  0  0  # atno 17342 bound_to 10162
  139.7871  144.7423  151.0006 LP  0  0  0  0  0  0  0  0  0  0  0  0  # atno 17343 bound_to 10162
  157.2208  130.6480  149.5810 LP  0  0  0  0  0  0  0  0  0  0  0  0  # atno 17370 bound_to 10713
  155.9717  130.4630  150.6165 LP  0  0  0  0  0  0  0  0  0  0  0  0  # atno 17371 bound_to 10713
  140.5077  134.1034  155.7263 LP  0  0  0  0  0  0  0  0  0  0  0  0  # atno 17394 bound_to 11000
  141.1491  133.9001  157.2142 LP  0  0  0  0  0  0  0  0  0  0  0  0  # atno 17395 bound_to 11000

$$$$
