AV-unprocessed.smi:86|AV-procd|sdf|819|dock7
  -GOLD-   2262017223D 1   1.00000     0.00000
 Structure written by MMmdl.
 51 55  0  0  0  0  0  0  0  0  1 V2000
  147.6456  136.8771  162.7108 O   0  0  0  0  0  0  0  0  0  0  0  0
  147.7808  135.6128  162.0933 C   0  0  0  0  0  0  0  0  0  0  0  0
  147.4831  135.6829  160.5875 C   0  0  0  0  0  0  0  0  0  0  0  0
  147.8154  134.3004  159.9765 C   0  0  0  0  0  0  0  0  0  0  0  0
  147.4866  134.1493  158.5666 N   0  0  0  0  0  0  0  0  0  0  0  0
  146.2363  134.2233  157.9972 C   0  0  0  0  0  0  0  0  0  0  0  0
  146.2052  134.0634  156.7030 N   0  0  0  0  0  0  0  0  0  0  0  0
  147.5367  133.8832  156.3426 C   0  0  0  0  0  0  0  0  0  0  0  0
  148.2230  133.6644  155.1104 C   0  0  0  0  0  0  0  0  0  0  0  0
  147.6219  133.5675  153.8970 N   0  0  0  0  0  0  0  0  0  0  0  0
  147.5280  132.3315  153.1275 C   0  0  0  0  0  0  0  0  0  0  0  0
  146.8027  132.7603  151.8530 C   0  0  1  0  0  0  0  0  0  0  0  0
  146.0501  131.7030  151.0368 C   0  0  0  0  0  0  0  0  0  0  0  0
  145.3282  132.3965  149.8608 C   0  0  0  0  0  0  0  0  0  0  0  0
  144.4280  133.5672  150.3283 C   0  0  2  0  0  0  0  0  0  0  0  0
  143.9015  134.2365  149.2020 O   0  0  0  0  0  0  0  0  0  0  0  0
  145.1853  134.5779  151.2200 C   0  0  0  0  0  0  0  0  0  0  0  0
  145.8426  133.8190  152.3790 C   0  0  2  0  0  0  0  0  0  0  0  0
  146.7194  134.5892  153.3671 C   0  0  0  0  0  0  0  0  0  0  0  0
  149.5750  133.5373  155.1668 N   0  0  0  0  0  0  0  0  0  0  0  0
  150.2180  133.6211  156.3342 C   0  0  0  0  0  0  0  0  0  0  0  0
  149.7125  133.8220  157.5515 N   0  0  0  0  0  0  0  0  0  0  0  0
  148.3553  133.9455  157.5079 C   0  0  0  0  0  0  0  0  0  0  0  0
  146.1202  136.3139  160.2495 C   0  0  0  0  0  0  0  0  0  0  0  0
  146.7255  137.5831  159.9269 O   0  0  0  0  0  0  0  0  0  0  0  0
  148.0162  136.9400  159.8792 C   0  0  0  0  0  0  0  0  0  0  0  0
  147.3026  136.7502  163.5824 H   0  0  0  0  0  0  0  0  0  0  0  0
  148.7874  135.2365  162.2776 H   0  0  0  0  0  0  0  0  0  0  0  0
  147.0980  134.9232  162.5912 H   0  0  0  0  0  0  0  0  0  0  0  0
  148.8786  134.0824  160.0842 H   0  0  0  0  0  0  0  0  0  0  0  0
  147.2974  133.5104  160.5215 H   0  0  0  0  0  0  0  0  0  0  0  0
  145.3408  134.3974  158.5762 H   0  0  0  0  0  0  0  0  0  0  0  0
  148.5100  131.9138  152.9043 H   0  0  0  0  0  0  0  0  0  0  0  0
  146.9474  131.5947  153.6841 H   0  0  0  0  0  0  0  0  0  0  0  0
  147.5352  133.2424  151.2018 H   0  0  0  0  0  0  0  0  0  0  0  0
  146.7419  130.9475  150.6632 H   0  0  0  0  0  0  0  0  0  0  0  0
  145.3258  131.1854  151.6670 H   0  0  0  0  0  0  0  0  0  0  0  0
  146.0760  132.7716  149.1605 H   0  0  0  0  0  0  0  0  0  0  0  0
  144.7348  131.6649  149.3108 H   0  0  0  0  0  0  0  0  0  0  0  0
  143.5879  133.1598  150.8921 H   0  0  0  0  0  0  0  0  0  0  0  0
  144.6191  134.4963  148.6448 H   0  0  0  0  0  0  0  0  0  0  0  0
  145.9461  135.1013  150.6388 H   0  0  0  0  0  0  0  0  0  0  0  0
  144.5010  135.3354  151.6036 H   0  0  0  0  0  0  0  0  0  0  0  0
  145.0576  133.3235  152.9543 H   0  0  0  0  0  0  0  0  0  0  0  0
  146.1162  135.0625  154.1428 H   0  0  0  0  0  0  0  0  0  0  0  0
  147.3052  135.3586  152.8629 H   0  0  0  0  0  0  0  0  0  0  0  0
  151.2912  133.5104  156.2854 H   0  0  0  0  0  0  0  0  0  0  0  0
  145.6058  135.8928  159.3869 H   0  0  0  0  0  0  0  0  0  0  0  0
  145.4411  136.3791  161.1003 H   0  0  0  0  0  0  0  0  0  0  0  0
  148.7730  137.4818  160.4473 H   0  0  0  0  0  0  0  0  0  0  0  0
  148.3480  136.7865  158.8531 H   0  0  0  0  0  0  0  0  0  0  0  0
  1  2  1  0  0  0  0
  1 27  1  0  0  0  0
  2  3  1  0  0  0  0
  2 28  1  0  0  0  0
  2 29  1  0  0  0  0
  3 26  1  0  0  0  0
  3  4  1  0  0  0  0
  3 24  1  0  0  0  0
  4  5  1  0  0  0  0
  4 30  1  0  0  0  0
  4 31  1  0  0  0  0
  5 23  1  0  0  0  0
  5  6  1  0  0  0  0
  6  7  2  0  0  0  0
  6 32  1  0  0  0  0
  7  8  1  0  0  0  0
  8 23  2  0  0  0  0
  8  9  1  0  0  0  0
  9 10  1  0  0  0  0
  9 20  2  0  0  0  0
 10 19  1  0  0  0  0
 10 11  1  0  0  0  0
 11 12  1  0  0  0  0
 11 33  1  0  0  0  0
 11 34  1  0  0  0  0
 12 18  1  0  0  0  0
 12 13  1  0  0  0  0
 12 35  1  0  0  0  0
 13 14  1  0  0  0  0
 13 36  1  0  0  0  0
 13 37  1  0  0  0  0
 14 15  1  0  0  0  0
 14 38  1  0  0  0  0
 14 39  1  0  0  0  0
 15 16  1  0  0  0  0
 15 17  1  0  0  0  0
 15 40  1  0  0  0  0
 16 41  1  0  0  0  0
 17 18  1  0  0  0  0
 17 42  1  0  0  0  0
 17 43  1  0  0  0  0
 18 19  1  0  0  0  0
 18 44  1  0  0  0  0
 19 45  1  0  0  0  0
 19 46  1  0  0  0  0
 20 21  1  0  0  0  0
 21 22  2  0  0  0  0
 21 47  1  0  0  0  0
 22 23  1  0  0  0  0
 24 25  1  0  0  0  0
 24 48  1  0  0  0  0
 24 49  1  0  0  0  0
 25 26  1  0  0  0  0
 26 50  1  0  0  0  0
 26 51  1  0  0  0  0
M  END
> <s_m_source_file>
AV-unprocessed.smi

> <i_m_source_file_index>
86

> <i_lp_mmshare_version>
43012

> <i_f3d_flags>
0

> <s_epik_input>
W0NIMl0xT1tDSDJdQzEoW0NIMl1bT0hdKVtDSDJdbihbY0hdbjIpYyhjMjMpbltjSF1uYzNOKFtDSDJdNClbQ0gyXVtDQEBIXShbQ0BIXTQ1KVtDSDJdW0NASF0oW09IXSlbQ0gyXVtDSDJdNQ==

> <s_epik_cmdline>
J2VwaWtfcHl0aG9uJywgJy1waCcsICc3LjAnLCAnLXRuJywgJzgnLCAnLW1hJywgJzIwMCcsICctbWV0YWxfYmluZGluZycsICctaW1hZScsICc8aW5maWxlLm1hZT4nLCAnLW9tYWUnLCAnPG91dGZpbGUubWFlPic=

> <r_lp_tautomer_probability>
1

> <r_epik_Ionization_Penalty>
0.00425795

> <r_epik_Ionization_Penalty_Charging>
0

> <r_epik_Ionization_Penalty_Neutral>
0.00425795

> <r_epik_State_Penalty>
0.00299946

> <r_epik_Charging_Adjusted_Penalty>
0.00299946

> <i_epik_Tot_Q>
0

> <i_epik_Tot_abs_Q>
0

> <r_epik_Metal_State_Penalty>
-0

> <b_epik_Metal_Only>
0

> <s_lp_Force_Field>
OPLS_2005

> <r_lp_Energy>
53.3624

> <b_lp_Chiralities_Consistent>
1

> <s_lp_Variant>
AV-unprocessed.smi:86-8

> <Gold.Version>
5.8.1

> <Gold.Id.Protein>
6NUR|6NUR_protein|mol2

> <Gold.PLP.Fitness>
45.5016

> <Gold.PLP.PLP>
-36.0650

> <Gold.PLP.part.hbond>
-5.0000

> <Gold.PLP.part.metal>
0.0000

> <Gold.PLP.part.buried>
-5.7068

> <Gold.PLP.part.nonpolar>
-26.0578

> <Gold.PLP.part.repulsive>
0.0491

> <Gold.PLP.ligand.clash>
0.0000

> <Gold.PLP.ligand.torsion>
1.3611

> <Gold.PLP.Chemscore.Hbond>
3.9280

> <Gold.PLP.Chemscore.CHOScore>
0.0000

> <Gold.PLP.Chemscore.Metal>
0.0000

> <Gold.Chemscore.Hbonds>
donor molecule, donor type, donor heavy atom, donor atom, acceptor molecule, acceptor atom, score
      L1  H    16    41       P1  7921  1.00
      P1  H  6896  6908       L1    22  1.00
      P1  H  6931  6943       L1     1  0.76
      P1  H  6934  6947       L1    25  0.95

> <Gold.PLP.Chemscore.Internal.Correction>
0.3747

> <Gold.Rescore>
     Score         DG    S(hbond)    S(metal)    S(lipo)     H(rot)  DE(clash)    DE(int)     intcor
     18.07     -20.49       3.82        0.00      79.60       2.76       0.19       2.22       ----

> <Gold.Chemscore.Fitness>
18.0741

> <Gold.Chemscore.DG>
-20.4866

> <Gold.Chemscore.ZeroCoef>
-5.4800

> <Gold.Chemscore.Hbond>
3.8223

> <Gold.Chemscore.Metal>
0.0000

> <Gold.Chemscore.Lipo>
79.6033

> <Gold.Chemscore.Internal_Hbond>
0.0000

> <Gold.Chemscore.DEClash>
0.1920

> <Gold.Chemscore.DEInternal>
2.2205

> <Gold.Chemscore.Rot>
2.7630

> <Gold.Chemscore.Internal.Correction>
   9.000000E+99

> <Gold.Chemscore.Hbonds>
donor molecule, donor type, donor heavy atom, donor atom, acceptor molecule, acceptor atom, score
      L1  H    16    41       P1  7921  1.00
      P1  H  6896  6908       L1    22  0.94
      P1  H  6931  6943       L1     1  0.59
      P1  H  6934  6947       L1    25  0.21

> <Gold.Chemscore.Hbond.Weighted>
-12.7664

> <Gold.Chemscore.Metal.Weighted>
-0.0000

> <Gold.Chemscore.Lipo.Weighted>
-9.3136

> <Gold.Chemscore.Internal_Hbond.Weighted>
0.0000

> <Gold.Chemscore.DEClash.Weighted>
0.1920

> <Gold.Chemscore.DEInternal.Weighted>
2.2205

> <Gold.Chemscore.Rot.Weighted>
7.0734

> <Gold.Chemscore.Internal.Correction.Weighted>
   9.000000E+99

> <Gold.Protein.RotatedTorsions>
[ 6907 6896 6895 6894 ] final  123.29 input  -60.11 | X-H torsion
[ 7974 7965 7964 7962 ] final -120.16 input  175.53 | X-H torsion
[ 8008 7997 7996 7995 ] final   37.91 input   59.86 | X-H torsion
[ 10167 10162 10161 10158 ] final   88.96 input  -65.29 | X-H torsion
[ 10718 10713 10712 10709 ] final  -45.12 input   66.30 | X-H torsion
[ 10763 10752 10751 10750 ] final  -19.68 input  -60.55 | X-H torsion
[ 11005 11000 10999 10996 ] final -132.37 input  -57.11 | X-H torsion

> <Gold.Protein.ActiveResidues>
 VAL166  LYS551  ARG553  GLY616  TRP617  ASP618  TYR619  PRO620  LYS621  CYS622 
 ASP623  PHE694  ASN695  SER759  ASP760  ASP761  ALA762  ILE779  LEU786  VAL792 
 PHE793  MET794  SER795  GLU796  ALA797  LYS798  CYS799  TRP800  GLU811  SER814 

> <Gold.Protein.RotatedAtoms>
  152.4173  133.7059  159.6450 H   0  0  0  0  0  0  0  0  0  0  0  0  # atno 6907 bound_to 6896
  150.8050  133.8516  159.3215 H   0  0  0  0  0  0  0  0  0  0  0  0  # atno 6908 bound_to 6896
  151.6242  135.1031  160.0159 H   0  0  0  0  0  0  0  0  0  0  0  0  # atno 6909 bound_to 6896
  145.0545  140.8244  143.4189 H   0  0  0  0  0  0  0  0  0  0  0  0  # atno 7974 bound_to 7965
  155.2115  140.3324  155.4328 H   0  0  0  0  0  0  0  0  0  0  0  0  # atno 8008 bound_to 7997
  156.2369  140.1876  156.7144 H   0  0  0  0  0  0  0  0  0  0  0  0  # atno 8009 bound_to 7997
  154.6075  140.0614  156.9436 H   0  0  0  0  0  0  0  0  0  0  0  0  # atno 8010 bound_to 7997
  139.8620  144.6539  150.9047 H   0  0  0  0  0  0  0  0  0  0  0  0  # atno 10167 bound_to 10162
  156.2315  130.4173  149.8869 H   0  0  0  0  0  0  0  0  0  0  0  0  # atno 10718 bound_to 10713
  153.6085  135.6997  153.5356 H   0  0  0  0  0  0  0  0  0  0  0  0  # atno 10763 bound_to 10752
  153.3037  135.4121  155.1274 H   0  0  0  0  0  0  0  0  0  0  0  0  # atno 10764 bound_to 10752
  154.8568  135.3655  154.5623 H   0  0  0  0  0  0  0  0  0  0  0  0  # atno 10765 bound_to 10752
  140.9176  134.1486  157.4340 H   0  0  0  0  0  0  0  0  0  0  0  0  # atno 11005 bound_to 11000
  145.1485  139.2528  143.5453 LP  0  0  0  0  0  0  0  0  0  0  0  0  # atno 17320 bound_to 7965
  146.3520  140.1182  142.8601 LP  0  0  0  0  0  0  0  0  0  0  0  0  # atno 17321 bound_to 7965
  140.7773  143.3736  151.1604 LP  0  0  0  0  0  0  0  0  0  0  0  0  # atno 17342 bound_to 10162
  139.7365  143.8991  152.3036 LP  0  0  0  0  0  0  0  0  0  0  0  0  # atno 17343 bound_to 10162
  156.6481  130.8732  151.3526 LP  0  0  0  0  0  0  0  0  0  0  0  0  # atno 17370 bound_to 10713
  157.7135  130.9469  150.1173 LP  0  0  0  0  0  0  0  0  0  0  0  0  # atno 17371 bound_to 10713
  139.8769  134.9959  156.5769 LP  0  0  0  0  0  0  0  0  0  0  0  0  # atno 17394 bound_to 11000
  140.8029  133.8491  155.8742 LP  0  0  0  0  0  0  0  0  0  0  0  0  # atno 17395 bound_to 11000

$$$$
