AV-unprocessed.smi:1572|AV-procd|sdf|6332|dock6
  -GOLD-   22720 6543D 1   1.00000     0.00000
 Structure written by MMmdl.
 41 42  0  0  0  0  0  0  0  0  2 V2000
  152.1976  145.1628  159.0845 C   0  0  0  0  0  0  0  0  0  0  0  0
  151.7847  143.7707  158.9935 N   0  0  0  0  0  0  0  0  0  0  0  0
  151.3788  143.4202  157.6357 C   0  0  0  0  0  0  0  0  0  0  0  0
  150.9320  141.9498  157.5415 C   0  0  0  0  0  0  0  0  0  0  0  0
  152.0011  141.0286  157.9584 N   0  0  0  0  0  0  0  0  0  0  0  0
  151.6984  139.5835  157.7617 C   0  0  0  0  0  0  0  0  0  0  0  0
  151.3913  139.2246  156.2880 C   0  0  0  0  0  0  0  0  0  0  0  0
  152.8892  138.7001  158.2129 C   0  0  0  0  0  0  0  0  0  0  0  0
  150.4753  139.1318  158.6100 C   0  0  0  0  0  0  0  0  0  0  0  0
  150.2871  137.6838  158.5832 N   0  0  0  0  0  0  0  0  0  0  0  0
  149.2967  137.0206  159.1931 C   0  0  0  0  0  0  0  0  0  0  0  0
  148.4473  137.6421  159.8359 O   0  0  0  0  0  0  0  0  0  0  0  0
  149.3522  135.6799  159.0229 N   0  5  0  0  0  0  0  0  0  0  0  0
  148.3412  134.9064  159.4513 C   0  0  0  0  0  0  0  0  0  0  0  0
  147.2953  135.4034  160.1313 N   0  0  0  0  0  0  0  0  0  0  0  0
  146.3591  134.4376  160.4757 N   0  0  0  0  0  0  0  0  0  0  0  0
  146.7213  133.2321  160.0376 C   0  0  0  0  0  0  0  0  0  0  0  0
  148.2365  133.1673  159.1626 S   0  0  0  0  0  0  0  0  0  0  0  0
  152.4125  141.3944  159.3236 C   0  0  0  0  0  0  0  0  0  0  0  0
  152.8528  142.8669  159.4107 C   0  0  0  0  0  0  0  0  0  0  0  0
  151.3845  145.8265  158.7892 H   0  0  0  0  0  0  0  0  0  0  0  0
  153.0525  145.3636  158.4375 H   0  0  0  0  0  0  0  0  0  0  0  0
  152.4785  145.4160  160.1072 H   0  0  0  0  0  0  0  0  0  0  0  0
  150.5595  144.0663  157.3185 H   0  0  0  0  0  0  0  0  0  0  0  0
  152.2020  143.5963  156.9413 H   0  0  0  0  0  0  0  0  0  0  0  0
  150.0428  141.8057  158.1555 H   0  0  0  0  0  0  0  0  0  0  0  0
  150.6387  141.7620  156.5105 H   0  0  0  0  0  0  0  0  0  0  0  0
  151.1806  138.1599  156.1819 H   0  0  0  0  0  0  0  0  0  0  0  0
  152.2285  139.4460  155.6267 H   0  0  0  0  0  0  0  0  0  0  0  0
  150.5187  139.7564  155.9091 H   0  0  0  0  0  0  0  0  0  0  0  0
  152.6177  137.6441  158.2364 H   0  0  0  0  0  0  0  0  0  0  0  0
  153.2327  138.9682  159.2127 H   0  0  0  0  0  0  0  0  0  0  0  0
  153.7420  138.7783  157.5388 H   0  0  0  0  0  0  0  0  0  0  0  0
  150.5677  139.4623  159.6451 H   0  0  0  0  0  0  0  0  0  0  0  0
  149.5652  139.6061  158.2384 H   0  0  0  0  0  0  0  0  0  0  0  0
  150.9687  137.1441  158.0699 H   0  0  0  0  0  0  0  0  0  0  0  0
  146.0912  132.3762  160.2284 H   0  0  0  0  0  0  0  0  0  0  0  0
  151.5976  141.2215  160.0268 H   0  0  0  0  0  0  0  0  0  0  0  0
  153.2499  140.7826  159.6535 H   0  0  0  0  0  0  0  0  0  0  0  0
  153.7378  143.0199  158.7908 H   0  0  0  0  0  0  0  0  0  0  0  0
  153.1476  143.0942  160.4358 H   0  0  0  0  0  0  0  0  0  0  0  0
  1  2  1  0  0  0  0
  1 21  1  0  0  0  0
  1 22  1  0  0  0  0
  1 23  1  0  0  0  0
  2 20  1  0  0  0  0
  2  3  1  0  0  0  0
  3  4  1  0  0  0  0
  3 24  1  0  0  0  0
  3 25  1  0  0  0  0
  4  5  1  0  0  0  0
  4 26  1  0  0  0  0
  4 27  1  0  0  0  0
  5  6  1  0  0  0  0
  5 19  1  0  0  0  0
  6  7  1  0  0  0  0
  6  8  1  0  0  0  0
  6  9  1  0  0  0  0
  7 28  1  0  0  0  0
  7 29  1  0  0  0  0
  7 30  1  0  0  0  0
  8 31  1  0  0  0  0
  8 32  1  0  0  0  0
  8 33  1  0  0  0  0
  9 10  1  0  0  0  0
  9 34  1  0  0  0  0
  9 35  1  0  0  0  0
 10 11  1  0  0  0  0
 10 36  1  0  0  0  0
 11 12  2  0  0  0  0
 11 13  1  0  0  0  0
 13 14  1  0  0  0  0
 14 18  1  0  0  0  0
 14 15  2  0  0  0  0
 15 16  1  0  0  0  0
 16 17  2  0  0  0  0
 17 18  1  0  0  0  0
 17 37  1  0  0  0  0
 19 20  1  0  0  0  0
 19 38  1  0  0  0  0
 19 39  1  0  0  0  0
 20 40  1  0  0  0  0
 20 41  1  0  0  0  0
M  CHG  1  13  -1
M  END
> <s_m_source_file>
AV-unprocessed.smi

> <i_m_source_file_index>
1572

> <i_lp_mmshare_version>
43012

> <i_f3d_flags>
0

> <s_epik_input>
W0NIM11OMVtDSDJdW0NIMl1OKFtDSDJdW0NIMl0xKUMoW0NIM10pKFtDSDNdKVtDSDJdW05IXUMoPU8pW05IXWMybm5bY0hdczI=

> <s_epik_cmdline>
J2VwaWtfcHl0aG9uJywgJy1waCcsICc3LjAnLCAnLXRuJywgJzgnLCAnLW1hJywgJzIwMCcsICctbWV0YWxfYmluZGluZycsICctaW1hZScsICc8aW5maWxlLm1hZT4nLCAnLW9tYWUnLCAnPG91dGZpbGUubWFlPic=

> <r_lp_tautomer_probability>
1

> <r_epik_Ionization_Penalty>
6.61874

> <r_epik_Ionization_Penalty_Charging>
3.54798

> <r_epik_Ionization_Penalty_Neutral>
3.07076

> <r_epik_State_Penalty>
5.68339

> <r_epik_Charging_Adjusted_Penalty>
9.23137

> <i_epik_Tot_Q>
-1

> <i_epik_Tot_abs_Q>
1

> <r_epik_Metal_State_Penalty>
2.66763

> <b_epik_Metal_Only>
1

> <s_lp_Force_Field>
OPLS_2005

> <r_lp_Energy>
47.6706

> <b_lp_Chiralities_Consistent>
1

> <s_lp_Variant>
AV-unprocessed.smi:1572-6

> <Gold.Version>
5.8.1

> <Gold.Id.Protein>
6NUR|6NUR_protein|mol2

> <Gold.PLP.Fitness>
37.0312

> <Gold.PLP.PLP>
-29.7324

> <Gold.PLP.part.hbond>
-3.0000

> <Gold.PLP.part.metal>
0.0000

> <Gold.PLP.part.buried>
-4.3358

> <Gold.PLP.part.nonpolar>
-23.0879

> <Gold.PLP.part.repulsive>
0.1838

> <Gold.PLP.ligand.clash>
0.0000

> <Gold.PLP.ligand.torsion>
0.0871

> <Gold.PLP.Chemscore.Hbond>
2.4693

> <Gold.PLP.Chemscore.CHOScore>
0.0000

> <Gold.PLP.Chemscore.Metal>
0.0000

> <Gold.Chemscore.Hbonds>
donor molecule, donor type, donor heavy atom, donor atom, acceptor molecule, acceptor atom, score
      P1  H  6896  6909       L1    13  2.00
      P1  H  6931  6943       L1    12  0.19
      P1  H  6934  6947       L1    12  0.29

> <Gold.PLP.Chemscore.Internal.Correction>
0.0650

> <Gold.Rescore>
     Score         DG    S(hbond)    S(metal)    S(lipo)     H(rot)  DE(clash)    DE(int)     intcor
     14.08     -15.96       1.82        0.00      73.31       1.63       0.06       1.82       ----

> <Gold.Chemscore.Fitness>
14.0789

> <Gold.Chemscore.DG>
-15.9587

> <Gold.Chemscore.ZeroCoef>
-5.4800

> <Gold.Chemscore.Hbond>
1.8208

> <Gold.Chemscore.Metal>
0.0000

> <Gold.Chemscore.Lipo>
73.3091

> <Gold.Chemscore.Internal_Hbond>
0.0000

> <Gold.Chemscore.DEClash>
0.0551

> <Gold.Chemscore.DEInternal>
1.8247

> <Gold.Chemscore.Rot>
1.6328

> <Gold.Chemscore.Internal.Correction>
   9.000000E+99

> <Gold.Chemscore.Hbonds>
donor molecule, donor type, donor heavy atom, donor atom, acceptor molecule, acceptor atom, score
      P1  H  6896  6909       L1    13  0.37
      P1  H  6931  6943       L1    12  0.17
      P1  H  6934  6947       L1    12  0.28

> <Gold.Chemscore.Hbond.Weighted>
-6.0815

> <Gold.Chemscore.Metal.Weighted>
-0.0000

> <Gold.Chemscore.Lipo.Weighted>
-8.5772

> <Gold.Chemscore.Internal_Hbond.Weighted>
0.0000

> <Gold.Chemscore.DEClash.Weighted>
0.0551

> <Gold.Chemscore.DEInternal.Weighted>
1.8247

> <Gold.Chemscore.Rot.Weighted>
4.1800

> <Gold.Chemscore.Internal.Correction.Weighted>
   9.000000E+99

> <Gold.Protein.RotatedTorsions>
[ 6907 6896 6895 6894 ] final   70.37 input  -60.11 | X-H torsion
[ 7974 7965 7964 7962 ] final  -87.31 input  175.53 | X-H torsion
[ 8008 7997 7996 7995 ] final -106.64 input   59.86 | X-H torsion
[ 10167 10162 10161 10158 ] final   83.58 input  -65.29 | X-H torsion
[ 10718 10713 10712 10709 ] final  172.75 input   66.30 | X-H torsion
[ 10763 10752 10751 10750 ] final  -90.27 input  -60.55 | X-H torsion
[ 11005 11000 10999 10996 ] final -174.26 input  -57.11 | X-H torsion

> <Gold.Protein.ActiveResidues>
 VAL166  LYS551  ARG553  GLY616  TRP617  ASP618  TYR619  PRO620  LYS621  CYS622 
 ASP623  PHE694  ASN695  SER759  ASP760  ASP761  ALA762  ILE779  LEU786  VAL792 
 PHE793  MET794  SER795  GLU796  ALA797  LYS798  CYS799  TRP800  GLU811  SER814 

> <Gold.Protein.RotatedAtoms>
  152.4745  134.4878  159.9685 H   0  0  0  0  0  0  0  0  0  0  0  0  # atno 6907 bound_to 6896
  151.4897  133.3521  159.2859 H   0  0  0  0  0  0  0  0  0  0  0  0  # atno 6908 bound_to 6896
  150.8775  134.8187  159.7262 H   0  0  0  0  0  0  0  0  0  0  0  0  # atno 6909 bound_to 6896
  145.4682  140.9560  143.1932 H   0  0  0  0  0  0  0  0  0  0  0  0  # atno 7974 bound_to 7965
  154.9175  140.0408  157.1980 H   0  0  0  0  0  0  0  0  0  0  0  0  # atno 8008 bound_to 7997
  154.8287  140.2895  155.5715 H   0  0  0  0  0  0  0  0  0  0  0  0  # atno 8009 bound_to 7997
  156.2985  140.2505  156.3208 H   0  0  0  0  0  0  0  0  0  0  0  0  # atno 8010 bound_to 7997
  139.9169  144.6237  150.8480 H   0  0  0  0  0  0  0  0  0  0  0  0  # atno 10167 bound_to 10162
  156.9744  131.0100  151.2897 H   0  0  0  0  0  0  0  0  0  0  0  0  # atno 10718 bound_to 10713
  154.6640  135.5310  153.8053 H   0  0  0  0  0  0  0  0  0  0  0  0  # atno 10763 bound_to 10752
  153.0459  135.6512  154.0828 H   0  0  0  0  0  0  0  0  0  0  0  0  # atno 10764 bound_to 10752
  154.0734  135.2952  155.3284 H   0  0  0  0  0  0  0  0  0  0  0  0  # atno 10765 bound_to 10752
  140.4766  134.6115  157.4903 H   0  0  0  0  0  0  0  0  0  0  0  0  # atno 11005 bound_to 11000
  144.7961  139.6231  143.7092 LP  0  0  0  0  0  0  0  0  0  0  0  0  # atno 17320 bound_to 7965
  146.2412  139.6005  142.9490 LP  0  0  0  0  0  0  0  0  0  0  0  0  # atno 17321 bound_to 7965
  140.7672  143.3325  151.2380 LP  0  0  0  0  0  0  0  0  0  0  0  0  # atno 17342 bound_to 10162
  139.6894  143.9717  152.2851 LP  0  0  0  0  0  0  0  0  0  0  0  0  # atno 17343 bound_to 10162
  157.5570  130.8220  149.8217 LP  0  0  0  0  0  0  0  0  0  0  0  0  # atno 17370 bound_to 10713
  156.0270  130.3776  150.1796 LP  0  0  0  0  0  0  0  0  0  0  0  0  # atno 17371 bound_to 10713
  139.9852  134.7072  155.9786 LP  0  0  0  0  0  0  0  0  0  0  0  0  # atno 17394 bound_to 11000
  141.1552  133.6543  156.4137 LP  0  0  0  0  0  0  0  0  0  0  0  0  # atno 17395 bound_to 11000

$$$$
