#       Name:                AV-unprocessed.smi:2027
#       Creating user name   scv26
#       Creation time:       Fri Mar 27 10:48:51 2020


#       File generated by GOLD software.
#

@<TRIPOS>MOLECULE
AV-unprocessed.smi:2027
    54    56     1
SMALL
NO_CHARGES


@<TRIPOS>ATOM
      1 ****         2.8271   5.5151   1.5367 C.3            1 S1                 0.0000
      2 ****         1.7314   4.5026   1.2505 C.ar           1 S1                 0.0000
      3 ****         0.8434   4.1573   2.2937 C.ar           1 S1                 0.0000
      4 ****        -0.1496   3.2305   2.0009 C.ar           1 S1                 0.0000
      5 ****        -1.1615   2.6952   2.7996 N.pl3          1 S1                 1.0000
      6 ****        -1.9012   1.8173   2.0682 C.2            1 S1                 0.0000
      7 ****        -1.3733   1.7777   0.8137 N.pl3          1 S1                 0.0000
      8 ****        -1.8041   0.9988  -0.3600 C.3            1 S1                 0.0000
      9 ****        -1.2996  -0.4610  -0.3643 C.3            1 S1                 0.0000
     10 ****        -1.8430  -1.1394   0.7519 O.3            1 S1                 0.0000
     11 ****         0.2387  -0.5868  -0.3209 C.3            1 S1                 0.0000
     12 ****         0.7174  -1.9930  -0.3917 N.4            1 S1                 1.0000
     13 ****         2.1310  -2.1154   0.0308 C.3            1 S1                 0.0000
     14 ****         0.4544  -2.6724  -1.6882 C.3            1 S1                 0.0000
     15 ****        -0.6775  -3.6532  -1.5469 C.2            1 S1                 0.0000
     16 ****        -1.9862  -3.5725  -2.1043 C.2            1 S1                 0.0000
     17 ****        -2.7490  -4.6025  -1.7797 N.2            1 S1                 0.0000
     18 ****        -1.9554  -5.3815  -1.0171 N.pl3          1 S1                 0.0000
     19 ****        -2.4766  -6.6196  -0.4785 C.3            1 S1                 0.0000
     20 ****        -0.6991  -4.8366  -0.8631 C.2            1 S1                 0.0000
     21 ****        -0.2796   2.6490   0.7239 C.ar           1 S1                 0.0000
     22 ****         0.5894   2.9782  -0.3146 C.ar           1 S1                 0.0000
     23 ****         1.6066   3.9192  -0.0368 C.ar           1 S1                 0.0000
     24 ****         2.5678   4.2975  -1.1511 C.3            1 S1                 0.0000
     25 ****         2.7548   5.9047   2.5525 H              1 S1                 0.0000
     26 ****         2.7579   6.3602   0.8514 H              1 S1                 0.0000
     27 ****         3.8097   5.0565   1.4241 H              1 S1                 0.0000
     28 ****         0.9328   4.5975   3.2765 H              1 S1                 0.0000
     29 ****        -2.7524   1.2526   2.4207 H              1 S1                 0.0000
     30 ****        -2.8950   1.0131  -0.3698 H              1 S1                 0.0000
     31 ****        -1.4945   1.5145  -1.2685 H              1 S1                 0.0000
     32 ****        -1.6844  -0.9348  -1.2657 H              1 S1                 0.0000
     33 ****        -2.7856  -1.1360   0.6766 H              1 S1                 0.0000
     34 ****         0.6887  -0.0145  -1.1335 H              1 S1                 0.0000
     35 ****         0.6026  -0.1408   0.6058 H              1 S1                 0.0000
     36 ****         2.7923  -1.5956  -0.6638 H              1 S1                 0.0000
     37 ****         2.4306  -3.1633   0.0731 H              1 S1                 0.0000
     38 ****         2.2785  -1.6935   1.0256 H              1 S1                 0.0000
     39 ****         0.2481  -1.9365  -2.4666 H              1 S1                 0.0000
     40 ****         1.3493  -3.1951  -2.0291 H              1 S1                 0.0000
     41 ****        -2.4048  -2.7963  -2.7279 H              1 S1                 0.0000
     42 ****        -1.6709  -7.2005  -0.0293 H              1 S1                 0.0000
     43 ****        -2.9351  -7.2074  -1.2743 H              1 S1                 0.0000
     44 ****        -3.2254  -6.4024   0.2835 H              1 S1                 0.0000
     45 ****         0.0666  -5.3279  -0.2807 H              1 S1                 0.0000
     46 ****         0.4984   2.5396  -1.2968 H              1 S1                 0.0000
     47 ****         2.3745   3.7236  -2.0579 H              1 S1                 0.0000
     48 ****         3.5986   4.1069  -0.8515 H              1 S1                 0.0000
     49 ****         2.4685   5.3548  -1.3979 H              1 S1                 0.0000
     50 ****         0.1856  -2.5005   0.3015 H              1 S1                 0.0000
     51 ****        -1.3395   2.9145   3.7717 H              1 S1                 0.0000
     52 ****        -1.5705  -0.6745   1.5943 LP             1 S1                 0.0000
     53 ****        -1.5096  -2.0820   0.7685 LP             1 S1                 0.0000
     54 ****        -3.7002  -4.7668  -2.0410 LP             1 S1                 0.0000
@<TRIPOS>BOND
    1    1    2 1     
    2    1   25 1     
    3    1   26 1     
    4    1   27 1     
    5    2   23 ar    
    6    2    3 ar    
    7    3    4 ar    
    8    3   28 1     
    9    4   21 ar    
   10    4    5 1     
   11    5    6 2     
   12    5   51 1     
   13    6    7 1     
   14    6   29 1     
   15    7    8 1     
   16    7   21 1     
   17    8    9 1     
   18    8   30 1     
   19    8   31 1     
   20    9   10 1     
   21    9   11 1     
   22    9   32 1     
   23   10   33 1     
   24   11   12 1     
   25   11   34 1     
   26   11   35 1     
   27   12   13 1     
   28   12   14 1     
   29   12   50 1     
   30   13   36 1     
   31   13   37 1     
   32   13   38 1     
   33   14   15 1     
   34   14   39 1     
   35   14   40 1     
   36   15   20 2     
   37   15   16 1     
   38   16   17 2     
   39   16   41 1     
   40   17   18 1     
   41   18   19 1     
   42   18   20 1     
   43   19   42 1     
   44   19   43 1     
   45   19   44 1     
   46   20   45 1     
   47   21   22 ar    
   48   22   23 ar    
   49   22   46 1     
   50   23   24 1     
   51   24   47 1     
   52   24   48 1     
   53   24   49 1     
   54   10   52 1     
   55   10   53 1     
   56   17   54 1     
@<TRIPOS>SUBSTRUCTURE
      1 S1             1
@<TRIPOS>SET
LONE_PAIRS      STATIC     ATOMS    <user>   **** ""
3 52 53 54
DONOR_HYDROGENS      STATIC     ATOMS    <user>   **** ""
3 51 33 50
ATOM$BLUE        STATIC     ATOMS    COLORGROUP SYSTEM
3 52 53 54
ATOM$RED        STATIC     ATOMS    COLORGROUP SYSTEM
3 51 33 50
