AV-unprocessed.smi:2583|AV-procd|sdf|10136|dock5
  -GOLD-   2272014153D 1   1.00000     0.00000
 Structure written by MMmdl.
 55 57  0  0  0  0  0  0  0  0  3 V2000
  150.3321  139.3985  155.1812 C   0  0  0  0  0  0  0  0  0  0  0  0
  149.0580  140.0565  154.6940 C   0  0  0  0  0  0  0  0  0  0  0  0
  148.8006  141.4198  154.9462 C   0  0  0  0  0  0  0  0  0  0  0  0
  147.6751  142.0472  154.5454 N   0  0  0  0  0  0  0  0  0  0  0  0
  146.7588  141.3265  153.8652 C   0  0  0  0  0  0  0  0  0  0  0  0
  146.9167  139.9621  153.5435 C   0  0  0  0  0  0  0  0  0  0  0  0
  145.8642  139.3184  152.8392 N   0  0  0  0  0  0  0  0  0  0  0  0
  145.6579  138.0023  152.6628 C   0  0  0  0  0  0  0  0  0  0  0  0
  146.3984  137.1058  153.0658 O   0  0  0  0  0  0  0  0  0  0  0  0
  144.5357  137.7808  151.9628 N   0  0  0  0  0  0  0  0  0  0  0  0
  144.0125  136.4720  151.5792 C   0  0  2  0  0  0  0  0  0  0  0  0
  143.5490  135.7030  152.8307 C   0  0  0  0  0  0  0  0  0  0  0  0
  143.1614  134.2523  152.4827 C   0  0  0  0  0  0  0  0  0  0  0  0
  144.2789  133.5234  151.8155 N   0  3  2  0  0  0  0  0  0  0  0  0
  145.4396  133.1728  152.7057 C   0  0  2  0  0  0  0  0  0  0  0  0
  146.8029  133.5583  152.0769 C   0  0  0  0  0  0  0  0  0  0  0  0
  147.9960  133.1329  152.9495 C   0  0  0  0  0  0  0  0  0  0  0  0
  147.9672  131.6779  153.2223 N   0  3  1  0  0  0  0  0  0  0  0  0
  149.1656  131.2175  153.9564 C   0  0  0  0  0  0  0  0  0  0  0  0
  146.7072  131.2803  153.8908 C   0  0  0  0  0  0  0  0  0  0  0  0
  145.4834  131.6601  153.0400 C   0  0  0  0  0  0  0  0  0  0  0  0
  144.6322  134.2327  150.5520 C   0  0  0  0  0  0  0  0  0  0  0  0
  145.0915  135.6794  150.8183 C   0  0  0  0  0  0  0  0  0  0  0  0
  148.0964  139.3128  153.9809 C   0  0  0  0  0  0  0  0  0  0  0  0
  150.9847  140.1162  155.6792 H   0  0  0  0  0  0  0  0  0  0  0  0
  150.8786  138.9652  154.3432 H   0  0  0  0  0  0  0  0  0  0  0  0
  150.0989  138.6018  155.8879 H   0  0  0  0  0  0  0  0  0  0  0  0
  149.5114  142.0239  155.4905 H   0  0  0  0  0  0  0  0  0  0  0  0
  145.8692  141.8603  153.5639 H   0  0  0  0  0  0  0  0  0  0  0  0
  145.2167  139.9370  152.3734 H   0  0  0  0  0  0  0  0  0  0  0  0
  144.0004  138.5860  151.6723 H   0  0  0  0  0  0  0  0  0  0  0  0
  143.1529  136.5830  150.9158 H   0  0  0  0  0  0  0  0  0  0  0  0
  144.3317  135.7074  153.5898 H   0  0  0  0  0  0  0  0  0  0  0  0
  142.6939  136.2117  153.2779 H   0  0  0  0  0  0  0  0  0  0  0  0
  142.7901  133.7264  153.3594 H   0  0  0  0  0  0  0  0  0  0  0  0
  142.3130  134.2702  151.7969 H   0  0  0  0  0  0  0  0  0  0  0  0
  145.3408  133.7196  153.6434 H   0  0  0  0  0  0  0  0  0  0  0  0
  146.8959  133.1078  151.0875 H   0  0  0  0  0  0  0  0  0  0  0  0
  146.8817  134.6357  151.9407 H   0  0  0  0  0  0  0  0  0  0  0  0
  148.9270  133.3909  152.4427 H   0  0  0  0  0  0  0  0  0  0  0  0
  147.9862  133.6829  153.8924 H   0  0  0  0  0  0  0  0  0  0  0  0
  149.2233  131.6789  154.9431 H   0  0  0  0  0  0  0  0  0  0  0  0
  150.0736  131.4692  153.4073 H   0  0  0  0  0  0  0  0  0  0  0  0
  149.1455  130.1348  154.0856 H   0  0  0  0  0  0  0  0  0  0  0  0
  146.7100  130.2031  154.0632 H   0  0  0  0  0  0  0  0  0  0  0  0
  146.6460  131.7573  154.8707 H   0  0  0  0  0  0  0  0  0  0  0  0
  144.6024  131.3554  153.6021 H   0  0  0  0  0  0  0  0  0  0  0  0
  145.4852  131.0766  152.1183 H   0  0  0  0  0  0  0  0  0  0  0  0
  145.3690  133.6891  149.9646 H   0  0  0  0  0  0  0  0  0  0  0  0
  143.7449  134.2565  149.9177 H   0  0  0  0  0  0  0  0  0  0  0  0
  145.3096  136.1735  149.8707 H   0  0  0  0  0  0  0  0  0  0  0  0
  146.0267  135.6767  151.3791 H   0  0  0  0  0  0  0  0  0  0  0  0
  148.2727  138.2640  153.7988 H   0  0  0  0  0  0  0  0  0  0  0  0
  143.8903  132.6365  151.5270 H   0  0  0  0  0  0  0  0  0  0  0  0
  147.9849  131.2107  152.3268 H   0  0  0  0  0  0  0  0  0  0  0  0
  1  2  1  0  0  0  0
  1 25  1  0  0  0  0
  1 26  1  0  0  0  0
  1 27  1  0  0  0  0
  2 24  1  0  0  0  0
  2  3  2  0  0  0  0
  3  4  1  0  0  0  0
  3 28  1  0  0  0  0
  4  5  2  0  0  0  0
  5  6  1  0  0  0  0
  5 29  1  0  0  0  0
  6  7  1  0  0  0  0
  6 24  2  0  0  0  0
  7  8  1  0  0  0  0
  7 30  1  0  0  0  0
  8  9  2  0  0  0  0
  8 10  1  0  0  0  0
 10 11  1  0  0  0  0
 10 31  1  0  0  0  0
 11 23  1  0  0  0  0
 11 12  1  0  0  0  0
 11 32  1  0  0  0  0
 12 13  1  0  0  0  0
 12 33  1  0  0  0  0
 12 34  1  0  0  0  0
 13 14  1  0  0  0  0
 13 35  1  0  0  0  0
 13 36  1  0  0  0  0
 14 15  1  0  0  0  0
 14 22  1  0  0  0  0
 14 54  1  0  0  0  0
 15 21  1  0  0  0  0
 15 16  1  0  0  0  0
 15 37  1  0  0  0  0
 16 17  1  0  0  0  0
 16 38  1  0  0  0  0
 16 39  1  0  0  0  0
 17 18  1  0  0  0  0
 17 40  1  0  0  0  0
 17 41  1  0  0  0  0
 18 19  1  0  0  0  0
 18 20  1  0  0  0  0
 18 55  1  0  0  0  0
 19 42  1  0  0  0  0
 19 43  1  0  0  0  0
 19 44  1  0  0  0  0
 20 21  1  0  0  0  0
 20 45  1  0  0  0  0
 20 46  1  0  0  0  0
 21 47  1  0  0  0  0
 21 48  1  0  0  0  0
 22 23  1  0  0  0  0
 22 49  1  0  0  0  0
 22 50  1  0  0  0  0
 23 51  1  0  0  0  0
 23 52  1  0  0  0  0
 24 53  1  0  0  0  0
M  CHG  1  14   1
M  CHG  1  18   1
M  END
> <s_m_source_file>
AV-unprocessed.smi

> <i_m_source_file_index>
2583

> <i_lp_mmshare_version>
43012

> <i_f3d_flags>
0

> <s_epik_input>
W0NIM11jMVtjSF1uW2NIXWMoW2NIXTEpW05IXUMoPU8pW05IXVtDSF0yW0NIMl1bQ0gyXU4oW0NIMl1bQ0gyXTIpW0NIXTNbQ0gyXVtDSDJdTihbQ0gzXSlbQ0gyXVtDSDJdMw==

> <s_epik_cmdline>
J2VwaWtfcHl0aG9uJywgJy1waCcsICc3LjAnLCAnLXRuJywgJzgnLCAnLW1hJywgJzIwMCcsICctbWV0YWxfYmluZGluZycsICctaW1hZScsICc8aW5maWxlLm1hZT4nLCAnLW9tYWUnLCAnPG91dGZpbGUubWFlPic=

> <r_epik_Ionization_Penalty>
0.188357

> <r_epik_Ionization_Penalty_Charging>
0.180787

> <r_epik_Ionization_Penalty_Neutral>
0.00756971

> <r_epik_State_Penalty>
0.157948

> <r_epik_Charging_Adjusted_Penalty>
0.338735

> <i_epik_Tot_Q>
2

> <i_epik_Tot_abs_Q>
2

> <r_epik_Metal_State_Penalty>
0.153874

> <b_epik_Metal_Only>
0

> <s_lp_Force_Field>
OPLS_2005

> <r_lp_Energy>
45.5267

> <b_lp_Chiralities_Consistent>
1

> <s_lp_Variant>
AV-unprocessed.smi:2583-2

> <Gold.Version>
5.8.1

> <Gold.Id.Protein>
6NUR|6NUR_protein|mol2

> <Gold.PLP.Fitness>
43.1696

> <Gold.PLP.PLP>
-37.1702

> <Gold.PLP.part.hbond>
-3.6297

> <Gold.PLP.part.metal>
0.0000

> <Gold.PLP.part.buried>
-2.4262

> <Gold.PLP.part.nonpolar>
-33.6865

> <Gold.PLP.part.repulsive>
2.3982

> <Gold.PLP.ligand.clash>
0.4675

> <Gold.PLP.ligand.torsion>
1.4988

> <Gold.PLP.Chemscore.Hbond>
2.6960

> <Gold.PLP.Chemscore.CHOScore>
0.4447

> <Gold.PLP.Chemscore.Metal>
0.0000

> <Gold.Chemscore.Hbonds>
donor molecule, donor type, donor heavy atom, donor atom, acceptor molecule, acceptor atom, score
      L1  H     7    30       P1 10175  0.85
      L1  H    10    31       P1 10175  0.72
      L1  H    18    55       P1 10747  0.34
      L1  C     3    28       P1  8028  0.28
      L1  C     5    29       P1 10175  0.19

> <Gold.PLP.Chemscore.Internal.Correction>
0.0425

> <Gold.Rescore>
     Score         DG    S(hbond)    S(metal)    S(lipo)     H(rot)  DE(clash)    DE(int)     intcor
     15.89     -22.19       2.55        0.00      96.55       1.21       1.64       4.66       ----

> <Gold.Chemscore.Fitness>
15.8879

> <Gold.Chemscore.DG>
-22.1917

> <Gold.Chemscore.ZeroCoef>
-5.4800

> <Gold.Chemscore.Hbond>
2.5481

> <Gold.Chemscore.Metal>
0.0000

> <Gold.Chemscore.Lipo>
96.5518

> <Gold.Chemscore.Internal_Hbond>
0.0000

> <Gold.Chemscore.DEClash>
1.6418

> <Gold.Chemscore.DEInternal>
4.6621

> <Gold.Chemscore.Rot>
1.2092

> <Gold.Chemscore.Internal.Correction>
   9.000000E+99

> <Gold.Chemscore.Hbonds>
donor molecule, donor type, donor heavy atom, donor atom, acceptor molecule, acceptor atom, score
      L1  H     7    30       P1 10175  0.79
      L1  H    10    31       P1 10175  0.67
      L1  H    18    55       P1 10747  0.31

> <Gold.Chemscore.Hbond.Weighted>
-8.5106

> <Gold.Chemscore.Metal.Weighted>
-0.0000

> <Gold.Chemscore.Lipo.Weighted>
-11.2966

> <Gold.Chemscore.Internal_Hbond.Weighted>
0.0000

> <Gold.Chemscore.DEClash.Weighted>
1.6418

> <Gold.Chemscore.DEInternal.Weighted>
4.6621

> <Gold.Chemscore.Rot.Weighted>
3.0955

> <Gold.Chemscore.Internal.Correction.Weighted>
   9.000000E+99

> <Gold.Protein.RotatedTorsions>
[ 6907 6896 6895 6894 ] final -103.05 input  -60.11 | X-H torsion
[ 7974 7965 7964 7962 ] final -152.05 input  175.53 | X-H torsion
[ 8008 7997 7996 7995 ] final -145.66 input   59.86 | X-H torsion
[ 10167 10162 10161 10158 ] final   46.59 input  -65.29 | X-H torsion
[ 10718 10713 10712 10709 ] final -118.46 input   66.30 | X-H torsion
[ 10763 10752 10751 10750 ] final  -62.50 input  -60.55 | X-H torsion
[ 11005 11000 10999 10996 ] final -163.78 input  -57.11 | X-H torsion

> <Gold.Protein.ActiveResidues>
 VAL166  LYS551  ARG553  GLY616  TRP617  ASP618  TYR619  PRO620  LYS621  CYS622 
 ASP623  PHE694  ASN695  SER759  ASP760  ASP761  ALA762  ILE779  LEU786  VAL792 
 PHE793  MET794  SER795  GLU796  ALA797  LYS798  CYS799  TRP800  GLU811  SER814 

> <Gold.Protein.RotatedAtoms>
  150.7223  134.0488  159.3790 H   0  0  0  0  0  0  0  0  0  0  0  0  # atno 6907 bound_to 6896
  151.8464  135.0570  160.0463 H   0  0  0  0  0  0  0  0  0  0  0  0  # atno 6908 bound_to 6896
  152.2824  133.5447  159.5542 H   0  0  0  0  0  0  0  0  0  0  0  0  # atno 6909 bound_to 6896
  144.7815  140.4714  143.5836 H   0  0  0  0  0  0  0  0  0  0  0  0  # atno 7974 bound_to 7965
  155.5469  140.0613  157.2858 H   0  0  0  0  0  0  0  0  0  0  0  0  # atno 8008 bound_to 7997
  154.4433  140.1909  156.0691 H   0  0  0  0  0  0  0  0  0  0  0  0  # atno 8009 bound_to 7997
  156.0545  140.3280  155.7393 H   0  0  0  0  0  0  0  0  0  0  0  0  # atno 8010 bound_to 7997
  140.3124  144.2804  150.6197 H   0  0  0  0  0  0  0  0  0  0  0  0  # atno 10167 bound_to 10162
  156.1108  130.6247  150.9294 H   0  0  0  0  0  0  0  0  0  0  0  0  # atno 10718 bound_to 10713
  154.3008  135.6235  153.5424 H   0  0  0  0  0  0  0  0  0  0  0  0  # atno 10763 bound_to 10752
  152.9840  135.5678  154.5286 H   0  0  0  0  0  0  0  0  0  0  0  0  # atno 10764 bound_to 10752
  154.4916  135.2867  155.1468 H   0  0  0  0  0  0  0  0  0  0  0  0  # atno 10765 bound_to 10752
  140.5942  134.5013  157.5197 H   0  0  0  0  0  0  0  0  0  0  0  0  # atno 11005 bound_to 11000
  145.6036  139.1506  143.3115 LP  0  0  0  0  0  0  0  0  0  0  0  0  # atno 17320 bound_to 7965
  146.2026  140.6156  142.9095 LP  0  0  0  0  0  0  0  0  0  0  0  0  # atno 17321 bound_to 7965
  140.5556  143.2199  151.7852 LP  0  0  0  0  0  0  0  0  0  0  0  0  # atno 17342 bound_to 10162
  139.4891  144.4418  151.9756 LP  0  0  0  0  0  0  0  0  0  0  0  0  # atno 17343 bound_to 10162
  157.6289  131.0923  150.8480 LP  0  0  0  0  0  0  0  0  0  0  0  0  # atno 17370 bound_to 10713
  156.8591  130.5107  149.5305 LP  0  0  0  0  0  0  0  0  0  0  0  0  # atno 17371 bound_to 10713
  139.9260  134.8054  156.1066 LP  0  0  0  0  0  0  0  0  0  0  0  0  # atno 17394 bound_to 11000
  141.0915  133.6712  156.2550 LP  0  0  0  0  0  0  0  0  0  0  0  0  # atno 17395 bound_to 11000

$$$$
