AV-unprocessed.smi:2441|AV-procd|sdf|9622|dock3
  -GOLD-   2272013253D 1   1.00000     0.00000
 Structure written by MMmdl.
 40 41  0  0  0  0  0  0  0  0  1 V2000
  147.6337  132.9636  152.6217 C   0  0  0  0  0  0  0  0  0  0  0  0
  146.4030  133.5413  151.9006 C   0  0  1  0  0  0  0  0  0  0  0  0
  145.3587  132.4345  151.6477 C   0  0  0  0  0  0  0  0  0  0  0  0
  144.1135  132.9723  150.9271 C   0  0  0  0  0  0  0  0  0  0  0  0
  143.4836  134.1330  151.7083 C   0  0  0  0  0  0  0  0  0  0  0  0
  144.5076  135.2514  151.9477 C   0  0  0  0  0  0  0  0  0  0  0  0
  145.7665  134.7286  152.6671 C   0  0  2  0  0  0  0  0  0  0  0  0
  146.7203  135.8290  152.8031 N   0  0  0  0  0  0  0  0  0  0  0  0
  146.4550  137.0469  153.2978 C   0  0  0  0  0  0  0  0  0  0  0  0
  145.3479  137.3841  153.7163 O   0  0  0  0  0  0  0  0  0  0  0  0
  147.5503  137.8278  153.2518 N   0  0  0  0  0  0  0  0  0  0  0  0
  147.7202  139.1526  153.6903 C   0  0  0  0  0  0  0  0  0  0  0  0
  146.8046  140.1403  153.5265 C   0  0  0  0  0  0  0  0  0  0  0  0
  147.0552  141.4727  154.0199 C   0  0  0  0  0  0  0  0  0  0  0  0
  148.2111  141.7081  154.6554 C   0  0  0  0  0  0  0  0  0  0  0  0
  149.1691  140.7002  154.8484 N   0  0  0  0  0  0  0  0  0  0  0  0
  150.3849  141.1059  155.5591 C   0  0  0  0  0  0  0  0  0  0  0  0
  148.9887  139.4215  154.3971 C   0  0  0  0  0  0  0  0  0  0  0  0
  149.8425  138.5493  154.5735 O   0  0  0  0  0  0  0  0  0  0  0  0
  147.3756  132.6132  153.6214 H   0  0  0  0  0  0  0  0  0  0  0  0
  148.4268  133.7044  152.7237 H   0  0  0  0  0  0  0  0  0  0  0  0
  148.0497  132.1194  152.0713 H   0  0  0  0  0  0  0  0  0  0  0  0
  146.7359  133.9063  150.9276 H   0  0  0  0  0  0  0  0  0  0  0  0
  145.8013  131.6332  151.0550 H   0  0  0  0  0  0  0  0  0  0  0  0
  145.0619  131.9861  152.5968 H   0  0  0  0  0  0  0  0  0  0  0  0
  144.3857  133.3087  149.9258 H   0  0  0  0  0  0  0  0  0  0  0  0
  143.3843  132.1723  150.7977 H   0  0  0  0  0  0  0  0  0  0  0  0
  142.6247  134.5254  151.1635 H   0  0  0  0  0  0  0  0  0  0  0  0
  143.1054  133.7708  152.6651 H   0  0  0  0  0  0  0  0  0  0  0  0
  144.7860  135.6941  150.9901 H   0  0  0  0  0  0  0  0  0  0  0  0
  144.0474  136.0483  152.5333 H   0  0  0  0  0  0  0  0  0  0  0  0
  145.4609  134.3704  153.6522 H   0  0  0  0  0  0  0  0  0  0  0  0
  147.6607  135.6479  152.4841 H   0  0  0  0  0  0  0  0  0  0  0  0
  148.3652  137.4275  152.8097 H   0  0  0  0  0  0  0  0  0  0  0  0
  145.8574  139.9651  153.0428 H   0  0  0  0  0  0  0  0  0  0  0  0
  146.3293  142.2602  153.8798 H   0  0  0  0  0  0  0  0  0  0  0  0
  148.4796  142.6757  155.0553 H   0  0  0  0  0  0  0  0  0  0  0  0
  151.0705  140.2875  155.7808 H   0  0  0  0  0  0  0  0  0  0  0  0
  150.1246  141.5706  156.5109 H   0  0  0  0  0  0  0  0  0  0  0  0
  150.9326  141.8401  154.9672 H   0  0  0  0  0  0  0  0  0  0  0  0
  1  2  1  0  0  0  0
  1 20  1  0  0  0  0
  1 21  1  0  0  0  0
  1 22  1  0  0  0  0
  2  7  1  0  0  0  0
  2  3  1  0  0  0  0
  2 23  1  0  0  0  0
  3  4  1  0  0  0  0
  3 24  1  0  0  0  0
  3 25  1  0  0  0  0
  4  5  1  0  0  0  0
  4 26  1  0  0  0  0
  4 27  1  0  0  0  0
  5  6  1  0  0  0  0
  5 28  1  0  0  0  0
  5 29  1  0  0  0  0
  6  7  1  0  0  0  0
  6 30  1  0  0  0  0
  6 31  1  0  0  0  0
  7  8  1  0  0  0  0
  7 32  1  0  0  0  0
  8  9  1  0  0  0  0
  8 33  1  0  0  0  0
  9 10  2  0  0  0  0
  9 11  1  0  0  0  0
 11 12  1  0  0  0  0
 11 34  1  0  0  0  0
 12 18  1  0  0  0  0
 12 13  2  0  0  0  0
 13 14  1  0  0  0  0
 13 35  1  0  0  0  0
 14 15  2  0  0  0  0
 14 36  1  0  0  0  0
 15 16  1  0  0  0  0
 15 37  1  0  0  0  0
 16 17  1  0  0  0  0
 16 18  1  0  0  0  0
 17 38  1  0  0  0  0
 17 39  1  0  0  0  0
 17 40  1  0  0  0  0
 18 19  2  0  0  0  0
M  END
> <s_m_source_file>
AV-unprocessed.smi

> <i_m_source_file_index>
2441

> <i_lp_mmshare_version>
43012

> <i_f3d_flags>
0

> <s_epik_input>
W0NIM11bQ0BASF0xW0NIMl1bQ0gyXVtDSDJdW0NIMl1bQ0BIXTFbTkhdQyg9TylbTkhdYzJbY0hdW2NIXVtjSF1uKFtDSDNdKWMyPU8=

> <s_epik_cmdline>
J2VwaWtfcHl0aG9uJywgJy1waCcsICc3LjAnLCAnLXRuJywgJzgnLCAnLW1hJywgJzIwMCcsICctbWV0YWxfYmluZGluZycsICctaW1hZScsICc8aW5maWxlLm1hZT4nLCAnLW9tYWUnLCAnPG91dGZpbGUubWFlPic=

> <r_lp_tautomer_probability>
1

> <r_epik_Ionization_Penalty>
2.64999e-05

> <r_epik_Ionization_Penalty_Charging>
5.09663e-06

> <r_epik_Ionization_Penalty_Neutral>
2.14032e-05

> <r_epik_State_Penalty>
-0

> <r_epik_Charging_Adjusted_Penalty>
5.09663e-06

> <i_epik_Tot_Q>
0

> <i_epik_Tot_abs_Q>
0

> <r_epik_Metal_State_Penalty>
-0

> <b_epik_Metal_Only>
0

> <s_lp_Force_Field>
OPLS_2005

> <r_lp_Energy>
23.8871

> <b_lp_Chiralities_Consistent>
1

> <s_lp_Variant>
AV-unprocessed.smi:2441-4

> <Gold.Version>
5.8.1

> <Gold.Id.Protein>
6NUR|6NUR_protein|mol2

> <Gold.PLP.Fitness>
40.1530

> <Gold.PLP.PLP>
-32.1759

> <Gold.PLP.part.hbond>
-1.7217

> <Gold.PLP.part.metal>
0.0000

> <Gold.PLP.part.buried>
-3.1049

> <Gold.PLP.part.nonpolar>
-28.6055

> <Gold.PLP.part.repulsive>
0.3636

> <Gold.PLP.ligand.clash>
0.0000

> <Gold.PLP.ligand.torsion>
0.3935

> <Gold.PLP.Chemscore.Hbond>
1.9200

> <Gold.PLP.Chemscore.CHOScore>
1.0000

> <Gold.PLP.Chemscore.Metal>
0.0000

> <Gold.Chemscore.Hbonds>
donor molecule, donor type, donor heavy atom, donor atom, acceptor molecule, acceptor atom, score
      L1  H     8    33       P1  7948  0.96
      L1  H    11    34       P1  7948  0.94
      L1  C    15    37       P1  8028  1.00

> <Gold.PLP.Chemscore.Internal.Correction>
0.0041

> <Gold.Rescore>
     Score         DG    S(hbond)    S(metal)    S(lipo)     H(rot)  DE(clash)    DE(int)     intcor
     15.71     -17.36       1.88        0.00      69.73       1.00       0.11       1.54       ----

> <Gold.Chemscore.Fitness>
15.7147

> <Gold.Chemscore.DG>
-17.3584

> <Gold.Chemscore.ZeroCoef>
-5.4800

> <Gold.Chemscore.Hbond>
1.8804

> <Gold.Chemscore.Metal>
0.0000

> <Gold.Chemscore.Lipo>
69.7252

> <Gold.Chemscore.Internal_Hbond>
0.0000

> <Gold.Chemscore.DEClash>
0.1075

> <Gold.Chemscore.DEInternal>
1.5362

> <Gold.Chemscore.Rot>
1.0000

> <Gold.Chemscore.Internal.Correction>
   9.000000E+99

> <Gold.Chemscore.Hbonds>
donor molecule, donor type, donor heavy atom, donor atom, acceptor molecule, acceptor atom, score
      L1  H     8    33       P1  7948  0.86
      L1  H    11    34       P1  7948  0.90

> <Gold.Chemscore.Hbond.Weighted>
-6.2805

> <Gold.Chemscore.Metal.Weighted>
-0.0000

> <Gold.Chemscore.Lipo.Weighted>
-8.1578

> <Gold.Chemscore.Internal_Hbond.Weighted>
0.0000

> <Gold.Chemscore.DEClash.Weighted>
0.1075

> <Gold.Chemscore.DEInternal.Weighted>
1.5362

> <Gold.Chemscore.Rot.Weighted>
2.5600

> <Gold.Chemscore.Internal.Correction.Weighted>
   9.000000E+99

> <Gold.Protein.RotatedTorsions>
[ 6907 6896 6895 6894 ] final -179.73 input  -60.11 | X-H torsion
[ 7974 7965 7964 7962 ] final  -24.04 input  175.53 | X-H torsion
[ 8008 7997 7996 7995 ] final   99.46 input   59.86 | X-H torsion
[ 10167 10162 10161 10158 ] final  -19.16 input  -65.29 | X-H torsion
[ 10718 10713 10712 10709 ] final   60.01 input   66.30 | X-H torsion
[ 10763 10752 10751 10750 ] final  -61.99 input  -60.55 | X-H torsion
[ 11005 11000 10999 10996 ] final   14.51 input  -57.11 | X-H torsion

> <Gold.Protein.ActiveResidues>
 VAL166  LYS551  ARG553  GLY616  TRP617  ASP618  TYR619  PRO620  LYS621  CYS622 
 ASP623  PHE694  ASN695  SER759  ASP760  ASP761  ALA762  ILE779  LEU786  VAL792 
 PHE793  MET794  SER795  GLU796  ALA797  LYS798  CYS799  TRP800  GLU811  SER814 

> <Gold.Protein.RotatedAtoms>
  151.6582  133.3318  159.3167 H   0  0  0  0  0  0  0  0  0  0  0  0  # atno 6907 bound_to 6896
  150.7926  134.6966  159.6536 H   0  0  0  0  0  0  0  0  0  0  0  0  # atno 6908 bound_to 6896
  152.4008  134.6292  160.0122 H   0  0  0  0  0  0  0  0  0  0  0  0  # atno 6909 bound_to 6896
  146.1579  140.4697  142.8583 H   0  0  0  0  0  0  0  0  0  0  0  0  # atno 7974 bound_to 7965
  156.1107  140.3228  155.8068 H   0  0  0  0  0  0  0  0  0  0  0  0  # atno 8008 bound_to 7997
  155.4678  140.0544  157.3000 H   0  0  0  0  0  0  0  0  0  0  0  0  # atno 8009 bound_to 7997
  154.4758  140.2031  155.9896 H   0  0  0  0  0  0  0  0  0  0  0  0  # atno 8010 bound_to 7997
  140.7266  143.4845  151.0073 H   0  0  0  0  0  0  0  0  0  0  0  0  # atno 10167 bound_to 10162
  157.5720  130.8915  149.9283 H   0  0  0  0  0  0  0  0  0  0  0  0  # atno 10718 bound_to 10713
  154.2930  135.6250  153.5393 H   0  0  0  0  0  0  0  0  0  0  0  0  # atno 10763 bound_to 10752
  152.9850  135.5660  154.5369 H   0  0  0  0  0  0  0  0  0  0  0  0  # atno 10764 bound_to 10752
  154.4984  135.2870  155.1417 H   0  0  0  0  0  0  0  0  0  0  0  0  # atno 10765 bound_to 10752
  140.4687  134.1053  155.7729 H   0  0  0  0  0  0  0  0  0  0  0  0  # atno 11005 bound_to 11000
  144.7988  140.6174  143.6492 LP  0  0  0  0  0  0  0  0  0  0  0  0  # atno 17320 bound_to 7965
  145.4661  139.1508  143.3839 LP  0  0  0  0  0  0  0  0  0  0  0  0  # atno 17321 bound_to 7965
  139.8546  143.7393  152.3176 LP  0  0  0  0  0  0  0  0  0  0  0  0  # atno 17342 bound_to 10162
  139.7587  144.7513  151.0396 LP  0  0  0  0  0  0  0  0  0  0  0  0  # atno 17343 bound_to 10162
  156.0765  130.3678  150.0666 LP  0  0  0  0  0  0  0  0  0  0  0  0  # atno 17370 bound_to 10713
  156.8818  130.9559  151.3598 LP  0  0  0  0  0  0  0  0  0  0  0  0  # atno 17371 bound_to 10713
  141.1587  133.8833  157.1907 LP  0  0  0  0  0  0  0  0  0  0  0  0  # atno 17394 bound_to 11000
  139.9899  135.0068  156.9950 LP  0  0  0  0  0  0  0  0  0  0  0  0  # atno 17395 bound_to 11000

$$$$
