#       Name:                AV-unprocessed.smi:109
#       Creating user name   scv26
#       Creation time:       Thu Mar 26 18:03:37 2020


#       File generated by GOLD software.
#

@<TRIPOS>MOLECULE
AV-unprocessed.smi:109
    71    74     1
SMALL
NO_CHARGES


@<TRIPOS>ATOM
      1 ****        -2.5425   1.9880  -4.1653 O.3            1 S1                 0.0000
      2 ****        -1.9687   1.6899  -2.9109 C.3            1 S1                 0.0000
      3 ****        -3.0667   1.6252  -1.8352 C.3            1 S1                 0.0000
      4 ****        -2.5356   1.3824  -0.4009 C.3            1 S1                 0.0000
      5 ****        -1.8382   0.0952  -0.3514 N.pl3          1 S1                 0.0000
      6 ****        -0.4891   0.0026  -0.3569 C.ar           1 S1                 0.0000
      7 ****         0.2994   1.1060  -0.4342 N.ar           1 S1                 0.0000
      8 ****         1.6293   0.9799  -0.4404 C.ar           1 S1                 0.0000
      9 ****         2.3611  -0.1344  -0.3800 N.ar           1 S1                 0.0000
     10 ****         1.5752  -1.2472  -0.3027 C.ar           1 S1                 0.0000
     11 ****         0.1526  -1.2608  -0.2855 C.ar           1 S1                 0.0000
     12 ****        -0.3046  -2.5691  -0.1992 N.2            1 S1                 0.0000
     13 ****         0.7882  -3.2837  -0.1655 C.2            1 S1                 0.0000
     14 ****         1.9641  -2.5692  -0.2268 N.pl3          1 S1                 0.0000
     15 ****         3.3585  -3.1067  -0.2091 C.3            1 S1                 0.0000
     16 ****         4.1008  -2.3547   0.7009 O.3            1 S1                 0.0000
     17 ****         5.3913  -2.0901   0.1639 C.3            1 S1                 0.0000
     18 ****         5.9812  -0.8342   0.8237 C.3            1 S1                 0.0000
     19 ****         6.5837  -1.1722   2.0548 O.3            1 S1                 0.0000
     20 ****         5.0983  -1.9181  -1.3275 C.3            1 S1                 0.0000
     21 ****         6.2494  -2.0777  -2.1358 O.3            1 S1                 0.0000
     22 ****         4.0202  -2.9679  -1.5904 C.3            1 S1                 0.0000
     23 ****         4.5671  -4.2042  -2.0119 O.3            1 S1                 0.0000
     24 ****        -3.6470   1.4111   0.6879 C.3            1 S1                 0.0000
     25 ****        -4.4473   2.7381   0.7045 C.3            1 S1                 0.0000
     26 ****        -5.5109   2.7710   1.8148 C.3            1 S1                 0.0000
     27 ****        -4.8904   2.5173   3.1938 C.3            1 S1                 0.0000
     28 ****        -4.1238   1.1899   3.2020 C.3            1 S1                 0.0000
     29 ****        -3.0540   1.1623   2.0995 C.3            1 S1                 0.0000
     30 ****         3.2566  -4.1389   0.1298 H              1 S1                 0.0000
     31 ****         6.0328  -2.9608   0.3163 H              1 S1                 0.0000
     32 ****         4.6850  -0.9258  -1.5083 H              1 S1                 0.0000
     33 ****         3.3037  -2.6292  -2.3403 H              1 S1                 0.0000
     34 ****        -3.1503   1.2998  -4.3887 H              1 S1                 0.0000
     35 ****        -1.4362   0.7422  -2.9916 H              1 S1                 0.0000
     36 ****        -1.2355   2.4589  -2.6657 H              1 S1                 0.0000
     37 ****        -3.6013   2.5726  -1.8764 H              1 S1                 0.0000
     38 ****        -3.7910   0.8519  -2.0950 H              1 S1                 0.0000
     39 ****        -1.8533   2.1977  -0.1617 H              1 S1                 0.0000
     40 ****        -2.4351  -0.7164  -0.2794 H              1 S1                 0.0000
     41 ****         2.1864   1.9030  -0.5024 H              1 S1                 0.0000
     42 ****         0.7654  -4.3617  -0.0978 H              1 S1                 0.0000
     43 ****         6.7562  -0.4045   0.1885 H              1 S1                 0.0000
     44 ****         5.2198  -0.0673   0.9688 H              1 S1                 0.0000
     45 ****         6.9442  -0.3875   2.4385 H              1 S1                 0.0000
     46 ****         5.9882  -2.0195  -3.0422 H              1 S1                 0.0000
     47 ****         5.2303  -4.4642  -1.3907 H              1 S1                 0.0000
     48 ****        -4.3494   0.6040   0.4730 H              1 S1                 0.0000
     49 ****        -3.7631   3.5783   0.8310 H              1 S1                 0.0000
     50 ****        -4.9608   2.8951  -0.2427 H              1 S1                 0.0000
     51 ****        -6.0209   3.7347   1.8102 H              1 S1                 0.0000
     52 ****        -6.2734   2.0176   1.6129 H              1 S1                 0.0000
     53 ****        -4.2148   3.3346   3.4498 H              1 S1                 0.0000
     54 ****        -5.6678   2.5048   3.9582 H              1 S1                 0.0000
     55 ****        -3.6571   1.0373   4.1756 H              1 S1                 0.0000
     56 ****        -4.8194   0.3621   3.0587 H              1 S1                 0.0000
     57 ****        -2.5473   0.1981   2.1430 H              1 S1                 0.0000
     58 ****        -2.2942   1.9152   2.3146 H              1 S1                 0.0000
     59 ****        -1.8251   2.0428  -4.8598 LP             1 S1                 0.0000
     60 ****        -3.0260   2.8619  -4.1158 LP             1 S1                 0.0000
     61 ****        -0.1162   2.0140  -0.4866 LP             1 S1                 0.0000
     62 ****         3.3609  -0.1517  -0.3902 LP             1 S1                 0.0000
     63 ****        -1.2513  -2.8899  -0.1697 LP             1 S1                 0.0000
     64 ****         4.1947  -2.8652   1.5556 LP             1 S1                 0.0000
     65 ****         3.6311  -1.4900   0.8789 LP             1 S1                 0.0000
     66 ****         7.3135  -1.8384   1.9013 LP             1 S1                 0.0000
     67 ****         5.8987  -1.5639   2.6691 LP             1 S1                 0.0000
     68 ****         6.6639  -2.9707  -1.9606 LP             1 S1                 0.0000
     69 ****         6.9105  -1.3568  -1.9280 LP             1 S1                 0.0000
     70 ****         4.9756  -4.1012  -2.9189 LP             1 S1                 0.0000
     71 ****         3.8472  -4.8974  -2.0474 LP             1 S1                 0.0000
@<TRIPOS>BOND
    1    1    2 1     
    2    1   34 1     
    3    2    3 1     
    4    2   35 1     
    5    2   36 1     
    6    3    4 1     
    7    3   37 1     
    8    3   38 1     
    9    4    5 1     
   10    4   24 1     
   11    4   39 1     
   12    5    6 1     
   13    5   40 1     
   14    6   11 ar    
   15    6    7 ar    
   16    7    8 ar    
   17    8    9 ar    
   18    8   41 1     
   19    9   10 ar    
   20   10   14 1     
   21   10   11 ar    
   22   11   12 1     
   23   12   13 2     
   24   13   14 1     
   25   13   42 1     
   26   14   15 1     
   27   15   30 1     
   28   15   22 1     
   29   15   16 1     
   30   16   17 1     
   31   17   31 1     
   32   17   18 1     
   33   17   20 1     
   34   18   19 1     
   35   18   43 1     
   36   18   44 1     
   37   19   45 1     
   38   20   32 1     
   39   20   21 1     
   40   20   22 1     
   41   21   46 1     
   42   22   33 1     
   43   22   23 1     
   44   23   47 1     
   45   24   29 1     
   46   24   25 1     
   47   24   48 1     
   48   25   26 1     
   49   25   49 1     
   50   25   50 1     
   51   26   27 1     
   52   26   51 1     
   53   26   52 1     
   54   27   28 1     
   55   27   53 1     
   56   27   54 1     
   57   28   29 1     
   58   28   55 1     
   59   28   56 1     
   60   29   57 1     
   61   29   58 1     
   62    1   59 1     
   63    1   60 1     
   64    7   61 1     
   65    9   62 1     
   66   12   63 1     
   67   16   64 1     
   68   16   65 1     
   69   19   66 1     
   70   19   67 1     
   71   21   68 1     
   72   21   69 1     
   73   23   70 1     
   74   23   71 1     
@<TRIPOS>SUBSTRUCTURE
      1 S1             1
@<TRIPOS>SET
LONE_PAIRS      STATIC     ATOMS    <user>   **** ""
13 59 60 61 62 63 64 65 66 67 68 69 70 71
DONOR_HYDROGENS      STATIC     ATOMS    <user>   **** ""
5 34 40 45 46 47
ATOM$BLUE        STATIC     ATOMS    COLORGROUP SYSTEM
13 59 60 61 62 63 64 65 66 67 68 69 70 71
ATOM$RED        STATIC     ATOMS    COLORGROUP SYSTEM
5 34 40 45 46 47
