AV-unprocessed.smi:2038|AV-procd|sdf|8281|dock5
  -GOLD-   2272010553D 1   1.00000     0.00000
 Structure written by MMmdl.
 33 34  0  0  0  0  0  0  0  0  1 V2000
  143.9807  134.8420  150.9587 O   0  0  0  0  0  0  0  0  0  0  0  0
  143.8538  133.9927  151.8411 C   0  0  0  0  0  0  0  0  0  0  0  0
  143.0320  134.1104  152.9003 N   0  0  0  0  0  0  0  0  0  0  0  0
  142.1809  135.1963  153.2400 C   0  0  0  0  0  0  0  0  0  0  0  0
  142.5914  136.4976  152.8875 C   0  0  0  0  0  0  0  0  0  0  0  0
  141.7561  137.5881  153.1949 C   0  0  0  0  0  0  0  0  0  0  0  0
  140.5266  137.3415  153.8371 C   0  0  0  0  0  0  0  0  0  0  0  0
  139.7122  138.4139  154.1368 O   0  0  0  0  0  0  0  0  0  0  0  0
  138.3026  138.2065  154.1781 C   0  0  0  0  0  0  0  0  0  0  0  0
  137.5964  139.5592  154.3264 C   0  0  0  0  0  0  0  0  0  0  0  0
  138.0379  140.1684  155.4264 F   0  0  0  0  0  0  0  0  0  0  0  0
  137.8592  140.3340  153.2744 F   0  0  0  0  0  0  0  0  0  0  0  0
  136.2800  139.3825  154.4348 F   0  0  0  0  0  0  0  0  0  0  0  0
  140.1144  136.0922  154.1655 N   0  0  0  0  0  0  0  0  0  0  0  0
  140.9212  135.0506  153.8702 C   0  0  0  0  0  0  0  0  0  0  0  0
  144.6591  132.6902  151.7648 C   0  0  1  0  0  0  0  0  0  0  0  0
  144.3752  131.8555  150.5018 C   0  0  0  0  0  0  0  0  0  0  0  0
  145.6434  131.9990  149.6839 C   0  0  0  0  0  0  0  0  0  0  0  0
  146.6935  132.1824  150.7697 C   0  0  0  0  0  0  0  0  0  0  0  0
  146.0439  133.0287  151.7054 O   0  0  0  0  0  0  0  0  0  0  0  0
  142.9652  133.3004  153.4996 H   0  0  0  0  0  0  0  0  0  0  0  0
  143.5371  136.6624  152.3921 H   0  0  0  0  0  0  0  0  0  0  0  0
  142.0525  138.5953  152.9416 H   0  0  0  0  0  0  0  0  0  0  0  0
  137.9664  137.7158  153.2630 H   0  0  0  0  0  0  0  0  0  0  0  0
  138.0395  137.5622  155.0188 H   0  0  0  0  0  0  0  0  0  0  0  0
  140.5223  134.0828  154.1317 H   0  0  0  0  0  0  0  0  0  0  0  0
  144.4803  132.0821  152.6534 H   0  0  0  0  0  0  0  0  0  0  0  0
  144.2266  130.8110  150.7788 H   0  0  0  0  0  0  0  0  0  0  0  0
  143.4919  132.1727  149.9455 H   0  0  0  0  0  0  0  0  0  0  0  0
  145.8382  131.1415  149.0394 H   0  0  0  0  0  0  0  0  0  0  0  0
  145.5896  132.8933  149.0614 H   0  0  0  0  0  0  0  0  0  0  0  0
  146.9352  131.2300  151.2438 H   0  0  0  0  0  0  0  0  0  0  0  0
  147.6154  132.6283  150.3958 H   0  0  0  0  0  0  0  0  0  0  0  0
  1  2  2  0  0  0  0
  2  3  1  0  0  0  0
  2 16  1  0  0  0  0
  3  4  1  0  0  0  0
  3 21  1  0  0  0  0
  4 15  1  0  0  0  0
  4  5  2  0  0  0  0
  5  6  1  0  0  0  0
  5 22  1  0  0  0  0
  6  7  2  0  0  0  0
  6 23  1  0  0  0  0
  7  8  1  0  0  0  0
  7 14  1  0  0  0  0
  8  9  1  0  0  0  0
  9 10  1  0  0  0  0
  9 24  1  0  0  0  0
  9 25  1  0  0  0  0
 10 11  1  0  0  0  0
 10 12  1  0  0  0  0
 10 13  1  0  0  0  0
 14 15  2  0  0  0  0
 15 26  1  0  0  0  0
 16 20  1  0  0  0  0
 16 17  1  0  0  0  0
 16 27  1  0  0  0  0
 17 18  1  0  0  0  0
 17 28  1  0  0  0  0
 17 29  1  0  0  0  0
 18 19  1  0  0  0  0
 18 30  1  0  0  0  0
 18 31  1  0  0  0  0
 19 20  1  0  0  0  0
 19 32  1  0  0  0  0
 19 33  1  0  0  0  0
M  END
> <s_m_source_file>
AV-unprocessed.smi

> <i_m_source_file_index>
2038

> <i_lp_mmshare_version>
43012

> <i_f3d_flags>
0

> <s_epik_input>
TzFbQ0gyXVtDSDJdW0NIMl1bQ0BIXTFDKD1PKVtOSF1jMltjSF1bY0hdYyhuW2NIXTIpT1tDSDJdQyhGKShGKUY=

> <s_epik_cmdline>
J2VwaWtfcHl0aG9uJywgJy1waCcsICc3LjAnLCAnLXRuJywgJzgnLCAnLW1hJywgJzIwMCcsICctbWV0YWxfYmluZGluZycsICctaW1hZScsICc8aW5maWxlLm1hZT4nLCAnLW9tYWUnLCAnPG91dGZpbGUubWFlPic=

> <r_lp_tautomer_probability>
1

> <r_epik_Ionization_Penalty>
2.73305e-06

> <r_epik_Ionization_Penalty_Charging>
0

> <r_epik_Ionization_Penalty_Neutral>
2.73305e-06

> <r_epik_State_Penalty>
-0

> <r_epik_Charging_Adjusted_Penalty>
0

> <i_epik_Tot_Q>
0

> <i_epik_Tot_abs_Q>
0

> <r_epik_Metal_State_Penalty>
-0

> <b_epik_Metal_Only>
0

> <s_lp_Force_Field>
OPLS_2005

> <r_lp_Energy>
22.8429

> <b_lp_Chiralities_Consistent>
1

> <s_lp_Variant>
AV-unprocessed.smi:2038-2

> <Gold.Version>
5.8.1

> <Gold.Id.Protein>
6NUR|6NUR_protein|mol2

> <Gold.PLP.Fitness>
34.0020

> <Gold.PLP.PLP>
-30.8830

> <Gold.PLP.part.hbond>
-1.4005

> <Gold.PLP.part.metal>
0.0000

> <Gold.PLP.part.buried>
-2.2410

> <Gold.PLP.part.nonpolar>
-29.1302

> <Gold.PLP.part.repulsive>
0.5256

> <Gold.PLP.ligand.clash>
0.0000

> <Gold.PLP.ligand.torsion>
0.6301

> <Gold.PLP.Chemscore.Hbond>
0.9913

> <Gold.PLP.Chemscore.CHOScore>
0.4605

> <Gold.PLP.Chemscore.Metal>
0.0000

> <Gold.Chemscore.Hbonds>
donor molecule, donor type, donor heavy atom, donor atom, acceptor molecule, acceptor atom, score
      L1  H     3    21       P1 10957  1.00
      L1  C    15    26       P1 11000  0.51

> <Gold.PLP.Chemscore.Internal.Correction>
0.0239

> <Gold.Rescore>
     Score         DG    S(hbond)    S(metal)    S(lipo)     H(rot)  DE(clash)    DE(int)     intcor
      9.65     -13.00       0.97        0.00      73.63       1.69       1.49       1.86       ----

> <Gold.Chemscore.Fitness>
9.6524

> <Gold.Chemscore.DG>
-12.9961

> <Gold.Chemscore.ZeroCoef>
-5.4800

> <Gold.Chemscore.Hbond>
0.9679

> <Gold.Chemscore.Metal>
0.0000

> <Gold.Chemscore.Lipo>
73.6290

> <Gold.Chemscore.Internal_Hbond>
0.0000

> <Gold.Chemscore.DEClash>
1.4885

> <Gold.Chemscore.DEInternal>
1.8551

> <Gold.Chemscore.Rot>
1.6919

> <Gold.Chemscore.Internal.Correction>
   9.000000E+99

> <Gold.Chemscore.Hbonds>
donor molecule, donor type, donor heavy atom, donor atom, acceptor molecule, acceptor atom, score
      L1  H     3    21       P1 10957  0.92

> <Gold.Chemscore.Hbond.Weighted>
-3.2329

> <Gold.Chemscore.Metal.Weighted>
-0.0000

> <Gold.Chemscore.Lipo.Weighted>
-8.6146

> <Gold.Chemscore.Internal_Hbond.Weighted>
0.0000

> <Gold.Chemscore.DEClash.Weighted>
1.4885

> <Gold.Chemscore.DEInternal.Weighted>
1.8551

> <Gold.Chemscore.Rot.Weighted>
4.3313

> <Gold.Chemscore.Internal.Correction.Weighted>
   9.000000E+99

> <Gold.Protein.RotatedTorsions>
[ 6907 6896 6895 6894 ] final   -6.41 input  -60.11 | X-H torsion
[ 7974 7965 7964 7962 ] final  -40.95 input  175.53 | X-H torsion
[ 8008 7997 7996 7995 ] final -136.94 input   59.86 | X-H torsion
[ 10167 10162 10161 10158 ] final  125.70 input  -65.29 | X-H torsion
[ 10718 10713 10712 10709 ] final   37.25 input   66.30 | X-H torsion
[ 10763 10752 10751 10750 ] final  166.00 input  -60.55 | X-H torsion
[ 11005 11000 10999 10996 ] final -104.45 input  -57.11 | X-H torsion

> <Gold.Protein.ActiveResidues>
 VAL166  LYS551  ARG553  GLY616  TRP617  ASP618  TYR619  PRO620  LYS621  CYS622 
 ASP623  PHE694  ASN695  SER759  ASP760  ASP761  ALA762  ILE779  LEU786  VAL792 
 PHE793  MET794  SER795  GLU796  ALA797  LYS798  CYS799  TRP800  GLU811  SER814 

> <Gold.Protein.RotatedAtoms>
  151.4659  135.1042  159.9737 H   0  0  0  0  0  0  0  0  0  0  0  0  # atno 6907 bound_to 6896
  152.4835  133.8309  159.7113 H   0  0  0  0  0  0  0  0  0  0  0  0  # atno 6908 bound_to 6896
  150.8925  133.7163  159.2927 H   0  0  0  0  0  0  0  0  0  0  0  0  # atno 6909 bound_to 6896
  146.0257  140.6795  142.9157 H   0  0  0  0  0  0  0  0  0  0  0  0  # atno 7974 bound_to 7965
  155.4036  140.0507  157.3035 H   0  0  0  0  0  0  0  0  0  0  0  0  # atno 8008 bound_to 7997
  154.4979  140.2145  155.9369 H   0  0  0  0  0  0  0  0  0  0  0  0  # atno 8009 bound_to 7997
  156.1429  140.3151  155.8529 H   0  0  0  0  0  0  0  0  0  0  0  0  # atno 8010 bound_to 7997
  139.5671  144.6917  151.3880 H   0  0  0  0  0  0  0  0  0  0  0  0  # atno 10167 bound_to 10162
  157.3447  130.7566  149.6936 H   0  0  0  0  0  0  0  0  0  0  0  0  # atno 10718 bound_to 10713
  154.3324  135.2754  155.2465 H   0  0  0  0  0  0  0  0  0  0  0  0  # atno 10763 bound_to 10752
  154.4771  135.5868  153.6366 H   0  0  0  0  0  0  0  0  0  0  0  0  # atno 10764 bound_to 10752
  152.9865  135.6102  154.3518 H   0  0  0  0  0  0  0  0  0  0  0  0  # atno 10765 bound_to 10752
  141.1100  133.8724  157.1612 H   0  0  0  0  0  0  0  0  0  0  0  0  # atno 11005 bound_to 11000
  144.7008  140.3645  143.7157 LP  0  0  0  0  0  0  0  0  0  0  0  0  # atno 17320 bound_to 7965
  145.7122  139.1688  143.2532 LP  0  0  0  0  0  0  0  0  0  0  0  0  # atno 17321 bound_to 7965
  140.6955  143.7760  150.7319 LP  0  0  0  0  0  0  0  0  0  0  0  0  # atno 17342 bound_to 10162
  140.1255  143.4573  152.2287 LP  0  0  0  0  0  0  0  0  0  0  0  0  # atno 17343 bound_to 10162
  155.9712  130.4157  150.4197 LP  0  0  0  0  0  0  0  0  0  0  0  0  # atno 17370 bound_to 10713
  157.2251  131.0491  151.2524 LP  0  0  0  0  0  0  0  0  0  0  0  0  # atno 17371 bound_to 10713
  139.9988  135.0036  157.0144 LP  0  0  0  0  0  0  0  0  0  0  0  0  # atno 17394 bound_to 11000
  140.4801  134.1298  155.7215 LP  0  0  0  0  0  0  0  0  0  0  0  0  # atno 17395 bound_to 11000

$$$$
