AV-unprocessed.smi:1535|AV-procd|sdf|6185|dock4
  -GOLD-   22720 6343D 1   1.00000     0.00000
 Structure written by MMmdl.
 47 48  0  0  0  0  0  0  0  0  2 V2000
  153.3884  143.7689  163.3485 C   0  0  0  0  0  0  0  0  0  0  0  0
  152.9775  143.2649  161.9761 C   0  0  0  0  0  0  0  0  0  0  0  0
  152.1339  144.0656  161.1732 C   0  0  0  0  0  0  0  0  0  0  0  0
  151.7285  143.6322  159.8919 C   0  0  0  0  0  0  0  0  0  0  0  0
  150.9207  144.2446  158.9490 N   0  0  0  0  0  0  0  0  0  0  0  0
  150.9193  143.3441  157.9706 C   0  0  0  0  0  0  0  0  0  0  0  0
  151.6348  142.2200  158.1664 N   0  0  0  0  0  0  0  0  0  0  0  0
  151.7777  141.1033  157.2491 C   0  0  0  0  0  0  0  0  0  0  0  0
  150.8434  141.2129  156.0289 C   0  0  1  0  0  0  0  0  0  0  0  0
  151.1893  140.2241  155.0777 O   0  0  0  0  0  0  0  0  0  0  0  0
  149.3673  141.0120  156.4251 C   0  0  0  0  0  0  0  0  0  0  0  0
  148.4453  141.7923  155.5611 N   0  3  1  0  0  0  0  0  0  0  0  0
  148.6387  141.4873  154.1247 C   0  0  0  0  0  0  0  0  0  0  0  0
  147.0227  141.6860  155.9792 C   0  0  0  0  0  0  0  0  0  0  0  0
  146.2012  142.9254  155.5792 C   0  0  1  0  0  0  0  0  0  0  0  0
  146.0619  143.0407  154.0560 C   0  0  0  0  0  0  0  0  0  0  0  0
  144.8783  142.9155  156.2248 C   0  0  0  0  0  0  0  0  0  0  0  0
  143.8382  142.9113  156.7300 N   0  0  0  0  0  0  0  0  0  0  0  0
  152.1929  142.3651  159.4324 C   0  0  0  0  0  0  0  0  0  0  0  0
  153.0345  141.5606  160.2207 C   0  0  0  0  0  0  0  0  0  0  0  0
  153.4308  142.0089  161.4982 C   0  0  0  0  0  0  0  0  0  0  0  0
  154.3417  141.1336  162.3405 C   0  0  0  0  0  0  0  0  0  0  0  0
  152.9358  144.7359  163.5699 H   0  0  0  0  0  0  0  0  0  0  0  0
  154.4709  143.8851  163.4037 H   0  0  0  0  0  0  0  0  0  0  0  0
  153.0749  143.0689  164.1234 H   0  0  0  0  0  0  0  0  0  0  0  0
  151.7897  145.0231  161.5360 H   0  0  0  0  0  0  0  0  0  0  0  0
  150.3671  143.5112  157.0573 H   0  0  0  0  0  0  0  0  0  0  0  0
  152.8191  141.0463  156.9297 H   0  0  0  0  0  0  0  0  0  0  0  0
  151.5716  140.1836  157.7982 H   0  0  0  0  0  0  0  0  0  0  0  0
  150.9860  142.1898  155.5665 H   0  0  0  0  0  0  0  0  0  0  0  0
  150.7053  139.4354  155.2730 H   0  0  0  0  0  0  0  0  0  0  0  0
  149.1351  139.9477  156.3563 H   0  0  0  0  0  0  0  0  0  0  0  0
  149.2042  141.2883  157.4681 H   0  0  0  0  0  0  0  0  0  0  0  0
  148.4041  140.4436  153.9117 H   0  0  0  0  0  0  0  0  0  0  0  0
  149.6721  141.6719  153.8287 H   0  0  0  0  0  0  0  0  0  0  0  0
  148.0075  142.1142  153.4958 H   0  0  0  0  0  0  0  0  0  0  0  0
  146.5862  140.7793  155.5572 H   0  0  0  0  0  0  0  0  0  0  0  0
  146.9586  141.5726  157.0616 H   0  0  0  0  0  0  0  0  0  0  0  0
  146.7038  143.8254  155.9319 H   0  0  0  0  0  0  0  0  0  0  0  0
  145.4981  143.9330  153.7827 H   0  0  0  0  0  0  0  0  0  0  0  0
  145.5406  142.1782  153.6395 H   0  0  0  0  0  0  0  0  0  0  0  0
  147.0378  143.1069  153.5742 H   0  0  0  0  0  0  0  0  0  0  0  0
  153.3739  140.6065  159.8456 H   0  0  0  0  0  0  0  0  0  0  0  0
  154.5808  140.2002  161.8299 H   0  0  0  0  0  0  0  0  0  0  0  0
  153.8637  140.8826  163.2876 H   0  0  0  0  0  0  0  0  0  0  0  0
  155.2787  141.6494  162.5507 H   0  0  0  0  0  0  0  0  0  0  0  0
  148.7181  142.7575  155.6849 H   0  0  0  0  0  0  0  0  0  0  0  0
  1  2  1  0  0  0  0
  1 23  1  0  0  0  0
  1 24  1  0  0  0  0
  1 25  1  0  0  0  0
  2 21  1  0  0  0  0
  2  3  2  0  0  0  0
  3  4  1  0  0  0  0
  3 26  1  0  0  0  0
  4 19  2  0  0  0  0
  4  5  1  0  0  0  0
  5  6  2  0  0  0  0
  6  7  1  0  0  0  0
  6 27  1  0  0  0  0
  7  8  1  0  0  0  0
  7 19  1  0  0  0  0
  8  9  1  0  0  0  0
  8 28  1  0  0  0  0
  8 29  1  0  0  0  0
  9 10  1  0  0  0  0
  9 11  1  0  0  0  0
  9 30  1  0  0  0  0
 10 31  1  0  0  0  0
 11 12  1  0  0  0  0
 11 32  1  0  0  0  0
 11 33  1  0  0  0  0
 12 13  1  0  0  0  0
 12 14  1  0  0  0  0
 12 47  1  0  0  0  0
 13 34  1  0  0  0  0
 13 35  1  0  0  0  0
 13 36  1  0  0  0  0
 14 15  1  0  0  0  0
 14 37  1  0  0  0  0
 14 38  1  0  0  0  0
 15 16  1  0  0  0  0
 15 17  1  0  0  0  0
 15 39  1  0  0  0  0
 16 40  1  0  0  0  0
 16 41  1  0  0  0  0
 16 42  1  0  0  0  0
 17 18  3  0  0  0  0
 19 20  1  0  0  0  0
 20 21  2  0  0  0  0
 20 43  1  0  0  0  0
 21 22  1  0  0  0  0
 22 44  1  0  0  0  0
 22 45  1  0  0  0  0
 22 46  1  0  0  0  0
M  CHG  1  12   1
M  END
> <s_m_source_file>
AV-unprocessed.smi

> <i_m_source_file_index>
1535

> <i_lp_mmshare_version>
43012

> <i_f3d_flags>
0

> <s_epik_input>
W0NIM11jKFtjSF0xKWMoW0NIM10pW2NIXWMoYzEyKW4oW2NIXW4yKVtDSDJdW0NASF0oW09IXSlbQ0gyXU4oW0NIM10pW0NIMl1bQ0BIXShbQ0gzXSlDI04=

> <s_epik_cmdline>
J2VwaWtfcHl0aG9uJywgJy1waCcsICc3LjAnLCAnLXRuJywgJzgnLCAnLW1hJywgJzIwMCcsICctbWV0YWxfYmluZGluZycsICctaW1hZScsICc8aW5maWxlLm1hZT4nLCAnLW9tYWUnLCAnPG91dGZpbGUubWFlPic=

> <r_epik_Ionization_Penalty>
2.21058

> <r_epik_Ionization_Penalty_Charging>
2.12381

> <r_epik_Ionization_Penalty_Neutral>
0.0867699

> <r_epik_State_Penalty>
2.36208

> <r_epik_Charging_Adjusted_Penalty>
4.48589

> <i_epik_Tot_Q>
1

> <i_epik_Tot_abs_Q>
1

> <r_epik_Metal_State_Penalty>
2.2818

> <b_epik_Metal_Only>
0

> <s_lp_Force_Field>
OPLS_2005

> <r_lp_Energy>
14.5736

> <b_lp_Chiralities_Consistent>
1

> <s_lp_Variant>
AV-unprocessed.smi:1535-16

> <Gold.Version>
5.8.1

> <Gold.Id.Protein>
6NUR|6NUR_protein|mol2

> <Gold.PLP.Fitness>
60.6697

> <Gold.PLP.PLP>
-49.8590

> <Gold.PLP.part.hbond>
-2.0000

> <Gold.PLP.part.metal>
0.0000

> <Gold.PLP.part.buried>
-5.1564

> <Gold.PLP.part.nonpolar>
-41.6331

> <Gold.PLP.part.repulsive>
0.2352

> <Gold.PLP.ligand.clash>
0.0000

> <Gold.PLP.ligand.torsion>
0.8038

> <Gold.PLP.Chemscore.Hbond>
3.0000

> <Gold.PLP.Chemscore.CHOScore>
1.0000

> <Gold.PLP.Chemscore.Metal>
0.0000

> <Gold.Chemscore.Hbonds>
donor molecule, donor type, donor heavy atom, donor atom, acceptor molecule, acceptor atom, score
      L1  H    12    47       P1  8028  2.00
      P1  H  7989  7998       L1    10  1.00
      L1  C     6    27       P1  8028  1.00

> <Gold.PLP.Chemscore.Internal.Correction>
0.4185

> <Gold.Rescore>
     Score         DG    S(hbond)    S(metal)    S(lipo)     H(rot)  DE(clash)    DE(int)     intcor
     18.15     -20.27       1.91        0.00     128.93       2.60       0.21       1.91       ----

> <Gold.Chemscore.Fitness>
18.1494

> <Gold.Chemscore.DG>
-20.2676

> <Gold.Chemscore.ZeroCoef>
-5.4800

> <Gold.Chemscore.Hbond>
1.9060

> <Gold.Chemscore.Metal>
0.0000

> <Gold.Chemscore.Lipo>
128.9349

> <Gold.Chemscore.Internal_Hbond>
0.0000

> <Gold.Chemscore.DEClash>
0.2081

> <Gold.Chemscore.DEInternal>
1.9101

> <Gold.Chemscore.Rot>
2.6031

> <Gold.Chemscore.Internal.Correction>
   9.000000E+99

> <Gold.Chemscore.Hbonds>
donor molecule, donor type, donor heavy atom, donor atom, acceptor molecule, acceptor atom, score
      L1  H    12    47       P1  8028  0.99
      P1  H  7989  7998       L1    10  0.87

> <Gold.Chemscore.Hbond.Weighted>
-6.3662

> <Gold.Chemscore.Metal.Weighted>
-0.0000

> <Gold.Chemscore.Lipo.Weighted>
-15.0854

> <Gold.Chemscore.Internal_Hbond.Weighted>
0.0000

> <Gold.Chemscore.DEClash.Weighted>
0.2081

> <Gold.Chemscore.DEInternal.Weighted>
1.9101

> <Gold.Chemscore.Rot.Weighted>
6.6640

> <Gold.Chemscore.Internal.Correction.Weighted>
   9.000000E+99

> <Gold.Protein.RotatedTorsions>
[ 6907 6896 6895 6894 ] final  112.38 input  -60.11 | X-H torsion
[ 7974 7965 7964 7962 ] final -178.77 input  175.53 | X-H torsion
[ 8008 7997 7996 7995 ] final  152.71 input   59.86 | X-H torsion
[ 10167 10162 10161 10158 ] final  -72.85 input  -65.29 | X-H torsion
[ 10718 10713 10712 10709 ] final -169.09 input   66.30 | X-H torsion
[ 10763 10752 10751 10750 ] final  113.80 input  -60.55 | X-H torsion
[ 11005 11000 10999 10996 ] final  -34.54 input  -57.11 | X-H torsion

> <Gold.Protein.ActiveResidues>
 VAL166  LYS551  ARG553  GLY616  TRP617  ASP618  TYR619  PRO620  LYS621  CYS622 
 ASP623  PHE694  ASN695  SER759  ASP760  ASP761  ALA762  ILE779  LEU786  VAL792 
 PHE793  MET794  SER795  GLU796  ALA797  LYS798  CYS799  TRP800  GLU811  SER814 

> <Gold.Protein.RotatedAtoms>
  152.4919  133.8524  159.7208 H   0  0  0  0  0  0  0  0  0  0  0  0  # atno 6907 bound_to 6896
  150.9058  133.7051  159.2874 H   0  0  0  0  0  0  0  0  0  0  0  0  # atno 6908 bound_to 6896
  151.4477  135.1031  159.9741 H   0  0  0  0  0  0  0  0  0  0  0  0  # atno 6909 bound_to 6896
  144.7132  140.0818  143.6425 H   0  0  0  0  0  0  0  0  0  0  0  0  # atno 7974 bound_to 7965
  156.2616  140.2013  156.6376 H   0  0  0  0  0  0  0  0  0  0  0  0  # atno 8008 bound_to 7997
  154.6634  140.0558  157.0112 H   0  0  0  0  0  0  0  0  0  0  0  0  # atno 8009 bound_to 7997
  155.1242  140.3227  155.4492 H   0  0  0  0  0  0  0  0  0  0  0  0  # atno 8010 bound_to 7997
  140.5158  143.2338  151.7515 H   0  0  0  0  0  0  0  0  0  0  0  0  # atno 10167 bound_to 10162
  156.7064  130.9216  151.3085 H   0  0  0  0  0  0  0  0  0  0  0  0  # atno 10718 bound_to 10713
  153.4978  135.3644  155.2524 H   0  0  0  0  0  0  0  0  0  0  0  0  # atno 10763 bound_to 10752
  154.8749  135.3992  154.3514 H   0  0  0  0  0  0  0  0  0  0  0  0  # atno 10764 bound_to 10752
  153.4144  135.7078  153.6403 H   0  0  0  0  0  0  0  0  0  0  0  0  # atno 10765 bound_to 10752
  140.9724  133.7102  156.1546 H   0  0  0  0  0  0  0  0  0  0  0  0  # atno 11005 bound_to 11000
  145.9696  139.2860  143.1107 LP  0  0  0  0  0  0  0  0  0  0  0  0  # atno 17320 bound_to 7965
  145.9131  140.9166  143.0443 LP  0  0  0  0  0  0  0  0  0  0  0  0  # atno 17321 bound_to 7965
  139.4909  144.4326  151.9855 LP  0  0  0  0  0  0  0  0  0  0  0  0  # atno 17342 bound_to 10162
  140.3420  144.3192  150.5965 LP  0  0  0  0  0  0  0  0  0  0  0  0  # atno 17343 bound_to 10162
  157.6953  130.9275  150.0627 LP  0  0  0  0  0  0  0  0  0  0  0  0  # atno 17370 bound_to 10713
  156.1692  130.3646  149.9189 LP  0  0  0  0  0  0  0  0  0  0  0  0  # atno 17371 bound_to 10713
  140.7309  134.4255  157.5566 LP  0  0  0  0  0  0  0  0  0  0  0  0  # atno 17394 bound_to 11000
  139.8917  134.8772  156.2305 LP  0  0  0  0  0  0  0  0  0  0  0  0  # atno 17395 bound_to 11000

$$$$
