#       Name:                AV-unprocessed.smi:668
#       Creating user name   scv26
#       Creation time:       Fri Mar 27 00:21:20 2020


#       File generated by GOLD software.
#

@<TRIPOS>MOLECULE
AV-unprocessed.smi:668
    45    46     1
SMALL
NO_CHARGES


@<TRIPOS>ATOM
      1 ****        -7.0267   1.7367   0.0334 C.3            1 S1                 0.0000
      2 ****        -6.3375   0.4916   0.0580 O.3            1 S1                 0.0000
      3 ****        -4.9627   0.5012  -0.0593 C.ar           1 S1                 0.0000
      4 ****        -4.2745  -0.7276  -0.0229 C.ar           1 S1                 0.0000
      5 ****        -2.8713  -0.7274  -0.1386 C.ar           1 S1                 0.0000
      6 ****        -2.1976   0.5080  -0.2955 C.ar           1 S1                 0.0000
      7 ****        -0.7875   0.6533  -0.4075 N.am           1 S1                 0.0000
      8 ****         0.1443  -0.2820  -0.6589 C.2            1 S1                 0.0000
      9 ****        -0.0755  -1.4739  -0.8716 O.2            1 S1                 0.0000
     10 ****         1.3744   0.2504  -0.6555 N.am           1 S1                 0.0000
     11 ****         2.6135  -0.4976  -0.8758 C.3            1 S1                 0.0000
     12 ****         3.7681   0.4404  -1.2748 C.3            1 S1                 0.0000
     13 ****         5.0192  -0.0559  -0.5382 C.3            1 S1                 0.0000
     14 ****         4.6270  -1.3858   0.1124 C.3            1 S1                 0.0000
     15 ****         3.1118  -1.3064   0.3513 C.3            1 S1                 0.0000
     16 ****         2.8003  -0.6713   1.7243 C.2            1 S1                 0.0000
     17 ****         2.0797  -1.4021   2.5786 N.am           1 S1                 0.0000
     18 ****         3.1935   0.4591   2.0083 O.2            1 S1                 0.0000
     19 ****        -2.9792   1.6817  -0.3111 C.ar           1 S1                 0.0000
     20 ****        -4.3241   1.6888  -0.1999 N.ar           1 S1                 0.0000
     21 ****        -8.0970   1.5579   0.1353 H              1 S1                 0.0000
     22 ****        -6.8679   2.2633  -0.9088 H              1 S1                 0.0000
     23 ****        -6.7187   2.3791   0.8595 H              1 S1                 0.0000
     24 ****        -4.8136  -1.6558   0.0967 H              1 S1                 0.0000
     25 ****        -2.3499  -1.6700  -0.0919 H              1 S1                 0.0000
     26 ****        -0.4459   1.5986  -0.3122 H              1 S1                 0.0000
     27 ****         1.4671   1.2386  -0.4707 H              1 S1                 0.0000
     28 ****         2.4570  -1.1975  -1.6994 H              1 S1                 0.0000
     29 ****         3.9144   0.4282  -2.3556 H              1 S1                 0.0000
     30 ****         3.5649   1.4741  -0.9907 H              1 S1                 0.0000
     31 ****         5.8735  -0.1674  -1.2067 H              1 S1                 0.0000
     32 ****         5.3015   0.6645   0.2304 H              1 S1                 0.0000
     33 ****         4.8381  -2.2043  -0.5771 H              1 S1                 0.0000
     34 ****         5.1986  -1.5801   1.0213 H              1 S1                 0.0000
     35 ****         2.6799  -2.3086   0.3324 H              1 S1                 0.0000
     36 ****         1.8537  -1.0344   3.4914 H              1 S1                 0.0000
     37 ****         1.7677  -2.3239   2.3096 H              1 S1                 0.0000
     38 ****        -2.5112   2.6496  -0.4179 H              1 S1                 0.0000
     39 ****        -6.6949  -0.0593  -0.6962 LP             1 S1                 0.0000
     40 ****        -6.5571   0.0490   0.9274 LP             1 S1                 0.0000
     41 ****        -1.0144  -1.8180  -0.8660 LP             1 S1                 0.0000
     42 ****         0.6849  -2.0985  -1.0501 LP             1 S1                 0.0000
     43 ****         3.7256   0.9848   1.3446 LP             1 S1                 0.0000
     44 ****         2.9812   0.8523   2.9029 LP             1 S1                 0.0000
     45 ****        -4.8361   2.5475  -0.2207 LP             1 S1                 0.0000
@<TRIPOS>BOND
    1    1    2 1     
    2    1   21 1     
    3    1   22 1     
    4    1   23 1     
    5    2    3 1     
    6    3   20 ar    
    7    3    4 ar    
    8    4    5 ar    
    9    4   24 1     
   10    5    6 ar    
   11    5   25 1     
   12    6    7 1     
   13    6   19 ar    
   14    7    8 am    
   15    7   26 1     
   16    8    9 2     
   17    8   10 am    
   18   10   11 1     
   19   10   27 1     
   20   11   15 1     
   21   11   12 1     
   22   11   28 1     
   23   12   13 1     
   24   12   29 1     
   25   12   30 1     
   26   13   14 1     
   27   13   31 1     
   28   13   32 1     
   29   14   15 1     
   30   14   33 1     
   31   14   34 1     
   32   15   16 1     
   33   15   35 1     
   34   16   17 am    
   35   16   18 2     
   36   17   36 1     
   37   17   37 1     
   38   19   20 ar    
   39   19   38 1     
   40    2   39 1     
   41    2   40 1     
   42    9   41 1     
   43    9   42 1     
   44   18   43 1     
   45   18   44 1     
   46   20   45 1     
@<TRIPOS>SUBSTRUCTURE
      1 S1             1
@<TRIPOS>SET
LONE_PAIRS      STATIC     ATOMS    <user>   **** ""
7 39 40 41 42 43 44 45
DONOR_HYDROGENS      STATIC     ATOMS    <user>   **** ""
4 26 27 36 37
ATOM$BLUE        STATIC     ATOMS    COLORGROUP SYSTEM
7 39 40 41 42 43 44 45
ATOM$RED        STATIC     ATOMS    COLORGROUP SYSTEM
4 26 27 36 37
