AV-unprocessed.smi:170|AV-procd|sdf|1406|dock9
  -GOLD-   2262019163D 1   1.00000     0.00000
 Structure written by MMmdl.
 57 61  0  0  0  0  0  0  0  0  1 V2000
  153.3949  140.6422  158.6541 O   0  0  0  0  0  0  0  0  0  0  0  0
  151.9843  140.6872  158.7607 C   0  0  2  0  0  0  0  0  0  0  0  0
  151.3598  139.9431  157.5640 C   0  0  0  0  0  0  0  0  0  0  0  0
  150.9453  138.5921  157.8996 N   0  0  0  0  0  0  0  0  0  0  0  0
  150.9423  138.0158  159.1492 C   0  0  0  0  0  0  0  0  0  0  0  0
  150.5280  136.7787  159.1890 N   0  0  0  0  0  0  0  0  0  0  0  0
  150.2258  136.4785  157.8658 C   0  0  0  0  0  0  0  0  0  0  0  0
  149.7397  135.3225  157.1896 C   0  0  0  0  0  0  0  0  0  0  0  0
  149.4556  134.1381  157.7777 N   0  0  0  0  0  0  0  0  0  0  0  0
  149.5599  133.0448  156.8188 C   0  0  0  0  0  0  0  0  0  0  0  0
  149.4338  131.6950  157.5379 C   0  0  0  0  0  0  0  0  0  0  0  0
  148.2054  131.6642  158.2521 O   0  0  0  0  0  0  0  0  0  0  0  0
  148.1457  132.6752  159.2522 C   0  0  0  0  0  0  0  0  0  0  0  0
  148.2474  134.0790  158.6106 C   0  0  1  0  0  0  0  0  0  0  0  0
  148.2162  135.1994  159.6838 C   0  0  0  0  0  0  0  0  0  0  0  0
  146.9807  135.1819  160.5870 C   0  0  0  0  0  0  0  0  0  0  0  0
  146.8444  136.2416  161.6944 C   0  0  0  0  0  0  0  0  0  0  0  0
  147.3580  135.2034  162.6935 C   0  0  0  0  0  0  0  0  0  0  0  0
  146.9111  134.1267  161.7025 C   0  0  0  0  0  0  0  0  0  0  0  0
  149.5428  135.4051  155.8508 N   0  0  0  0  0  0  0  0  0  0  0  0
  149.8207  136.5407  155.2031 C   0  0  0  0  0  0  0  0  0  0  0  0
  150.2920  137.6892  155.6940 N   0  0  0  0  0  0  0  0  0  0  0  0
  150.4783  137.6119  157.0430 C   0  0  0  0  0  0  0  0  0  0  0  0
  151.4971  142.1485  158.8487 C   0  0  2  0  0  0  0  0  0  0  0  0
  151.5145  142.9736  157.5576 C   0  0  0  0  0  0  0  0  0  0  0  0
  151.5657  144.3800  158.1108 C   0  0  0  0  0  0  0  0  0  0  0  0
  152.4867  144.2079  159.3165 C   0  0  0  0  0  0  0  0  0  0  0  0
  152.2550  142.8878  159.8026 O   0  0  0  0  0  0  0  0  0  0  0  0
  153.7255  141.5253  158.7193 H   0  0  0  0  0  0  0  0  0  0  0  0
  151.7005  140.1707  159.6786 H   0  0  0  0  0  0  0  0  0  0  0  0
  150.4860  140.4832  157.1975 H   0  0  0  0  0  0  0  0  0  0  0  0
  152.0657  139.8939  156.7339 H   0  0  0  0  0  0  0  0  0  0  0  0
  151.2572  138.5457  160.0365 H   0  0  0  0  0  0  0  0  0  0  0  0
  148.7738  133.1411  156.0681 H   0  0  0  0  0  0  0  0  0  0  0  0
  150.5150  133.0942  156.2938 H   0  0  0  0  0  0  0  0  0  0  0  0
  149.4464  130.8796  156.8148 H   0  0  0  0  0  0  0  0  0  0  0  0
  150.2715  131.5341  158.2184 H   0  0  0  0  0  0  0  0  0  0  0  0
  147.2000  132.5582  159.7801 H   0  0  0  0  0  0  0  0  0  0  0  0
  148.9406  132.5209  159.9840 H   0  0  0  0  0  0  0  0  0  0  0  0
  147.3852  134.1960  157.9550 H   0  0  0  0  0  0  0  0  0  0  0  0
  149.1160  135.1310  160.2960 H   0  0  0  0  0  0  0  0  0  0  0  0
  148.2690  136.1764  159.2040 H   0  0  0  0  0  0  0  0  0  0  0  0
  146.0636  135.1382  159.9993 H   0  0  0  0  0  0  0  0  0  0  0  0
  147.4871  137.1157  161.5889 H   0  0  0  0  0  0  0  0  0  0  0  0
  145.8077  136.5276  161.8803 H   0  0  0  0  0  0  0  0  0  0  0  0
  148.4412  135.2399  162.8209 H   0  0  0  0  0  0  0  0  0  0  0  0
  146.8359  135.1910  163.6505 H   0  0  0  0  0  0  0  0  0  0  0  0
  145.8951  133.7761  161.8919 H   0  0  0  0  0  0  0  0  0  0  0  0
  147.6084  133.2953  161.5931 H   0  0  0  0  0  0  0  0  0  0  0  0
  149.6433  136.5255  154.1378 H   0  0  0  0  0  0  0  0  0  0  0  0
  150.4760  142.1488  159.2341 H   0  0  0  0  0  0  0  0  0  0  0  0
  152.4100  142.7833  156.9654 H   0  0  0  0  0  0  0  0  0  0  0  0
  150.6438  142.7944  156.9265 H   0  0  0  0  0  0  0  0  0  0  0  0
  151.9357  145.1125  157.3929 H   0  0  0  0  0  0  0  0  0  0  0  0
  150.5722  144.6905  158.4371 H   0  0  0  0  0  0  0  0  0  0  0  0
  153.5302  144.2829  159.0089 H   0  0  0  0  0  0  0  0  0  0  0  0
  152.3072  144.9564  160.0884 H   0  0  0  0  0  0  0  0  0  0  0  0
  1  2  1  0  0  0  0
  1 29  1  0  0  0  0
  2  3  1  0  0  0  0
  2 24  1  0  0  0  0
  2 30  1  0  0  0  0
  3  4  1  0  0  0  0
  3 31  1  0  0  0  0
  3 32  1  0  0  0  0
  4 23  1  0  0  0  0
  4  5  1  0  0  0  0
  5  6  2  0  0  0  0
  5 33  1  0  0  0  0
  6  7  1  0  0  0  0
  7 23  2  0  0  0  0
  7  8  1  0  0  0  0
  8  9  1  0  0  0  0
  8 20  2  0  0  0  0
  9 14  1  0  0  0  0
  9 10  1  0  0  0  0
 10 11  1  0  0  0  0
 10 34  1  0  0  0  0
 10 35  1  0  0  0  0
 11 12  1  0  0  0  0
 11 36  1  0  0  0  0
 11 37  1  0  0  0  0
 12 13  1  0  0  0  0
 13 14  1  0  0  0  0
 13 38  1  0  0  0  0
 13 39  1  0  0  0  0
 14 15  1  0  0  0  0
 14 40  1  0  0  0  0
 15 16  1  0  0  0  0
 15 41  1  0  0  0  0
 15 42  1  0  0  0  0
 16 19  1  0  0  0  0
 16 17  1  0  0  0  0
 16 43  1  0  0  0  0
 17 18  1  0  0  0  0
 17 44  1  0  0  0  0
 17 45  1  0  0  0  0
 18 19  1  0  0  0  0
 18 46  1  0  0  0  0
 18 47  1  0  0  0  0
 19 48  1  0  0  0  0
 19 49  1  0  0  0  0
 20 21  1  0  0  0  0
 21 22  2  0  0  0  0
 21 50  1  0  0  0  0
 22 23  1  0  0  0  0
 24 28  1  0  0  0  0
 24 25  1  0  0  0  0
 24 51  1  0  0  0  0
 25 26  1  0  0  0  0
 25 52  1  0  0  0  0
 25 53  1  0  0  0  0
 26 27  1  0  0  0  0
 26 54  1  0  0  0  0
 26 55  1  0  0  0  0
 27 28  1  0  0  0  0
 27 56  1  0  0  0  0
 27 57  1  0  0  0  0
M  END
> <s_m_source_file>
AV-unprocessed.smi

> <i_m_source_file_index>
170

> <i_lp_mmshare_version>
43012

> <i_f3d_flags>
0

> <s_epik_input>
TzFbQ0gyXVtDSDJdW0NIMl1bQ0BIXTFbQ0BIXShbT0hdKVtDSDJdbihbY0hdbjIpYyhjMjMpbltjSF1uYzNONFtDSDJdW0NIMl1PW0NIMl1bQ0BIXTRbQ0gyXVtDSF01W0NIMl1bQ0gyXVtDSDJdNQ==

> <s_epik_cmdline>
J2VwaWtfcHl0aG9uJywgJy1waCcsICc3LjAnLCAnLXRuJywgJzgnLCAnLW1hJywgJzIwMCcsICctbWV0YWxfYmluZGluZycsICctaW1hZScsICc8aW5maWxlLm1hZT4nLCAnLW9tYWUnLCAnPG91dGZpbGUubWFlPic=

> <r_lp_tautomer_probability>
1

> <r_epik_Ionization_Penalty>
4.98275e-05

> <r_epik_Ionization_Penalty_Charging>
0

> <r_epik_Ionization_Penalty_Neutral>
4.98275e-05

> <r_epik_State_Penalty>
-0

> <r_epik_Charging_Adjusted_Penalty>
0

> <i_epik_Tot_Q>
0

> <i_epik_Tot_abs_Q>
0

> <r_epik_Metal_State_Penalty>
-0

> <b_epik_Metal_Only>
0

> <s_lp_Force_Field>
OPLS_2005

> <r_lp_Energy>
54.7181

> <b_lp_Chiralities_Consistent>
1

> <s_lp_Variant>
AV-unprocessed.smi:170-1

> <Gold.Version>
5.8.1

> <Gold.Id.Protein>
6NUR|6NUR_protein|mol2

> <Gold.PLP.Fitness>
48.1881

> <Gold.PLP.PLP>
-40.3556

> <Gold.PLP.part.hbond>
-3.0000

> <Gold.PLP.part.metal>
0.0000

> <Gold.PLP.part.buried>
-4.4896

> <Gold.PLP.part.nonpolar>
-33.0982

> <Gold.PLP.part.repulsive>
0.1024

> <Gold.PLP.ligand.clash>
0.1133

> <Gold.PLP.ligand.torsion>
1.3437

> <Gold.PLP.Chemscore.Hbond>
2.4416

> <Gold.PLP.Chemscore.CHOScore>
1.0000

> <Gold.PLP.Chemscore.Metal>
0.0000

> <Gold.Chemscore.Hbonds>
donor molecule, donor type, donor heavy atom, donor atom, acceptor molecule, acceptor atom, score
      P1  H  6896  6907       L1     6  0.96
      P1  H  6896  6909       L1     9  0.79
      P1  H  7997  8009       L1     1  0.49
      L1  C    21    50       P1  7948  1.00

> <Gold.PLP.Chemscore.Internal.Correction>
0.3083

> <Gold.Rescore>
     Score         DG    S(hbond)    S(metal)    S(lipo)     H(rot)  DE(clash)    DE(int)     intcor
     10.40     -14.54       1.18        0.00     100.86       2.61       0.26       3.87       ----

> <Gold.Chemscore.Fitness>
10.4038

> <Gold.Chemscore.DG>
-14.5373

> <Gold.Chemscore.ZeroCoef>
-5.4800

> <Gold.Chemscore.Hbond>
1.1825

> <Gold.Chemscore.Metal>
0.0000

> <Gold.Chemscore.Lipo>
100.8596

> <Gold.Chemscore.Internal_Hbond>
0.0000

> <Gold.Chemscore.DEClash>
0.2639

> <Gold.Chemscore.DEInternal>
3.8696

> <Gold.Chemscore.Rot>
2.6144

> <Gold.Chemscore.Internal.Correction>
   9.000000E+99

> <Gold.Chemscore.Hbonds>
donor molecule, donor type, donor heavy atom, donor atom, acceptor molecule, acceptor atom, score
      P1  H  6896  6907       L1     6  0.49
      P1  H  6896  6909       L1     9  0.06
      P1  H  7997  8009       L1     1  0.07

> <Gold.Chemscore.Hbond.Weighted>
-3.9497

> <Gold.Chemscore.Metal.Weighted>
-0.0000

> <Gold.Chemscore.Lipo.Weighted>
-11.8006

> <Gold.Chemscore.Internal_Hbond.Weighted>
0.0000

> <Gold.Chemscore.DEClash.Weighted>
0.2639

> <Gold.Chemscore.DEInternal.Weighted>
3.8696

> <Gold.Chemscore.Rot.Weighted>
6.6929

> <Gold.Chemscore.Internal.Correction.Weighted>
   9.000000E+99

> <Gold.Protein.RotatedTorsions>
[ 6907 6896 6895 6894 ] final   -7.55 input  -60.11 | X-H torsion
[ 7974 7965 7964 7962 ] final  -88.64 input  175.53 | X-H torsion
[ 8008 7997 7996 7995 ] final  152.49 input   59.86 | X-H torsion
[ 10167 10162 10161 10158 ] final -102.47 input  -65.29 | X-H torsion
[ 10718 10713 10712 10709 ] final  126.92 input   66.30 | X-H torsion
[ 10763 10752 10751 10750 ] final  108.07 input  -60.55 | X-H torsion
[ 11005 11000 10999 10996 ] final   50.14 input  -57.11 | X-H torsion

> <Gold.Protein.ActiveResidues>
 VAL166  LYS551  ARG553  GLY616  TRP617  ASP618  TYR619  PRO620  LYS621  CYS622 
 ASP623  PHE694  ASN695  SER759  ASP760  ASP761  ALA762  ILE779  LEU786  VAL792 
 PHE793  MET794  SER795  GLU796  ALA797  LYS798  CYS799  TRP800  GLU811  SER814 

> <Gold.Protein.RotatedAtoms>
  151.4478  135.1027  159.9688 H   0  0  0  0  0  0  0  0  0  0  0  0  # atno 6907 bound_to 6896
  152.4899  133.8468  159.7191 H   0  0  0  0  0  0  0  0  0  0  0  0  # atno 6908 bound_to 6896
  150.9043  133.7019  159.2898 H   0  0  0  0  0  0  0  0  0  0  0  0  # atno 6909 bound_to 6896
  145.4504  140.9560  143.2025 H   0  0  0  0  0  0  0  0  0  0  0  0  # atno 7974 bound_to 7965
  156.2626  140.2019  156.6341 H   0  0  0  0  0  0  0  0  0  0  0  0  # atno 8008 bound_to 7997
  154.6660  140.0555  157.0138 H   0  0  0  0  0  0  0  0  0  0  0  0  # atno 8009 bound_to 7997
  155.1207  140.3224  155.4501 H   0  0  0  0  0  0  0  0  0  0  0  0  # atno 8010 bound_to 7997
  140.2303  143.3611  152.0892 H   0  0  0  0  0  0  0  0  0  0  0  0  # atno 10167 bound_to 10162
  157.5378  131.1097  150.8908 H   0  0  0  0  0  0  0  0  0  0  0  0  # atno 10718 bound_to 10713
  153.4155  135.3824  155.2078 H   0  0  0  0  0  0  0  0  0  0  0  0  # atno 10763 bound_to 10752
  154.8741  135.3804  154.4448 H   0  0  0  0  0  0  0  0  0  0  0  0  # atno 10764 bound_to 10752
  153.4962  135.7088  153.5919 H   0  0  0  0  0  0  0  0  0  0  0  0  # atno 10765 bound_to 10752
  140.1043  134.5039  155.8734 H   0  0  0  0  0  0  0  0  0  0  0  0  # atno 11005 bound_to 11000
  144.8065  139.6042  143.7048 LP  0  0  0  0  0  0  0  0  0  0  0  0  # atno 17320 bound_to 7965
  146.2507  139.6194  142.9429 LP  0  0  0  0  0  0  0  0  0  0  0  0  # atno 17321 bound_to 7965
  139.5112  144.6897  151.5792 LP  0  0  0  0  0  0  0  0  0  0  0  0  # atno 17342 bound_to 10162
  140.6190  143.9294  150.6511 LP  0  0  0  0  0  0  0  0  0  0  0  0  # atno 17343 bound_to 10162
  156.9470  130.5405  149.5281 LP  0  0  0  0  0  0  0  0  0  0  0  0  # atno 17370 bound_to 10713
  156.0472  130.5547  150.8908 LP  0  0  0  0  0  0  0  0  0  0  0  0  # atno 17371 bound_to 10713
  141.2114  133.6706  156.6580 LP  0  0  0  0  0  0  0  0  0  0  0  0  # atno 17394 bound_to 11000
  140.3177  134.8033  157.4227 LP  0  0  0  0  0  0  0  0  0  0  0  0  # atno 17395 bound_to 11000

$$$$
