#       Name:                AV-unprocessed.smi:2286
#       Creating user name   scv26
#       Creation time:       Fri Mar 27 12:42:11 2020


#       File generated by GOLD software.
#

@<TRIPOS>MOLECULE
AV-unprocessed.smi:2286
    51    52     1
SMALL
NO_CHARGES


@<TRIPOS>ATOM
      1 ****        -6.2195   3.5331  -2.6361 C.3            1 S1                 0.0000
      2 ****        -5.4223   2.2984  -2.2708 C.ar           1 S1                 0.0000
      3 ****        -6.0651   1.0731  -2.0104 C.ar           1 S1                 0.0000
      4 ****        -5.2668  -0.0386  -1.6767 C.ar           1 S1                 0.0000
      5 ****        -5.8926  -1.3868  -1.3888 C.3            1 S1                 0.0000
      6 ****        -3.9199   0.0178  -1.5994 N.ar           1 S1                 0.0000
      7 ****        -3.2900   1.1928  -1.8478 C.ar           1 S1                 0.0000
      8 ****        -1.8804   1.3576  -1.7968 N.am           1 S1                 0.0000
      9 ****        -0.9430   0.4276  -1.5423 C.2            1 S1                 0.0000
     10 ****        -1.1637  -0.7537  -1.2725 O.2            1 S1                 0.0000
     11 ****         0.2903   0.9493  -1.6203 N.am           1 S1                 0.0000
     12 ****         1.5313   0.2121  -1.3954 C.3            1 S1                 0.0000
     13 ****         1.9177   0.1191   0.0856 C.2            1 S1                 0.0000
     14 ****         1.4221   0.8794   0.9190 O.2            1 S1                 0.0000
     15 ****         2.8333  -0.8127   0.3921 N.am           1 S1                 0.0000
     16 ****         3.3690  -1.0677   1.7260 C.3            1 S1                 0.0000
     17 ****         4.4714  -0.0450   2.0740 C.3            1 S1                 0.0000
     18 ****         5.1124  -0.3471   3.4382 C.3            1 S1                 0.0000
     19 ****         5.6553  -1.7835   3.4951 C.3            1 S1                 0.0000
     20 ****         4.5565  -2.8038   3.1600 C.3            1 S1                 0.0000
     21 ****         3.9173  -2.5061   1.7938 C.3            1 S1                 0.0000
     22 ****        -4.0166   2.3568  -2.1858 C.ar           1 S1                 0.0000
     23 ****        -7.2768   3.2989  -2.7651 H              1 S1                 0.0000
     24 ****        -5.8500   3.9603  -3.5686 H              1 S1                 0.0000
     25 ****        -6.1290   4.2858  -1.8526 H              1 S1                 0.0000
     26 ****        -7.1406   0.9866  -2.0655 H              1 S1                 0.0000
     27 ****        -6.9663  -1.2950  -1.2222 H              1 S1                 0.0000
     28 ****        -5.4490  -1.8339  -0.4985 H              1 S1                 0.0000
     29 ****        -5.7327  -2.0623  -2.2294 H              1 S1                 0.0000
     30 ****        -1.5457   2.2887  -1.9951 H              1 S1                 0.0000
     31 ****         0.3799   1.9308  -1.8378 H              1 S1                 0.0000
     32 ****         1.4587  -0.7891  -1.8242 H              1 S1                 0.0000
     33 ****         2.3322   0.7229  -1.9300 H              1 S1                 0.0000
     34 ****         3.1872  -1.3900  -0.3570 H              1 S1                 0.0000
     35 ****         2.5611  -0.9785   2.4551 H              1 S1                 0.0000
     36 ****         5.2430  -0.0575   1.3028 H              1 S1                 0.0000
     37 ****         4.0610   0.9655   2.0822 H              1 S1                 0.0000
     38 ****         5.9169   0.3620   3.6353 H              1 S1                 0.0000
     39 ****         4.3738  -0.2040   4.2278 H              1 S1                 0.0000
     40 ****         6.4815  -1.8906   2.7911 H              1 S1                 0.0000
     41 ****         6.0637  -1.9879   4.4851 H              1 S1                 0.0000
     42 ****         4.9720  -3.8117   3.1638 H              1 S1                 0.0000
     43 ****         3.7895  -2.7825   3.9352 H              1 S1                 0.0000
     44 ****         3.1163  -3.2208   1.6007 H              1 S1                 0.0000
     45 ****         4.6608  -2.6563   1.0094 H              1 S1                 0.0000
     46 ****        -3.5026   3.2870  -2.3817 H              1 S1                 0.0000
     47 ****        -3.3927  -0.7980  -1.3616 LP             1 S1                 0.0000
     48 ****        -2.1047  -1.0893  -1.2292 LP             1 S1                 0.0000
     49 ****        -0.4019  -1.3772  -1.0969 LP             1 S1                 0.0000
     50 ****         0.7575   1.5698   0.6332 LP             1 S1                 0.0000
     51 ****         1.6844   0.8060   1.8811 LP             1 S1                 0.0000
@<TRIPOS>BOND
    1    1    2 1     
    2    1   23 1     
    3    1   24 1     
    4    1   25 1     
    5    2   22 ar    
    6    2    3 ar    
    7    3    4 ar    
    8    3   26 1     
    9    4    5 1     
   10    4    6 ar    
   11    5   27 1     
   12    5   28 1     
   13    5   29 1     
   14    6    7 ar    
   15    7    8 1     
   16    7   22 ar    
   17    8    9 am    
   18    8   30 1     
   19    9   10 2     
   20    9   11 am    
   21   11   12 1     
   22   11   31 1     
   23   12   13 1     
   24   12   32 1     
   25   12   33 1     
   26   13   14 2     
   27   13   15 am    
   28   15   16 1     
   29   15   34 1     
   30   16   21 1     
   31   16   17 1     
   32   16   35 1     
   33   17   18 1     
   34   17   36 1     
   35   17   37 1     
   36   18   19 1     
   37   18   38 1     
   38   18   39 1     
   39   19   20 1     
   40   19   40 1     
   41   19   41 1     
   42   20   21 1     
   43   20   42 1     
   44   20   43 1     
   45   21   44 1     
   46   21   45 1     
   47   22   46 1     
   48    6   47 1     
   49   10   48 1     
   50   10   49 1     
   51   14   50 1     
   52   14   51 1     
@<TRIPOS>SUBSTRUCTURE
      1 S1             1
@<TRIPOS>SET
LONE_PAIRS      STATIC     ATOMS    <user>   **** ""
5 47 48 49 50 51
DONOR_HYDROGENS      STATIC     ATOMS    <user>   **** ""
3 30 31 34
ATOM$BLUE        STATIC     ATOMS    COLORGROUP SYSTEM
5 47 48 49 50 51
ATOM$RED        STATIC     ATOMS    COLORGROUP SYSTEM
3 30 31 34
