AV-unprocessed.smi:292|AV-procd|sdf|2249|dock2
  -GOLD-   2262022133D 1   1.00000     0.00000
 Structure written by MMmdl.
 33 34  0  0  0  0  0  0  0  0  1 V2000
  154.5822  134.8580  163.4046 N   0  0  0  0  0  0  0  0  0  0  0  0
  154.2909  135.7137  162.6821 C   0  0  0  0  0  0  0  0  0  0  0  0
  153.9251  136.7881  161.7748 C   0  0  0  0  0  0  0  0  0  0  0  0
  154.4181  138.0511  161.9304 N   0  0  0  0  0  0  0  0  0  0  0  0
  153.8109  138.6368  160.9061 C   0  0  0  0  0  0  0  0  0  0  0  0
  153.0258  137.8174  160.1985 N   0  0  0  0  0  0  0  0  0  0  0  0
  152.1891  138.0815  159.0379 C   0  0  0  0  0  0  0  0  0  0  0  0
  152.3421  139.5071  158.4875 C   0  0  0  0  0  0  0  0  0  0  0  0
  152.8204  139.6713  157.3658 O   0  0  0  0  0  0  0  0  0  0  0  0
  151.9572  140.5260  159.2749 N   0  0  0  0  0  0  0  0  0  0  0  0
  151.9994  141.9466  158.9345 C   0  0  2  0  0  0  0  0  0  0  0  0
  152.2151  142.8056  160.2075 C   0  0  0  0  0  0  0  0  0  0  0  0
  151.6710  144.2484  160.1547 C   0  0  0  0  0  0  0  0  0  0  0  0
  152.1639  145.1018  158.9687 C   0  0  0  0  0  0  0  0  0  0  0  0
  151.9548  144.5099  157.5547 C   0  0  0  0  0  0  0  0  0  0  0  0
  150.8466  143.5606  157.4584 N   0  0  0  0  0  0  0  0  0  0  0  0
  150.8049  142.3539  158.0495 C   0  0  0  0  0  0  0  0  0  0  0  0
  149.8405  141.6025  157.9080 O   0  0  0  0  0  0  0  0  0  0  0  0
  153.0919  136.5835  160.7566 N   0  0  0  0  0  0  0  0  0  0  0  0
  153.9330  139.6841  160.6715 H   0  0  0  0  0  0  0  0  0  0  0  0
  152.4437  137.3685  158.2530 H   0  0  0  0  0  0  0  0  0  0  0  0
  151.1473  137.9028  159.3080 H   0  0  0  0  0  0  0  0  0  0  0  0
  151.5702  140.2991  160.1798 H   0  0  0  0  0  0  0  0  0  0  0  0
  152.8772  142.0783  158.3002 H   0  0  0  0  0  0  0  0  0  0  0  0
  151.7438  142.3123  161.0587 H   0  0  0  0  0  0  0  0  0  0  0  0
  153.2807  142.8311  160.4389 H   0  0  0  0  0  0  0  0  0  0  0  0
  150.5803  144.2237  160.1521 H   0  0  0  0  0  0  0  0  0  0  0  0
  151.9380  144.7551  161.0825 H   0  0  0  0  0  0  0  0  0  0  0  0
  151.6481  146.0613  159.0191 H   0  0  0  0  0  0  0  0  0  0  0  0
  153.2214  145.3332  159.1004 H   0  0  0  0  0  0  0  0  0  0  0  0
  151.7785  145.3185  156.8449 H   0  0  0  0  0  0  0  0  0  0  0  0
  152.8703  144.0253  157.2136 H   0  0  0  0  0  0  0  0  0  0  0  0
  150.0595  143.8331  156.8873 H   0  0  0  0  0  0  0  0  0  0  0  0
  1  2  3  0  0  0  0
  2  3  1  0  0  0  0
  3 19  2  0  0  0  0
  3  4  1  0  0  0  0
  4  5  2  0  0  0  0
  5  6  1  0  0  0  0
  5 20  1  0  0  0  0
  6  7  1  0  0  0  0
  6 19  1  0  0  0  0
  7  8  1  0  0  0  0
  7 21  1  0  0  0  0
  7 22  1  0  0  0  0
  8  9  2  0  0  0  0
  8 10  1  0  0  0  0
 10 11  1  0  0  0  0
 10 23  1  0  0  0  0
 11 17  1  0  0  0  0
 11 12  1  0  0  0  0
 11 24  1  0  0  0  0
 12 13  1  0  0  0  0
 12 25  1  0  0  0  0
 12 26  1  0  0  0  0
 13 14  1  0  0  0  0
 13 27  1  0  0  0  0
 13 28  1  0  0  0  0
 14 15  1  0  0  0  0
 14 29  1  0  0  0  0
 14 30  1  0  0  0  0
 15 16  1  0  0  0  0
 15 31  1  0  0  0  0
 15 32  1  0  0  0  0
 16 17  1  0  0  0  0
 16 33  1  0  0  0  0
 17 18  2  0  0  0  0
M  END
> <s_m_source_file>
AV-unprocessed.smi

> <i_m_source_file_index>
292

> <i_lp_mmshare_version>
43012

> <i_f3d_flags>
0

> <s_epik_input>
TiNDYzFuW2NIXW4objEpW0NIMl1DKD1PKVtOSF1bQ0BASF0yW0NIMl1bQ0gyXVtDSDJdW0NIMl1bTkhdQzI9Tw==

> <s_epik_cmdline>
J2VwaWtfcHl0aG9uJywgJy1waCcsICc3LjAnLCAnLXRuJywgJzgnLCAnLW1hJywgJzIwMCcsICctbWV0YWxfYmluZGluZycsICctaW1hZScsICc8aW5maWxlLm1hZT4nLCAnLW9tYWUnLCAnPG91dGZpbGUubWFlPic=

> <r_lp_tautomer_probability>
1

> <r_epik_Ionization_Penalty>
1.99744e-07

> <r_epik_Ionization_Penalty_Charging>
0

> <r_epik_Ionization_Penalty_Neutral>
1.99744e-07

> <r_epik_State_Penalty>
-0

> <r_epik_Charging_Adjusted_Penalty>
0

> <i_epik_Tot_Q>
0

> <i_epik_Tot_abs_Q>
0

> <r_epik_Metal_State_Penalty>
-0

> <b_epik_Metal_Only>
0

> <s_lp_Force_Field>
OPLS_2005

> <r_lp_Energy>
19.194

> <b_lp_Chiralities_Consistent>
1

> <s_lp_Variant>
AV-unprocessed.smi:292-1

> <Gold.Version>
5.8.1

> <Gold.Id.Protein>
6NUR|6NUR_protein|mol2

> <Gold.PLP.Fitness>
43.7323

> <Gold.PLP.PLP>
-35.4636

> <Gold.PLP.part.hbond>
-2.9875

> <Gold.PLP.part.metal>
0.0000

> <Gold.PLP.part.buried>
-6.1688

> <Gold.PLP.part.nonpolar>
-27.2356

> <Gold.PLP.part.repulsive>
0.2271

> <Gold.PLP.ligand.clash>
0.0000

> <Gold.PLP.ligand.torsion>
0.3800

> <Gold.PLP.Chemscore.Hbond>
2.9913

> <Gold.PLP.Chemscore.CHOScore>
0.0000

> <Gold.PLP.Chemscore.Metal>
0.0000

> <Gold.Chemscore.Hbonds>
donor molecule, donor type, donor heavy atom, donor atom, acceptor molecule, acceptor atom, score
      L1  H    16    33       P1  8028  1.00
      P1  H  6896  6908       L1    19  1.00
      P1  H  7997  8008       L1     9  1.00

> <Gold.PLP.Chemscore.Internal.Correction>
0.0550

> <Gold.Rescore>
     Score         DG    S(hbond)    S(metal)    S(lipo)     H(rot)  DE(clash)    DE(int)     intcor
     17.05     -17.38       2.94        0.00      64.75       2.14       0.01       0.31       ----

> <Gold.Chemscore.Fitness>
17.0533

> <Gold.Chemscore.DG>
-17.3766

> <Gold.Chemscore.ZeroCoef>
-5.4800

> <Gold.Chemscore.Hbond>
2.9372

> <Gold.Chemscore.Metal>
0.0000

> <Gold.Chemscore.Lipo>
64.7514

> <Gold.Chemscore.Internal_Hbond>
0.0000

> <Gold.Chemscore.DEClash>
0.0149

> <Gold.Chemscore.DEInternal>
0.3084

> <Gold.Chemscore.Rot>
2.1444

> <Gold.Chemscore.Internal.Correction>
   9.000000E+99

> <Gold.Chemscore.Hbonds>
donor molecule, donor type, donor heavy atom, donor atom, acceptor molecule, acceptor atom, score
      L1  H    16    33       P1  8028  0.99
      P1  H  6896  6908       L1    19  0.97
      P1  H  7997  8008       L1     9  1.00

> <Gold.Chemscore.Hbond.Weighted>
-9.8103

> <Gold.Chemscore.Metal.Weighted>
-0.0000

> <Gold.Chemscore.Lipo.Weighted>
-7.5759

> <Gold.Chemscore.Internal_Hbond.Weighted>
0.0000

> <Gold.Chemscore.DEClash.Weighted>
0.0149

> <Gold.Chemscore.DEInternal.Weighted>
0.3084

> <Gold.Chemscore.Rot.Weighted>
5.4896

> <Gold.Chemscore.Internal.Correction.Weighted>
   9.000000E+99

> <Gold.Protein.RotatedTorsions>
[ 6907 6896 6895 6894 ] final  -86.65 input  -60.11 | X-H torsion
[ 7974 7965 7964 7962 ] final -116.55 input  175.53 | X-H torsion
[ 8008 7997 7996 7995 ] final  -68.04 input   59.86 | X-H torsion
[ 10167 10162 10161 10158 ] final  -19.15 input  -65.29 | X-H torsion
[ 10718 10713 10712 10709 ] final -110.78 input   66.30 | X-H torsion
[ 10763 10752 10751 10750 ] final  164.94 input  -60.55 | X-H torsion
[ 11005 11000 10999 10996 ] final   33.49 input  -57.11 | X-H torsion

> <Gold.Protein.ActiveResidues>
 VAL166  LYS551  ARG553  GLY616  TRP617  ASP618  TYR619  PRO620  LYS621  CYS622 
 ASP623  PHE694  ASN695  SER759  ASP760  ASP761  ALA762  ILE779  LEU786  VAL792 
 PHE793  MET794  SER795  GLU796  ALA797  LYS798  CYS799  TRP800  GLU811  SER814 

> <Gold.Protein.RotatedAtoms>
  150.6866  134.3017  159.4709 H   0  0  0  0  0  0  0  0  0  0  0  0  # atno 6907 bound_to 6896
  152.0912  134.9403  160.0581 H   0  0  0  0  0  0  0  0  0  0  0  0  # atno 6908 bound_to 6896
  152.0718  133.4075  159.4499 H   0  0  0  0  0  0  0  0  0  0  0  0  # atno 6909 bound_to 6896
  145.0955  140.8518  143.3957 H   0  0  0  0  0  0  0  0  0  0  0  0  # atno 7974 bound_to 7965
  154.4841  140.0880  156.7445 H   0  0  0  0  0  0  0  0  0  0  0  0  # atno 8008 bound_to 7997
  155.4396  140.3453  155.4270 H   0  0  0  0  0  0  0  0  0  0  0  0  # atno 8009 bound_to 7997
  156.1235  140.1481  156.9158 H   0  0  0  0  0  0  0  0  0  0  0  0  # atno 8010 bound_to 7997
  140.7266  143.4846  151.0072 H   0  0  0  0  0  0  0  0  0  0  0  0  # atno 10167 bound_to 10162
  156.0610  130.5833  150.8284 H   0  0  0  0  0  0  0  0  0  0  0  0  # atno 10718 bound_to 10713
  154.3165  135.2756  155.2541 H   0  0  0  0  0  0  0  0  0  0  0  0  # atno 10763 bound_to 10752
  154.4913  135.5833  153.6465 H   0  0  0  0  0  0  0  0  0  0  0  0  # atno 10764 bound_to 10752
  152.9881  135.6135  154.3346 H   0  0  0  0  0  0  0  0  0  0  0  0  # atno 10765 bound_to 10752
  140.2626  134.3175  155.7853 H   0  0  0  0  0  0  0  0  0  0  0  0  # atno 11005 bound_to 11000
  145.1016  139.2819  143.5683 LP  0  0  0  0  0  0  0  0  0  0  0  0  # atno 17320 bound_to 7965
  146.3531  140.0585  142.8631 LP  0  0  0  0  0  0  0  0  0  0  0  0  # atno 17321 bound_to 7965
  139.8547  143.7392  152.3176 LP  0  0  0  0  0  0  0  0  0  0  0  0  # atno 17342 bound_to 10162
  139.7587  144.7513  151.0397 LP  0  0  0  0  0  0  0  0  0  0  0  0  # atno 17343 bound_to 10162
  157.5618  131.0946  150.9547 LP  0  0  0  0  0  0  0  0  0  0  0  0  # atno 17370 bound_to 10713
  156.9783  130.5517  149.5294 LP  0  0  0  0  0  0  0  0  0  0  0  0  # atno 17371 bound_to 10713
  141.2188  133.7418  156.9210 LP  0  0  0  0  0  0  0  0  0  0  0  0  # atno 17394 bound_to 11000
  140.1450  134.9268  157.2518 LP  0  0  0  0  0  0  0  0  0  0  0  0  # atno 17395 bound_to 11000

$$$$
