#       Name:                AV-unprocessed.smi:1406
#       Creating user name   scv26
#       Creation time:       Fri Mar 27 05:35:10 2020


#       File generated by GOLD software.
#

@<TRIPOS>MOLECULE
AV-unprocessed.smi:1406
    45    47     1
SMALL
NO_CHARGES


@<TRIPOS>ATOM
      1 ****        -2.8602  -3.4405   1.1631 C.3            1 S1                 0.0000
      2 ****        -2.2248  -2.3154   0.3212 C.3            1 S1                 0.0000
      3 ****        -0.7641  -2.0338   0.7072 C.2            1 S1                 0.0000
      4 ****        -0.0806  -2.8936   1.2639 O.2            1 S1                 0.0000
      5 ****        -0.2939  -0.8150   0.3986 N.am           1 S1                 0.0000
      6 ****         1.0731  -0.3599   0.6371 C.3            1 S1                 0.0000
      7 ****         1.4098  -0.1243   2.1248 C.3            1 S1                 0.0000
      8 ****         2.2206   1.1755   2.1394 C.3            1 S1                 0.0000
      9 ****         1.6397   1.9369   1.0275 N.4            1 S1                 1.0000
     10 ****         2.3320   3.1585   0.5690 C.3            1 S1                 0.0000
     11 ****         1.4385   3.8627  -0.4753 C.3            1 S1                 0.0000
     12 ****         1.0022   2.9101  -1.6125 C.3            1 S1                 0.0000
     13 ****         0.4018   1.5975  -1.0632 C.3            1 S1                 0.0000
     14 ****         1.3942   0.9782  -0.0633 C.3            1 S1                 0.0000
     15 ****        -2.3240  -2.5752  -1.1099 N.pl3          1 S1                 0.0000
     16 ****        -2.6699  -1.7593  -2.1082 C.2            1 S1                 0.0000
     17 ****        -2.6017  -2.3172  -3.3086 N.2            1 S1                 0.0000
     18 ****        -2.1692  -3.5642  -2.9562 C.2            1 S1                 0.0000
     19 ****        -1.9758  -3.7683  -1.6535 N.2            1 S1                 0.0000
     20 ****        -2.8194  -3.2064   2.2275 H              1 S1                 0.0000
     21 ****        -2.3578  -4.3975   1.0161 H              1 S1                 0.0000
     22 ****        -3.9096  -3.5759   0.9002 H              1 S1                 0.0000
     23 ****        -2.7927  -1.4052   0.5211 H              1 S1                 0.0000
     24 ****        -0.9201  -0.1678  -0.0580 H              1 S1                 0.0000
     25 ****         1.7501  -1.1166   0.2351 H              1 S1                 0.0000
     26 ****         0.4947   0.0172   2.7024 H              1 S1                 0.0000
     27 ****         1.9527  -0.9592   2.5691 H              1 S1                 0.0000
     28 ****         2.1430   1.7107   3.0861 H              1 S1                 0.0000
     29 ****         3.2740   0.9737   1.9386 H              1 S1                 0.0000
     30 ****         2.5135   3.8199   1.4168 H              1 S1                 0.0000
     31 ****         3.3035   2.9037   0.1426 H              1 S1                 0.0000
     32 ****         0.5491   4.2518   0.0220 H              1 S1                 0.0000
     33 ****         1.9586   4.7269  -0.8898 H              1 S1                 0.0000
     34 ****         0.2823   3.4079  -2.2629 H              1 S1                 0.0000
     35 ****         1.8670   2.6770  -2.2352 H              1 S1                 0.0000
     36 ****        -0.5539   1.8005  -0.5778 H              1 S1                 0.0000
     37 ****         0.2030   0.9062  -1.8831 H              1 S1                 0.0000
     38 ****         2.3424   0.8291  -0.5847 H              1 S1                 0.0000
     39 ****        -2.9716  -0.7336  -1.9552 H              1 S1                 0.0000
     40 ****        -1.9835  -4.3424  -3.6820 H              1 S1                 0.0000
     41 ****         0.7289   2.2293   1.3519 H              1 S1                 0.0000
     42 ****        -0.4747  -3.7892   1.4706 LP             1 S1                 0.0000
     43 ****         0.8685  -2.6963   1.5092 LP             1 S1                 0.0000
     44 ****        -2.8071  -1.9362  -4.2101 LP             1 S1                 0.0000
     45 ****        -1.6542  -4.5950  -1.1918 LP             1 S1                 0.0000
@<TRIPOS>BOND
    1    1    2 1     
    2    1   20 1     
    3    1   21 1     
    4    1   22 1     
    5    2    3 1     
    6    2   15 1     
    7    2   23 1     
    8    3    4 2     
    9    3    5 am    
   10    5    6 1     
   11    5   24 1     
   12    6   14 1     
   13    6    7 1     
   14    6   25 1     
   15    7    8 1     
   16    7   26 1     
   17    7   27 1     
   18    8    9 1     
   19    8   28 1     
   20    8   29 1     
   21    9   14 1     
   22    9   10 1     
   23    9   41 1     
   24   10   11 1     
   25   10   30 1     
   26   10   31 1     
   27   11   12 1     
   28   11   32 1     
   29   11   33 1     
   30   12   13 1     
   31   12   34 1     
   32   12   35 1     
   33   13   14 1     
   34   13   36 1     
   35   13   37 1     
   36   14   38 1     
   37   15   19 1     
   38   15   16 1     
   39   16   17 2     
   40   16   39 1     
   41   17   18 1     
   42   18   19 2     
   43   18   40 1     
   44    4   42 1     
   45    4   43 1     
   46   17   44 1     
   47   19   45 1     
@<TRIPOS>SUBSTRUCTURE
      1 S1             1
@<TRIPOS>SET
LONE_PAIRS      STATIC     ATOMS    <user>   **** ""
4 42 43 44 45
DONOR_HYDROGENS      STATIC     ATOMS    <user>   **** ""
2 24 41
ATOM$BLUE        STATIC     ATOMS    COLORGROUP SYSTEM
4 42 43 44 45
ATOM$RED        STATIC     ATOMS    COLORGROUP SYSTEM
2 24 41
