AV-unprocessed.smi:1413|AV-procd|sdf|5752|dock10
  -GOLD-   22720 5393D 1   1.00000     0.00000
 Structure written by MMmdl.
 53 55  0  0  0  0  0  0  0  0  1 V2000
  151.9006  144.9157  158.6178 C   0  0  0  0  0  0  0  0  0  0  0  0
  152.2660  143.4309  158.5209 C   0  0  2  0  0  0  0  0  0  0  0  0
  151.2460  142.6424  157.6793 C   0  0  0  0  0  0  0  0  0  0  0  0
  151.5688  141.2230  157.7052 N   0  0  0  0  0  0  0  0  0  0  0  0
  150.7831  140.4611  156.8291 C   0  0  0  0  0  0  0  0  0  0  0  0
  151.3826  139.9081  155.6791 C   0  0  0  0  0  0  0  0  0  0  0  0
  150.5892  139.1423  154.8042 C   0  0  0  0  0  0  0  0  0  0  0  0
  149.2220  138.9626  155.0950 C   0  0  0  0  0  0  0  0  0  0  0  0
  148.4484  138.1663  154.2086 N   0  0  0  0  0  0  0  0  0  0  0  0
  147.1133  138.1451  154.0584 C   0  0  0  0  0  0  0  0  0  0  0  0
  146.3209  138.8698  154.6596 O   0  0  0  0  0  0  0  0  0  0  0  0
  146.7472  137.2413  153.1378 N   0  0  0  0  0  0  0  0  0  0  0  0
  145.3832  136.9944  152.6753 C   0  0  2  0  0  0  0  0  0  0  0  0
  144.4857  136.7339  153.8949 C   0  0  0  0  0  0  0  0  0  0  0  0
  145.3879  135.8134  151.6849 C   0  0  1  0  0  0  0  0  0  0  0  0
  146.0001  134.5192  152.2300 C   0  0  0  0  0  0  0  0  0  0  0  0
  145.2448  133.4125  151.5058 C   0  0  0  0  0  0  0  0  0  0  0  0
  144.1477  134.1491  150.7367 C   0  0  0  0  0  0  0  0  0  0  0  0
  144.0615  135.4134  151.3736 O   0  0  0  0  0  0  0  0  0  0  0  0
  148.7163  139.5529  156.2785 C   0  0  0  0  0  0  0  0  0  0  0  0
  149.4733  140.2849  157.1238 N   0  0  0  0  0  0  0  0  0  0  0  0
  151.6253  140.6929  159.0621 C   0  0  0  0  0  0  0  0  0  0  0  0
  152.6150  141.5025  159.9235 C   0  0  1  0  0  0  0  0  0  0  0  0
  154.0912  141.2160  159.5955 C   0  0  0  0  0  0  0  0  0  0  0  0
  152.3069  142.8973  159.8454 O   0  0  0  0  0  0  0  0  0  0  0  0
  151.8646  145.3764  157.6303 H   0  0  0  0  0  0  0  0  0  0  0  0
  152.6355  145.4600  159.2116 H   0  0  0  0  0  0  0  0  0  0  0  0
  150.9258  145.0521  159.0871 H   0  0  0  0  0  0  0  0  0  0  0  0
  153.2533  143.3548  158.0647 H   0  0  0  0  0  0  0  0  0  0  0  0
  150.2390  142.7954  158.0709 H   0  0  0  0  0  0  0  0  0  0  0  0
  151.2502  143.0032  156.6499 H   0  0  0  0  0  0  0  0  0  0  0  0
  152.4313  140.0631  155.4721 H   0  0  0  0  0  0  0  0  0  0  0  0
  151.0274  138.7027  153.9199 H   0  0  0  0  0  0  0  0  0  0  0  0
  148.9763  137.5839  153.5751 H   0  0  0  0  0  0  0  0  0  0  0  0
  147.4750  136.6990  152.6965 H   0  0  0  0  0  0  0  0  0  0  0  0
  144.9944  137.8743  152.1597 H   0  0  0  0  0  0  0  0  0  0  0  0
  143.4477  136.5824  153.5988 H   0  0  0  0  0  0  0  0  0  0  0  0
  144.5060  137.5792  154.5836 H   0  0  0  0  0  0  0  0  0  0  0  0
  144.8075  135.8487  154.4444 H   0  0  0  0  0  0  0  0  0  0  0  0
  145.8918  136.0966  150.7582 H   0  0  0  0  0  0  0  0  0  0  0  0
  147.0767  134.4717  152.0624 H   0  0  0  0  0  0  0  0  0  0  0  0
  145.8254  134.4341  153.3033 H   0  0  0  0  0  0  0  0  0  0  0  0
  145.8877  132.8452  150.8324 H   0  0  0  0  0  0  0  0  0  0  0  0
  144.8151  132.7158  152.2263 H   0  0  0  0  0  0  0  0  0  0  0  0
  144.4362  134.2914  149.6941 H   0  0  0  0  0  0  0  0  0  0  0  0
  143.1921  133.6248  150.7585 H   0  0  0  0  0  0  0  0  0  0  0  0
  147.6894  139.4280  156.5850 H   0  0  0  0  0  0  0  0  0  0  0  0
  150.6318  140.7439  159.5100 H   0  0  0  0  0  0  0  0  0  0  0  0
  151.9119  139.6407  159.0414 H   0  0  0  0  0  0  0  0  0  0  0  0
  152.4620  141.2149  160.9641 H   0  0  0  0  0  0  0  0  0  0  0  0
  154.3319  140.1696  159.7852 H   0  0  0  0  0  0  0  0  0  0  0  0
  154.7520  141.8238  160.2140 H   0  0  0  0  0  0  0  0  0  0  0  0
  154.3299  141.4178  158.5516 H   0  0  0  0  0  0  0  0  0  0  0  0
  1  2  1  0  0  0  0
  1 26  1  0  0  0  0
  1 27  1  0  0  0  0
  1 28  1  0  0  0  0
  2 25  1  0  0  0  0
  2  3  1  0  0  0  0
  2 29  1  0  0  0  0
  3  4  1  0  0  0  0
  3 30  1  0  0  0  0
  3 31  1  0  0  0  0
  4  5  1  0  0  0  0
  4 22  1  0  0  0  0
  5 21  1  0  0  0  0
  5  6  2  0  0  0  0
  6  7  1  0  0  0  0
  6 32  1  0  0  0  0
  7  8  2  0  0  0  0
  7 33  1  0  0  0  0
  8  9  1  0  0  0  0
  8 20  1  0  0  0  0
  9 10  1  0  0  0  0
  9 34  1  0  0  0  0
 10 11  2  0  0  0  0
 10 12  1  0  0  0  0
 12 13  1  0  0  0  0
 12 35  1  0  0  0  0
 13 14  1  0  0  0  0
 13 15  1  0  0  0  0
 13 36  1  0  0  0  0
 14 37  1  0  0  0  0
 14 38  1  0  0  0  0
 14 39  1  0  0  0  0
 15 19  1  0  0  0  0
 15 16  1  0  0  0  0
 15 40  1  0  0  0  0
 16 17  1  0  0  0  0
 16 41  1  0  0  0  0
 16 42  1  0  0  0  0
 17 18  1  0  0  0  0
 17 43  1  0  0  0  0
 17 44  1  0  0  0  0
 18 19  1  0  0  0  0
 18 45  1  0  0  0  0
 18 46  1  0  0  0  0
 20 21  2  0  0  0  0
 20 47  1  0  0  0  0
 22 23  1  0  0  0  0
 22 48  1  0  0  0  0
 22 49  1  0  0  0  0
 23 24  1  0  0  0  0
 23 25  1  0  0  0  0
 23 50  1  0  0  0  0
 24 51  1  0  0  0  0
 24 52  1  0  0  0  0
 24 53  1  0  0  0  0
M  END
> <s_m_source_file>
AV-unprocessed.smi

> <i_m_source_file_index>
1413

> <i_lp_mmshare_version>
43012

> <i_f3d_flags>
0

> <s_epik_input>
W0NIM11bQ0BASF0xW0NIMl1OKFtDSDJdW0NASF0oTzEpW0NIM10pYzJbY0hdW2NIXWMoW2NIXW4yKVtOSF1DKD1PKVtOSF1bQ0BIXShbQ0gzXSlbQ0BASF0zW0NIMl1bQ0gyXVtDSDJdTzM=

> <s_epik_cmdline>
J2VwaWtfcHl0aG9uJywgJy1waCcsICc3LjAnLCAnLXRuJywgJzgnLCAnLW1hJywgJzIwMCcsICctbWV0YWxfYmluZGluZycsICctaW1hZScsICc8aW5maWxlLm1hZT4nLCAnLW9tYWUnLCAnPG91dGZpbGUubWFlPic=

> <r_lp_tautomer_probability>
1

> <r_epik_Ionization_Penalty>
0.00271172

> <r_epik_Ionization_Penalty_Charging>
0

> <r_epik_Ionization_Penalty_Neutral>
0.00271172

> <r_epik_State_Penalty>
0.00186503

> <r_epik_Charging_Adjusted_Penalty>
0.00186503

> <i_epik_Tot_Q>
0

> <i_epik_Tot_abs_Q>
0

> <r_epik_Metal_State_Penalty>
-0

> <b_epik_Metal_Only>
0

> <s_lp_Force_Field>
OPLS_2005

> <r_lp_Energy>
38.8739

> <b_lp_Chiralities_Consistent>
1

> <s_lp_Variant>
AV-unprocessed.smi:1413-5

> <Gold.Version>
5.8.1

> <Gold.Id.Protein>
6NUR|6NUR_protein|mol2

> <Gold.PLP.Fitness>
48.2791

> <Gold.PLP.PLP>
-43.2163

> <Gold.PLP.part.hbond>
-1.9442

> <Gold.PLP.part.metal>
0.0000

> <Gold.PLP.part.buried>
-5.1574

> <Gold.PLP.part.nonpolar>
-36.8519

> <Gold.PLP.part.repulsive>
0.4380

> <Gold.PLP.ligand.clash>
0.0000

> <Gold.PLP.ligand.torsion>
0.2797

> <Gold.PLP.Chemscore.Hbond>
1.8330

> <Gold.PLP.Chemscore.CHOScore>
0.0000

> <Gold.PLP.Chemscore.Metal>
0.0000

> <Gold.Chemscore.Hbonds>
donor molecule, donor type, donor heavy atom, donor atom, acceptor molecule, acceptor atom, score
      L1  H     9    34       P1  7948  0.65
      L1  H    12    35       P1  7948  1.00

> <Gold.PLP.Chemscore.Internal.Correction>
0.1231

> <Gold.Rescore>
     Score         DG    S(hbond)    S(metal)    S(lipo)     H(rot)  DE(clash)    DE(int)     intcor
     18.94     -21.55       1.82        0.00     114.76       1.35       0.01       2.60       ----

> <Gold.Chemscore.Fitness>
18.9365

> <Gold.Chemscore.DG>
-21.5455

> <Gold.Chemscore.ZeroCoef>
-5.4800

> <Gold.Chemscore.Hbond>
1.8225

> <Gold.Chemscore.Metal>
0.0000

> <Gold.Chemscore.Lipo>
114.7586

> <Gold.Chemscore.Internal_Hbond>
0.0000

> <Gold.Chemscore.DEClash>
0.0077

> <Gold.Chemscore.DEInternal>
2.6013

> <Gold.Chemscore.Rot>
1.3471

> <Gold.Chemscore.Internal.Correction>
   9.000000E+99

> <Gold.Chemscore.Hbonds>
donor molecule, donor type, donor heavy atom, donor atom, acceptor molecule, acceptor atom, score
      L1  H     9    34       P1  7948  0.62
      L1  H    12    35       P1  7948  1.00

> <Gold.Chemscore.Hbond.Weighted>
-6.0873

> <Gold.Chemscore.Metal.Weighted>
-0.0000

> <Gold.Chemscore.Lipo.Weighted>
-13.4268

> <Gold.Chemscore.Internal_Hbond.Weighted>
0.0000

> <Gold.Chemscore.DEClash.Weighted>
0.0077

> <Gold.Chemscore.DEInternal.Weighted>
2.6013

> <Gold.Chemscore.Rot.Weighted>
3.4485

> <Gold.Chemscore.Internal.Correction.Weighted>
   9.000000E+99

> <Gold.Protein.RotatedTorsions>
[ 6907 6896 6895 6894 ] final -123.56 input  -60.11 | X-H torsion
[ 7974 7965 7964 7962 ] final   95.20 input  175.53 | X-H torsion
[ 8008 7997 7996 7995 ] final -123.81 input   59.86 | X-H torsion
[ 10167 10162 10161 10158 ] final -106.68 input  -65.29 | X-H torsion
[ 10718 10713 10712 10709 ] final  -44.00 input   66.30 | X-H torsion
[ 10763 10752 10751 10750 ] final  131.53 input  -60.55 | X-H torsion
[ 11005 11000 10999 10996 ] final   52.60 input  -57.11 | X-H torsion

> <Gold.Protein.ActiveResidues>
 VAL166  LYS551  ARG553  GLY616  TRP617  ASP618  TYR619  PRO620  LYS621  CYS622 
 ASP623  PHE694  ASN695  SER759  ASP760  ASP761  ALA762  ILE779  LEU786  VAL792 
 PHE793  MET794  SER795  GLU796  ALA797  LYS798  CYS799  TRP800  GLU811  SER814 

> <Gold.Protein.RotatedAtoms>
  150.8682  133.7543  159.2969 H   0  0  0  0  0  0  0  0  0  0  0  0  # atno 6907 bound_to 6896
  151.5164  135.1065  159.9876 H   0  0  0  0  0  0  0  0  0  0  0  0  # atno 6908 bound_to 6896
  152.4676  133.7913  159.6959 H   0  0  0  0  0  0  0  0  0  0  0  0  # atno 6909 bound_to 6896
  145.4554  139.2290  143.3016 H   0  0  0  0  0  0  0  0  0  0  0  0  # atno 7974 bound_to 7965
  155.1867  140.0412  157.2892 H   0  0  0  0  0  0  0  0  0  0  0  0  # atno 8008 bound_to 7997
  154.6167  140.2490  155.7573 H   0  0  0  0  0  0  0  0  0  0  0  0  # atno 8009 bound_to 7997
  156.2410  140.2903  156.0455 H   0  0  0  0  0  0  0  0  0  0  0  0  # atno 8010 bound_to 7997
  140.1852  143.3935  152.1250 H   0  0  0  0  0  0  0  0  0  0  0  0  # atno 10167 bound_to 10162
  156.2432  130.4181  149.8736 H   0  0  0  0  0  0  0  0  0  0  0  0  # atno 10718 bound_to 10713
  153.7758  135.3175  155.3359 H   0  0  0  0  0  0  0  0  0  0  0  0  # atno 10763 bound_to 10752
  154.8179  135.4623  154.0699 H   0  0  0  0  0  0  0  0  0  0  0  0  # atno 10764 bound_to 10752
  153.1973  135.6917  153.8361 H   0  0  0  0  0  0  0  0  0  0  0  0  # atno 10765 bound_to 10752
  140.0836  134.5305  155.8922 H   0  0  0  0  0  0  0  0  0  0  0  0  # atno 11005 bound_to 11000
  146.2481  140.5318  142.8905 LP  0  0  0  0  0  0  0  0  0  0  0  0  # atno 17320 bound_to 7965
  144.8035  140.6257  143.6462 LP  0  0  0  0  0  0  0  0  0  0  0  0  # atno 17321 bound_to 7965
  139.5279  144.7125  151.5162 LP  0  0  0  0  0  0  0  0  0  0  0  0  # atno 17342 bound_to 10162
  140.6493  143.8730  150.6769 LP  0  0  0  0  0  0  0  0  0  0  0  0  # atno 17343 bound_to 10162
  156.6311  130.8666  151.3495 LP  0  0  0  0  0  0  0  0  0  0  0  0  # atno 17370 bound_to 10713
  157.7184  130.9526  150.1342 LP  0  0  0  0  0  0  0  0  0  0  0  0  # atno 17371 bound_to 10713
  141.2055  133.6647  156.6184 LP  0  0  0  0  0  0  0  0  0  0  0  0  # atno 17394 bound_to 11000
  140.3453  134.7815  157.4427 LP  0  0  0  0  0  0  0  0  0  0  0  0  # atno 17395 bound_to 11000

$$$$
