AV-unprocessed.smi:3349|AV-procd|sdf|12937|dock1
  -GOLD-   2272019373D 1   1.00000     0.00000
 Structure written by MMmdl.
 41 42  0  0  0  0  0  0  0  0  2 V2000
  146.3151  133.2972  155.0015 C   0  0  0  0  0  0  0  0  0  0  0  0
  147.1864  134.3626  154.2927 C   0  0  2  0  0  0  0  0  0  0  0  0
  147.0930  135.7205  155.0475 C   0  0  0  0  0  0  0  0  0  0  0  0
  147.8781  136.7836  154.4258 N   0  0  0  0  0  0  0  0  0  0  0  0
  148.0944  137.9957  154.9623 C   0  0  0  0  0  0  0  0  0  0  0  0
  147.6365  138.3360  156.0537 O   0  0  0  0  0  0  0  0  0  0  0  0
  148.9556  138.9632  154.1362 C   0  0  1  0  0  0  0  0  0  0  0  0
  148.5804  140.4400  154.3741 C   0  0  0  0  0  0  0  0  0  0  0  0
  150.3706  138.7063  154.3745 N   0  0  0  0  0  0  0  0  0  0  0  0
  151.0711  137.5779  154.2403 C   0  0  0  0  0  0  0  0  0  0  0  0
  152.3443  137.6883  154.5924 N   0  0  0  0  0  0  0  0  0  0  0  0
  152.3629  139.0006  154.9709 C   0  0  0  0  0  0  0  0  0  0  0  0
  151.2050  139.6532  154.8718 N   0  0  0  0  0  0  0  0  0  0  0  0
  146.8271  134.4756  152.8389 N   0  3  0  0  0  0  0  0  0  0  0  0
  146.8285  133.1810  152.1003 C   0  0  0  0  0  0  0  0  0  0  0  0
  146.4424  133.3699  150.6232 C   0  0  0  0  0  0  0  0  0  0  0  0
  145.1751  133.9998  150.5326 O   0  0  0  0  0  0  0  0  0  0  0  0
  145.2036  135.2930  151.1144 C   0  0  0  0  0  0  0  0  0  0  0  0
  145.5323  135.1780  152.6118 C   0  0  0  0  0  0  0  0  0  0  0  0
  146.5155  133.2471  156.0713 H   0  0  0  0  0  0  0  0  0  0  0  0
  146.5033  132.2911  154.6306 H   0  0  0  0  0  0  0  0  0  0  0  0
  145.2529  133.5103  154.8783 H   0  0  0  0  0  0  0  0  0  0  0  0
  148.2249  134.0310  154.3404 H   0  0  0  0  0  0  0  0  0  0  0  0
  146.0672  136.0846  155.1008 H   0  0  0  0  0  0  0  0  0  0  0  0
  147.4382  135.6020  156.0751 H   0  0  0  0  0  0  0  0  0  0  0  0
  148.2906  136.5819  153.5263 H   0  0  0  0  0  0  0  0  0  0  0  0
  148.7662  138.7518  153.0824 H   0  0  0  0  0  0  0  0  0  0  0  0
  147.5311  140.6206  154.1389 H   0  0  0  0  0  0  0  0  0  0  0  0
  149.1742  141.0980  153.7389 H   0  0  0  0  0  0  0  0  0  0  0  0
  148.7435  140.7455  155.4082 H   0  0  0  0  0  0  0  0  0  0  0  0
  150.6400  136.6550  153.8815 H   0  0  0  0  0  0  0  0  0  0  0  0
  153.2547  139.4877  155.3370 H   0  0  0  0  0  0  0  0  0  0  0  0
  147.8178  132.7268  152.1105 H   0  0  0  0  0  0  0  0  0  0  0  0
  146.1407  132.4838  152.5816 H   0  0  0  0  0  0  0  0  0  0  0  0
  147.1952  133.9580  150.0953 H   0  0  0  0  0  0  0  0  0  0  0  0
  146.3900  132.4021  150.1238 H   0  0  0  0  0  0  0  0  0  0  0  0
  145.9299  135.9254  150.6011 H   0  0  0  0  0  0  0  0  0  0  0  0
  144.2273  135.7595  150.9814 H   0  0  0  0  0  0  0  0  0  0  0  0
  144.7322  134.6429  153.1258 H   0  0  0  0  0  0  0  0  0  0  0  0
  145.5556  136.1875  153.0167 H   0  0  0  0  0  0  0  0  0  0  0  0
  147.5436  135.0432  152.4090 H   0  0  0  0  0  0  0  0  0  0  0  0
  1  2  1  0  0  0  0
  1 20  1  0  0  0  0
  1 21  1  0  0  0  0
  1 22  1  0  0  0  0
  2  3  1  0  0  0  0
  2 14  1  0  0  0  0
  2 23  1  0  0  0  0
  3  4  1  0  0  0  0
  3 24  1  0  0  0  0
  3 25  1  0  0  0  0
  4  5  1  0  0  0  0
  4 26  1  0  0  0  0
  5  6  2  0  0  0  0
  5  7  1  0  0  0  0
  7  8  1  0  0  0  0
  7  9  1  0  0  0  0
  7 27  1  0  0  0  0
  8 28  1  0  0  0  0
  8 29  1  0  0  0  0
  8 30  1  0  0  0  0
  9 13  1  0  0  0  0
  9 10  1  0  0  0  0
 10 11  2  0  0  0  0
 10 31  1  0  0  0  0
 11 12  1  0  0  0  0
 12 13  2  0  0  0  0
 12 32  1  0  0  0  0
 14 19  1  0  0  0  0
 14 15  1  0  0  0  0
 14 41  1  0  0  0  0
 15 16  1  0  0  0  0
 15 33  1  0  0  0  0
 15 34  1  0  0  0  0
 16 17  1  0  0  0  0
 16 35  1  0  0  0  0
 16 36  1  0  0  0  0
 17 18  1  0  0  0  0
 18 19  1  0  0  0  0
 18 37  1  0  0  0  0
 18 38  1  0  0  0  0
 19 39  1  0  0  0  0
 19 40  1  0  0  0  0
M  CHG  1  14   1
M  END
> <s_m_source_file>
AV-unprocessed.smi

> <i_m_source_file_index>
3349

> <i_lp_mmshare_version>
43012

> <i_f3d_flags>
0

> <s_epik_input>
W0NIMl0xW0NIMl1PW0NIMl1bQ0gyXU4xW0NASF0oW0NIM10pW0NIMl1bTkhdQyg9TylbQ0BIXShbQ0gzXSluMltjSF1uW2NIXW4y

> <s_epik_cmdline>
J2VwaWtfcHl0aG9uJywgJy1waCcsICc3LjAnLCAnLXRuJywgJzgnLCAnLW1hJywgJzIwMCcsICctbWV0YWxfYmluZGluZycsICctaW1hZScsICc8aW5maWxlLm1hZT4nLCAnLW9tYWUnLCAnPG91dGZpbGUubWFlPic=

> <r_lp_tautomer_probability>
1

> <r_epik_Ionization_Penalty>
0.71326

> <r_epik_Ionization_Penalty_Charging>
0.713252

> <r_epik_Ionization_Penalty_Neutral>
8.10337e-06

> <r_epik_State_Penalty>
0.737017

> <r_epik_Charging_Adjusted_Penalty>
1.45027

> <i_epik_Tot_Q>
1

> <i_epik_Tot_abs_Q>
1

> <r_epik_Metal_State_Penalty>
0.73702

> <b_epik_Metal_Only>
0

> <s_lp_Force_Field>
OPLS_2005

> <r_lp_Energy>
26.6465

> <b_lp_Chiralities_Consistent>
1

> <s_lp_Variant>
AV-unprocessed.smi:3349-7

> <Gold.Version>
5.8.1

> <Gold.Id.Protein>
6NUR|6NUR_protein|mol2

> <Gold.PLP.Fitness>
44.6969

> <Gold.PLP.PLP>
-30.0025

> <Gold.PLP.part.hbond>
-4.0000

> <Gold.PLP.part.metal>
0.0000

> <Gold.PLP.part.buried>
-4.7012

> <Gold.PLP.part.nonpolar>
-23.0739

> <Gold.PLP.part.repulsive>
0.5029

> <Gold.PLP.ligand.clash>
0.0000

> <Gold.PLP.ligand.torsion>
0.8709

> <Gold.PLP.Chemscore.Hbond>
4.6136

> <Gold.PLP.Chemscore.CHOScore>
0.8064

> <Gold.PLP.Chemscore.Metal>
0.0000

> <Gold.Chemscore.Hbonds>
donor molecule, donor type, donor heavy atom, donor atom, acceptor molecule, acceptor atom, score
      L1  H     4    26       P1  7948  1.00
      L1  H    14    41       P1  7948  2.00
      P1  H  7989  7998       L1    13  0.95
      P1  H 10752 10765       L1    11  0.51
      L1  C    10    31       P1  7948  0.37
      L1  C    10    31       P1  7949  0.47

> <Gold.PLP.Chemscore.Internal.Correction>
0.1764

> <Gold.Rescore>
     Score         DG    S(hbond)    S(metal)    S(lipo)     H(rot)  DE(clash)    DE(int)     intcor
     14.47     -15.65       3.66        0.00      39.99       2.63       0.04       1.14       ----

> <Gold.Chemscore.Fitness>
14.4733

> <Gold.Chemscore.DG>
-15.6539

> <Gold.Chemscore.ZeroCoef>
-5.4800

> <Gold.Chemscore.Hbond>
3.6632

> <Gold.Chemscore.Metal>
0.0000

> <Gold.Chemscore.Lipo>
39.9926

> <Gold.Chemscore.Internal_Hbond>
0.0000

> <Gold.Chemscore.DEClash>
0.0418

> <Gold.Chemscore.DEInternal>
1.1388

> <Gold.Chemscore.Rot>
2.6329

> <Gold.Chemscore.Internal.Correction>
   9.000000E+99

> <Gold.Chemscore.Hbonds>
donor molecule, donor type, donor heavy atom, donor atom, acceptor molecule, acceptor atom, score
      L1  H     4    26       P1  7948  1.00
      L1  H    14    41       P1  7948  0.98
      P1  H  7989  7998       L1    13  0.15
      P1  H 10752 10765       L1    11  0.13

> <Gold.Chemscore.Hbond.Weighted>
-12.2351

> <Gold.Chemscore.Metal.Weighted>
-0.0000

> <Gold.Chemscore.Lipo.Weighted>
-4.6791

> <Gold.Chemscore.Internal_Hbond.Weighted>
0.0000

> <Gold.Chemscore.DEClash.Weighted>
0.0418

> <Gold.Chemscore.DEInternal.Weighted>
1.1388

> <Gold.Chemscore.Rot.Weighted>
6.7403

> <Gold.Chemscore.Internal.Correction.Weighted>
   9.000000E+99

> <Gold.Protein.RotatedTorsions>
[ 6907 6896 6895 6894 ] final   27.45 input  -60.11 | X-H torsion
[ 7974 7965 7964 7962 ] final  172.58 input  175.53 | X-H torsion
[ 8008 7997 7996 7995 ] final -122.40 input   59.86 | X-H torsion
[ 10167 10162 10161 10158 ] final  -10.63 input  -65.29 | X-H torsion
[ 10718 10713 10712 10709 ] final  -66.56 input   66.30 | X-H torsion
[ 10763 10752 10751 10750 ] final  168.60 input  -60.55 | X-H torsion
[ 11005 11000 10999 10996 ] final -133.27 input  -57.11 | X-H torsion

> <Gold.Protein.ActiveResidues>
 VAL166  LYS551  ARG553  GLY616  TRP617  ASP618  TYR619  PRO620  LYS621  CYS622 
 ASP623  PHE694  ASN695  SER759  ASP760  ASP761  ALA762  ILE779  LEU786  VAL792 
 PHE793  MET794  SER795  GLU796  ALA797  LYS798  CYS799  TRP800  GLU811  SER814 

> <Gold.Protein.RotatedAtoms>
  152.0025  134.9921  160.0565 H   0  0  0  0  0  0  0  0  0  0  0  0  # atno 6907 bound_to 6896
  152.1506  133.4515  159.4820 H   0  0  0  0  0  0  0  0  0  0  0  0  # atno 6908 bound_to 6896
  150.6875  134.2112  159.4403 H   0  0  0  0  0  0  0  0  0  0  0  0  # atno 6909 bound_to 6896
  144.7264  139.9520  143.6432 H   0  0  0  0  0  0  0  0  0  0  0  0  # atno 7974 bound_to 7965
  155.1636  140.0406  157.2848 H   0  0  0  0  0  0  0  0  0  0  0  0  # atno 8008 bound_to 7997
  154.6319  140.2526  155.7397 H   0  0  0  0  0  0  0  0  0  0  0  0  # atno 8009 bound_to 7997
  156.2489  140.2873  156.0674 H   0  0  0  0  0  0  0  0  0  0  0  0  # atno 8010 bound_to 7997
  140.7118  143.5727  150.9075 H   0  0  0  0  0  0  0  0  0  0  0  0  # atno 10167 bound_to 10162
  156.0605  130.4264  150.1727 H   0  0  0  0  0  0  0  0  0  0  0  0  # atno 10718 bound_to 10713
  154.3709  135.2753  155.2267 H   0  0  0  0  0  0  0  0  0  0  0  0  # atno 10763 bound_to 10752
  154.4415  135.5953  153.6136 H   0  0  0  0  0  0  0  0  0  0  0  0  # atno 10764 bound_to 10752
  152.9838  135.6020  154.3940 H   0  0  0  0  0  0  0  0  0  0  0  0  # atno 10765 bound_to 10752
  140.9095  134.1586  157.4400 H   0  0  0  0  0  0  0  0  0  0  0  0  # atno 11005 bound_to 11000
  146.0704  139.3693  143.0526 LP  0  0  0  0  0  0  0  0  0  0  0  0  # atno 17320 bound_to 7965
  145.7975  140.9786  143.1016 LP  0  0  0  0  0  0  0  0  0  0  0  0  # atno 17321 bound_to 7965
  139.9453  143.6334  152.3043 LP  0  0  0  0  0  0  0  0  0  0  0  0  # atno 17342 bound_to 10162
  139.6834  144.7653  151.1568 LP  0  0  0  0  0  0  0  0  0  0  0  0  # atno 17343 bound_to 10162
  156.9796  130.9860  151.3440 LP  0  0  0  0  0  0  0  0  0  0  0  0  # atno 17370 bound_to 10713
  157.5610  130.8246  149.8266 LP  0  0  0  0  0  0  0  0  0  0  0  0  # atno 17371 bound_to 10713
  139.8755  134.9930  156.5624 LP  0  0  0  0  0  0  0  0  0  0  0  0  # atno 17394 bound_to 11000
  140.8128  133.8416  155.8825 LP  0  0  0  0  0  0  0  0  0  0  0  0  # atno 17395 bound_to 11000

$$$$
