#       Name:                AV-unprocessed.smi:1860
#       Creating user name   scv26
#       Creation time:       Fri Mar 27 09:26:22 2020


#       File generated by GOLD software.
#

@<TRIPOS>MOLECULE
AV-unprocessed.smi:1860
    36    37     1
SMALL
NO_CHARGES


@<TRIPOS>ATOM
      1 ****        -3.3540  -2.8294  -0.7668 C.3            1 S1                 0.0000
      2 ****        -3.0501  -2.5502  -2.2446 C.3            1 S1                 0.0000
      3 ****        -1.7420  -1.9291  -2.4124 N.am           1 S1                 0.0000
      4 ****        -1.4809  -0.6224  -2.2505 C.2            1 S1                 0.0000
      5 ****        -2.3386   0.2094  -1.9545 O.2            1 S1                 0.0000
      6 ****        -0.0285  -0.1866  -2.4486 C.3            1 S1                 0.0000
      7 ****         0.7360  -0.3399  -1.1659 C.2            1 S1                 0.0000
      8 ****         1.3473  -1.4793  -0.7017 C.2            1 S1                 0.0000
      9 ****         2.1236  -1.2246   0.8369 S.3            1 S1                 0.0000
     10 ****         1.5873   0.4574   0.7907 C.2            1 S1                 0.0000
     11 ****         1.8375   1.4531   1.7811 N.am           1 S1                 0.0000
     12 ****         1.3431   2.8189   1.6377 C.3            1 S1                 0.0000
     13 ****         1.8366   3.5212   2.8987 C.3            1 S1                 0.0000
     14 ****         2.5394   2.4609   3.5816 N.am           1 S1                 0.0000
     15 ****         2.5271   1.2966   2.9287 C.2            1 S1                 0.0000
     16 ****         3.0685   0.2724   3.3407 O.2            1 S1                 0.0000
     17 ****         0.8855   0.7550  -0.3081 N.2            1 S1                 0.0000
     18 ****        -4.3196  -3.3234  -0.6572 H              1 S1                 0.0000
     19 ****        -3.3870  -1.9068  -0.1866 H              1 S1                 0.0000
     20 ****        -2.5971  -3.4771  -0.3237 H              1 S1                 0.0000
     21 ****        -3.0565  -3.4857  -2.8041 H              1 S1                 0.0000
     22 ****        -3.8279  -1.9219  -2.6812 H              1 S1                 0.0000
     23 ****        -0.9753  -2.5392  -2.6560 H              1 S1                 0.0000
     24 ****         0.4271  -0.7801  -3.2422 H              1 S1                 0.0000
     25 ****        -0.0097   0.8489  -2.7914 H              1 S1                 0.0000
     26 ****         1.3837  -2.4523  -1.1685 H              1 S1                 0.0000
     27 ****         1.7489   3.2837   0.7380 H              1 S1                 0.0000
     28 ****         0.2540   2.8303   1.5754 H              1 S1                 0.0000
     29 ****         2.5130   4.3458   2.6712 H              1 S1                 0.0000
     30 ****         1.0139   3.8930   3.5103 H              1 S1                 0.0000
     31 ****         2.9955   2.6002   4.4716 H              1 S1                 0.0000
     32 ****        -3.2877  -0.0764  -1.8218 LP             1 S1                 0.0000
     33 ****        -2.0864   1.1711  -1.8466 LP             1 S1                 0.0000
     34 ****         3.0224  -0.5688   2.8021 LP             1 S1                 0.0000
     35 ****         3.5548   0.2807   4.2145 LP             1 S1                 0.0000
     36 ****         0.5084   1.6619  -0.4961 LP             1 S1                 0.0000
@<TRIPOS>BOND
    1    1    2 1     
    2    1   18 1     
    3    1   19 1     
    4    1   20 1     
    5    2    3 1     
    6    2   21 1     
    7    2   22 1     
    8    3    4 am    
    9    3   23 1     
   10    4    5 2     
   11    4    6 1     
   12    6    7 1     
   13    6   24 1     
   14    6   25 1     
   15    7   17 1     
   16    7    8 2     
   17    8    9 1     
   18    8   26 1     
   19    9   10 1     
   20   10   11 1     
   21   10   17 2     
   22   11   15 am    
   23   11   12 1     
   24   12   13 1     
   25   12   27 1     
   26   12   28 1     
   27   13   14 1     
   28   13   29 1     
   29   13   30 1     
   30   14   15 am    
   31   14   31 1     
   32   15   16 2     
   33    5   32 1     
   34    5   33 1     
   35   16   34 1     
   36   16   35 1     
   37   17   36 1     
@<TRIPOS>SUBSTRUCTURE
      1 S1             1
@<TRIPOS>SET
LONE_PAIRS      STATIC     ATOMS    <user>   **** ""
5 32 33 34 35 36
DONOR_HYDROGENS      STATIC     ATOMS    <user>   **** ""
2 23 31
ATOM$BLUE        STATIC     ATOMS    COLORGROUP SYSTEM
5 32 33 34 35 36
ATOM$RED        STATIC     ATOMS    COLORGROUP SYSTEM
2 23 31
