AV-unprocessed.smi:2503|AV-procd|sdf|9848|dock8
  -GOLD-   2272013473D 1   1.00000     0.00000
 Structure written by MMmdl.
 36 37  0  0  0  0  0  0  0  0  1 V2000
  150.1791  143.9940  159.1124 C   0  0  0  0  0  0  0  0  0  0  0  0
  151.6888  143.8473  158.8698 C   0  0  0  0  0  0  0  0  0  0  0  0
  152.1040  144.3786  157.4898 C   0  0  0  0  0  0  0  0  0  0  0  0
  152.1538  142.4307  159.0765 C   0  0  0  0  0  0  0  0  0  0  0  0
  152.9240  142.0590  160.0963 N   0  0  0  0  0  0  0  0  0  0  0  0
  153.0913  140.6883  159.9442 C   0  0  0  0  0  0  0  0  0  0  0  0
  152.3987  140.2678  158.8362 C   0  0  0  0  0  0  0  0  0  0  0  0
  151.7885  141.3919  158.2919 N   0  0  0  0  0  0  0  0  0  0  0  0
  150.9329  141.3898  157.1134 C   0  0  0  0  0  0  0  0  0  0  0  0
  151.3037  140.2563  156.1520 C   0  0  0  0  0  0  0  0  0  0  0  0
  152.4695  139.8562  156.1185 O   0  0  0  0  0  0  0  0  0  0  0  0
  150.2805  139.7748  155.4088 N   0  0  0  0  0  0  0  0  0  0  0  0
  150.2273  138.7514  154.5241 C   0  0  0  0  0  0  0  0  0  0  0  0
  151.2337  138.0886  154.2774 O   0  0  0  0  0  0  0  0  0  0  0  0
  149.0417  138.5128  153.9336 N   0  0  0  0  0  0  0  0  0  0  0  0
  147.8098  139.1635  154.2413 C   0  0  0  0  0  0  0  0  0  0  0  0
  146.9693  139.6580  153.0841 C   0  0  0  0  0  0  0  0  0  0  0  0
  147.7083  140.6441  153.9459 C   0  0  0  0  0  0  0  0  0  0  0  0
  149.9109  143.6674  160.1174 H   0  0  0  0  0  0  0  0  0  0  0  0
  149.6007  143.4005  158.4034 H   0  0  0  0  0  0  0  0  0  0  0  0
  149.8641  145.0326  159.0084 H   0  0  0  0  0  0  0  0  0  0  0  0
  152.1704  144.4838  159.6096 H   0  0  0  0  0  0  0  0  0  0  0  0
  153.1862  144.3337  157.3614 H   0  0  0  0  0  0  0  0  0  0  0  0
  151.8005  145.4176  157.3613 H   0  0  0  0  0  0  0  0  0  0  0  0
  151.6499  143.7967  156.6872 H   0  0  0  0  0  0  0  0  0  0  0  0
  153.6884  140.1159  160.6385 H   0  0  0  0  0  0  0  0  0  0  0  0
  152.2841  139.2839  158.4055 H   0  0  0  0  0  0  0  0  0  0  0  0
  149.8905  141.3251  157.4286 H   0  0  0  0  0  0  0  0  0  0  0  0
  151.0428  142.3422  156.5935 H   0  0  0  0  0  0  0  0  0  0  0  0
  149.4012  140.2520  155.5442 H   0  0  0  0  0  0  0  0  0  0  0  0
  149.0135  137.8091  153.2089 H   0  0  0  0  0  0  0  0  0  0  0  0
  147.2639  138.8149  155.1171 H   0  0  0  0  0  0  0  0  0  0  0  0
  147.3442  139.4919  152.0757 H   0  0  0  0  0  0  0  0  0  0  0  0
  145.8878  139.6073  153.1924 H   0  0  0  0  0  0  0  0  0  0  0  0
  147.1209  141.2526  154.6302 H   0  0  0  0  0  0  0  0  0  0  0  0
  148.5757  141.1380  153.5117 H   0  0  0  0  0  0  0  0  0  0  0  0
  1  2  1  0  0  0  0
  1 19  1  0  0  0  0
  1 20  1  0  0  0  0
  1 21  1  0  0  0  0
  2  3  1  0  0  0  0
  2  4  1  0  0  0  0
  2 22  1  0  0  0  0
  3 23  1  0  0  0  0
  3 24  1  0  0  0  0
  3 25  1  0  0  0  0
  4  8  1  0  0  0  0
  4  5  2  0  0  0  0
  5  6  1  0  0  0  0
  6  7  2  0  0  0  0
  6 26  1  0  0  0  0
  7  8  1  0  0  0  0
  7 27  1  0  0  0  0
  8  9  1  0  0  0  0
  9 10  1  0  0  0  0
  9 28  1  0  0  0  0
  9 29  1  0  0  0  0
 10 11  2  0  0  0  0
 10 12  1  0  0  0  0
 12 13  1  0  0  0  0
 12 30  1  0  0  0  0
 13 14  2  0  0  0  0
 13 15  1  0  0  0  0
 15 16  1  0  0  0  0
 15 31  1  0  0  0  0
 16 18  1  0  0  0  0
 16 17  1  0  0  0  0
 16 32  1  0  0  0  0
 17 18  1  0  0  0  0
 17 33  1  0  0  0  0
 17 34  1  0  0  0  0
 18 35  1  0  0  0  0
 18 36  1  0  0  0  0
M  END
> <s_m_source_file>
AV-unprocessed.smi

> <i_m_source_file_index>
2503

> <i_lp_mmshare_version>
43012

> <i_f3d_flags>
0

> <s_epik_input>
W0NIM11bQ0hdKFtDSDNdKWMxbltjSF1bY0hdbjFbQ0gyXUMoPU8pW05IXUMoPU8pW05IXVtDSF0yW0NIMl1bQ0gyXTI=

> <s_epik_cmdline>
J2VwaWtfcHl0aG9uJywgJy1waCcsICc3LjAnLCAnLXRuJywgJzgnLCAnLW1hJywgJzIwMCcsICctbWV0YWxfYmluZGluZycsICctaW1hZScsICc8aW5maWxlLm1hZT4nLCAnLW9tYWUnLCAnPG91dGZpbGUubWFlPic=

> <r_lp_tautomer_probability>
1

> <r_epik_Ionization_Penalty>
0.441646

> <r_epik_Ionization_Penalty_Charging>
0.441618

> <r_epik_Ionization_Penalty_Neutral>
2.81151e-05

> <r_epik_State_Penalty>
0.443748

> <r_epik_Charging_Adjusted_Penalty>
0.885366

> <i_epik_Tot_Q>
0

> <i_epik_Tot_abs_Q>
0

> <r_epik_Metal_State_Penalty>
0.251733

> <b_epik_Metal_Only>
0

> <s_lp_Force_Field>
OPLS_2005

> <r_lp_Energy>
20.0487

> <b_lp_Chiralities_Consistent>
1

> <s_lp_Variant>
AV-unprocessed.smi:2503-2

> <Gold.Version>
5.8.1

> <Gold.Id.Protein>
6NUR|6NUR_protein|mol2

> <Gold.PLP.Fitness>
40.9426

> <Gold.PLP.PLP>
-36.6827

> <Gold.PLP.part.hbond>
-3.0000

> <Gold.PLP.part.metal>
0.0000

> <Gold.PLP.part.buried>
-3.7280

> <Gold.PLP.part.nonpolar>
-29.7935

> <Gold.PLP.part.repulsive>
0.3617

> <Gold.PLP.ligand.clash>
0.0152

> <Gold.PLP.ligand.torsion>
0.9209

> <Gold.PLP.Chemscore.Hbond>
2.0000

> <Gold.PLP.Chemscore.CHOScore>
0.0000

> <Gold.PLP.Chemscore.Metal>
0.0000

> <Gold.Chemscore.Hbonds>
donor molecule, donor type, donor heavy atom, donor atom, acceptor molecule, acceptor atom, score
      L1  H    15    31       P1  7948  0.94
      P1  H  7997  8008       L1    11  1.00

> <Gold.PLP.Chemscore.Internal.Correction>
0.1169

> <Gold.Rescore>
     Score         DG    S(hbond)    S(metal)    S(lipo)     H(rot)  DE(clash)    DE(int)     intcor
     12.35     -16.13       1.97        0.00      73.76       1.77       0.02       3.76       ----

> <Gold.Chemscore.Fitness>
12.3460

> <Gold.Chemscore.DG>
-16.1327

> <Gold.Chemscore.ZeroCoef>
-5.4800

> <Gold.Chemscore.Hbond>
1.9651

> <Gold.Chemscore.Metal>
0.0000

> <Gold.Chemscore.Lipo>
73.7628

> <Gold.Chemscore.Internal_Hbond>
0.0000

> <Gold.Chemscore.DEClash>
0.0230

> <Gold.Chemscore.DEInternal>
3.7637

> <Gold.Chemscore.Rot>
1.7738

> <Gold.Chemscore.Internal.Correction>
   9.000000E+99

> <Gold.Chemscore.Hbonds>
donor molecule, donor type, donor heavy atom, donor atom, acceptor molecule, acceptor atom, score
      L1  H    15    31       P1  7948  0.90
      P1  H  7997  8008       L1    11  0.99

> <Gold.Chemscore.Hbond.Weighted>
-6.5634

> <Gold.Chemscore.Metal.Weighted>
-0.0000

> <Gold.Chemscore.Lipo.Weighted>
-8.6302

> <Gold.Chemscore.Internal_Hbond.Weighted>
0.0000

> <Gold.Chemscore.DEClash.Weighted>
0.0230

> <Gold.Chemscore.DEInternal.Weighted>
3.7637

> <Gold.Chemscore.Rot.Weighted>
4.5409

> <Gold.Chemscore.Internal.Correction.Weighted>
   9.000000E+99

> <Gold.Protein.RotatedTorsions>
[ 6907 6896 6895 6894 ] final -179.92 input  -60.11 | X-H torsion
[ 7974 7965 7964 7962 ] final  114.78 input  175.53 | X-H torsion
[ 8008 7997 7996 7995 ] final  -49.60 input   59.86 | X-H torsion
[ 10167 10162 10161 10158 ] final   43.55 input  -65.29 | X-H torsion
[ 10718 10713 10712 10709 ] final -161.38 input   66.30 | X-H torsion
[ 10763 10752 10751 10750 ] final  -46.60 input  -60.55 | X-H torsion
[ 11005 11000 10999 10996 ] final  -63.08 input  -57.11 | X-H torsion

> <Gold.Protein.ActiveResidues>
 VAL166  LYS551  ARG553  GLY616  TRP617  ASP618  TYR619  PRO620  LYS621  CYS622 
 ASP623  PHE694  ASN695  SER759  ASP760  ASP761  ALA762  ILE779  LEU786  VAL792 
 PHE793  MET794  SER795  GLU796  ALA797  LYS798  CYS799  TRP800  GLU811  SER814 

> <Gold.Protein.RotatedAtoms>
  151.6613  133.3317  159.3174 H   0  0  0  0  0  0  0  0  0  0  0  0  # atno 6907 bound_to 6896
  150.7912  134.6941  159.6523 H   0  0  0  0  0  0  0  0  0  0  0  0  # atno 6908 bound_to 6896
  152.3992  134.6318  160.0129 H   0  0  0  0  0  0  0  0  0  0  0  0  # atno 6909 bound_to 6896
  145.2002  139.2956  143.4322 H   0  0  0  0  0  0  0  0  0  0  0  0  # atno 7974 bound_to 7965
  154.4047  140.1293  156.4529 H   0  0  0  0  0  0  0  0  0  0  0  0  # atno 8008 bound_to 7997
  155.7348  140.3491  155.5056 H   0  0  0  0  0  0  0  0  0  0  0  0  # atno 8009 bound_to 7997
  155.9093  140.1033  157.1281 H   0  0  0  0  0  0  0  0  0  0  0  0  # atno 8010 bound_to 7997
  140.3433  144.2443  150.6153 H   0  0  0  0  0  0  0  0  0  0  0  0  # atno 10167 bound_to 10162
  156.5955  130.8788  151.2900 H   0  0  0  0  0  0  0  0  0  0  0  0  # atno 10718 bound_to 10713
  154.0477  135.6635  153.4797 H   0  0  0  0  0  0  0  0  0  0  0  0  # atno 10763 bound_to 10752
  153.0476  135.5104  154.7781 H   0  0  0  0  0  0  0  0  0  0  0  0  # atno 10764 bound_to 10752
  154.6778  135.3040  154.9621 H   0  0  0  0  0  0  0  0  0  0  0  0  # atno 10765 bound_to 10752
  141.1381  133.6647  156.5625 H   0  0  0  0  0  0  0  0  0  0  0  0  # atno 11005 bound_to 11000
  146.3419  140.2243  142.8592 LP  0  0  0  0  0  0  0  0  0  0  0  0  # atno 17320 bound_to 7965
  144.9956  140.8586  143.5313 LP  0  0  0  0  0  0  0  0  0  0  0  0  # atno 17321 bound_to 7965
  140.5288  143.2248  151.8271 LP  0  0  0  0  0  0  0  0  0  0  0  0  # atno 17342 bound_to 10162
  139.4837  144.4746  151.9383 LP  0  0  0  0  0  0  0  0  0  0  0  0  # atno 17343 bound_to 10162
  157.7293  130.9669  150.1781 LP  0  0  0  0  0  0  0  0  0  0  0  0  # atno 17370 bound_to 10713
  156.2514  130.3701  149.8229 LP  0  0  0  0  0  0  0  0  0  0  0  0  # atno 17371 bound_to 10713
  140.3977  134.7384  157.4760 LP  0  0  0  0  0  0  0  0  0  0  0  0  # atno 17394 bound_to 11000
  140.0519  134.6118  155.8851 LP  0  0  0  0  0  0  0  0  0  0  0  0  # atno 17395 bound_to 11000

$$$$
