#       Name:                AV-unprocessed.smi:3137
#       Creating user name   scv26
#       Creation time:       Fri Mar 27 17:34:54 2020


#       File generated by GOLD software.
#

@<TRIPOS>MOLECULE
AV-unprocessed.smi:3137
    43    43     1
SMALL
NO_CHARGES


@<TRIPOS>ATOM
      1 ****        -5.6184   4.1012  -0.2886 C.3            1 S1                 0.0000
      2 ****        -4.6291   3.6086  -1.3533 C.3            1 S1                 0.0000
      3 ****        -3.3051   3.3710  -0.7895 N.am           1 S1                 0.0000
      4 ****        -2.9397   2.2704  -0.1142 C.2            1 S1                 0.0000
      5 ****        -3.7041   1.3324   0.1125 O.2            1 S1                 0.0000
      6 ****        -1.4907   2.2282   0.3817 C.3            1 S1                 0.0000
      7 ****        -0.9180   0.8011   0.4305 C.3            1 S1                 0.0000
      8 ****         0.5084   0.8180   0.8181 N.4            1 S1                 1.0000
      9 ****         1.1453  -0.5110   0.9594 C.3            1 S1                 0.0000
     10 ****         2.4391  -0.3674   1.7793 C.3            1 S1                 0.0000
     11 ****         1.3889  -1.1632  -0.4224 C.3            1 S1                 0.0000
     12 ****         2.0846  -2.4348  -0.3408 N.pl3          1 S1                 0.0000
     13 ****         3.3320  -2.7643  -0.8273 C.2            1 S1                 0.0000
     14 ****         3.5567  -4.0776  -0.5262 C.2            1 S1                 0.0000
     15 ****         4.7641  -4.9166  -0.8307 C.3            1 S1                 0.0000
     16 ****         2.3667  -4.4706   0.1499 C.2            1 S1                 0.0000
     17 ****         1.4865  -3.4882   0.2546 N.2            1 S1                 0.0000
     18 ****        -6.5920   4.3083  -0.7329 H              1 S1                 0.0000
     19 ****        -5.2666   5.0192   0.1828 H              1 S1                 0.0000
     20 ****        -5.7649   3.3567   0.4944 H              1 S1                 0.0000
     21 ****        -5.0053   2.7031  -1.8320 H              1 S1                 0.0000
     22 ****        -4.5338   4.3579  -2.1392 H              1 S1                 0.0000
     23 ****        -2.6154   4.0951  -0.9303 H              1 S1                 0.0000
     24 ****        -0.8737   2.8460  -0.2729 H              1 S1                 0.0000
     25 ****        -1.4511   2.6822   1.3723 H              1 S1                 0.0000
     26 ****        -1.4737   0.1965   1.1488 H              1 S1                 0.0000
     27 ****        -1.0286   0.3283  -0.5455 H              1 S1                 0.0000
     28 ****         1.0306   1.3599   0.1445 H              1 S1                 0.0000
     29 ****         0.4679  -1.1441   1.5347 H              1 S1                 0.0000
     30 ****         2.8872  -1.3369   1.9977 H              1 S1                 0.0000
     31 ****         2.2448   0.1172   2.7366 H              1 S1                 0.0000
     32 ****         3.1811   0.2300   1.2483 H              1 S1                 0.0000
     33 ****         0.4481  -1.3365  -0.9448 H              1 S1                 0.0000
     34 ****         1.9757  -0.4940  -1.0532 H              1 S1                 0.0000
     35 ****         3.9519  -2.0446  -1.3417 H              1 S1                 0.0000
     36 ****         4.5130  -5.9748  -0.9056 H              1 S1                 0.0000
     37 ****         5.5251  -4.8202  -0.0562 H              1 S1                 0.0000
     38 ****         5.2276  -4.6302  -1.7750 H              1 S1                 0.0000
     39 ****         2.1171  -5.4370   0.5632 H              1 S1                 0.0000
     40 ****         0.5681   1.2799   1.7142 H              1 S1                 0.0000
     41 ****        -4.6493   1.3681  -0.2121 LP             1 S1                 0.0000
     42 ****        -3.3798   0.5349   0.6211 LP             1 S1                 0.0000
     43 ****         0.5817  -3.5191   0.6793 LP             1 S1                 0.0000
@<TRIPOS>BOND
    1    1    2 1     
    2    1   18 1     
    3    1   19 1     
    4    1   20 1     
    5    2    3 1     
    6    2   21 1     
    7    2   22 1     
    8    3    4 am    
    9    3   23 1     
   10    4    5 2     
   11    4    6 1     
   12    6    7 1     
   13    6   24 1     
   14    6   25 1     
   15    7    8 1     
   16    7   26 1     
   17    7   27 1     
   18    8    9 1     
   19    8   28 1     
   20    8   40 1     
   21    9   10 1     
   22    9   11 1     
   23    9   29 1     
   24   10   30 1     
   25   10   31 1     
   26   10   32 1     
   27   11   12 1     
   28   11   33 1     
   29   11   34 1     
   30   12   17 1     
   31   12   13 1     
   32   13   14 2     
   33   13   35 1     
   34   14   15 1     
   35   14   16 1     
   36   15   36 1     
   37   15   37 1     
   38   15   38 1     
   39   16   17 2     
   40   16   39 1     
   41    5   41 1     
   42    5   42 1     
   43   17   43 1     
@<TRIPOS>SUBSTRUCTURE
      1 S1             1
@<TRIPOS>SET
LONE_PAIRS      STATIC     ATOMS    <user>   **** ""
3 41 42 43
DONOR_HYDROGENS      STATIC     ATOMS    <user>   **** ""
3 23 28 40
ATOM$BLUE        STATIC     ATOMS    COLORGROUP SYSTEM
3 41 42 43
ATOM$RED        STATIC     ATOMS    COLORGROUP SYSTEM
3 23 28 40
