AV-unprocessed.smi:1434|AV-procd|sdf|5849|dock7
  -GOLD-   22720 5513D 1   1.00000     0.00000
 Structure written by MMmdl.
 44 45  0  0  0  0  0  0  0  0  1 V2000
  144.3708  136.7199  152.5708 C   0  0  0  0  0  0  0  0  0  0  0  0
  145.8541  136.4728  153.6273 S   0  0  0  0  0  0  0  0  0  0  0  0
  145.4868  136.7621  155.0218 O   0  0  0  0  0  0  0  0  0  0  0  0
  146.4821  135.1892  153.2803 O   0  0  0  0  0  0  0  0  0  0  0  0
  146.9089  137.7266  153.0877 N   0  0  0  0  0  0  0  0  0  0  0  0
  147.3001  138.7697  154.0374 C   0  0  2  0  0  0  0  0  0  0  0  0
  146.0719  139.6107  154.4478 C   0  0  0  0  0  0  0  0  0  0  0  0
  146.4752  140.8388  155.2856 C   0  0  0  0  0  0  0  0  0  0  0  0
  147.6048  141.6260  154.5987 C   0  0  0  0  0  0  0  0  0  0  0  0
  148.7418  140.7175  154.3697 N   0  0  0  0  0  0  0  0  0  0  0  0
  149.9275  140.7265  155.0299 C   0  0  0  0  0  0  0  0  0  0  0  0
  150.9105  140.0851  154.6569 O   0  0  0  0  0  0  0  0  0  0  0  0
  149.9495  141.4944  156.1334 N   0  0  0  0  0  0  0  0  0  0  0  0
  151.1034  141.7188  157.0007 C   0  0  0  0  0  0  0  0  0  0  0  0
  151.5112  143.2032  157.0483 C   0  0  0  0  0  0  0  0  0  0  0  0
  151.7266  143.7303  158.4567 C   0  0  0  0  0  0  0  0  0  0  0  0
  151.3934  145.0615  158.7881 C   0  0  0  0  0  0  0  0  0  0  0  0
  151.6379  145.5068  160.1013 C   0  0  0  0  0  0  0  0  0  0  0  0
  152.2002  144.6083  161.0281 C   0  0  0  0  0  0  0  0  0  0  0  0
  152.4941  143.2987  160.5988 C   0  0  0  0  0  0  0  0  0  0  0  0
  152.2643  142.8616  159.3421 N   0  0  0  0  0  0  0  0  0  0  0  0
  148.3913  139.6612  153.4116 C   0  0  0  0  0  0  0  0  0  0  0  0
  143.6171  135.9751  152.8260 H   0  0  0  0  0  0  0  0  0  0  0  0
  144.6463  136.6108  151.5220 H   0  0  0  0  0  0  0  0  0  0  0  0
  143.9655  137.7174  152.7394 H   0  0  0  0  0  0  0  0  0  0  0  0
  147.7256  137.3390  152.6159 H   0  0  0  0  0  0  0  0  0  0  0  0
  147.7183  138.2912  154.9250 H   0  0  0  0  0  0  0  0  0  0  0  0
  145.5531  139.9533  153.5513 H   0  0  0  0  0  0  0  0  0  0  0  0
  145.3573  139.0028  155.0028 H   0  0  0  0  0  0  0  0  0  0  0  0
  145.6095  141.4826  155.4432 H   0  0  0  0  0  0  0  0  0  0  0  0
  146.8055  140.5150  156.2733 H   0  0  0  0  0  0  0  0  0  0  0  0
  147.2577  142.0106  153.6385 H   0  0  0  0  0  0  0  0  0  0  0  0
  147.8535  142.5102  155.1855 H   0  0  0  0  0  0  0  0  0  0  0  0
  149.0990  141.9790  156.3800 H   0  0  0  0  0  0  0  0  0  0  0  0
  150.8407  141.3822  158.0035 H   0  0  0  0  0  0  0  0  0  0  0  0
  151.9517  141.1072  156.6896 H   0  0  0  0  0  0  0  0  0  0  0  0
  152.4233  143.3522  156.4688 H   0  0  0  0  0  0  0  0  0  0  0  0
  150.7445  143.8070  156.5610 H   0  0  0  0  0  0  0  0  0  0  0  0
  150.9705  145.7293  158.0519 H   0  0  0  0  0  0  0  0  0  0  0  0
  151.4004  146.5197  160.3914 H   0  0  0  0  0  0  0  0  0  0  0  0
  152.4020  144.9147  162.0438 H   0  0  0  0  0  0  0  0  0  0  0  0
  152.9247  142.5829  161.2832 H   0  0  0  0  0  0  0  0  0  0  0  0
  149.2501  139.0536  153.1219 H   0  0  0  0  0  0  0  0  0  0  0  0
  148.0281  140.1177  152.4894 H   0  0  0  0  0  0  0  0  0  0  0  0
  1  2  1  0  0  0  0
  1 23  1  0  0  0  0
  1 24  1  0  0  0  0
  1 25  1  0  0  0  0
  2  3  2  0  0  0  0
  2  4  2  0  0  0  0
  2  5  1  0  0  0  0
  5  6  1  0  0  0  0
  5 26  1  0  0  0  0
  6 22  1  0  0  0  0
  6  7  1  0  0  0  0
  6 27  1  0  0  0  0
  7  8  1  0  0  0  0
  7 28  1  0  0  0  0
  7 29  1  0  0  0  0
  8  9  1  0  0  0  0
  8 30  1  0  0  0  0
  8 31  1  0  0  0  0
  9 10  1  0  0  0  0
  9 32  1  0  0  0  0
  9 33  1  0  0  0  0
 10 11  1  0  0  0  0
 10 22  1  0  0  0  0
 11 12  2  0  0  0  0
 11 13  1  0  0  0  0
 13 14  1  0  0  0  0
 13 34  1  0  0  0  0
 14 15  1  0  0  0  0
 14 35  1  0  0  0  0
 14 36  1  0  0  0  0
 15 16  1  0  0  0  0
 15 37  1  0  0  0  0
 15 38  1  0  0  0  0
 16 21  1  0  0  0  0
 16 17  2  0  0  0  0
 17 18  1  0  0  0  0
 17 39  1  0  0  0  0
 18 19  2  0  0  0  0
 18 40  1  0  0  0  0
 19 20  1  0  0  0  0
 19 41  1  0  0  0  0
 20 21  2  0  0  0  0
 20 42  1  0  0  0  0
 22 43  1  0  0  0  0
 22 44  1  0  0  0  0
M  END
> <s_m_source_file>
AV-unprocessed.smi

> <i_m_source_file_index>
1434

> <i_lp_mmshare_version>
43012

> <i_f3d_flags>
0

> <s_epik_input>
W0NIM11TKD1PKSg9TylbTkhdW0NAQEhdMVtDSDJdW0NIMl1bQ0gyXU4oW0NIMl0xKUMoPU8pW05IXVtDSDJdW0NIMl1jMltjSF1bY0hdW2NIXVtjSF1uMg==

> <s_epik_cmdline>
J2VwaWtfcHl0aG9uJywgJy1waCcsICc3LjAnLCAnLXRuJywgJzgnLCAnLW1hJywgJzIwMCcsICctbWV0YWxfYmluZGluZycsICctaW1hZScsICc8aW5maWxlLm1hZT4nLCAnLW9tYWUnLCAnPG91dGZpbGUubWFlPic=

> <r_epik_Ionization_Penalty>
0.0449488

> <r_epik_Ionization_Penalty_Charging>
0

> <r_epik_Ionization_Penalty_Neutral>
0.0449488

> <r_epik_State_Penalty>
0.0380669

> <r_epik_Charging_Adjusted_Penalty>
0.0380669

> <i_epik_Tot_Q>
0

> <i_epik_Tot_abs_Q>
0

> <r_epik_Metal_State_Penalty>
0.0441384

> <b_epik_Metal_Only>
0

> <s_lp_Force_Field>
OPLS_2005

> <r_lp_Energy>
23.2159

> <b_lp_Chiralities_Consistent>
1

> <s_lp_Variant>
AV-unprocessed.smi:1434-1

> <Gold.Version>
5.8.1

> <Gold.Id.Protein>
6NUR|6NUR_protein|mol2

> <Gold.PLP.Fitness>
43.0859

> <Gold.PLP.PLP>
-38.6707

> <Gold.PLP.part.hbond>
-2.0000

> <Gold.PLP.part.metal>
0.0000

> <Gold.PLP.part.buried>
-2.9696

> <Gold.PLP.part.nonpolar>
-34.4372

> <Gold.PLP.part.repulsive>
0.8407

> <Gold.PLP.ligand.clash>
0.0000

> <Gold.PLP.ligand.torsion>
0.8655

> <Gold.PLP.Chemscore.Hbond>
2.0000

> <Gold.PLP.Chemscore.CHOScore>
0.0000

> <Gold.PLP.Chemscore.Metal>
0.0000

> <Gold.Chemscore.Hbonds>
donor molecule, donor type, donor heavy atom, donor atom, acceptor molecule, acceptor atom, score
      L1  H     5    26       P1  7948  1.00
      P1  H  7989  7998       L1    12  1.00

> <Gold.PLP.Chemscore.Internal.Correction>
0.1462

> <Gold.Rescore>
     Score         DG    S(hbond)    S(metal)    S(lipo)     H(rot)  DE(clash)    DE(int)     intcor
     15.24     -18.37       1.89        0.00     100.73       2.03       1.37       1.76       ----

> <Gold.Chemscore.Fitness>
15.2417

> <Gold.Chemscore.DG>
-18.3743

> <Gold.Chemscore.ZeroCoef>
-5.4800

> <Gold.Chemscore.Hbond>
1.8911

> <Gold.Chemscore.Metal>
0.0000

> <Gold.Chemscore.Lipo>
100.7268

> <Gold.Chemscore.Internal_Hbond>
0.0000

> <Gold.Chemscore.DEClash>
1.3721

> <Gold.Chemscore.DEInternal>
1.7605

> <Gold.Chemscore.Rot>
2.0340

> <Gold.Chemscore.Internal.Correction>
   9.000000E+99

> <Gold.Chemscore.Hbonds>
donor molecule, donor type, donor heavy atom, donor atom, acceptor molecule, acceptor atom, score
      L1  H     5    26       P1  7948  1.00
      P1  H  7989  7998       L1    12  0.68

> <Gold.Chemscore.Hbond.Weighted>
-6.3163

> <Gold.Chemscore.Metal.Weighted>
-0.0000

> <Gold.Chemscore.Lipo.Weighted>
-11.7850

> <Gold.Chemscore.Internal_Hbond.Weighted>
0.0000

> <Gold.Chemscore.DEClash.Weighted>
1.3721

> <Gold.Chemscore.DEInternal.Weighted>
1.7605

> <Gold.Chemscore.Rot.Weighted>
5.2071

> <Gold.Chemscore.Internal.Correction.Weighted>
   9.000000E+99

> <Gold.Protein.RotatedTorsions>
[ 6907 6896 6895 6894 ] final  143.89 input  -60.11 | X-H torsion
[ 7974 7965 7964 7962 ] final   67.64 input  175.53 | X-H torsion
[ 8008 7997 7996 7995 ] final   50.11 input   59.86 | X-H torsion
[ 10167 10162 10161 10158 ] final  126.53 input  -65.29 | X-H torsion
[ 10718 10713 10712 10709 ] final   64.81 input   66.30 | X-H torsion
[ 10763 10752 10751 10750 ] final -124.05 input  -60.55 | X-H torsion
[ 11005 11000 10999 10996 ] final  -63.12 input  -57.11 | X-H torsion

> <Gold.Protein.ActiveResidues>
 VAL166  LYS551  ARG553  GLY616  TRP617  ASP618  TYR619  PRO620  LYS621  CYS622 
 ASP623  PHE694  ASN695  SER759  ASP760  ASP761  ALA762  ILE779  LEU786  VAL792 
 PHE793  MET794  SER795  GLU796  ALA797  LYS798  CYS799  TRP800  GLU811  SER814 

> <Gold.Protein.RotatedAtoms>
  152.2006  133.4838  159.5056 H   0  0  0  0  0  0  0  0  0  0  0  0  # atno 6907 bound_to 6896
  150.6969  134.1595  159.4180 H   0  0  0  0  0  0  0  0  0  0  0  0  # atno 6908 bound_to 6896
  151.9512  135.0168  160.0593 H   0  0  0  0  0  0  0  0  0  0  0  0  # atno 6909 bound_to 6896
  145.8123  139.3039  143.1092 H   0  0  0  0  0  0  0  0  0  0  0  0  # atno 7974 bound_to 7965
  155.4133  140.3443  155.4265 H   0  0  0  0  0  0  0  0  0  0  0  0  # atno 8008 bound_to 7997
  156.1436  140.1549  156.8913 H   0  0  0  0  0  0  0  0  0  0  0  0  # atno 8009 bound_to 7997
  154.4991  140.0819  156.7742 H   0  0  0  0  0  0  0  0  0  0  0  0  # atno 8010 bound_to 7997
  139.5626  144.6891  151.4000 H   0  0  0  0  0  0  0  0  0  0  0  0  # atno 10167 bound_to 10162
  157.6064  130.9180  149.9895 H   0  0  0  0  0  0  0  0  0  0  0  0  # atno 10718 bound_to 10713
  154.8717  135.4077  154.3042 H   0  0  0  0  0  0  0  0  0  0  0  0  # atno 10763 bound_to 10752
  153.3897  135.7014  153.6510 H   0  0  0  0  0  0  0  0  0  0  0  0  # atno 10764 bound_to 10752
  153.5297  135.3670  155.2641 H   0  0  0  0  0  0  0  0  0  0  0  0  # atno 10765 bound_to 10752
  141.1382  133.6648  156.5632 H   0  0  0  0  0  0  0  0  0  0  0  0  # atno 11005 bound_to 11000
  145.9764  140.8718  143.0136 LP  0  0  0  0  0  0  0  0  0  0  0  0  # atno 17320 bound_to 7965
  144.6756  140.2019  143.7386 LP  0  0  0  0  0  0  0  0  0  0  0  0  # atno 17321 bound_to 7965
  140.6907  143.7868  150.7251 LP  0  0  0  0  0  0  0  0  0  0  0  0  # atno 17342 bound_to 10162
  140.1349  143.4493  152.2231 LP  0  0  0  0  0  0  0  0  0  0  0  0  # atno 17343 bound_to 10162
  156.1152  130.3648  149.9980 LP  0  0  0  0  0  0  0  0  0  0  0  0  # atno 17370 bound_to 10713
  156.8071  130.9311  151.3645 LP  0  0  0  0  0  0  0  0  0  0  0  0  # atno 17371 bound_to 10713
  140.3972  134.7389  157.4757 LP  0  0  0  0  0  0  0  0  0  0  0  0  # atno 17394 bound_to 11000
  140.0523  134.6113  155.8847 LP  0  0  0  0  0  0  0  0  0  0  0  0  # atno 17395 bound_to 11000

$$$$
