#       Name:                AV-unprocessed.smi:2684
#       Creating user name   scv26
#       Creation time:       Fri Mar 27 14:41:18 2020


#       File generated by GOLD software.
#

@<TRIPOS>MOLECULE
AV-unprocessed.smi:2684
    50    51     1
SMALL
NO_CHARGES


@<TRIPOS>ATOM
      1 ****        -1.6584   0.7618  -3.3790 C.3            1 S1                 0.0000
      2 ****        -1.9403  -0.0659  -2.1582 C.2            1 S1                 0.0000
      3 ****        -2.6713   0.3129  -0.9967 C.2            1 S1                 0.0000
      4 ****        -2.7459  -0.6547  -0.0974 N.2            1 S1                 0.0000
      5 ****        -2.0546  -1.6778  -0.6440 N.pl3          1 S1                 0.0000
      6 ****        -1.9274  -2.9342   0.0739 C.3            1 S1                 0.0000
      7 ****        -1.1224  -2.8282   1.3907 C.3            1 S1                 0.0000
      8 ****        -1.2159  -4.1373   2.1870 C.3            1 S1                 0.0000
      9 ****         0.2948  -2.5898   1.1282 N.3            1 S1                 0.0000
     10 ****         0.6542  -1.1654   1.1753 C.3            1 S1                 0.0000
     11 ****         2.1489  -0.9090   0.9307 C.2            1 S1                 0.0000
     12 ****         2.9501  -1.8426   0.9427 O.2            1 S1                 0.0000
     13 ****         2.5648   0.3495   0.7070 N.am           1 S1                 0.0000
     14 ****         3.9322   0.8015   0.4548 C.3            1 S1                 0.0000
     15 ****         4.6334   1.1716   1.7727 C.3            1 S1                 0.0000
     16 ****         6.0151   1.7847   1.4957 C.3            1 S1                 0.0000
     17 ****         5.8833   2.9181   0.6439 O.3            1 S1                 0.0000
     18 ****         5.3379   2.5962  -0.6314 C.3            1 S1                 0.0000
     19 ****         3.9182   2.0277  -0.4694 C.3            1 S1                 0.0000
     20 ****        -1.5645  -1.3520  -1.8909 C.2            1 S1                 0.0000
     21 ****        -2.5524   1.2769  -3.7307 H              1 S1                 0.0000
     22 ****        -1.2922   0.1535  -4.2062 H              1 S1                 0.0000
     23 ****        -0.9045   1.5237  -3.1833 H              1 S1                 0.0000
     24 ****        -3.1514   1.2568  -0.7842 H              1 S1                 0.0000
     25 ****        -2.9361  -3.2906   0.2865 H              1 S1                 0.0000
     26 ****        -1.4767  -3.6731  -0.5904 H              1 S1                 0.0000
     27 ****        -1.5337  -2.0381   2.0213 H              1 S1                 0.0000
     28 ****        -2.2515  -4.3672   2.4397 H              1 S1                 0.0000
     29 ****        -0.6590  -4.0713   3.1225 H              1 S1                 0.0000
     30 ****        -0.8185  -4.9805   1.6205 H              1 S1                 0.0000
     31 ****         0.5577  -3.0179   0.2523 H              1 S1                 0.0000
     32 ****         0.0776  -0.6207   0.4320 H              1 S1                 0.0000
     33 ****         0.3944  -0.7587   2.1536 H              1 S1                 0.0000
     34 ****         1.8575   1.0701   0.7221 H              1 S1                 0.0000
     35 ****         4.5039   0.0198  -0.0475 H              1 S1                 0.0000
     36 ****         4.0276   1.8900   2.3269 H              1 S1                 0.0000
     37 ****         4.7373   0.2961   2.4127 H              1 S1                 0.0000
     38 ****         6.4788   2.1008   2.4300 H              1 S1                 0.0000
     39 ****         6.6820   1.0494   1.0428 H              1 S1                 0.0000
     40 ****         5.3124   3.4994  -1.2412 H              1 S1                 0.0000
     41 ****         5.9857   1.8845  -1.1456 H              1 S1                 0.0000
     42 ****         3.5086   1.7625  -1.4447 H              1 S1                 0.0000
     43 ****         3.2678   2.7999  -0.0558 H              1 S1                 0.0000
     44 ****        -0.9921  -2.0548  -2.4783 H              1 S1                 0.0000
     45 ****        -3.2099  -0.6331   0.7882 LP             1 S1                 0.0000
     46 ****         0.8175  -3.0189   1.8649 LP             1 S1                 0.0000
     47 ****         2.6295  -2.7744   1.1124 LP             1 S1                 0.0000
     48 ****         3.9220  -1.6695   0.7828 LP             1 S1                 0.0000
     49 ****         6.7877   3.3232   0.5105 LP             1 S1                 0.0000
     50 ****         5.2827   3.5826   1.0886 LP             1 S1                 0.0000
@<TRIPOS>BOND
    1    1    2 1     
    2    1   21 1     
    3    1   22 1     
    4    1   23 1     
    5    2   20 2     
    6    2    3 1     
    7    3    4 2     
    8    3   24 1     
    9    4    5 1     
   10    5    6 1     
   11    5   20 1     
   12    6    7 1     
   13    6   25 1     
   14    6   26 1     
   15    7    8 1     
   16    7    9 1     
   17    7   27 1     
   18    8   28 1     
   19    8   29 1     
   20    8   30 1     
   21    9   10 1     
   22    9   31 1     
   23   10   11 1     
   24   10   32 1     
   25   10   33 1     
   26   11   12 2     
   27   11   13 am    
   28   13   14 1     
   29   13   34 1     
   30   14   19 1     
   31   14   15 1     
   32   14   35 1     
   33   15   16 1     
   34   15   36 1     
   35   15   37 1     
   36   16   17 1     
   37   16   38 1     
   38   16   39 1     
   39   17   18 1     
   40   18   19 1     
   41   18   40 1     
   42   18   41 1     
   43   19   42 1     
   44   19   43 1     
   45   20   44 1     
   46    4   45 1     
   47    9   46 1     
   48   12   47 1     
   49   12   48 1     
   50   17   49 1     
   51   17   50 1     
@<TRIPOS>SUBSTRUCTURE
      1 S1             1
@<TRIPOS>SET
LONE_PAIRS      STATIC     ATOMS    <user>   **** ""
6 45 46 47 48 49 50
DONOR_HYDROGENS      STATIC     ATOMS    <user>   **** ""
2 31 34
ATOM$BLUE        STATIC     ATOMS    COLORGROUP SYSTEM
6 45 46 47 48 49 50
ATOM$RED        STATIC     ATOMS    COLORGROUP SYSTEM
2 31 34
