#       Name:                AV-unprocessed.smi:977
#       Creating user name   scv26
#       Creation time:       Fri Mar 27 02:21:17 2020


#       File generated by GOLD software.
#

@<TRIPOS>MOLECULE
AV-unprocessed.smi:977
    44    45     1
SMALL
NO_CHARGES


@<TRIPOS>ATOM
      1 ****        -2.9985  -1.8961   0.5691 C.3            1 S1                 0.0000
      2 ****        -3.5233  -0.5346   0.9320 C.2            1 S1                 0.0000
      3 ****        -4.8021  -0.4002   1.2519 N.2            1 S1                 0.0000
      4 ****        -4.9891   0.9445   1.6085 O.3            1 S1                 0.0000
      5 ****        -3.8041   1.5992   1.4931 C.2            1 S1                 0.0000
      6 ****        -3.7920   3.0478   1.8473 C.3            1 S1                 0.0000
      7 ****        -2.8611   0.7230   1.0438 C.2            1 S1                 0.0000
      8 ****        -1.4973   1.0417   0.8277 N.am           1 S1                 0.0000
      9 ****        -0.7102   0.5627  -0.1472 C.2            1 S1                 0.0000
     10 ****        -1.0873  -0.1873  -1.0476 O.2            1 S1                 0.0000
     11 ****         0.5448   1.0212  -0.0341 N.am           1 S1                 0.0000
     12 ****         1.6520   0.6883  -0.9282 C.3            1 S1                 0.0000
     13 ****         2.5533   1.9251  -1.0685 C.3            1 S1                 0.0000
     14 ****         2.4209  -0.5398  -0.3928 C.3            1 S1                 0.0000
     15 ****         3.5724  -1.0049  -1.2903 C.3            1 S1                 0.0000
     16 ****         3.6402  -2.4833  -0.9858 C.3            1 S1                 0.0000
     17 ****         2.1625  -2.8267  -0.8553 C.3            1 S1                 0.0000
     18 ****         1.5584  -1.6735  -0.2808 O.3            1 S1                 0.0000
     19 ****        -1.9659  -2.0209   0.8953 H              1 S1                 0.0000
     20 ****        -3.0322  -2.0546  -0.5089 H              1 S1                 0.0000
     21 ****        -3.5839  -2.6877   1.0380 H              1 S1                 0.0000
     22 ****        -2.7736   3.4349   1.8837 H              1 S1                 0.0000
     23 ****        -4.2496   3.2114   2.8231 H              1 S1                 0.0000
     24 ****        -4.3478   3.6281   1.1109 H              1 S1                 0.0000
     25 ****        -1.1057   1.7549   1.4251 H              1 S1                 0.0000
     26 ****         0.7563   1.6367   0.7375 H              1 S1                 0.0000
     27 ****         1.2579   0.4524  -1.9184 H              1 S1                 0.0000
     28 ****         3.3636   1.7494  -1.7761 H              1 S1                 0.0000
     29 ****         3.0001   2.2016  -0.1128 H              1 S1                 0.0000
     30 ****         1.9872   2.7833  -1.4320 H              1 S1                 0.0000
     31 ****         2.8109  -0.3323   0.6051 H              1 S1                 0.0000
     32 ****         3.3251  -0.8585  -2.3429 H              1 S1                 0.0000
     33 ****         4.5083  -0.4845  -1.0851 H              1 S1                 0.0000
     34 ****         4.1457  -3.0605  -1.7605 H              1 S1                 0.0000
     35 ****         4.1540  -2.6509  -0.0382 H              1 S1                 0.0000
     36 ****         1.7229  -2.9943  -1.8391 H              1 S1                 0.0000
     37 ****         1.9880  -3.7152  -0.2485 H              1 S1                 0.0000
     38 ****        -5.4988  -1.1175   1.2414 LP             1 S1                 0.0000
     39 ****        -5.3124   0.9994   2.5532 LP             1 S1                 0.0000
     40 ****        -5.6641   1.3623   1.0004 LP             1 S1                 0.0000
     41 ****        -2.0424  -0.4812  -1.0864 LP             1 S1                 0.0000
     42 ****        -0.4386  -0.5027  -1.7402 LP             1 S1                 0.0000
     43 ****         0.7004  -1.4811  -0.7571 LP             1 S1                 0.0000
     44 ****         1.3710  -1.8487   0.6858 LP             1 S1                 0.0000
@<TRIPOS>BOND
    1    1    2 1     
    2    1   19 1     
    3    1   20 1     
    4    1   21 1     
    5    2    7 1     
    6    2    3 2     
    7    3    4 1     
    8    4    5 1     
    9    5    6 1     
   10    5    7 2     
   11    6   22 1     
   12    6   23 1     
   13    6   24 1     
   14    7    8 1     
   15    8    9 am    
   16    8   25 1     
   17    9   10 2     
   18    9   11 am    
   19   11   12 1     
   20   11   26 1     
   21   12   13 1     
   22   12   14 1     
   23   12   27 1     
   24   13   28 1     
   25   13   29 1     
   26   13   30 1     
   27   14   18 1     
   28   14   15 1     
   29   14   31 1     
   30   15   16 1     
   31   15   32 1     
   32   15   33 1     
   33   16   17 1     
   34   16   34 1     
   35   16   35 1     
   36   17   18 1     
   37   17   36 1     
   38   17   37 1     
   39    3   38 1     
   40    4   39 1     
   41    4   40 1     
   42   10   41 1     
   43   10   42 1     
   44   18   43 1     
   45   18   44 1     
@<TRIPOS>SUBSTRUCTURE
      1 S1             1
@<TRIPOS>SET
LONE_PAIRS      STATIC     ATOMS    <user>   **** ""
7 38 39 40 41 42 43 44
DONOR_HYDROGENS      STATIC     ATOMS    <user>   **** ""
2 25 26
ATOM$BLUE        STATIC     ATOMS    COLORGROUP SYSTEM
7 38 39 40 41 42 43 44
ATOM$RED        STATIC     ATOMS    COLORGROUP SYSTEM
2 25 26
