#       Name:                AV-unprocessed.smi:1564
#       Creating user name   scv26
#       Creation time:       Fri Mar 27 06:49:35 2020


#       File generated by GOLD software.
#

@<TRIPOS>MOLECULE
AV-unprocessed.smi:1564
    48    49     1
SMALL
NO_CHARGES


@<TRIPOS>ATOM
      1 ****        -6.0521   5.6292  -0.2297 C.3            1 S1                 0.0000
      2 ****        -6.2533   4.3534   0.3687 O.3            1 S1                 0.0000
      3 ****        -5.2096   3.4510   0.3541 C.ar           1 S1                 0.0000
      4 ****        -5.4030   2.1874   0.9461 C.ar           1 S1                 0.0000
      5 ****        -4.3401   1.2650   0.9369 C.ar           1 S1                 0.0000
      6 ****        -3.1137   1.6320   0.3470 C.ar           1 S1                 0.0000
      7 ****        -2.0655   0.6719   0.3448 N.am           1 S1                 0.0000
      8 ****        -0.7487   0.8647   0.1568 C.2            1 S1                 0.0000
      9 ****        -0.2053   1.9505  -0.0424 O.2            1 S1                 0.0000
     10 ****        -0.0750  -0.2915   0.2294 N.am           1 S1                 0.0000
     11 ****         1.3704  -0.4208   0.0780 C.3            1 S1                 0.0000
     12 ****         1.8625  -0.3422  -1.3676 C.3            1 S1                 0.0000
     13 ****         3.1179  -1.2298  -1.3971 C.3            1 S1                 0.0000
     14 ****         3.2059  -1.9124  -0.0805 N.4            1 S1                 1.0000
     15 ****         3.7712  -3.2908  -0.1194 C.3            1 S1                 0.0000
     16 ****         3.7923  -3.9376   1.2786 C.3            1 S1                 0.0000
     17 ****         5.1940  -3.2921  -0.7098 C.3            1 S1                 0.0000
     18 ****         1.8654  -1.7909   0.5279 C.3            1 S1                 0.0000
     19 ****        -3.0228   2.9212  -0.2334 C.ar           1 S1                 0.0000
     20 ****        -4.0396   3.8095  -0.2300 N.ar           1 S1                 0.0000
     21 ****        -6.9586   6.2246  -0.1218 H              1 S1                 0.0000
     22 ****        -5.8396   5.5395  -1.2960 H              1 S1                 0.0000
     23 ****        -5.2398   6.1745   0.2531 H              1 S1                 0.0000
     24 ****        -6.3490   1.9306   1.3991 H              1 S1                 0.0000
     25 ****        -4.4671   0.2895   1.3834 H              1 S1                 0.0000
     26 ****        -2.3480  -0.2715   0.5664 H              1 S1                 0.0000
     27 ****        -0.5978  -1.1381   0.4009 H              1 S1                 0.0000
     28 ****         1.8744   0.3436   0.6732 H              1 S1                 0.0000
     29 ****         1.1134  -0.7471  -2.0500 H              1 S1                 0.0000
     30 ****         2.0695   0.6834  -1.6757 H              1 S1                 0.0000
     31 ****         3.0369  -1.9500  -2.2130 H              1 S1                 0.0000
     32 ****         4.0203  -0.6401  -1.5620 H              1 S1                 0.0000
     33 ****         3.1342  -3.9004  -0.7624 H              1 S1                 0.0000
     34 ****         4.2499  -4.9267   1.2437 H              1 S1                 0.0000
     35 ****         2.7888  -4.0713   1.6829 H              1 S1                 0.0000
     36 ****         4.3629  -3.3353   1.9864 H              1 S1                 0.0000
     37 ****         5.6121  -4.2991  -0.7179 H              1 S1                 0.0000
     38 ****         5.8659  -2.6618  -0.1264 H              1 S1                 0.0000
     39 ****         5.2119  -2.9350  -1.7394 H              1 S1                 0.0000
     40 ****         1.9025  -1.8695   1.6150 H              1 S1                 0.0000
     41 ****         1.2143  -2.5804   0.1470 H              1 S1                 0.0000
     42 ****        -2.1315   3.2642  -0.7340 H              1 S1                 0.0000
     43 ****         3.8220  -1.3499   0.4891 H              1 S1                 0.0000
     44 ****        -7.0229   3.9233  -0.1032 LP             1 S1                 0.0000
     45 ****        -6.4951   4.5105   1.3262 LP             1 S1                 0.0000
     46 ****        -0.7541   2.7858  -0.0747 LP             1 S1                 0.0000
     47 ****         0.7852   1.9976  -0.1720 LP             1 S1                 0.0000
     48 ****        -3.9322   4.7112  -0.6487 LP             1 S1                 0.0000
@<TRIPOS>BOND
    1    1    2 1     
    2    1   21 1     
    3    1   22 1     
    4    1   23 1     
    5    2    3 1     
    6    3   20 ar    
    7    3    4 ar    
    8    4    5 ar    
    9    4   24 1     
   10    5    6 ar    
   11    5   25 1     
   12    6    7 1     
   13    6   19 ar    
   14    7    8 am    
   15    7   26 1     
   16    8    9 2     
   17    8   10 am    
   18   10   11 1     
   19   10   27 1     
   20   11   18 1     
   21   11   12 1     
   22   11   28 1     
   23   12   13 1     
   24   12   29 1     
   25   12   30 1     
   26   13   14 1     
   27   13   31 1     
   28   13   32 1     
   29   14   15 1     
   30   14   18 1     
   31   14   43 1     
   32   15   16 1     
   33   15   17 1     
   34   15   33 1     
   35   16   34 1     
   36   16   35 1     
   37   16   36 1     
   38   17   37 1     
   39   17   38 1     
   40   17   39 1     
   41   18   40 1     
   42   18   41 1     
   43   19   20 ar    
   44   19   42 1     
   45    2   44 1     
   46    2   45 1     
   47    9   46 1     
   48    9   47 1     
   49   20   48 1     
@<TRIPOS>SUBSTRUCTURE
      1 S1             1
@<TRIPOS>SET
LONE_PAIRS      STATIC     ATOMS    <user>   **** ""
5 44 45 46 47 48
DONOR_HYDROGENS      STATIC     ATOMS    <user>   **** ""
3 26 27 43
ATOM$BLUE        STATIC     ATOMS    COLORGROUP SYSTEM
5 44 45 46 47 48
ATOM$RED        STATIC     ATOMS    COLORGROUP SYSTEM
3 26 27 43
