AV-unprocessed.smi:1913|AV-procd|sdf|7753|dock8
  -GOLD-   22720 9493D 1   1.00000     0.00000
 Structure written by MMmdl.
 40 42  0  0  0  0  0  0  0  0  1 V2000
  150.6811  134.4283  155.3909 C   0  0  0  0  0  0  0  0  0  0  0  0
  151.0151  135.7229  154.9117 O   0  0  0  0  0  0  0  0  0  0  0  0
  150.1385  136.7557  155.1678 C   0  0  0  0  0  0  0  0  0  0  0  0
  148.8768  136.5939  155.7867 C   0  0  0  0  0  0  0  0  0  0  0  0
  148.0403  137.7045  156.0026 C   0  0  0  0  0  0  0  0  0  0  0  0
  148.4437  139.0050  155.6102 C   0  0  0  0  0  0  0  0  0  0  0  0
  147.6582  140.1273  155.7811 O   0  0  0  0  0  0  0  0  0  0  0  0
  146.4031  139.9841  156.4289 C   0  0  0  0  0  0  0  0  0  0  0  0
  149.7125  139.1726  155.0042 C   0  0  0  0  0  0  0  0  0  0  0  0
  150.1726  140.5608  154.5675 C   0  0  1  0  0  0  0  0  0  0  0  0
  149.4327  141.0725  153.4742 O   0  0  0  0  0  0  0  0  0  0  0  0
  150.1181  141.5586  155.7398 C   0  0  0  0  0  0  0  0  0  0  0  0
  151.1074  141.2642  156.7596 N   0  0  0  0  0  0  0  0  0  0  0  0
  151.8367  140.1397  156.8934 C   0  0  0  0  0  0  0  0  0  0  0  0
  152.6893  140.0849  157.9133 N   0  0  0  0  0  0  0  0  0  0  0  0
  152.4895  141.3177  158.5110 C   0  0  0  0  0  0  0  0  0  0  0  0
  153.0912  141.8930  159.6531 C   0  0  0  0  0  0  0  0  0  0  0  0
  152.7218  143.1856  160.0808 C   0  0  0  0  0  0  0  0  0  0  0  0
  151.7464  143.9211  159.3762 C   0  0  0  0  0  0  0  0  0  0  0  0
  151.1329  143.3689  158.2356 C   0  0  0  0  0  0  0  0  0  0  0  0
  151.5056  142.0797  157.8120 C   0  0  0  0  0  0  0  0  0  0  0  0
  150.5394  138.0486  154.7811 C   0  0  0  0  0  0  0  0  0  0  0  0
  151.4656  133.7264  155.1082 H   0  0  0  0  0  0  0  0  0  0  0  0
  149.7470  134.0703  154.9561 H   0  0  0  0  0  0  0  0  0  0  0  0
  150.6026  134.4141  156.4789 H   0  0  0  0  0  0  0  0  0  0  0  0
  148.5228  135.6243  156.1023 H   0  0  0  0  0  0  0  0  0  0  0  0
  147.0852  137.5277  156.4731 H   0  0  0  0  0  0  0  0  0  0  0  0
  145.9084  140.9544  156.4685 H   0  0  0  0  0  0  0  0  0  0  0  0
  146.5213  139.6320  157.4545 H   0  0  0  0  0  0  0  0  0  0  0  0
  145.7483  139.3025  155.8840 H   0  0  0  0  0  0  0  0  0  0  0  0
  151.2012  140.4869  154.2133 H   0  0  0  0  0  0  0  0  0  0  0  0
  149.2531  140.3626  152.8768 H   0  0  0  0  0  0  0  0  0  0  0  0
  150.2635  142.5800  155.3852 H   0  0  0  0  0  0  0  0  0  0  0  0
  149.1355  141.5293  156.2123 H   0  0  0  0  0  0  0  0  0  0  0  0
  151.7330  139.3136  156.2051 H   0  0  0  0  0  0  0  0  0  0  0  0
  153.8386  141.3387  160.2012 H   0  0  0  0  0  0  0  0  0  0  0  0
  153.1891  143.6151  160.9547 H   0  0  0  0  0  0  0  0  0  0  0  0
  151.4692  144.9096  159.7119 H   0  0  0  0  0  0  0  0  0  0  0  0
  150.3847  143.9276  157.6926 H   0  0  0  0  0  0  0  0  0  0  0  0
  151.4994  138.1715  154.3011 H   0  0  0  0  0  0  0  0  0  0  0  0
  1  2  1  0  0  0  0
  1 23  1  0  0  0  0
  1 24  1  0  0  0  0
  1 25  1  0  0  0  0
  2  3  1  0  0  0  0
  3 22  1  0  0  0  0
  3  4  2  0  0  0  0
  4  5  1  0  0  0  0
  4 26  1  0  0  0  0
  5  6  2  0  0  0  0
  5 27  1  0  0  0  0
  6  7  1  0  0  0  0
  6  9  1  0  0  0  0
  7  8  1  0  0  0  0
  8 28  1  0  0  0  0
  8 29  1  0  0  0  0
  8 30  1  0  0  0  0
  9 10  1  0  0  0  0
  9 22  2  0  0  0  0
 10 11  1  0  0  0  0
 10 12  1  0  0  0  0
 10 31  1  0  0  0  0
 11 32  1  0  0  0  0
 12 13  1  0  0  0  0
 12 33  1  0  0  0  0
 12 34  1  0  0  0  0
 13 21  1  0  0  0  0
 13 14  1  0  0  0  0
 14 15  2  0  0  0  0
 14 35  1  0  0  0  0
 15 16  1  0  0  0  0
 16 21  2  0  0  0  0
 16 17  1  0  0  0  0
 17 18  2  0  0  0  0
 17 36  1  0  0  0  0
 18 19  1  0  0  0  0
 18 37  1  0  0  0  0
 19 20  2  0  0  0  0
 19 38  1  0  0  0  0
 20 21  1  0  0  0  0
 20 39  1  0  0  0  0
 22 40  1  0  0  0  0
M  END
> <s_m_source_file>
AV-unprocessed.smi

> <i_m_source_file_index>
1913

> <i_lp_mmshare_version>
43012

> <i_f3d_flags>
0

> <s_epik_input>
W0NIM11PYzFbY0hdW2NIXWMoT1tDSDNdKWMoW2NIXTEpW0NASF0oW09IXSlbQ0gyXW4oW2NIXW4yKWMoYzIzKVtjSF1bY0hdW2NIXVtjSF0z

> <s_epik_cmdline>
J2VwaWtfcHl0aG9uJywgJy1waCcsICc3LjAnLCAnLXRuJywgJzgnLCAnLW1hJywgJzIwMCcsICctbWV0YWxfYmluZGluZycsICctaW1hZScsICc8aW5maWxlLm1hZT4nLCAnLW9tYWUnLCAnPG91dGZpbGUubWFlPic=

> <r_lp_tautomer_probability>
1

> <r_epik_Ionization_Penalty>
0.0696512

> <r_epik_Ionization_Penalty_Charging>
0

> <r_epik_Ionization_Penalty_Neutral>
0.0696512

> <r_epik_State_Penalty>
0.0610247

> <r_epik_Charging_Adjusted_Penalty>
0.0610247

> <i_epik_Tot_Q>
0

> <i_epik_Tot_abs_Q>
0

> <r_epik_Metal_State_Penalty>
6.42746e-05

> <b_epik_Metal_Only>
0

> <s_lp_Force_Field>
OPLS_2005

> <r_lp_Energy>
19.1382

> <b_lp_Chiralities_Consistent>
1

> <s_lp_Variant>
AV-unprocessed.smi:1913-2

> <Gold.Version>
5.8.1

> <Gold.Id.Protein>
6NUR|6NUR_protein|mol2

> <Gold.PLP.Fitness>
48.2782

> <Gold.PLP.PLP>
-37.8401

> <Gold.PLP.part.hbond>
-4.9553

> <Gold.PLP.part.metal>
0.0000

> <Gold.PLP.part.buried>
-2.4142

> <Gold.PLP.part.nonpolar>
-29.9614

> <Gold.PLP.part.repulsive>
0.1737

> <Gold.PLP.ligand.clash>
0.0000

> <Gold.PLP.ligand.torsion>
0.3557

> <Gold.PLP.Chemscore.Hbond>
3.7040

> <Gold.PLP.Chemscore.CHOScore>
0.0000

> <Gold.PLP.Chemscore.Metal>
0.0000

> <Gold.Chemscore.Hbonds>
donor molecule, donor type, donor heavy atom, donor atom, acceptor molecule, acceptor atom, score
      L1  H    11    32       P1  7957  0.69
      P1  H  7997  8008       L1    15  0.77
      P1  H  8011  8017       L1    11  1.00
      P1  H 10752 10764       L1     2  1.00

> <Gold.PLP.Chemscore.Internal.Correction>
0.0376

> <Gold.Rescore>
     Score         DG    S(hbond)    S(metal)    S(lipo)     H(rot)  DE(clash)    DE(int)     intcor
     16.41     -19.61       2.40        0.00     103.12       2.33       1.58       1.62       ----

> <Gold.Chemscore.Fitness>
16.4059

> <Gold.Chemscore.DG>
-19.6051

> <Gold.Chemscore.ZeroCoef>
-5.4800

> <Gold.Chemscore.Hbond>
2.4046

> <Gold.Chemscore.Metal>
0.0000

> <Gold.Chemscore.Lipo>
103.1163

> <Gold.Chemscore.Internal_Hbond>
0.0000

> <Gold.Chemscore.DEClash>
1.5753

> <Gold.Chemscore.DEInternal>
1.6240

> <Gold.Chemscore.Rot>
2.3323

> <Gold.Chemscore.Internal.Correction>
   9.000000E+99

> <Gold.Chemscore.Hbonds>
donor molecule, donor type, donor heavy atom, donor atom, acceptor molecule, acceptor atom, score
      L1  H    11    32       P1  7957  0.70
      P1  H  7997  8008       L1    15  0.10
      P1  H  8011  8017       L1    11  0.29
      P1  H 10752 10764       L1     2  0.39

> <Gold.Chemscore.Hbond.Weighted>
-8.0313

> <Gold.Chemscore.Metal.Weighted>
-0.0000

> <Gold.Chemscore.Lipo.Weighted>
-12.0646

> <Gold.Chemscore.Internal_Hbond.Weighted>
0.0000

> <Gold.Chemscore.DEClash.Weighted>
1.5753

> <Gold.Chemscore.DEInternal.Weighted>
1.6240

> <Gold.Chemscore.Rot.Weighted>
5.9708

> <Gold.Chemscore.Internal.Correction.Weighted>
   9.000000E+99

> <Gold.Protein.RotatedTorsions>
[ 6907 6896 6895 6894 ] final  -32.78 input  -60.11 | X-H torsion
[ 7974 7965 7964 7962 ] final -140.87 input  175.53 | X-H torsion
[ 8008 7997 7996 7995 ] final  -69.53 input   59.86 | X-H torsion
[ 10167 10162 10161 10158 ] final  -21.59 input  -65.29 | X-H torsion
[ 10718 10713 10712 10709 ] final   17.02 input   66.30 | X-H torsion
[ 10763 10752 10751 10750 ] final  -63.99 input  -60.55 | X-H torsion
[ 11005 11000 10999 10996 ] final  -85.21 input  -57.11 | X-H torsion

> <Gold.Protein.ActiveResidues>
 VAL166  LYS551  ARG553  GLY616  TRP617  ASP618  TYR619  PRO620  LYS621  CYS622 
 ASP623  PHE694  ASN695  SER759  ASP760  ASP761  ALA762  ILE779  LEU786  VAL792 
 PHE793  MET794  SER795  GLU796  ALA797  LYS798  CYS799  TRP800  GLU811  SER814 

> <Gold.Protein.RotatedAtoms>
  151.0742  134.9817  159.8323 H   0  0  0  0  0  0  0  0  0  0  0  0  # atno 6907 bound_to 6896
  152.5412  134.2261  159.8817 H   0  0  0  0  0  0  0  0  0  0  0  0  # atno 6908 bound_to 6896
  151.2288  133.4418  159.2636 H   0  0  0  0  0  0  0  0  0  0  0  0  # atno 6909 bound_to 6896
  144.8563  140.6148  143.5357 H   0  0  0  0  0  0  0  0  0  0  0  0  # atno 7974 bound_to 7965
  154.4945  140.0851  156.7667 H   0  0  0  0  0  0  0  0  0  0  0  0  # atno 8008 bound_to 7997
  155.4149  140.3443  155.4248 H   0  0  0  0  0  0  0  0  0  0  0  0  # atno 8009 bound_to 7997
  156.1375  140.1519  156.8959 H   0  0  0  0  0  0  0  0  0  0  0  0  # atno 8010 bound_to 7997
  140.7282  143.4613  151.0375 H   0  0  0  0  0  0  0  0  0  0  0  0  # atno 10167 bound_to 10162
  157.0762  130.6369  149.5816 H   0  0  0  0  0  0  0  0  0  0  0  0  # atno 10718 bound_to 10713
  154.3233  135.6192  153.5517 H   0  0  0  0  0  0  0  0  0  0  0  0  # atno 10763 bound_to 10752
  152.9818  135.5729  154.5045 H   0  0  0  0  0  0  0  0  0  0  0  0  # atno 10764 bound_to 10752
  154.4717  135.2859  155.1614 H   0  0  0  0  0  0  0  0  0  0  0  0  # atno 10765 bound_to 10752
  141.1643  133.7387  156.8981 H   0  0  0  0  0  0  0  0  0  0  0  0  # atno 11005 bound_to 11000
  145.4399  139.1537  143.3976 LP  0  0  0  0  0  0  0  0  0  0  0  0  # atno 17320 bound_to 7965
  146.2826  140.4520  142.8770 LP  0  0  0  0  0  0  0  0  0  0  0  0  # atno 17321 bound_to 7965
  139.8298  143.7706  152.3179 LP  0  0  0  0  0  0  0  0  0  0  0  0  # atno 17342 bound_to 10162
  139.7818  144.7442  151.0078 LP  0  0  0  0  0  0  0  0  0  0  0  0  # atno 17343 bound_to 10162
  155.9936  130.4998  150.7388 LP  0  0  0  0  0  0  0  0  0  0  0  0  # atno 17370 bound_to 10713
  157.4837  131.0905  151.0507 LP  0  0  0  0  0  0  0  0  0  0  0  0  # atno 17371 bound_to 10713
  140.1602  134.9171  157.2704 LP  0  0  0  0  0  0  0  0  0  0  0  0  # atno 17394 bound_to 11000
  140.2620  134.3559  155.7403 LP  0  0  0  0  0  0  0  0  0  0  0  0  # atno 17395 bound_to 11000

$$$$
