AV-unprocessed.smi:3111|AV-procd|sdf|11835|dock3
  -GOLD-   2272017213D 1   1.00000     0.00000
 Structure written by MMmdl.
 30 30  0  0  0  0  0  0  0  0  2 V2000
  147.1555  137.8246  158.5982 C   0  0  0  0  0  0  0  0  0  0  0  0
  148.5475  138.2041  158.4105 N   0  0  0  0  0  0  0  0  0  0  0  0
  149.5917  137.4371  158.7534 C   0  0  0  0  0  0  0  0  0  0  0  0
  149.4684  136.3198  159.2594 O   0  0  0  0  0  0  0  0  0  0  0  0
  150.9797  138.0262  158.4658 C   0  0  0  0  0  0  0  0  0  0  0  0
  151.2250  139.2780  159.1776 N   0  0  0  0  0  0  0  0  0  0  0  0
  152.2740  140.0912  158.9740 C   0  0  0  0  0  0  0  0  0  0  0  0
  153.1869  139.8300  158.1897 O   0  0  0  0  0  0  0  0  0  0  0  0
  152.2688  141.4130  159.7573 C   0  0  1  0  0  0  0  0  0  0  0  0
  153.5686  141.6478  160.5506 C   0  0  0  0  0  0  0  0  0  0  0  0
  151.9693  142.5407  158.8586 N   0  0  0  0  0  0  0  0  0  0  0  0
  152.7041  143.6896  158.7059 C   0  0  0  0  0  0  0  0  0  0  0  0
  152.0451  144.4588  157.7819 C   0  0  0  0  0  0  0  0  0  0  0  0
  150.9352  143.7504  157.4080 N   0  3  0  0  0  0  0  0  0  0  0  0
  150.8901  142.5856  158.0622 C   0  0  0  0  0  0  0  0  0  0  0  0
  146.5017  138.6163  158.2323 H   0  0  0  0  0  0  0  0  0  0  0  0
  146.9363  137.6619  159.6542 H   0  0  0  0  0  0  0  0  0  0  0  0
  146.9241  136.9109  158.0493 H   0  0  0  0  0  0  0  0  0  0  0  0
  148.7283  139.1068  157.9955 H   0  0  0  0  0  0  0  0  0  0  0  0
  151.7350  137.3036  158.7754 H   0  0  0  0  0  0  0  0  0  0  0  0
  151.1054  138.1715  157.3912 H   0  0  0  0  0  0  0  0  0  0  0  0
  150.5190  139.5684  159.8385 H   0  0  0  0  0  0  0  0  0  0  0  0
  151.4512  141.3610  160.4786 H   0  0  0  0  0  0  0  0  0  0  0  0
  153.7653  140.8228  161.2363 H   0  0  0  0  0  0  0  0  0  0  0  0
  153.4995  142.5576  161.1475 H   0  0  0  0  0  0  0  0  0  0  0  0
  154.4355  141.7483  159.8964 H   0  0  0  0  0  0  0  0  0  0  0  0
  153.6175  143.8722  159.2533 H   0  0  0  0  0  0  0  0  0  0  0  0
  152.2758  145.4323  157.3742 H   0  0  0  0  0  0  0  0  0  0  0  0
  150.1276  141.8323  157.9707 H   0  0  0  0  0  0  0  0  0  0  0  0
  150.2444  144.0618  156.7366 H   0  0  0  0  0  0  0  0  0  0  0  0
  1  2  1  0  0  0  0
  1 16  1  0  0  0  0
  1 17  1  0  0  0  0
  1 18  1  0  0  0  0
  2  3  1  0  0  0  0
  2 19  1  0  0  0  0
  3  4  2  0  0  0  0
  3  5  1  0  0  0  0
  5  6  1  0  0  0  0
  5 20  1  0  0  0  0
  5 21  1  0  0  0  0
  6  7  1  0  0  0  0
  6 22  1  0  0  0  0
  7  8  2  0  0  0  0
  7  9  1  0  0  0  0
  9 10  1  0  0  0  0
  9 11  1  0  0  0  0
  9 23  1  0  0  0  0
 10 24  1  0  0  0  0
 10 25  1  0  0  0  0
 10 26  1  0  0  0  0
 11 15  1  0  0  0  0
 11 12  1  0  0  0  0
 12 13  2  0  0  0  0
 12 27  1  0  0  0  0
 13 14  1  0  0  0  0
 13 28  1  0  0  0  0
 14 15  2  0  0  0  0
 14 30  1  0  0  0  0
 15 29  1  0  0  0  0
M  CHG  1  14   1
M  END
> <s_m_source_file>
AV-unprocessed.smi

> <i_m_source_file_index>
3111

> <i_lp_mmshare_version>
43012

> <i_f3d_flags>
0

> <s_epik_input>
W0NIM11bTkhdQyg9TylbQ0gyXVtOSF1DKD1PKVtDQEhdKFtDSDNdKW4xW2NIXVtjSF1uW2NIXTE=

> <s_epik_cmdline>
J2VwaWtfcHl0aG9uJywgJy1waCcsICc3LjAnLCAnLXRuJywgJzgnLCAnLW1hJywgJzIwMCcsICctbWV0YWxfYmluZGluZycsICctaW1hZScsICc8aW5maWxlLm1hZT4nLCAnLW9tYWUnLCAnPG91dGZpbGUubWFlPic=

> <r_lp_tautomer_probability>
1

> <r_epik_Ionization_Penalty>
0.581414

> <r_epik_Ionization_Penalty_Charging>
0

> <r_epik_Ionization_Penalty_Neutral>
0.581414

> <r_epik_State_Penalty>
0.594207

> <r_epik_Charging_Adjusted_Penalty>
0.594207

> <i_epik_Tot_Q>
1

> <i_epik_Tot_abs_Q>
1

> <r_epik_Metal_State_Penalty>
0.784638

> <b_epik_Metal_Only>
0

> <s_lp_Force_Field>
OPLS_2005

> <r_lp_Energy>
5.66591

> <b_lp_Chiralities_Consistent>
1

> <s_lp_Variant>
AV-unprocessed.smi:3111-4

> <Gold.Version>
5.8.1

> <Gold.Id.Protein>
6NUR|6NUR_protein|mol2

> <Gold.PLP.Fitness>
41.2321

> <Gold.PLP.PLP>
-29.6479

> <Gold.PLP.part.hbond>
-3.0000

> <Gold.PLP.part.metal>
0.0000

> <Gold.PLP.part.buried>
-3.7382

> <Gold.PLP.part.nonpolar>
-23.2717

> <Gold.PLP.part.repulsive>
0.3035

> <Gold.PLP.ligand.clash>
0.0000

> <Gold.PLP.ligand.torsion>
0.2681

> <Gold.PLP.Chemscore.Hbond>
4.0000

> <Gold.PLP.Chemscore.CHOScore>
0.0000

> <Gold.PLP.Chemscore.Metal>
0.0000

> <Gold.Chemscore.Hbonds>
donor molecule, donor type, donor heavy atom, donor atom, acceptor molecule, acceptor atom, score
      L1  H    14    30       P1  8028  2.00
      P1  H  6896  6908       L1     4  0.96
      P1  H  7997  8010       L1     8  1.00

> <Gold.PLP.Chemscore.Internal.Correction>
0.1205

> <Gold.Rescore>
     Score         DG    S(hbond)    S(metal)    S(lipo)     H(rot)  DE(clash)    DE(int)     intcor
     15.45     -15.79       2.98        0.00      54.12       2.33       0.02       0.32       ----

> <Gold.Chemscore.Fitness>
15.4463

> <Gold.Chemscore.DG>
-15.7856

> <Gold.Chemscore.ZeroCoef>
-5.4800

> <Gold.Chemscore.Hbond>
2.9763

> <Gold.Chemscore.Metal>
0.0000

> <Gold.Chemscore.Lipo>
54.1210

> <Gold.Chemscore.Internal_Hbond>
0.0000

> <Gold.Chemscore.DEClash>
0.0202

> <Gold.Chemscore.DEInternal>
0.3190

> <Gold.Chemscore.Rot>
2.3311

> <Gold.Chemscore.Internal.Correction>
   9.000000E+99

> <Gold.Chemscore.Hbonds>
donor molecule, donor type, donor heavy atom, donor atom, acceptor molecule, acceptor atom, score
      L1  H    14    30       P1  8028  1.00
      P1  H  6896  6908       L1     4  0.91
      P1  H  7997  8010       L1     8  0.99

> <Gold.Chemscore.Hbond.Weighted>
-9.9410

> <Gold.Chemscore.Metal.Weighted>
-0.0000

> <Gold.Chemscore.Lipo.Weighted>
-6.3322

> <Gold.Chemscore.Internal_Hbond.Weighted>
0.0000

> <Gold.Chemscore.DEClash.Weighted>
0.0202

> <Gold.Chemscore.DEInternal.Weighted>
0.3190

> <Gold.Chemscore.Rot.Weighted>
5.9676

> <Gold.Chemscore.Internal.Correction.Weighted>
   9.000000E+99

> <Gold.Protein.RotatedTorsions>
[ 6907 6896 6895 6894 ] final -173.58 input  -60.11 | X-H torsion
[ 7974 7965 7964 7962 ] final  103.82 input  175.53 | X-H torsion
[ 8008 7997 7996 7995 ] final   29.83 input   59.86 | X-H torsion
[ 10167 10162 10161 10158 ] final  -67.98 input  -65.29 | X-H torsion
[ 10718 10713 10712 10709 ] final -160.75 input   66.30 | X-H torsion
[ 10763 10752 10751 10750 ] final   88.87 input  -60.55 | X-H torsion
[ 11005 11000 10999 10996 ] final  120.71 input  -57.11 | X-H torsion

> <Gold.Protein.ActiveResidues>
 VAL166  LYS551  ARG553  GLY616  TRP617  ASP618  TYR619  PRO620  LYS621  CYS622 
 ASP623  PHE694  ASN695  SER759  ASP760  ASP761  ALA762  ILE779  LEU786  VAL792 
 PHE793  MET794  SER795  GLU796  ALA797  LYS798  CYS799  TRP800  GLU811  SER814 

> <Gold.Protein.RotatedAtoms>
  151.5585  133.3406  159.2966 H   0  0  0  0  0  0  0  0  0  0  0  0  # atno 6907 bound_to 6896
  150.8436  134.7740  159.6964 H   0  0  0  0  0  0  0  0  0  0  0  0  # atno 6908 bound_to 6896
  152.4499  134.5424  159.9894 H   0  0  0  0  0  0  0  0  0  0  0  0  # atno 6909 bound_to 6896
  145.3408  139.2463  143.3610 H   0  0  0  0  0  0  0  0  0  0  0  0  # atno 7974 bound_to 7965
  155.0807  140.3210  155.4602 H   0  0  0  0  0  0  0  0  0  0  0  0  # atno 8008 bound_to 7997
  156.2768  140.2095  156.5881 H   0  0  0  0  0  0  0  0  0  0  0  0  # atno 8009 bound_to 7997
  154.6981  140.0510  157.0418 H   0  0  0  0  0  0  0  0  0  0  0  0  # atno 8010 bound_to 7997
  140.5542  143.2312  151.6854 H   0  0  0  0  0  0  0  0  0  0  0  0  # atno 10167 bound_to 10162
  156.5866  130.8752  151.2879 H   0  0  0  0  0  0  0  0  0  0  0  0  # atno 10718 bound_to 10713
  153.1813  135.4491  155.0031 H   0  0  0  0  0  0  0  0  0  0  0  0  # atno 10763 bound_to 10752
  154.8031  135.3264  154.7501 H   0  0  0  0  0  0  0  0  0  0  0  0  # atno 10764 bound_to 10752
  153.7965  135.6966  153.4917 H   0  0  0  0  0  0  0  0  0  0  0  0  # atno 10765 bound_to 10752
  139.9196  134.9636  156.7848 H   0  0  0  0  0  0  0  0  0  0  0  0  # atno 11005 bound_to 11000
  146.3008  140.4005  142.8705 LP  0  0  0  0  0  0  0  0  0  0  0  0  # atno 17320 bound_to 7965
  144.8791  140.7377  143.5998 LP  0  0  0  0  0  0  0  0  0  0  0  0  # atno 17321 bound_to 7965
  139.5040  144.3769  152.0415 LP  0  0  0  0  0  0  0  0  0  0  0  0  # atno 17342 bound_to 10162
  140.2889  144.3776  150.6095 LP  0  0  0  0  0  0  0  0  0  0  0  0  # atno 17343 bound_to 10162
  157.7314  130.9699  150.1877 LP  0  0  0  0  0  0  0  0  0  0  0  0  # atno 17370 bound_to 10713
  156.2585  130.3708  149.8155 LP  0  0  0  0  0  0  0  0  0  0  0  0  # atno 17371 bound_to 10713
  140.6515  133.9727  155.7757 LP  0  0  0  0  0  0  0  0  0  0  0  0  # atno 17394 bound_to 11000
  141.0705  134.0213  157.3533 LP  0  0  0  0  0  0  0  0  0  0  0  0  # atno 17395 bound_to 11000

$$$$
