AV-unprocessed.smi:2886|AV-procd|sdf|11095|dock7
  -GOLD-   2272015563D 1   1.00000     0.00000
 Structure written by MMmdl.
 27 29  0  0  0  0  0  0  0  0  2 V2000
  152.4880  137.0614  155.8242 O   0  0  0  0  0  0  0  0  0  0  0  0
  152.0535  138.2098  155.8956 C   0  0  0  0  0  0  0  0  0  0  0  0
  151.4156  138.8131  154.8472 N   0  5  0  0  0  0  0  0  0  0  0  0
  150.9305  140.1692  154.9755 N   0  0  0  0  0  0  0  0  0  0  0  0
  151.0789  140.8200  156.0611 C   0  0  0  0  0  0  0  0  0  0  0  0
  151.7448  140.2379  157.2524 C   0  0  0  0  0  0  0  0  0  0  0  0
  151.9075  140.9461  158.4367 N   0  0  0  0  0  0  0  0  0  0  0  0
  151.4952  142.3070  158.7497 C   0  0  2  0  0  0  0  0  0  0  0  0
  151.7945  143.2868  157.6125 C   0  0  0  0  0  0  0  0  0  0  0  0
  152.6568  144.3376  158.3233 C   0  0  1  0  0  0  0  0  0  0  0  0
  151.8512  145.1661  159.3335 C   0  0  0  0  0  0  0  0  0  0  0  0
  151.6441  144.1616  160.4674 C   0  0  0  0  0  0  0  0  0  0  0  0
  152.3187  142.9042  159.9025 C   0  0  2  0  0  0  0  0  0  0  0  0
  153.3952  143.5030  159.1983 O   0  0  0  0  0  0  0  0  0  0  0  0
  152.2158  138.9695  157.1411 C   0  0  0  0  0  0  0  0  0  0  0  0
  153.0190  138.2048  158.4740 Cl  0  0  0  0  0  0  0  0  0  0  0  0
  150.7214  141.8477  156.1558 H   0  0  0  0  0  0  0  0  0  0  0  0
  152.2390  140.4172  159.2307 H   0  0  0  0  0  0  0  0  0  0  0  0
  150.4400  142.3246  159.0209 H   0  0  0  0  0  0  0  0  0  0  0  0
  152.3637  142.8097  156.8133 H   0  0  0  0  0  0  0  0  0  0  0  0
  150.8907  143.7129  157.1760 H   0  0  0  0  0  0  0  0  0  0  0  0
  153.2704  144.9351  157.6488 H   0  0  0  0  0  0  0  0  0  0  0  0
  152.4267  146.0239  159.6832 H   0  0  0  0  0  0  0  0  0  0  0  0
  150.9134  145.5311  158.9132 H   0  0  0  0  0  0  0  0  0  0  0  0
  152.1521  144.4978  161.3719 H   0  0  0  0  0  0  0  0  0  0  0  0
  150.5922  144.0012  160.7062 H   0  0  0  0  0  0  0  0  0  0  0  0
  152.6163  142.1858  160.6674 H   0  0  0  0  0  0  0  0  0  0  0  0
  1  2  2  0  0  0  0
  2 15  1  0  0  0  0
  2  3  1  0  0  0  0
  3  4  1  0  0  0  0
  4  5  2  0  0  0  0
  5  6  1  0  0  0  0
  5 17  1  0  0  0  0
  6  7  1  0  0  0  0
  6 15  2  0  0  0  0
  7  8  1  0  0  0  0
  7 18  1  0  0  0  0
  8 13  1  0  0  0  0
  8  9  1  0  0  0  0
  8 19  1  0  0  0  0
  9 10  1  0  0  0  0
  9 20  1  0  0  0  0
  9 21  1  0  0  0  0
 10 14  1  0  0  0  0
 10 11  1  0  0  0  0
 10 22  1  0  0  0  0
 11 12  1  0  0  0  0
 11 23  1  0  0  0  0
 11 24  1  0  0  0  0
 12 13  1  0  0  0  0
 12 25  1  0  0  0  0
 12 26  1  0  0  0  0
 13 14  1  0  0  0  0
 13 27  1  0  0  0  0
 15 16  1  0  0  0  0
M  CHG  1   3  -1
M  END
> <s_m_source_file>
AV-unprocessed.smi

> <i_m_source_file_index>
2886

> <i_lp_mmshare_version>
43012

> <i_f3d_flags>
0

> <s_epik_input>
Tz1jMVtuSF1uW2NIXWMoYzFDbClbTkhdW0NASF0oW0NIMl1bQ0BASF0yMylbQ0BASF0oTzMpW0NIMl1bQ0gyXTI=

> <s_epik_cmdline>
J2VwaWtfcHl0aG9uJywgJy1waCcsICc3LjAnLCAnLXRuJywgJzgnLCAnLW1hJywgJzIwMCcsICctbWV0YWxfYmluZGluZycsICctaW1hZScsICc8aW5maWxlLm1hZT4nLCAnLW9tYWUnLCAnPG91dGZpbGUubWFlPic=

> <r_lp_tautomer_probability>
0.986175

> <r_epik_Ionization_Penalty>
3.84253

> <r_epik_Ionization_Penalty_Charging>
0.0129711

> <r_epik_Ionization_Penalty_Neutral>
3.82956

> <r_epik_State_Penalty>
3.8249

> <r_epik_Charging_Adjusted_Penalty>
3.83787

> <i_epik_Tot_Q>
-1

> <i_epik_Tot_abs_Q>
1

> <r_epik_Metal_State_Penalty>
0.57612

> <b_epik_Metal_Only>
1

> <s_lp_Force_Field>
OPLS_2005

> <r_lp_Energy>
60.5374

> <b_lp_Chiralities_Consistent>
1

> <s_lp_Variant>
AV-unprocessed.smi:2886-9

> <Gold.Version>
5.8.1

> <Gold.Id.Protein>
6NUR|6NUR_protein|mol2

> <Gold.PLP.Fitness>
37.9064

> <Gold.PLP.PLP>
-33.0822

> <Gold.PLP.part.hbond>
-2.0000

> <Gold.PLP.part.metal>
0.0000

> <Gold.PLP.part.buried>
-6.3401

> <Gold.PLP.part.nonpolar>
-25.8924

> <Gold.PLP.part.repulsive>
0.2583

> <Gold.PLP.ligand.clash>
0.0000

> <Gold.PLP.ligand.torsion>
0.2737

> <Gold.PLP.Chemscore.Hbond>
1.7840

> <Gold.PLP.Chemscore.CHOScore>
0.0000

> <Gold.PLP.Chemscore.Metal>
0.0000

> <Gold.Chemscore.Hbonds>
donor molecule, donor type, donor heavy atom, donor atom, acceptor molecule, acceptor atom, score
      P1  H  7989  7998       L1     4  1.00
      P1  H 10752 10764       L1     1  0.80

> <Gold.PLP.Chemscore.Internal.Correction>
0.0195

> <Gold.Rescore>
     Score         DG    S(hbond)    S(metal)    S(lipo)     H(rot)  DE(clash)    DE(int)     intcor
     17.72     -19.09       1.68        0.00      90.14       1.00       0.38       0.99       ----

> <Gold.Chemscore.Fitness>
17.7249

> <Gold.Chemscore.DG>
-19.0910

> <Gold.Chemscore.ZeroCoef>
-5.4800

> <Gold.Chemscore.Hbond>
1.6841

> <Gold.Chemscore.Metal>
0.0000

> <Gold.Chemscore.Lipo>
90.1387

> <Gold.Chemscore.Internal_Hbond>
0.0000

> <Gold.Chemscore.DEClash>
0.3773

> <Gold.Chemscore.DEInternal>
0.9888

> <Gold.Chemscore.Rot>
1.0000

> <Gold.Chemscore.Internal.Correction>
   9.000000E+99

> <Gold.Chemscore.Hbonds>
donor molecule, donor type, donor heavy atom, donor atom, acceptor molecule, acceptor atom, score
      P1  H  7989  7998       L1     4  0.24
      P1  H 10752 10764       L1     1  0.80

> <Gold.Chemscore.Hbond.Weighted>
-5.6248

> <Gold.Chemscore.Metal.Weighted>
-0.0000

> <Gold.Chemscore.Lipo.Weighted>
-10.5462

> <Gold.Chemscore.Internal_Hbond.Weighted>
0.0000

> <Gold.Chemscore.DEClash.Weighted>
0.3773

> <Gold.Chemscore.DEInternal.Weighted>
0.9888

> <Gold.Chemscore.Rot.Weighted>
2.5600

> <Gold.Chemscore.Internal.Correction.Weighted>
   9.000000E+99

> <Gold.Protein.RotatedTorsions>
[ 6907 6896 6895 6894 ] final   37.54 input  -60.11 | X-H torsion
[ 7974 7965 7964 7962 ] final  177.49 input  175.53 | X-H torsion
[ 8008 7997 7996 7995 ] final  106.34 input   59.86 | X-H torsion
[ 10167 10162 10161 10158 ] final  157.96 input  -65.29 | X-H torsion
[ 10718 10713 10712 10709 ] final -177.30 input   66.30 | X-H torsion
[ 10763 10752 10751 10750 ] final  -31.15 input  -60.55 | X-H torsion
[ 11005 11000 10999 10996 ] final   64.09 input  -57.11 | X-H torsion

> <Gold.Protein.ActiveResidues>
 VAL166  LYS551  ARG553  GLY616  TRP617  ASP618  TYR619  PRO620  LYS621  CYS622 
 ASP623  PHE694  ASN695  SER759  ASP760  ASP761  ALA762  ILE779  LEU786  VAL792 
 PHE793  MET794  SER795  GLU796  ALA797  LYS798  CYS799  TRP800  GLU811  SER814 

> <Gold.Protein.RotatedAtoms>
  152.1445  134.9037  160.0551 H   0  0  0  0  0  0  0  0  0  0  0  0  # atno 6907 bound_to 6896
  152.0092  133.3850  159.4221 H   0  0  0  0  0  0  0  0  0  0  0  0  # atno 6908 bound_to 6896
  150.6868  134.3671  159.5019 H   0  0  0  0  0  0  0  0  0  0  0  0  # atno 6909 bound_to 6896
  144.7168  140.0255  143.6439 H   0  0  0  0  0  0  0  0  0  0  0  0  # atno 7974 bound_to 7965
  156.1735  140.3114  155.9016 H   0  0  0  0  0  0  0  0  0  0  0  0  # atno 8008 bound_to 7997
  155.3537  140.0472  157.3063 H   0  0  0  0  0  0  0  0  0  0  0  0  # atno 8009 bound_to 7997
  154.5265  140.2216  155.8891 H   0  0  0  0  0  0  0  0  0  0  0  0  # atno 8010 bound_to 7997
  139.4825  144.4869  151.8364 H   0  0  0  0  0  0  0  0  0  0  0  0  # atno 10167 bound_to 10162
  156.8274  130.9641  151.3108 H   0  0  0  0  0  0  0  0  0  0  0  0  # atno 10718 bound_to 10713
  153.7926  135.6896  153.4869 H   0  0  0  0  0  0  0  0  0  0  0  0  # atno 10763 bound_to 10752
  153.1740  135.4532  154.9938 H   0  0  0  0  0  0  0  0  0  0  0  0  # atno 10764 bound_to 10752
  154.8038  135.3348  154.7421 H   0  0  0  0  0  0  0  0  0  0  0  0  # atno 10765 bound_to 10752
  139.9981  134.6485  155.9976 H   0  0  0  0  0  0  0  0  0  0  0  0  # atno 11005 bound_to 11000
  146.0145  139.3198  143.0850 LP  0  0  0  0  0  0  0  0  0  0  0  0  # atno 17320 bound_to 7965
  145.8642  140.9458  143.0684 LP  0  0  0  0  0  0  0  0  0  0  0  0  # atno 17321 bound_to 7965
  140.4350  144.2065  150.5889 LP  0  0  0  0  0  0  0  0  0  0  0  0  # atno 17342 bound_to 10162
  140.4741  143.2402  151.9047 LP  0  0  0  0  0  0  0  0  0  0  0  0  # atno 17343 bound_to 10162
  157.6425  130.8817  149.9475 LP  0  0  0  0  0  0  0  0  0  0  0  0  # atno 17370 bound_to 10713
  156.0954  130.3660  150.0317 LP  0  0  0  0  0  0  0  0  0  0  0  0  # atno 17371 bound_to 10713
  141.1620  133.6538  156.4352 LP  0  0  0  0  0  0  0  0  0  0  0  0  # atno 17394 bound_to 11000
  140.4779  134.6692  157.5158 LP  0  0  0  0  0  0  0  0  0  0  0  0  # atno 17395 bound_to 11000

$$$$
