AV-unprocessed.smi:3197|AV-procd|sdf|12225|dock2
  -GOLD-   2272018 53D 1   1.00000     0.00000
 Structure written by MMmdl.
 33 34  0  0  0  0  0  0  0  0  1 V2000
  147.0238  139.5981  153.3452 C   0  0  0  0  0  0  0  0  0  0  0  0
  146.8909  140.9986  153.4270 C   0  0  0  0  0  0  0  0  0  0  0  0
  147.8098  141.7648  154.0548 N   0  0  0  0  0  0  0  0  0  0  0  0
  148.8555  141.1363  154.5979 C   0  0  0  0  0  0  0  0  0  0  0  0
  149.7746  141.9500  155.2326 N   0  0  0  0  0  0  0  0  0  0  0  0
  150.8044  141.4673  156.1403 C   0  0  0  0  0  0  0  0  0  0  0  0
  151.1136  142.4904  157.2383 C   0  0  0  0  0  0  0  0  0  0  0  0
  151.7717  141.8381  158.3118 O   0  0  0  0  0  0  0  0  0  0  0  0
  152.3279  142.7472  159.2471 C   0  0  0  0  0  0  0  0  0  0  0  0
  152.6168  142.0039  160.5590 C   0  0  2  0  0  0  0  0  0  0  0  0
  152.7486  142.9109  161.7653 C   0  0  0  0  0  0  0  0  0  0  0  0
  153.4827  142.0110  162.7541 C   0  0  0  0  0  0  0  0  0  0  0  0
  154.3195  141.1709  161.9645 O   0  0  0  0  0  0  0  0  0  0  0  0
  153.9631  141.2791  160.5889 C   0  0  0  0  0  0  0  0  0  0  0  0
  149.0820  139.8170  154.5814 N   0  0  0  0  0  0  0  0  0  0  0  0
  148.1675  139.0450  153.9549 C   0  0  0  0  0  0  0  0  0  0  0  0
  146.2911  138.9833  152.8440 H   0  0  0  0  0  0  0  0  0  0  0  0
  146.0449  141.5059  152.9877 H   0  0  0  0  0  0  0  0  0  0  0  0
  149.7520  142.9352  155.0131 H   0  0  0  0  0  0  0  0  0  0  0  0
  150.4529  140.5420  156.5981 H   0  0  0  0  0  0  0  0  0  0  0  0
  151.7084  141.2260  155.5801 H   0  0  0  0  0  0  0  0  0  0  0  0
  151.7232  143.3049  156.8434 H   0  0  0  0  0  0  0  0  0  0  0  0
  150.1812  142.9265  157.5997 H   0  0  0  0  0  0  0  0  0  0  0  0
  153.2434  143.1875  158.8481 H   0  0  0  0  0  0  0  0  0  0  0  0
  151.6259  143.5620  159.4311 H   0  0  0  0  0  0  0  0  0  0  0  0
  151.8207  141.2828  160.7523 H   0  0  0  0  0  0  0  0  0  0  0  0
  153.3629  143.7798  161.5243 H   0  0  0  0  0  0  0  0  0  0  0  0
  151.7892  143.2641  162.1447 H   0  0  0  0  0  0  0  0  0  0  0  0
  154.0604  142.5775  163.4848 H   0  0  0  0  0  0  0  0  0  0  0  0
  152.7735  141.3836  163.2955 H   0  0  0  0  0  0  0  0  0  0  0  0
  153.9184  140.2999  160.1117 H   0  0  0  0  0  0  0  0  0  0  0  0
  154.7309  141.8655  160.0821 H   0  0  0  0  0  0  0  0  0  0  0  0
  148.3491  137.9806  153.9400 H   0  0  0  0  0  0  0  0  0  0  0  0
  1 16  1  0  0  0  0
  1  2  2  0  0  0  0
  1 17  1  0  0  0  0
  2  3  1  0  0  0  0
  2 18  1  0  0  0  0
  3  4  2  0  0  0  0
  4  5  1  0  0  0  0
  4 15  1  0  0  0  0
  5  6  1  0  0  0  0
  5 19  1  0  0  0  0
  6  7  1  0  0  0  0
  6 20  1  0  0  0  0
  6 21  1  0  0  0  0
  7  8  1  0  0  0  0
  7 22  1  0  0  0  0
  7 23  1  0  0  0  0
  8  9  1  0  0  0  0
  9 10  1  0  0  0  0
  9 24  1  0  0  0  0
  9 25  1  0  0  0  0
 10 14  1  0  0  0  0
 10 11  1  0  0  0  0
 10 26  1  0  0  0  0
 11 12  1  0  0  0  0
 11 27  1  0  0  0  0
 11 28  1  0  0  0  0
 12 13  1  0  0  0  0
 12 29  1  0  0  0  0
 12 30  1  0  0  0  0
 13 14  1  0  0  0  0
 14 31  1  0  0  0  0
 14 32  1  0  0  0  0
 15 16  2  0  0  0  0
 16 33  1  0  0  0  0
M  END
> <s_m_source_file>
AV-unprocessed.smi

> <i_m_source_file_index>
3197

> <i_lp_mmshare_version>
43012

> <i_f3d_flags>
0

> <s_epik_input>
bjFbY0hdW2NIXVtjSF1uYzFbTkhdW0NIMl1bQ0gyXU9bQ0gyXVtDQEBIXTJbQ0gyXVtDSDJdT1tDSDJdMg==

> <s_epik_cmdline>
J2VwaWtfcHl0aG9uJywgJy1waCcsICc3LjAnLCAnLXRuJywgJzgnLCAnLW1hJywgJzIwMCcsICctbWV0YWxfYmluZGluZycsICctaW1hZScsICc8aW5maWxlLm1hZT4nLCAnLW9tYWUnLCAnPG91dGZpbGUubWFlPic=

> <r_lp_tautomer_probability>
1

> <r_epik_Ionization_Penalty>
0.000570263

> <r_epik_Ionization_Penalty_Charging>
0

> <r_epik_Ionization_Penalty_Neutral>
0.000570263

> <r_epik_State_Penalty>
0.000357543

> <r_epik_Charging_Adjusted_Penalty>
0.000357543

> <i_epik_Tot_Q>
0

> <i_epik_Tot_abs_Q>
0

> <r_epik_Metal_State_Penalty>
-0

> <b_epik_Metal_Only>
0

> <s_lp_Force_Field>
OPLS_2005

> <r_lp_Energy>
12.4723

> <b_lp_Chiralities_Consistent>
1

> <s_lp_Variant>
AV-unprocessed.smi:3197-1

> <Gold.Version>
5.8.1

> <Gold.Id.Protein>
6NUR|6NUR_protein|mol2

> <Gold.PLP.Fitness>
44.3272

> <Gold.PLP.PLP>
-36.5830

> <Gold.PLP.part.hbond>
-2.0000

> <Gold.PLP.part.metal>
0.0000

> <Gold.PLP.part.buried>
-3.5964

> <Gold.PLP.part.nonpolar>
-31.4528

> <Gold.PLP.part.repulsive>
0.4774

> <Gold.PLP.ligand.clash>
0.0000

> <Gold.PLP.ligand.torsion>
0.6532

> <Gold.PLP.Chemscore.Hbond>
1.0000

> <Gold.PLP.Chemscore.CHOScore>
1.9894

> <Gold.PLP.Chemscore.Metal>
0.0000

> <Gold.Chemscore.Hbonds>
donor molecule, donor type, donor heavy atom, donor atom, acceptor molecule, acceptor atom, score
      L1  H     5    19       P1  8028  0.73
      L1  C     2    18       P1 10175  0.48
      L1  C    16    33       P1  7948  0.40

> <Gold.PLP.Chemscore.Internal.Correction>
0.0825

> <Gold.Rescore>
     Score         DG    S(hbond)    S(metal)    S(lipo)     H(rot)  DE(clash)    DE(int)     intcor
     13.24     -13.90       0.95        0.00      85.94       1.88       0.01       0.65       ----

> <Gold.Chemscore.Fitness>
13.2446

> <Gold.Chemscore.DG>
-13.9004

> <Gold.Chemscore.ZeroCoef>
-5.4800

> <Gold.Chemscore.Hbond>
0.9505

> <Gold.Chemscore.Metal>
0.0000

> <Gold.Chemscore.Lipo>
85.9370

> <Gold.Chemscore.Internal_Hbond>
0.0000

> <Gold.Chemscore.DEClash>
0.0068

> <Gold.Chemscore.DEInternal>
0.6490

> <Gold.Chemscore.Rot>
1.8784

> <Gold.Chemscore.Internal.Correction>
   9.000000E+99

> <Gold.Chemscore.Hbonds>
donor molecule, donor type, donor heavy atom, donor atom, acceptor molecule, acceptor atom, score
      L1  H     5    19       P1  8028  0.71

> <Gold.Chemscore.Hbond.Weighted>
-3.1745

> <Gold.Chemscore.Metal.Weighted>
-0.0000

> <Gold.Chemscore.Lipo.Weighted>
-10.0546

> <Gold.Chemscore.Internal_Hbond.Weighted>
0.0000

> <Gold.Chemscore.DEClash.Weighted>
0.0068

> <Gold.Chemscore.DEInternal.Weighted>
0.6490

> <Gold.Chemscore.Rot.Weighted>
4.8087

> <Gold.Chemscore.Internal.Correction.Weighted>
   9.000000E+99

> <Gold.Protein.RotatedTorsions>
[ 6907 6896 6895 6894 ] final   40.36 input  -60.11 | X-H torsion
[ 7974 7965 7964 7962 ] final    6.96 input  175.53 | X-H torsion
[ 8008 7997 7996 7995 ] final  178.72 input   59.86 | X-H torsion
[ 10167 10162 10161 10158 ] final  134.72 input  -65.29 | X-H torsion
[ 10718 10713 10712 10709 ] final   87.59 input   66.30 | X-H torsion
[ 10763 10752 10751 10750 ] final  123.56 input  -60.55 | X-H torsion
[ 11005 11000 10999 10996 ] final   20.14 input  -57.11 | X-H torsion

> <Gold.Protein.ActiveResidues>
 VAL166  LYS551  ARG553  GLY616  TRP617  ASP618  TYR619  PRO620  LYS621  CYS622 
 ASP623  PHE694  ASN695  SER759  ASP760  ASP761  ALA762  ILE779  LEU786  VAL792 
 PHE793  MET794  SER795  GLU796  ALA797  LYS798  CYS799  TRP800  GLU811  SER814 

> <Gold.Protein.RotatedAtoms>
  152.1815  134.8750  160.0525 H   0  0  0  0  0  0  0  0  0  0  0  0  # atno 6907 bound_to 6896
  151.9672  133.3709  159.4066 H   0  0  0  0  0  0  0  0  0  0  0  0  # atno 6908 bound_to 6896
  150.6918  134.4101  159.5202 H   0  0  0  0  0  0  0  0  0  0  0  0  # atno 6909 bound_to 6896
  146.2430  140.0154  142.8403 H   0  0  0  0  0  0  0  0  0  0  0  0  # atno 7974 bound_to 7965
  156.0515  140.1326  157.0045 H   0  0  0  0  0  0  0  0  0  0  0  0  # atno 8008 bound_to 7997
  154.4437  140.1010  156.6454 H   0  0  0  0  0  0  0  0  0  0  0  0  # atno 8009 bound_to 7997
  155.5516  140.3463  155.4472 H   0  0  0  0  0  0  0  0  0  0  0  0  # atno 8010 bound_to 7997
  139.5245  144.6553  151.5180 H   0  0  0  0  0  0  0  0  0  0  0  0  # atno 10167 bound_to 10162
  157.6941  131.0261  150.3146 H   0  0  0  0  0  0  0  0  0  0  0  0  # atno 10718 bound_to 10713
  153.6475  135.3368  155.3090 H   0  0  0  0  0  0  0  0  0  0  0  0  # atno 10763 bound_to 10752
  154.8545  135.4333  154.1940 H   0  0  0  0  0  0  0  0  0  0  0  0  # atno 10764 bound_to 10752
  153.2874  135.7014  153.7401 H   0  0  0  0  0  0  0  0  0  0  0  0  # atno 10765 bound_to 10752
  140.4059  134.1669  155.7665 H   0  0  0  0  0  0  0  0  0  0  0  0  # atno 11005 bound_to 11000
  145.1289  140.9506  143.4556 LP  0  0  0  0  0  0  0  0  0  0  0  0  # atno 17320 bound_to 7965
  145.0407  139.3262  143.5978 LP  0  0  0  0  0  0  0  0  0  0  0  0  # atno 17321 bound_to 7965
  140.6376  143.8953  150.6662 LP  0  0  0  0  0  0  0  0  0  0  0  0  # atno 17342 bound_to 10162
  140.2277  143.3760  152.1591 LP  0  0  0  0  0  0  0  0  0  0  0  0  # atno 17343 bound_to 10162
  156.3642  130.3852  149.7227 LP  0  0  0  0  0  0  0  0  0  0  0  0  # atno 17370 bound_to 10713
  156.4663  130.7975  151.2994 LP  0  0  0  0  0  0  0  0  0  0  0  0  # atno 17371 bound_to 10713
  141.1839  133.8355  157.1158 LP  0  0  0  0  0  0  0  0  0  0  0  0  # atno 17394 bound_to 11000
  140.0302  134.9905  157.0765 LP  0  0  0  0  0  0  0  0  0  0  0  0  # atno 17395 bound_to 11000

$$$$
