AV-unprocessed.smi:398|AV-procd|sdf|2489|dock9
  -GOLD-   2262022433D 1   1.00000     0.00000
 Structure written by MMmdl.
 34 36  0  0  0  0  0  0  0  0  1 V2000
  155.2758  140.6075  161.4081 N   0  0  0  0  0  0  0  0  0  0  0  0
  154.3901  140.9059  160.7256 C   0  0  0  0  0  0  0  0  0  0  0  0
  153.2960  141.2983  159.9004 C   0  0  0  0  0  0  0  0  0  0  0  0
  152.8691  142.5768  159.8453 C   0  0  0  0  0  0  0  0  0  0  0  0
  151.8193  142.9738  159.0458 N   0  0  0  0  0  0  0  0  0  0  0  0
  151.2792  144.3020  159.1210 C   0  0  0  0  0  0  0  0  0  0  0  0
  152.1143  145.4884  158.6799 C   0  0  0  0  0  0  0  0  0  0  0  0
  151.8348  145.2670  160.1460 C   0  0  0  0  0  0  0  0  0  0  0  0
  151.0918  142.0184  158.3031 C   0  0  0  0  0  0  0  0  0  0  0  0
  150.0892  142.3392  157.6600 O   0  0  0  0  0  0  0  0  0  0  0  0
  151.5415  140.6759  158.3299 N   0  0  0  0  0  0  0  0  0  0  0  0
  150.8022  139.6626  157.5451 C   0  0  0  0  0  0  0  0  0  0  0  0
  150.7475  139.9702  156.0403 C   0  0  0  0  0  0  0  0  0  0  0  0
  151.7736  139.9869  155.3582 O   0  0  0  0  0  0  0  0  0  0  0  0
  149.5266  140.2074  155.5394 N   0  0  0  0  0  0  0  0  0  0  0  0
  149.2350  140.5154  154.1766 C   0  0  0  0  0  0  0  0  0  0  0  0
  148.2475  141.6295  153.9049 C   0  0  0  0  0  0  0  0  0  0  0  0
  147.8455  140.2004  153.6658 C   0  0  0  0  0  0  0  0  0  0  0  0
  152.6448  140.2529  159.1145 C   0  0  0  0  0  0  0  0  0  0  0  0
  153.0011  139.0733  159.1246 O   0  0  0  0  0  0  0  0  0  0  0  0
  153.3715  143.3214  160.4462 H   0  0  0  0  0  0  0  0  0  0  0  0
  150.2102  144.3791  158.9307 H   0  0  0  0  0  0  0  0  0  0  0  0
  153.1302  145.3040  158.3355 H   0  0  0  0  0  0  0  0  0  0  0  0
  151.5975  146.3090  158.1864 H   0  0  0  0  0  0  0  0  0  0  0  0
  151.1328  145.9425  160.6305 H   0  0  0  0  0  0  0  0  0  0  0  0
  152.6655  144.9358  160.7662 H   0  0  0  0  0  0  0  0  0  0  0  0
  151.2361  138.6700  157.6757 H   0  0  0  0  0  0  0  0  0  0  0  0
  149.7821  139.5552  157.9183 H   0  0  0  0  0  0  0  0  0  0  0  0
  148.7417  140.1698  156.1734 H   0  0  0  0  0  0  0  0  0  0  0  0
  150.0442  140.4081  153.4553 H   0  0  0  0  0  0  0  0  0  0  0  0
  147.8046  142.1385  154.7590 H   0  0  0  0  0  0  0  0  0  0  0  0
  148.4241  142.2545  153.0317 H   0  0  0  0  0  0  0  0  0  0  0  0
  147.7541  139.8711  152.6327 H   0  0  0  0  0  0  0  0  0  0  0  0
  147.1349  139.7563  154.3605 H   0  0  0  0  0  0  0  0  0  0  0  0
  1  2  3  0  0  0  0
  2  3  1  0  0  0  0
  3 19  1  0  0  0  0
  3  4  2  0  0  0  0
  4  5  1  0  0  0  0
  4 21  1  0  0  0  0
  5  6  1  0  0  0  0
  5  9  1  0  0  0  0
  6  8  1  0  0  0  0
  6  7  1  0  0  0  0
  6 22  1  0  0  0  0
  7  8  1  0  0  0  0
  7 23  1  0  0  0  0
  7 24  1  0  0  0  0
  8 25  1  0  0  0  0
  8 26  1  0  0  0  0
  9 10  2  0  0  0  0
  9 11  1  0  0  0  0
 11 12  1  0  0  0  0
 11 19  1  0  0  0  0
 12 13  1  0  0  0  0
 12 27  1  0  0  0  0
 12 28  1  0  0  0  0
 13 14  2  0  0  0  0
 13 15  1  0  0  0  0
 15 16  1  0  0  0  0
 15 29  1  0  0  0  0
 16 18  1  0  0  0  0
 16 17  1  0  0  0  0
 16 30  1  0  0  0  0
 17 18  1  0  0  0  0
 17 31  1  0  0  0  0
 17 32  1  0  0  0  0
 18 33  1  0  0  0  0
 18 34  1  0  0  0  0
 19 20  2  0  0  0  0
M  END
> <s_m_source_file>
AV-unprocessed.smi

> <i_m_source_file_index>
398

> <i_lp_mmshare_version>
43012

> <i_f3d_flags>
0

> <s_epik_input>
TiNDYzFbY0hdbihbQ0hdMltDSDJdW0NIMl0yKWMoPU8pbihjMT1PKVtDSDJdQyg9TylbTkhdW0NIXTNbQ0gyXVtDSDJdMw==

> <s_epik_cmdline>
J2VwaWtfcHl0aG9uJywgJy1waCcsICc3LjAnLCAnLXRuJywgJzgnLCAnLW1hJywgJzIwMCcsICctbWV0YWxfYmluZGluZycsICctaW1hZScsICc8aW5maWxlLm1hZT4nLCAnLW9tYWUnLCAnPG91dGZpbGUubWFlPic=

> <r_lp_tautomer_probability>
1

> <r_epik_Ionization_Penalty>
2.07526e-08

> <r_epik_Ionization_Penalty_Charging>
8.22213e-11

> <r_epik_Ionization_Penalty_Neutral>
2.06703e-08

> <r_epik_State_Penalty>
-0

> <r_epik_Charging_Adjusted_Penalty>
8.22213e-11

> <i_epik_Tot_Q>
0

> <i_epik_Tot_abs_Q>
0

> <r_epik_Metal_State_Penalty>
-0

> <b_epik_Metal_Only>
0

> <s_lp_Force_Field>
OPLS_2005

> <r_lp_Energy>
41.1586

> <b_lp_Chiralities_Consistent>
1

> <s_lp_Variant>
AV-unprocessed.smi:398-1

> <Gold.Version>
5.8.1

> <Gold.Id.Protein>
6NUR|6NUR_protein|mol2

> <Gold.PLP.Fitness>
46.6754

> <Gold.PLP.PLP>
-44.3359

> <Gold.PLP.part.hbond>
-1.5992

> <Gold.PLP.part.metal>
0.0000

> <Gold.PLP.part.buried>
-5.4473

> <Gold.PLP.part.nonpolar>
-37.1394

> <Gold.PLP.part.repulsive>
0.2244

> <Gold.PLP.ligand.clash>
0.0000

> <Gold.PLP.ligand.torsion>
0.4246

> <Gold.PLP.Chemscore.Hbond>
0.9760

> <Gold.PLP.Chemscore.CHOScore>
0.0000

> <Gold.PLP.Chemscore.Metal>
0.0000

> <Gold.Chemscore.Hbonds>
donor molecule, donor type, donor heavy atom, donor atom, acceptor molecule, acceptor atom, score
      P1  H  7989  7998       L1    14  0.87

> <Gold.PLP.Chemscore.Internal.Correction>
0.2607

> <Gold.Rescore>
     Score         DG    S(hbond)    S(metal)    S(lipo)     H(rot)  DE(clash)    DE(int)     intcor
     13.14     -13.54       0.98        0.00      81.72       1.87       0.03       0.37       ----

> <Gold.Chemscore.Fitness>
13.1428

> <Gold.Chemscore.DG>
-13.5403

> <Gold.Chemscore.ZeroCoef>
-5.4800

> <Gold.Chemscore.Hbond>
0.9804

> <Gold.Chemscore.Metal>
0.0000

> <Gold.Chemscore.Lipo>
81.7196

> <Gold.Chemscore.Internal_Hbond>
0.0000

> <Gold.Chemscore.DEClash>
0.0295

> <Gold.Chemscore.DEInternal>
0.3680

> <Gold.Chemscore.Rot>
1.8654

> <Gold.Chemscore.Internal.Correction>
   9.000000E+99

> <Gold.Chemscore.Hbonds>
donor molecule, donor type, donor heavy atom, donor atom, acceptor molecule, acceptor atom, score
      P1  H  7989  7998       L1    14  0.76

> <Gold.Chemscore.Hbond.Weighted>
-3.2746

> <Gold.Chemscore.Metal.Weighted>
-0.0000

> <Gold.Chemscore.Lipo.Weighted>
-9.5612

> <Gold.Chemscore.Internal_Hbond.Weighted>
0.0000

> <Gold.Chemscore.DEClash.Weighted>
0.0295

> <Gold.Chemscore.DEInternal.Weighted>
0.3680

> <Gold.Chemscore.Rot.Weighted>
4.7755

> <Gold.Chemscore.Internal.Correction.Weighted>
   9.000000E+99

> <Gold.Protein.RotatedTorsions>
[ 6907 6896 6895 6894 ] final -158.23 input  -60.11 | X-H torsion
[ 7974 7965 7964 7962 ] final   82.15 input  175.53 | X-H torsion
[ 8008 7997 7996 7995 ] final   70.88 input   59.86 | X-H torsion
[ 10167 10162 10161 10158 ] final   27.64 input  -65.29 | X-H torsion
[ 10718 10713 10712 10709 ] final  -65.66 input   66.30 | X-H torsion
[ 10763 10752 10751 10750 ] final -119.39 input  -60.55 | X-H torsion
[ 11005 11000 10999 10996 ] final -114.94 input  -57.11 | X-H torsion

> <Gold.Protein.ActiveResidues>
 VAL166  LYS551  ARG553  GLY616  TRP617  ASP618  TYR619  PRO620  LYS621  CYS622 
 ASP623  PHE694  ASN695  SER759  ASP760  ASP761  ALA762  ILE779  LEU786  VAL792 
 PHE793  MET794  SER795  GLU796  ALA797  LYS798  CYS799  TRP800  GLU811  SER814 

> <Gold.Protein.RotatedAtoms>
  151.3149  133.4064  159.2649 H   0  0  0  0  0  0  0  0  0  0  0  0  # atno 6907 bound_to 6896
  151.0083  134.9377  159.8003 H   0  0  0  0  0  0  0  0  0  0  0  0  # atno 6908 bound_to 6896
  152.5294  134.3114  159.9167 H   0  0  0  0  0  0  0  0  0  0  0  0  # atno 6909 bound_to 6896
  145.6288  139.2400  143.2096 H   0  0  0  0  0  0  0  0  0  0  0  0  # atno 7974 bound_to 7965
  155.7455  140.3489  155.5125 H   0  0  0  0  0  0  0  0  0  0  0  0  # atno 8008 bound_to 7997
  155.9053  140.1041  157.1341 H   0  0  0  0  0  0  0  0  0  0  0  0  # atno 8009 bound_to 7997
  154.4049  140.1278  156.4475 H   0  0  0  0  0  0  0  0  0  0  0  0  # atno 8010 bound_to 7997
  140.4921  144.0450  150.6301 H   0  0  0  0  0  0  0  0  0  0  0  0  # atno 10167 bound_to 10162
  156.0656  130.4250  150.1597 H   0  0  0  0  0  0  0  0  0  0  0  0  # atno 10718 bound_to 10713
  154.8615  135.4240  154.2291 H   0  0  0  0  0  0  0  0  0  0  0  0  # atno 10763 bound_to 10752
  153.3279  135.6986  153.6979 H   0  0  0  0  0  0  0  0  0  0  0  0  # atno 10764 bound_to 10752
  153.6007  135.3537  155.2918 H   0  0  0  0  0  0  0  0  0  0  0  0  # atno 10765 bound_to 10752
  141.0519  133.9673  157.2821 H   0  0  0  0  0  0  0  0  0  0  0  0  # atno 11005 bound_to 11000
  146.1373  140.7106  142.9384 LP  0  0  0  0  0  0  0  0  0  0  0  0  # atno 17320 bound_to 7965
  144.7201  140.4346  143.7014 LP  0  0  0  0  0  0  0  0  0  0  0  0  # atno 17321 bound_to 7965
  140.3722  143.2848  152.0265 LP  0  0  0  0  0  0  0  0  0  0  0  0  # atno 17342 bound_to 10162
  139.4853  144.6221  151.7236 LP  0  0  0  0  0  0  0  0  0  0  0  0  # atno 17343 bound_to 10162
  156.9657  130.9819  151.3469 LP  0  0  0  0  0  0  0  0  0  0  0  0  # atno 17370 bound_to 10713
  157.5696  130.8301  149.8373 LP  0  0  0  0  0  0  0  0  0  0  0  0  # atno 17371 bound_to 10713
  139.9358  135.0196  156.8550 LP  0  0  0  0  0  0  0  0  0  0  0  0  # atno 17394 bound_to 11000
  140.6038  134.0147  155.7548 LP  0  0  0  0  0  0  0  0  0  0  0  0  # atno 17395 bound_to 11000

$$$$
