AV-unprocessed.smi:618|AV-procd|sdf|3075|dock1
  -GOLD-   2262023593D 1   1.00000     0.00000
 Structure written by MMmdl.
 41 43  0  0  0  0  0  0  0  0  2 V2000
  144.4680  136.5595  151.7865 O   0  0  0  0  0  0  0  0  0  0  0  0
  145.6712  136.3085  151.8478 C   0  0  0  0  0  0  0  0  0  0  0  0
  146.6057  137.2409  152.0808 N   0  0  0  0  0  0  0  0  0  0  0  0
  146.3303  138.6567  152.3022 C   0  0  0  0  0  0  0  0  0  0  0  0
  147.3635  139.3035  153.2524 C   0  0  1  0  0  0  0  0  0  0  0  0
  147.3877  140.8486  153.1567 C   0  0  0  0  0  0  0  0  0  0  0  0
  146.2097  141.3959  153.8547 N   0  3  2  0  0  0  0  0  0  0  0  0
  146.0370  142.8589  153.8819 C   0  0  0  0  0  0  0  0  0  0  0  0
  145.1674  143.1327  155.1252 C   0  0  0  0  0  0  0  0  0  0  0  0
  145.0221  141.7772  155.8393 C   0  0  0  0  0  0  0  0  0  0  0  0
  146.1612  140.9521  155.2490 C   0  0  1  0  0  0  0  0  0  0  0  0
  146.0376  139.4247  155.2839 C   0  0  0  0  0  0  0  0  0  0  0  0
  147.1739  138.8751  154.6106 O   0  0  0  0  0  0  0  0  0  0  0  0
  146.2227  135.0956  151.6719 N   0  0  0  0  0  0  0  0  0  0  0  0
  145.5680  133.8577  151.4299 C   0  0  0  0  0  0  0  0  0  0  0  0
  144.1580  133.8439  151.4216 C   0  0  0  0  0  0  0  0  0  0  0  0
  143.4850  132.6340  151.1664 C   0  0  0  0  0  0  0  0  0  0  0  0
  144.2530  131.4799  150.9181 C   0  0  0  0  0  0  0  0  0  0  0  0
  145.6025  131.4779  150.9061 N   0  0  0  0  0  0  0  0  0  0  0  0
  146.2416  132.6417  151.1536 C   0  0  0  0  0  0  0  0  0  0  0  0
  147.5725  136.9514  152.1098 H   0  0  0  0  0  0  0  0  0  0  0  0
  146.3269  139.1778  151.3433 H   0  0  0  0  0  0  0  0  0  0  0  0
  145.3187  138.7529  152.6951 H   0  0  0  0  0  0  0  0  0  0  0  0
  148.3511  138.9502  152.9544 H   0  0  0  0  0  0  0  0  0  0  0  0
  148.2960  141.2372  153.6198 H   0  0  0  0  0  0  0  0  0  0  0  0
  147.3939  141.1756  152.1165 H   0  0  0  0  0  0  0  0  0  0  0  0
  147.0064  143.3484  153.9871 H   0  0  0  0  0  0  0  0  0  0  0  0
  145.5748  143.2142  152.9604 H   0  0  0  0  0  0  0  0  0  0  0  0
  145.6574  143.8610  155.7725 H   0  0  0  0  0  0  0  0  0  0  0  0
  144.1917  143.5379  154.8546 H   0  0  0  0  0  0  0  0  0  0  0  0
  145.0810  141.8614  156.9250 H   0  0  0  0  0  0  0  0  0  0  0  0
  144.0604  141.3276  155.5876 H   0  0  0  0  0  0  0  0  0  0  0  0
  147.0904  141.2463  155.7423 H   0  0  0  0  0  0  0  0  0  0  0  0
  146.0290  139.0677  156.3138 H   0  0  0  0  0  0  0  0  0  0  0  0
  145.1093  139.0870  154.8227 H   0  0  0  0  0  0  0  0  0  0  0  0
  147.2315  135.0612  151.6604 H   0  0  0  0  0  0  0  0  0  0  0  0
  143.5962  134.7466  151.6130 H   0  0  0  0  0  0  0  0  0  0  0  0
  142.4059  132.5915  151.1606 H   0  0  0  0  0  0  0  0  0  0  0  0
  143.7710  130.5343  150.7185 H   0  0  0  0  0  0  0  0  0  0  0  0
  147.3177  132.5829  151.1037 H   0  0  0  0  0  0  0  0  0  0  0  0
  145.3877  141.0190  153.4049 H   0  0  0  0  0  0  0  0  0  0  0  0
  1  2  2  0  0  0  0
  2  3  1  0  0  0  0
  2 14  1  0  0  0  0
  3  4  1  0  0  0  0
  3 21  1  0  0  0  0
  4  5  1  0  0  0  0
  4 22  1  0  0  0  0
  4 23  1  0  0  0  0
  5 13  1  0  0  0  0
  5  6  1  0  0  0  0
  5 24  1  0  0  0  0
  6  7  1  0  0  0  0
  6 25  1  0  0  0  0
  6 26  1  0  0  0  0
  7 11  1  0  0  0  0
  7  8  1  0  0  0  0
  7 41  1  0  0  0  0
  8  9  1  0  0  0  0
  8 27  1  0  0  0  0
  8 28  1  0  0  0  0
  9 10  1  0  0  0  0
  9 29  1  0  0  0  0
  9 30  1  0  0  0  0
 10 11  1  0  0  0  0
 10 31  1  0  0  0  0
 10 32  1  0  0  0  0
 11 12  1  0  0  0  0
 11 33  1  0  0  0  0
 12 13  1  0  0  0  0
 12 34  1  0  0  0  0
 12 35  1  0  0  0  0
 14 15  1  0  0  0  0
 14 36  1  0  0  0  0
 15 20  1  0  0  0  0
 15 16  2  0  0  0  0
 16 17  1  0  0  0  0
 16 37  1  0  0  0  0
 17 18  2  0  0  0  0
 17 38  1  0  0  0  0
 18 19  1  0  0  0  0
 18 39  1  0  0  0  0
 19 20  2  0  0  0  0
 20 40  1  0  0  0  0
M  CHG  1   7   1
M  END
> <s_m_source_file>
AV-unprocessed.smi

> <i_m_source_file_index>
618

> <i_lp_mmshare_version>
43012

> <i_f3d_flags>
0

> <s_epik_input>
W2NIXTFuW2NIXVtjSF1bY0hdYzFbTkhdQyg9TylbTkhdW0NIMl1bQ0BIXShbQ0gyXTIpT1tDSDJdW0NAQEhdKE4yMylbQ0gyXVtDSDJdW0NIMl0z

> <s_epik_cmdline>
J2VwaWtfcHl0aG9uJywgJy1waCcsICc3LjAnLCAnLXRuJywgJzgnLCAnLW1hJywgJzIwMCcsICctbWV0YWxfYmluZGluZycsICctaW1hZScsICc8aW5maWxlLm1hZT4nLCAnLW9tYWUnLCAnPG91dGZpbGUubWFlPic=

> <r_epik_Ionization_Penalty>
0.111044

> <r_epik_Ionization_Penalty_Charging>
0.10673

> <r_epik_Ionization_Penalty_Neutral>
0.00431361

> <r_epik_State_Penalty>
0.0978747

> <r_epik_Charging_Adjusted_Penalty>
0.204605

> <i_epik_Tot_Q>
1

> <i_epik_Tot_abs_Q>
1

> <r_epik_Metal_State_Penalty>
0.0947591

> <b_epik_Metal_Only>
0

> <s_lp_Force_Field>
OPLS_2005

> <r_lp_Energy>
41.905

> <b_lp_Chiralities_Consistent>
1

> <s_lp_Variant>
AV-unprocessed.smi:618-2

> <Gold.Version>
5.8.1

> <Gold.Id.Protein>
6NUR|6NUR_protein|mol2

> <Gold.PLP.Fitness>
47.3475

> <Gold.PLP.PLP>
-33.2659

> <Gold.PLP.part.hbond>
-3.0000

> <Gold.PLP.part.metal>
0.0000

> <Gold.PLP.part.buried>
-5.0363

> <Gold.PLP.part.nonpolar>
-27.8496

> <Gold.PLP.part.repulsive>
2.3055

> <Gold.PLP.ligand.clash>
0.0000

> <Gold.PLP.ligand.torsion>
0.3094

> <Gold.PLP.Chemscore.Hbond>
3.8960

> <Gold.PLP.Chemscore.CHOScore>
1.0000

> <Gold.PLP.Chemscore.Metal>
0.0000

> <Gold.Chemscore.Hbonds>
donor molecule, donor type, donor heavy atom, donor atom, acceptor molecule, acceptor atom, score
      L1  H     3    21       P1  7948  1.00
      L1  H     7    41       P1 10175  2.00
      L1  H    14    36       P1  7948  0.86
      L1  C    20    40       P1 10747  1.00

> <Gold.PLP.Chemscore.Internal.Correction>
0.0124

> <Gold.Rescore>
     Score         DG    S(hbond)    S(metal)    S(lipo)     H(rot)  DE(clash)    DE(int)     intcor
     16.12     -19.33       2.53        0.00      73.86       1.27       1.47       1.73       ----

> <Gold.Chemscore.Fitness>
16.1201

> <Gold.Chemscore.DG>
-19.3271

> <Gold.Chemscore.ZeroCoef>
-5.4800

> <Gold.Chemscore.Hbond>
2.5285

> <Gold.Chemscore.Metal>
0.0000

> <Gold.Chemscore.Lipo>
73.8621

> <Gold.Chemscore.Internal_Hbond>
0.0000

> <Gold.Chemscore.DEClash>
1.4722

> <Gold.Chemscore.DEInternal>
1.7348

> <Gold.Chemscore.Rot>
1.2656

> <Gold.Chemscore.Internal.Correction>
   9.000000E+99

> <Gold.Chemscore.Hbonds>
donor molecule, donor type, donor heavy atom, donor atom, acceptor molecule, acceptor atom, score
      L1  H     3    21       P1  7948  0.96
      L1  H     7    41       P1 10175  0.53
      L1  H    14    36       P1  7948  0.71

> <Gold.Chemscore.Hbond.Weighted>
-8.4451

> <Gold.Chemscore.Metal.Weighted>
-0.0000

> <Gold.Chemscore.Lipo.Weighted>
-8.6419

> <Gold.Chemscore.Internal_Hbond.Weighted>
0.0000

> <Gold.Chemscore.DEClash.Weighted>
1.4722

> <Gold.Chemscore.DEInternal.Weighted>
1.7348

> <Gold.Chemscore.Rot.Weighted>
3.2399

> <Gold.Chemscore.Internal.Correction.Weighted>
   9.000000E+99

> <Gold.Protein.RotatedTorsions>
[ 6907 6896 6895 6894 ] final  -76.36 input  -60.11 | X-H torsion
[ 7974 7965 7964 7962 ] final  151.26 input  175.53 | X-H torsion
[ 8008 7997 7996 7995 ] final -111.38 input   59.86 | X-H torsion
[ 10167 10162 10161 10158 ] final   92.57 input  -65.29 | X-H torsion
[ 10718 10713 10712 10709 ] final -121.39 input   66.30 | X-H torsion
[ 10763 10752 10751 10750 ] final  168.13 input  -60.55 | X-H torsion
[ 11005 11000 10999 10996 ] final   39.21 input  -57.11 | X-H torsion

> <Gold.Protein.ActiveResidues>
 VAL166  LYS551  ARG553  GLY616  TRP617  ASP618  TYR619  PRO620  LYS621  CYS622 
 ASP623  PHE694  ASN695  SER759  ASP760  ASP761  ALA762  ILE779  LEU786  VAL792 
 PHE793  MET794  SER795  GLU796  ALA797  LYS798  CYS799  TRP800  GLU811  SER814 

> <Gold.Protein.RotatedAtoms>
  150.7030  134.4583  159.5368 H   0  0  0  0  0  0  0  0  0  0  0  0  # atno 6907 bound_to 6896
  152.2262  134.8363  160.0488 H   0  0  0  0  0  0  0  0  0  0  0  0  # atno 6908 bound_to 6896
  151.9195  133.3547  159.3929 H   0  0  0  0  0  0  0  0  0  0  0  0  # atno 6909 bound_to 6896
  144.8305  139.6514  143.6061 H   0  0  0  0  0  0  0  0  0  0  0  0  # atno 7974 bound_to 7965
  154.9889  140.0395  157.2311 H   0  0  0  0  0  0  0  0  0  0  0  0  # atno 8008 bound_to 7997
  154.7646  140.2791  155.6164 H   0  0  0  0  0  0  0  0  0  0  0  0  # atno 8009 bound_to 7997
  156.2910  140.2622  156.2433 H   0  0  0  0  0  0  0  0  0  0  0  0  # atno 8010 bound_to 7997
  139.8264  144.6707  150.9454 H   0  0  0  0  0  0  0  0  0  0  0  0  # atno 10167 bound_to 10162
  156.1333  130.6412  150.9656 H   0  0  0  0  0  0  0  0  0  0  0  0  # atno 10718 bound_to 10713
  154.3640  135.2753  155.2304 H   0  0  0  0  0  0  0  0  0  0  0  0  # atno 10763 bound_to 10752
  154.4480  135.5938  153.6176 H   0  0  0  0  0  0  0  0  0  0  0  0  # atno 10764 bound_to 10752
  152.9842  135.6035  154.3864 H   0  0  0  0  0  0  0  0  0  0  0  0  # atno 10765 bound_to 10752
  140.2050  134.3824  155.8077 H   0  0  0  0  0  0  0  0  0  0  0  0  # atno 11005 bound_to 11000
  146.2608  139.6407  142.9363 LP  0  0  0  0  0  0  0  0  0  0  0  0  # atno 17320 bound_to 7965
  145.4905  141.0438  143.2595 LP  0  0  0  0  0  0  0  0  0  0  0  0  # atno 17321 bound_to 7965
  140.7810  143.4042  151.1098 LP  0  0  0  0  0  0  0  0  0  0  0  0  # atno 17342 bound_to 10162
  139.7699  143.8510  152.3118 LP  0  0  0  0  0  0  0  0  0  0  0  0  # atno 17343 bound_to 10162
  157.6509  131.0897  150.8053 LP  0  0  0  0  0  0  0  0  0  0  0  0  # atno 17370 bound_to 10713
  156.8135  130.4960  149.5352 LP  0  0  0  0  0  0  0  0  0  0  0  0  # atno 17371 bound_to 10713
  141.2227  133.7113  156.8322 LP  0  0  0  0  0  0  0  0  0  0  0  0  # atno 17394 bound_to 11000
  140.2013  134.8895  157.3172 LP  0  0  0  0  0  0  0  0  0  0  0  0  # atno 17395 bound_to 11000

$$$$
