#       Name:                AV-unprocessed.smi:1475
#       Creating user name   scv26
#       Creation time:       Fri Mar 27 06:06:48 2020


#       File generated by GOLD software.
#

@<TRIPOS>MOLECULE
AV-unprocessed.smi:1475
    53    54     1
SMALL
NO_CHARGES


@<TRIPOS>ATOM
      1 ****        -4.8992  -1.9875   4.5133 C.3            1 S1                 0.0000
      2 ****        -4.7715  -0.9249   3.4623 C.2            1 S1                 0.0000
      3 ****        -5.0830   0.4593   3.5679 C.2            1 S1                 0.0000
      4 ****        -4.7857   0.9676   2.3351 C.2            1 S1                 0.0000
      5 ****        -4.8978   2.3642   1.8186 C.3            1 S1                 0.0000
      6 ****        -4.3252  -0.0870   1.5666 N.pl3          1 S1                 0.0000
      7 ****        -3.8659  -0.0857   0.1868 C.3            1 S1                 0.0000
      8 ****        -2.3667   0.2054   0.1087 C.2            1 S1                 0.0000
      9 ****        -1.9690   1.3621  -0.0285 O.2            1 S1                 0.0000
     10 ****        -1.5447  -0.8517   0.2023 N.am           1 S1                 0.0000
     11 ****        -0.0883  -0.7839   0.1971 C.3            1 S1                 0.0000
     12 ****         0.4668  -0.4862  -1.2104 C.3            1 S1                 0.0000
     13 ****         1.9514  -0.4763  -1.2520 N.4            1 S1                 1.0000
     14 ****         2.4693  -0.6767  -2.6305 C.3            1 S1                 0.0000
     15 ****         4.0046  -0.8089  -2.6445 C.3            1 S1                 0.0000
     16 ****         4.5371  -1.0236  -4.0685 C.3            1 S1                 0.0000
     17 ****         4.6503   0.4203  -1.9839 C.3            1 S1                 0.0000
     18 ****         4.0872   0.6342  -0.5694 C.3            1 S1                 0.0000
     19 ****         4.7056   1.8700   0.0995 C.3            1 S1                 0.0000
     20 ****         2.5499   0.7284  -0.6165 C.3            1 S1                 0.0000
     21 ****        -4.3174  -1.2459   2.2618 N.2            1 S1                 0.0000
     22 ****        -5.3214  -1.5820   5.4329 H              1 S1                 0.0000
     23 ****        -3.9276  -2.4180   4.7565 H              1 S1                 0.0000
     24 ****        -5.5499  -2.7958   4.1784 H              1 S1                 0.0000
     25 ****        -5.4673   0.9986   4.4211 H              1 S1                 0.0000
     26 ****        -5.2526   3.0391   2.5976 H              1 S1                 0.0000
     27 ****        -5.5995   2.4155   0.9861 H              1 S1                 0.0000
     28 ****        -3.9315   2.7315   1.4732 H              1 S1                 0.0000
     29 ****        -4.0895  -1.0510  -0.2705 H              1 S1                 0.0000
     30 ****        -4.4208   0.6653  -0.3765 H              1 S1                 0.0000
     31 ****        -1.9618  -1.7643   0.3214 H              1 S1                 0.0000
     32 ****         0.2263  -0.0328   0.9219 H              1 S1                 0.0000
     33 ****         0.2955  -1.7403   0.5533 H              1 S1                 0.0000
     34 ****         0.0937  -1.2566  -1.8868 H              1 S1                 0.0000
     35 ****         0.0903   0.4643  -1.5909 H              1 S1                 0.0000
     36 ****         2.0299  -1.5803  -3.0554 H              1 S1                 0.0000
     37 ****         2.1530   0.1556  -3.2617 H              1 S1                 0.0000
     38 ****         4.2731  -1.6890  -2.0579 H              1 S1                 0.0000
     39 ****         4.3085  -0.1726  -4.7109 H              1 S1                 0.0000
     40 ****         4.0972  -1.9115  -4.5234 H              1 S1                 0.0000
     41 ****         5.6193  -1.1574  -4.0670 H              1 S1                 0.0000
     42 ****         5.7326   0.2925  -1.9381 H              1 S1                 0.0000
     43 ****         4.4676   1.3070  -2.5930 H              1 S1                 0.0000
     44 ****         4.3534  -0.2335   0.0363 H              1 S1                 0.0000
     45 ****         4.4790   2.7793  -0.4581 H              1 S1                 0.0000
     46 ****         5.7904   1.7804   0.1626 H              1 S1                 0.0000
     47 ****         4.3272   1.9988   1.1140 H              1 S1                 0.0000
     48 ****         2.2412   1.6198  -1.1653 H              1 S1                 0.0000
     49 ****         2.1773   0.8422   0.4005 H              1 S1                 0.0000
     50 ****         2.2583  -1.2761  -0.7169 H              1 S1                 0.0000
     51 ****        -2.6266   2.1130  -0.0890 LP             1 S1                 0.0000
     52 ****        -0.9883   1.5509  -0.0794 LP             1 S1                 0.0000
     53 ****        -4.0312  -2.1483   1.9395 LP             1 S1                 0.0000
@<TRIPOS>BOND
    1    1    2 1     
    2    1   22 1     
    3    1   23 1     
    4    1   24 1     
    5    2   21 2     
    6    2    3 1     
    7    3    4 2     
    8    3   25 1     
    9    4    5 1     
   10    4    6 1     
   11    5   26 1     
   12    5   27 1     
   13    5   28 1     
   14    6    7 1     
   15    6   21 1     
   16    7    8 1     
   17    7   29 1     
   18    7   30 1     
   19    8    9 2     
   20    8   10 am    
   21   10   11 1     
   22   10   31 1     
   23   11   12 1     
   24   11   32 1     
   25   11   33 1     
   26   12   13 1     
   27   12   34 1     
   28   12   35 1     
   29   13   20 1     
   30   13   14 1     
   31   13   50 1     
   32   14   15 1     
   33   14   36 1     
   34   14   37 1     
   35   15   16 1     
   36   15   17 1     
   37   15   38 1     
   38   16   39 1     
   39   16   40 1     
   40   16   41 1     
   41   17   18 1     
   42   17   42 1     
   43   17   43 1     
   44   18   19 1     
   45   18   20 1     
   46   18   44 1     
   47   19   45 1     
   48   19   46 1     
   49   19   47 1     
   50   20   48 1     
   51   20   49 1     
   52    9   51 1     
   53    9   52 1     
   54   21   53 1     
@<TRIPOS>SUBSTRUCTURE
      1 S1             1
@<TRIPOS>SET
LONE_PAIRS      STATIC     ATOMS    <user>   **** ""
3 51 52 53
DONOR_HYDROGENS      STATIC     ATOMS    <user>   **** ""
2 31 50
ATOM$BLUE        STATIC     ATOMS    COLORGROUP SYSTEM
3 51 52 53
ATOM$RED        STATIC     ATOMS    COLORGROUP SYSTEM
2 31 50
