AV-unprocessed.smi:1357|AV-procd|sdf|5548|dock10
  -GOLD-   22720 5143D 1   1.00000     0.00000
 Structure written by MMmdl.
 43 44  0  0  0  0  0  0  0  0  1 V2000
  150.1257  138.3521  157.7398 C   0  0  0  0  0  0  0  0  0  0  0  0
  149.5430  138.8828  156.4133 C   0  0  0  0  0  0  0  0  0  0  0  0
  149.7783  137.8350  155.3063 C   0  0  0  0  0  0  0  0  0  0  0  0
  148.0210  139.0988  156.5874 C   0  0  0  0  0  0  0  0  0  0  0  0
  150.2886  140.1848  156.0309 C   0  0  0  0  0  0  0  0  0  0  0  0
  150.9407  140.2269  154.9865 O   0  0  0  0  0  0  0  0  0  0  0  0
  150.2027  141.2372  156.8627 N   0  0  0  0  0  0  0  0  0  0  0  0
  150.8832  142.5132  156.6807 C   0  0  0  0  0  0  0  0  0  0  0  0
  151.2688  143.1481  158.0034 C   0  0  0  0  0  0  0  0  0  0  0  0
  151.1439  144.5381  158.1999 C   0  0  0  0  0  0  0  0  0  0  0  0
  151.5378  145.0779  159.4392 C   0  0  0  0  0  0  0  0  0  0  0  0
  152.0291  144.3301  160.4502 N   0  0  0  0  0  0  0  0  0  0  0  0
  152.1502  142.9941  160.2606 C   0  0  0  0  0  0  0  0  0  0  0  0
  152.6499  142.2127  161.3123 N   0  0  0  0  0  0  0  0  0  0  0  0
  153.1051  143.0091  162.4449 C   0  0  0  0  0  0  0  0  0  0  0  0
  153.5142  142.0877  163.6072 C   0  0  0  0  0  0  0  0  0  0  0  0
  154.5019  141.1627  163.1607 O   0  0  0  0  0  0  0  0  0  0  0  0
  154.0228  140.3377  162.1022 C   0  0  0  0  0  0  0  0  0  0  0  0
  153.6315  141.2160  160.9012 C   0  0  0  0  0  0  0  0  0  0  0  0
  151.7828  142.3613  159.0543 C   0  0  0  0  0  0  0  0  0  0  0  0
  149.6303  137.4307  158.0479 H   0  0  0  0  0  0  0  0  0  0  0  0
  150.0008  139.0744  158.5477 H   0  0  0  0  0  0  0  0  0  0  0  0
  151.1909  138.1312  157.6575 H   0  0  0  0  0  0  0  0  0  0  0  0
  150.8390  137.6216  155.1666 H   0  0  0  0  0  0  0  0  0  0  0  0
  149.3810  138.1715  154.3478 H   0  0  0  0  0  0  0  0  0  0  0  0
  149.2894  136.8904  155.5477 H   0  0  0  0  0  0  0  0  0  0  0  0
  147.5227  138.1681  156.8603 H   0  0  0  0  0  0  0  0  0  0  0  0
  147.5533  139.4520  155.6672 H   0  0  0  0  0  0  0  0  0  0  0  0
  147.8021  139.8214  157.3751 H   0  0  0  0  0  0  0  0  0  0  0  0
  149.6487  141.1326  157.7003 H   0  0  0  0  0  0  0  0  0  0  0  0
  151.7671  142.3964  156.0513 H   0  0  0  0  0  0  0  0  0  0  0  0
  150.2137  143.1850  156.1427 H   0  0  0  0  0  0  0  0  0  0  0  0
  150.7621  145.1785  157.4182 H   0  0  0  0  0  0  0  0  0  0  0  0
  151.4580  146.1389  159.6228 H   0  0  0  0  0  0  0  0  0  0  0  0
  153.9541  143.6244  162.1435 H   0  0  0  0  0  0  0  0  0  0  0  0
  152.3123  143.6866  162.7647 H   0  0  0  0  0  0  0  0  0  0  0  0
  153.9241  142.6772  164.4271 H   0  0  0  0  0  0  0  0  0  0  0  0
  152.6500  141.5506  164.0012 H   0  0  0  0  0  0  0  0  0  0  0  0
  154.8064  139.6362  161.8158 H   0  0  0  0  0  0  0  0  0  0  0  0
  153.1733  139.7448  162.4452 H   0  0  0  0  0  0  0  0  0  0  0  0
  153.2176  140.5980  160.1035 H   0  0  0  0  0  0  0  0  0  0  0  0
  154.5187  141.7097  160.5018 H   0  0  0  0  0  0  0  0  0  0  0  0
  151.8957  141.2932  158.9368 H   0  0  0  0  0  0  0  0  0  0  0  0
  1  2  1  0  0  0  0
  1 21  1  0  0  0  0
  1 22  1  0  0  0  0
  1 23  1  0  0  0  0
  2  3  1  0  0  0  0
  2  4  1  0  0  0  0
  2  5  1  0  0  0  0
  3 24  1  0  0  0  0
  3 25  1  0  0  0  0
  3 26  1  0  0  0  0
  4 27  1  0  0  0  0
  4 28  1  0  0  0  0
  4 29  1  0  0  0  0
  5  6  2  0  0  0  0
  5  7  1  0  0  0  0
  7  8  1  0  0  0  0
  7 30  1  0  0  0  0
  8  9  1  0  0  0  0
  8 31  1  0  0  0  0
  8 32  1  0  0  0  0
  9 20  1  0  0  0  0
  9 10  2  0  0  0  0
 10 11  1  0  0  0  0
 10 33  1  0  0  0  0
 11 12  2  0  0  0  0
 11 34  1  0  0  0  0
 12 13  1  0  0  0  0
 13 14  1  0  0  0  0
 13 20  2  0  0  0  0
 14 19  1  0  0  0  0
 14 15  1  0  0  0  0
 15 16  1  0  0  0  0
 15 35  1  0  0  0  0
 15 36  1  0  0  0  0
 16 17  1  0  0  0  0
 16 37  1  0  0  0  0
 16 38  1  0  0  0  0
 17 18  1  0  0  0  0
 18 19  1  0  0  0  0
 18 39  1  0  0  0  0
 18 40  1  0  0  0  0
 19 41  1  0  0  0  0
 19 42  1  0  0  0  0
 20 43  1  0  0  0  0
M  END
> <s_m_source_file>
AV-unprocessed.smi

> <i_m_source_file_index>
1357

> <i_lp_mmshare_version>
43012

> <i_f3d_flags>
0

> <s_epik_input>
W0NIM11DKFtDSDNdKShbQ0gzXSlDKD1PKVtOSF1bQ0gyXWMxW2NIXVtjSF1uYyhbY0hdMSlOMltDSDJdW0NIMl1PW0NIMl1bQ0gyXTI=

> <s_epik_cmdline>
J2VwaWtfcHl0aG9uJywgJy1waCcsICc3LjAnLCAnLXRuJywgJzgnLCAnLW1hJywgJzIwMCcsICctbWV0YWxfYmluZGluZycsICctaW1hZScsICc8aW5maWxlLm1hZT4nLCAnLW9tYWUnLCAnPG91dGZpbGUubWFlPic=

> <r_lp_tautomer_probability>
1

> <r_epik_Ionization_Penalty>
0.00576178

> <r_epik_Ionization_Penalty_Charging>
0

> <r_epik_Ionization_Penalty_Neutral>
0.00576178

> <r_epik_State_Penalty>
0.00422935

> <r_epik_Charging_Adjusted_Penalty>
0.00422935

> <i_epik_Tot_Q>
0

> <i_epik_Tot_abs_Q>
0

> <r_epik_Metal_State_Penalty>
-0

> <b_epik_Metal_Only>
0

> <s_lp_Force_Field>
OPLS_2005

> <r_lp_Energy>
22.6538

> <b_lp_Chiralities_Consistent>
1

> <s_lp_Variant>
AV-unprocessed.smi:1357-1

> <Gold.Version>
5.8.1

> <Gold.Id.Protein>
6NUR|6NUR_protein|mol2

> <Gold.PLP.Fitness>
40.8066

> <Gold.PLP.PLP>
-39.1084

> <Gold.PLP.part.hbond>
-2.0000

> <Gold.PLP.part.metal>
0.0000

> <Gold.PLP.part.buried>
-6.6416

> <Gold.PLP.part.nonpolar>
-31.2632

> <Gold.PLP.part.repulsive>
0.2377

> <Gold.PLP.ligand.clash>
0.0000

> <Gold.PLP.ligand.torsion>
0.7053

> <Gold.PLP.Chemscore.Hbond>
1.0000

> <Gold.PLP.Chemscore.CHOScore>
0.0000

> <Gold.PLP.Chemscore.Metal>
0.0000

> <Gold.Chemscore.Hbonds>
donor molecule, donor type, donor heavy atom, donor atom, acceptor molecule, acceptor atom, score
      P1  H  7989  7998       L1     6  1.00

> <Gold.PLP.Chemscore.Internal.Correction>
0.1088

> <Gold.Rescore>
     Score         DG    S(hbond)    S(metal)    S(lipo)     H(rot)  DE(clash)    DE(int)     intcor
     14.48     -16.81       0.98        0.00     102.00       1.52       1.79       0.54       ----

> <Gold.Chemscore.Fitness>
14.4844

> <Gold.Chemscore.DG>
-16.8140

> <Gold.Chemscore.ZeroCoef>
-5.4800

> <Gold.Chemscore.Hbond>
0.9833

> <Gold.Chemscore.Metal>
0.0000

> <Gold.Chemscore.Lipo>
102.0005

> <Gold.Chemscore.Internal_Hbond>
0.0000

> <Gold.Chemscore.DEClash>
1.7945

> <Gold.Chemscore.DEInternal>
0.5352

> <Gold.Chemscore.Rot>
1.5173

> <Gold.Chemscore.Internal.Correction>
   9.000000E+99

> <Gold.Chemscore.Hbonds>
donor molecule, donor type, donor heavy atom, donor atom, acceptor molecule, acceptor atom, score
      P1  H  7989  7998       L1     6  0.99

> <Gold.Chemscore.Hbond.Weighted>
-3.2842

> <Gold.Chemscore.Metal.Weighted>
-0.0000

> <Gold.Chemscore.Lipo.Weighted>
-11.9341

> <Gold.Chemscore.Internal_Hbond.Weighted>
0.0000

> <Gold.Chemscore.DEClash.Weighted>
1.7945

> <Gold.Chemscore.DEInternal.Weighted>
0.5352

> <Gold.Chemscore.Rot.Weighted>
3.8843

> <Gold.Chemscore.Internal.Correction.Weighted>
   9.000000E+99

> <Gold.Protein.RotatedTorsions>
[ 6907 6896 6895 6894 ] final  101.57 input  -60.11 | X-H torsion
[ 7974 7965 7964 7962 ] final  149.07 input  175.53 | X-H torsion
[ 8008 7997 7996 7995 ] final  161.93 input   59.86 | X-H torsion
[ 10167 10162 10161 10158 ] final  106.84 input  -65.29 | X-H torsion
[ 10718 10713 10712 10709 ] final   56.90 input   66.30 | X-H torsion
[ 10763 10752 10751 10750 ] final  128.31 input  -60.55 | X-H torsion
[ 11005 11000 10999 10996 ] final   60.24 input  -57.11 | X-H torsion

> <Gold.Protein.ActiveResidues>
 VAL166  LYS551  ARG553  GLY616  TRP617  ASP618  TYR619  PRO620  LYS621  CYS622 
 ASP623  PHE694  ASN695  SER759  ASP760  ASP761  ALA762  ILE779  LEU786  VAL792 
 PHE793  MET794  SER795  GLU796  ALA797  LYS798  CYS799  TRP800  GLU811  SER814 

> <Gold.Protein.RotatedAtoms>
  152.5346  134.0106  159.7936 H   0  0  0  0  0  0  0  0  0  0  0  0  # atno 6907 bound_to 6896
  151.0309  133.5783  159.2668 H   0  0  0  0  0  0  0  0  0  0  0  0  # atno 6908 bound_to 6896
  151.2788  135.0714  159.9215 H   0  0  0  0  0  0  0  0  0  0  0  0  # atno 6909 bound_to 6896
  144.8465  139.6234  143.5993 H   0  0  0  0  0  0  0  0  0  0  0  0  # atno 7974 bound_to 7965
  156.2068  140.1764  156.7783 H   0  0  0  0  0  0  0  0  0  0  0  0  # atno 8008 bound_to 7997
  154.5666  140.0690  156.8930 H   0  0  0  0  0  0  0  0  0  0  0  0  # atno 8009 bound_to 7997
  155.2750  140.3345  155.4265 H   0  0  0  0  0  0  0  0  0  0  0  0  # atno 8010 bound_to 7997
  139.6976  144.7099  151.1240 H   0  0  0  0  0  0  0  0  0  0  0  0  # atno 10167 bound_to 10162
  157.5469  130.8738  149.8905 H   0  0  0  0  0  0  0  0  0  0  0  0  # atno 10718 bound_to 10713
  153.7236  135.3249  155.3271 H   0  0  0  0  0  0  0  0  0  0  0  0  # atno 10763 bound_to 10752
  154.8348  135.4505  154.1193 H   0  0  0  0  0  0  0  0  0  0  0  0  # atno 10764 bound_to 10752
  153.2320  135.6961  153.7959 H   0  0  0  0  0  0  0  0  0  0  0  0  # atno 10765 bound_to 10752
  140.0246  134.6102  155.9591 H   0  0  0  0  0  0  0  0  0  0  0  0  # atno 11005 bound_to 11000
  146.2749  139.6727  142.9270 LP  0  0  0  0  0  0  0  0  0  0  0  0  # atno 17320 bound_to 7965
  145.4586  141.0432  143.2764 LP  0  0  0  0  0  0  0  0  0  0  0  0  # atno 17321 bound_to 7965
  140.7701  143.5470  150.9248 LP  0  0  0  0  0  0  0  0  0  0  0  0  # atno 17342 bound_to 10162
  139.9150  143.6674  152.3108 LP  0  0  0  0  0  0  0  0  0  0  0  0  # atno 17343 bound_to 10162
  156.0543  130.3711  150.1126 LP  0  0  0  0  0  0  0  0  0  0  0  0  # atno 17370 bound_to 10713
  156.9302  130.9711  151.3534 LP  0  0  0  0  0  0  0  0  0  0  0  0  # atno 17371 bound_to 10713
  141.1795  133.6544  156.4961 LP  0  0  0  0  0  0  0  0  0  0  0  0  # atno 17394 bound_to 11000
  140.4329  134.7086  157.4951 LP  0  0  0  0  0  0  0  0  0  0  0  0  # atno 17395 bound_to 11000

$$$$
