AV-unprocessed.smi:2976|AV-procd|sdf|11363|dock8
  -GOLD-   2272016283D 1   1.00000     0.00000
 Structure written by MMmdl.
 40 41  0  0  0  0  0  0  0  0  1 V2000
  152.4924  144.7599  158.1327 C   0  0  0  0  0  0  0  0  0  0  0  0
  151.3752  144.0130  158.8900 C   0  0  2  0  0  0  0  0  0  0  0  0
  151.3476  144.3949  160.3836 C   0  0  0  0  0  0  0  0  0  0  0  0
  152.5226  143.7820  161.1602 C   0  0  0  0  0  0  0  0  0  0  0  0
  152.5559  142.2563  160.9975 C   0  0  0  0  0  0  0  0  0  0  0  0
  152.5897  141.8326  159.5160 C   0  0  1  0  0  0  0  0  0  0  0  0
  152.5335  140.3721  159.4537 N   0  0  0  0  0  0  0  0  0  0  0  0
  153.5821  139.5452  159.3181 C   0  0  0  0  0  0  0  0  0  0  0  0
  154.7449  139.9365  159.2081 O   0  0  0  0  0  0  0  0  0  0  0  0
  153.2454  138.0473  159.2784 C   0  0  0  0  0  0  0  0  0  0  0  0
  152.2611  137.6908  158.2459 N   0  0  0  0  0  0  0  0  0  0  0  0
  151.2019  136.9340  158.7156 N   0  0  0  0  0  0  0  0  0  0  0  0
  150.2706  136.5726  157.9020 C   0  0  0  0  0  0  0  0  0  0  0  0
  150.2914  136.9280  156.5006 C   0  0  0  0  0  0  0  0  0  0  0  0
  149.0135  136.4130  155.4568 Cl  0  0  0  0  0  0  0  0  0  0  0  0
  151.3357  137.6674  156.0495 C   0  0  0  0  0  0  0  0  0  0  0  0
  151.4294  138.1324  154.3853 Cl  0  0  0  0  0  0  0  0  0  0  0  0
  152.4161  138.0976  156.9483 C   0  0  0  0  0  0  0  0  0  0  0  0
  153.3814  138.7668  156.5776 O   0  0  0  0  0  0  0  0  0  0  0  0
  151.4162  142.4699  158.7227 C   0  0  2  0  0  0  0  0  0  0  0  0
  151.3812  142.0445  157.2411 C   0  0  0  0  0  0  0  0  0  0  0  0
  153.4866  144.4328  158.4357 H   0  0  0  0  0  0  0  0  0  0  0  0
  152.4326  145.8336  158.3125 H   0  0  0  0  0  0  0  0  0  0  0  0
  152.4108  144.6155  157.0555 H   0  0  0  0  0  0  0  0  0  0  0  0
  150.4341  144.3610  158.4618 H   0  0  0  0  0  0  0  0  0  0  0  0
  151.3501  145.4794  160.4975 H   0  0  0  0  0  0  0  0  0  0  0  0
  150.4118  144.0493  160.8250 H   0  0  0  0  0  0  0  0  0  0  0  0
  153.4641  144.2106  160.8161 H   0  0  0  0  0  0  0  0  0  0  0  0
  152.4401  144.0376  162.2167 H   0  0  0  0  0  0  0  0  0  0  0  0
  153.4235  141.8522  161.5209 H   0  0  0  0  0  0  0  0  0  0  0  0
  151.6777  141.8281  161.4830 H   0  0  0  0  0  0  0  0  0  0  0  0
  153.5319  142.1828  159.0913 H   0  0  0  0  0  0  0  0  0  0  0  0
  151.6166  139.9554  159.5269 H   0  0  0  0  0  0  0  0  0  0  0  0
  154.1639  137.4752  159.1327 H   0  0  0  0  0  0  0  0  0  0  0  0
  152.8761  137.7592  160.2643 H   0  0  0  0  0  0  0  0  0  0  0  0
  149.4165  135.9786  158.2271 H   0  0  0  0  0  0  0  0  0  0  0  0
  150.4932  142.0920  159.1658 H   0  0  0  0  0  0  0  0  0  0  0  0
  152.3243  142.2618  156.7392 H   0  0  0  0  0  0  0  0  0  0  0  0
  150.5875  142.5624  156.7025 H   0  0  0  0  0  0  0  0  0  0  0  0
  151.1946  140.9759  157.1360 H   0  0  0  0  0  0  0  0  0  0  0  0
  1  2  1  0  0  0  0
  1 22  1  0  0  0  0
  1 23  1  0  0  0  0
  1 24  1  0  0  0  0
  2 20  1  0  0  0  0
  2  3  1  0  0  0  0
  2 25  1  0  0  0  0
  3  4  1  0  0  0  0
  3 26  1  0  0  0  0
  3 27  1  0  0  0  0
  4  5  1  0  0  0  0
  4 28  1  0  0  0  0
  4 29  1  0  0  0  0
  5  6  1  0  0  0  0
  5 30  1  0  0  0  0
  5 31  1  0  0  0  0
  6  7  1  0  0  0  0
  6 20  1  0  0  0  0
  6 32  1  0  0  0  0
  7  8  1  0  0  0  0
  7 33  1  0  0  0  0
  8  9  2  0  0  0  0
  8 10  1  0  0  0  0
 10 11  1  0  0  0  0
 10 34  1  0  0  0  0
 10 35  1  0  0  0  0
 11 18  1  0  0  0  0
 11 12  1  0  0  0  0
 12 13  2  0  0  0  0
 13 14  1  0  0  0  0
 13 36  1  0  0  0  0
 14 15  1  0  0  0  0
 14 16  2  0  0  0  0
 16 17  1  0  0  0  0
 16 18  1  0  0  0  0
 18 19  2  0  0  0  0
 20 21  1  0  0  0  0
 20 37  1  0  0  0  0
 21 38  1  0  0  0  0
 21 39  1  0  0  0  0
 21 40  1  0  0  0  0
M  END
> <s_m_source_file>
AV-unprocessed.smi

> <i_m_source_file_index>
2976

> <i_lp_mmshare_version>
43012

> <i_f3d_flags>
0

> <s_epik_input>
W0NIM11bQ0BASF0xW0NIMl1bQ0gyXVtDSDJdW0NASF0oW0NASF0xW0NIM10pW05IXUMoPU8pW0NIMl1uMm5bY0hdYyhDbCljKENsKWMyPU8=

> <s_epik_cmdline>
J2VwaWtfcHl0aG9uJywgJy1waCcsICc3LjAnLCAnLXRuJywgJzgnLCAnLW1hJywgJzIwMCcsICctbWV0YWxfYmluZGluZycsICctaW1hZScsICc8aW5maWxlLm1hZT4nLCAnLW9tYWUnLCAnPG91dGZpbGUubWFlPic=

> <r_lp_tautomer_probability>
1

> <r_epik_Ionization_Penalty>
1.90777e-08

> <r_epik_Ionization_Penalty_Charging>
3.07942e-11

> <r_epik_Ionization_Penalty_Neutral>
1.90469e-08

> <r_epik_State_Penalty>
-0

> <r_epik_Charging_Adjusted_Penalty>
3.07942e-11

> <i_epik_Tot_Q>
0

> <i_epik_Tot_abs_Q>
0

> <r_epik_Metal_State_Penalty>
-0

> <b_epik_Metal_Only>
0

> <s_lp_Force_Field>
OPLS_2005

> <r_lp_Energy>
28.556

> <b_lp_Chiralities_Consistent>
1

> <s_lp_Variant>
AV-unprocessed.smi:2976-5

> <Gold.Version>
5.8.1

> <Gold.Id.Protein>
6NUR|6NUR_protein|mol2

> <Gold.PLP.Fitness>
44.5367

> <Gold.PLP.PLP>
-39.1298

> <Gold.PLP.part.hbond>
-2.9058

> <Gold.PLP.part.metal>
0.0000

> <Gold.PLP.part.buried>
-6.8865

> <Gold.PLP.part.nonpolar>
-28.8236

> <Gold.PLP.part.repulsive>
0.1350

> <Gold.PLP.ligand.clash>
0.0000

> <Gold.PLP.ligand.torsion>
0.4097

> <Gold.PLP.Chemscore.Hbond>
2.0740

> <Gold.PLP.Chemscore.CHOScore>
0.0000

> <Gold.PLP.Chemscore.Metal>
0.0000

> <Gold.Chemscore.Hbonds>
donor molecule, donor type, donor heavy atom, donor atom, acceptor molecule, acceptor atom, score
      P1  H  6896  6907       L1    12  0.64
      P1  H  7997  8008       L1    19  0.46
      P1  H  7997  8010       L1     9  0.93

> <Gold.PLP.Chemscore.Internal.Correction>
0.0043

> <Gold.Rescore>
     Score         DG    S(hbond)    S(metal)    S(lipo)     H(rot)  DE(clash)    DE(int)     intcor
     19.87     -21.56       2.20        0.00     107.13       1.49       0.05       1.64       ----

> <Gold.Chemscore.Fitness>
19.8725

> <Gold.Chemscore.DG>
-21.5610

> <Gold.Chemscore.ZeroCoef>
-5.4800

> <Gold.Chemscore.Hbond>
2.2012

> <Gold.Chemscore.Metal>
0.0000

> <Gold.Chemscore.Lipo>
107.1340

> <Gold.Chemscore.Internal_Hbond>
0.0000

> <Gold.Chemscore.DEClash>
0.0467

> <Gold.Chemscore.DEInternal>
1.6419

> <Gold.Chemscore.Rot>
1.4866

> <Gold.Chemscore.Internal.Correction>
   9.000000E+99

> <Gold.Chemscore.Hbonds>
donor molecule, donor type, donor heavy atom, donor atom, acceptor molecule, acceptor atom, score
      P1  H  6896  6907       L1    12  0.14
      P1  H  7997  8008       L1    19  0.46
      P1  H  7997  8010       L1     9  0.78

> <Gold.Chemscore.Hbond.Weighted>
-7.3520

> <Gold.Chemscore.Metal.Weighted>
-0.0000

> <Gold.Chemscore.Lipo.Weighted>
-12.5347

> <Gold.Chemscore.Internal_Hbond.Weighted>
0.0000

> <Gold.Chemscore.DEClash.Weighted>
0.0467

> <Gold.Chemscore.DEInternal.Weighted>
1.6419

> <Gold.Chemscore.Rot.Weighted>
3.8057

> <Gold.Chemscore.Internal.Correction.Weighted>
   9.000000E+99

> <Gold.Protein.RotatedTorsions>
[ 6907 6896 6895 6894 ] final  -15.77 input  -60.11 | X-H torsion
[ 7974 7965 7964 7962 ] final  142.14 input  175.53 | X-H torsion
[ 8008 7997 7996 7995 ] final  -16.85 input   59.86 | X-H torsion
[ 10167 10162 10161 10158 ] final   48.91 input  -65.29 | X-H torsion
[ 10718 10713 10712 10709 ] final -101.81 input   66.30 | X-H torsion
[ 10763 10752 10751 10750 ] final  160.08 input  -60.55 | X-H torsion
[ 11005 11000 10999 10996 ] final   18.68 input  -57.11 | X-H torsion

> <Gold.Protein.ActiveResidues>
 VAL166  LYS551  ARG553  GLY616  TRP617  ASP618  TYR619  PRO620  LYS621  CYS622 
 ASP623  PHE694  ASN695  SER759  ASP760  ASP761  ALA762  ILE779  LEU786  VAL792 
 PHE793  MET794  SER795  GLU796  ALA797  LYS798  CYS799  TRP800  GLU811  SER814 

> <Gold.Protein.RotatedAtoms>
  151.3189  135.0813  159.9298 H   0  0  0  0  0  0  0  0  0  0  0  0  # atno 6907 bound_to 6896
  152.5261  133.9660  159.7750 H   0  0  0  0  0  0  0  0  0  0  0  0  # atno 6908 bound_to 6896
  150.9977  133.6035  159.2729 H   0  0  0  0  0  0  0  0  0  0  0  0  # atno 6909 bound_to 6896
  144.9034  139.5391  143.5743 H   0  0  0  0  0  0  0  0  0  0  0  0  # atno 7974 bound_to 7965
  154.5022  140.2158  155.9324 H   0  0  0  0  0  0  0  0  0  0  0  0  # atno 8008 bound_to 7997
  156.1448  140.3173  155.8520 H   0  0  0  0  0  0  0  0  0  0  0  0  # atno 8009 bound_to 7997
  155.4051  140.0487  157.3025 H   0  0  0  0  0  0  0  0  0  0  0  0  # atno 8010 bound_to 7997
  140.2883  144.3076  150.6247 H   0  0  0  0  0  0  0  0  0  0  0  0  # atno 10167 bound_to 10162
  156.0207  130.5391  150.7017 H   0  0  0  0  0  0  0  0  0  0  0  0  # atno 10718 bound_to 10713
  154.2419  135.2774  155.2850 H   0  0  0  0  0  0  0  0  0  0  0  0  # atno 10763 bound_to 10752
  154.5538  135.5667  153.6949 H   0  0  0  0  0  0  0  0  0  0  0  0  # atno 10764 bound_to 10752
  152.9998  135.6281  154.2563 H   0  0  0  0  0  0  0  0  0  0  0  0  # atno 10765 bound_to 10752
  140.4221  134.1508  155.7673 H   0  0  0  0  0  0  0  0  0  0  0  0  # atno 11005 bound_to 11000
  146.3121  139.7783  142.9012 LP  0  0  0  0  0  0  0  0  0  0  0  0  # atno 17320 bound_to 7965
  145.3577  141.0320  143.3302 LP  0  0  0  0  0  0  0  0  0  0  0  0  # atno 17321 bound_to 7965
  140.5754  143.2177  151.7525 LP  0  0  0  0  0  0  0  0  0  0  0  0  # atno 17342 bound_to 10162
  139.4944  144.4158  152.0032 LP  0  0  0  0  0  0  0  0  0  0  0  0  # atno 17343 bound_to 10162
  157.4675  131.0890  151.0678 LP  0  0  0  0  0  0  0  0  0  0  0  0  # atno 17370 bound_to 10713
  157.1148  130.6037  149.5490 LP  0  0  0  0  0  0  0  0  0  0  0  0  # atno 17371 bound_to 10713
  141.1780  133.8474  157.1356 LP  0  0  0  0  0  0  0  0  0  0  0  0  # atno 17394 bound_to 11000
  140.0193  134.9953  157.0558 LP  0  0  0  0  0  0  0  0  0  0  0  0  # atno 17395 bound_to 11000

$$$$
