#       Name:                AV-unprocessed.smi:2047
#       Creating user name   scv26
#       Creation time:       Fri Mar 27 10:58:37 2020


#       File generated by GOLD software.
#

@<TRIPOS>MOLECULE
AV-unprocessed.smi:2047
    46    48     1
SMALL
NO_CHARGES


@<TRIPOS>ATOM
      1 ****         0.2435   2.5211  -0.1160 O.2            1 S1                 0.0000
      2 ****        -0.2642   1.4488   0.2321 C.2            1 S1                 0.0000
      3 ****         0.5107   0.3707   0.4386 N.am           1 S1                 0.0000
      4 ****         1.9242   0.2647   0.3212 C.ar           1 S1                 0.0000
      5 ****         2.7944   1.3083   0.7233 C.ar           1 S1                 0.0000
      6 ****         4.1884   1.1351   0.6126 C.ar           1 S1                 0.0000
      7 ****         4.6892  -0.0813   0.1120 C.ar           1 S1                 0.0000
      8 ****         3.8334  -1.0615  -0.2468 N.pl3          1 S1                 1.0000
      9 ****         2.4851  -0.9447  -0.1599 C.ar           1 S1                 0.0000
     10 ****         1.6787  -2.0238  -0.5603 N.3            1 S1                 0.0000
     11 ****         1.8054  -2.4148  -1.9541 C.3            1 S1                 0.0000
     12 ****         1.1577  -3.7988  -2.0496 C.3            1 S1                 0.0000
     13 ****         1.1742  -4.3425  -0.6153 C.3            1 S1                 0.0000
     14 ****         1.8374  -3.2413   0.2160 C.3            1 S1                 0.0000
     15 ****        -1.5814   1.1785   0.4345 N.pl3          1 S1                -1.0000
     16 ****        -2.6742   2.1344   0.2321 C.3            1 S1                 0.0000
     17 ****        -4.0231   1.4005   0.0968 C.3            1 S1                 0.0000
     18 ****        -5.1566   2.4266   0.2342 C.3            1 S1                 0.0000
     19 ****        -4.5351   3.7007   1.3985 S.o2           1 S1                 0.0000
     20 ****        -4.6101   5.0192   0.7495 O.2            1 S1                 0.0000
     21 ****        -5.1268   3.4820   2.7277 O.2            1 S1                 0.0000
     22 ****        -2.7954   3.1130   1.4120 C.3            1 S1                 0.0000
     23 ****         0.0159  -0.4934   0.6051 H              1 S1                 0.0000
     24 ****         2.4103   2.2330   1.1272 H              1 S1                 0.0000
     25 ****         4.8624   1.9237   0.9133 H              1 S1                 0.0000
     26 ****         5.7403  -0.3011  -0.0058 H              1 S1                 0.0000
     27 ****         1.3141  -1.6953  -2.6096 H              1 S1                 0.0000
     28 ****         2.8557  -2.4724  -2.2435 H              1 S1                 0.0000
     29 ****         0.1291  -3.7124  -2.4020 H              1 S1                 0.0000
     30 ****         1.6937  -4.4450  -2.7452 H              1 S1                 0.0000
     31 ****         0.1529  -4.5127  -0.2721 H              1 S1                 0.0000
     32 ****         1.7135  -5.2867  -0.5345 H              1 S1                 0.0000
     33 ****         2.8947  -3.4665   0.3631 H              1 S1                 0.0000
     34 ****         1.3728  -3.1441   1.1977 H              1 S1                 0.0000
     35 ****        -2.5342   2.7210  -0.6773 H              1 S1                 0.0000
     36 ****        -4.0941   0.8533  -0.8437 H              1 S1                 0.0000
     37 ****        -4.1198   0.6674   0.8994 H              1 S1                 0.0000
     38 ****        -5.3711   2.9114  -0.7196 H              1 S1                 0.0000
     39 ****        -6.0793   1.9882   0.6141 H              1 S1                 0.0000
     40 ****        -2.6218   2.6118   2.3648 H              1 S1                 0.0000
     41 ****        -2.1121   3.9585   1.3330 H              1 S1                 0.0000
     42 ****         4.2212  -1.9353  -0.6021 H              1 S1                 0.0000
     43 ****         1.2330   2.5875  -0.2445 LP             1 S1                 0.0000
     44 ****        -0.3354   3.3221  -0.2691 LP             1 S1                 0.0000
     45 ****         0.7760  -1.6260  -0.3964 LP             1 S1                 0.0000
     46 ****        -1.8226   0.2589   0.7446 LP             1 S1                 0.0000
@<TRIPOS>BOND
    1    1    2 2     
    2    2    3 am    
    3    2   15 1     
    4    3    4 1     
    5    3   23 1     
    6    4    9 ar    
    7    4    5 ar    
    8    5    6 ar    
    9    5   24 1     
   10    6    7 ar    
   11    6   25 1     
   12    7    8 ar    
   13    7   26 1     
   14    8    9 ar    
   15    8   42 1     
   16    9   10 1     
   17   10   14 1     
   18   10   11 1     
   19   11   12 1     
   20   11   27 1     
   21   11   28 1     
   22   12   13 1     
   23   12   29 1     
   24   12   30 1     
   25   13   14 1     
   26   13   31 1     
   27   13   32 1     
   28   14   33 1     
   29   14   34 1     
   30   15   16 1     
   31   16   22 1     
   32   16   17 1     
   33   16   35 1     
   34   17   18 1     
   35   17   36 1     
   36   17   37 1     
   37   18   19 1     
   38   18   38 1     
   39   18   39 1     
   40   19   20 2     
   41   19   21 2     
   42   19   22 1     
   43   22   40 1     
   44   22   41 1     
   45    1   43 1     
   46    1   44 1     
   47   10   45 1     
   48   15   46 1     
@<TRIPOS>SUBSTRUCTURE
      1 S1             1
@<TRIPOS>SET
LONE_PAIRS      STATIC     ATOMS    <user>   **** ""
6 43 44 45 46 20 21
DONOR_HYDROGENS      STATIC     ATOMS    <user>   **** ""
2 23 42
ATOM$BLUE        STATIC     ATOMS    COLORGROUP SYSTEM
6 43 44 45 46 20 21
ATOM$RED        STATIC     ATOMS    COLORGROUP SYSTEM
2 23 42
