#       Name:                AV-unprocessed.smi:1452
#       Creating user name   scv26
#       Creation time:       Fri Mar 27 05:59:16 2020


#       File generated by GOLD software.
#

@<TRIPOS>MOLECULE
AV-unprocessed.smi:1452
    43    45     1
SMALL
NO_CHARGES


@<TRIPOS>ATOM
      1 ****        -2.3030  -1.8858  -1.1027 O.2            1 S1                 0.0000
      2 ****        -1.0808  -1.7836  -1.1931 C.2            1 S1                 0.0000
      3 ****        -0.2905  -2.8736  -1.2864 N.am           1 S1                 0.0000
      4 ****        -0.6115  -4.2627  -1.3005 C.ar           1 S1                 0.0000
      5 ****         0.5065  -5.1258  -1.2537 C.ar           1 S1                 0.0000
      6 ****         0.3110  -6.5203  -1.2794 C.ar           1 S1                 0.0000
      7 ****        -1.0010  -7.0192  -1.3565 C.ar           1 S1                 0.0000
      8 ****        -2.0594  -6.0941  -1.4068 C.ar           1 S1                 0.0000
      9 ****        -1.8737  -4.7571  -1.3816 N.ar           1 S1                 0.0000
     10 ****        -0.4527  -0.5967  -1.2090 N.am           1 S1                 0.0000
     11 ****        -1.1033   0.7014  -1.0692 C.3            1 S1                 0.0000
     12 ****        -0.2460   1.8608  -1.5594 C.3            1 S1                 0.0000
     13 ****        -0.8855   3.0751  -0.8786 C.3            1 S1                 0.0000
     14 ****        -1.5358   2.5809   0.3605 N.4            1 S1                 1.0000
     15 ****        -1.0867   3.2754   1.5971 C.3            1 S1                 0.0000
     16 ****        -1.4724   2.4745   2.8496 C.3            1 S1                 0.0000
     17 ****        -0.7960   1.0905   2.8648 C.3            1 S1                 0.0000
     18 ****        -0.4163   0.6042   1.4531 C.3            1 S1                 0.0000
     19 ****        -1.4252   1.0944   0.3847 C.3            1 S1                 0.0000
     20 ****         0.6861  -2.6712  -1.4446 H              1 S1                 0.0000
     21 ****         1.5092  -4.7273  -1.1965 H              1 S1                 0.0000
     22 ****         1.1542  -7.1940  -1.2411 H              1 S1                 0.0000
     23 ****        -1.1908  -8.0821  -1.3783 H              1 S1                 0.0000
     24 ****        -3.0822  -6.4352  -1.4695 H              1 S1                 0.0000
     25 ****         0.5549  -0.6000  -1.2878 H              1 S1                 0.0000
     26 ****        -2.0287   0.7046  -1.6496 H              1 S1                 0.0000
     27 ****         0.7828   1.7436  -1.2152 H              1 S1                 0.0000
     28 ****        -0.2290   1.9470  -2.6464 H              1 S1                 0.0000
     29 ****        -0.1534   3.8629  -0.6960 H              1 S1                 0.0000
     30 ****        -1.6617   3.4963  -1.5184 H              1 S1                 0.0000
     31 ****        -0.0040   3.4124   1.5804 H              1 S1                 0.0000
     32 ****        -1.5302   4.2712   1.6255 H              1 S1                 0.0000
     33 ****        -1.2113   3.0263   3.7531 H              1 S1                 0.0000
     34 ****        -2.5563   2.3514   2.8711 H              1 S1                 0.0000
     35 ****         0.1023   1.1186   3.4826 H              1 S1                 0.0000
     36 ****        -1.4670   0.3734   3.3392 H              1 S1                 0.0000
     37 ****         0.5806   0.9692   1.2015 H              1 S1                 0.0000
     38 ****        -0.3454  -0.4838   1.4614 H              1 S1                 0.0000
     39 ****        -2.4032   0.6887   0.6478 H              1 S1                 0.0000
     40 ****        -2.5211   2.7790   0.2597 H              1 S1                 0.0000
     41 ****        -2.7301  -2.7900  -1.0973 LP             1 S1                 0.0000
     42 ****        -2.8697  -1.0647  -1.0346 LP             1 S1                 0.0000
     43 ****        -2.6575  -4.1373  -1.4223 LP             1 S1                 0.0000
@<TRIPOS>BOND
    1    1    2 2     
    2    2    3 am    
    3    2   10 am    
    4    3    4 1     
    5    3   20 1     
    6    4    9 ar    
    7    4    5 ar    
    8    5    6 ar    
    9    5   21 1     
   10    6    7 ar    
   11    6   22 1     
   12    7    8 ar    
   13    7   23 1     
   14    8    9 ar    
   15    8   24 1     
   16   10   11 1     
   17   10   25 1     
   18   11   19 1     
   19   11   12 1     
   20   11   26 1     
   21   12   13 1     
   22   12   27 1     
   23   12   28 1     
   24   13   14 1     
   25   13   29 1     
   26   13   30 1     
   27   14   19 1     
   28   14   15 1     
   29   14   40 1     
   30   15   16 1     
   31   15   31 1     
   32   15   32 1     
   33   16   17 1     
   34   16   33 1     
   35   16   34 1     
   36   17   18 1     
   37   17   35 1     
   38   17   36 1     
   39   18   19 1     
   40   18   37 1     
   41   18   38 1     
   42   19   39 1     
   43    1   41 1     
   44    1   42 1     
   45    9   43 1     
@<TRIPOS>SUBSTRUCTURE
      1 S1             1
@<TRIPOS>SET
LONE_PAIRS      STATIC     ATOMS    <user>   **** ""
3 41 42 43
DONOR_HYDROGENS      STATIC     ATOMS    <user>   **** ""
3 20 25 40
ATOM$BLUE        STATIC     ATOMS    COLORGROUP SYSTEM
3 41 42 43
ATOM$RED        STATIC     ATOMS    COLORGROUP SYSTEM
3 20 25 40
