AV-unprocessed.smi:3029|AV-procd|sdf|11527|dock10
  -GOLD-   2272016473D 1   1.00000     0.00000
 Structure written by MMmdl.
 42 43  0  0  0  0  0  0  0  0  4 V2000
  153.8769  139.3321  158.5863 O   0  0  0  0  0  0  0  0  0  0  0  0
  153.4447  140.2971  159.2166 C   0  0  0  0  0  0  0  0  0  0  0  0
  153.9004  140.6096  160.5748 C   0  0  0  0  0  0  0  0  0  0  0  0
  153.4341  141.6788  161.2498 C   0  0  0  0  0  0  0  0  0  0  0  0
  152.4580  142.5631  160.6431 C   0  0  0  0  0  0  0  0  0  0  0  0
  151.9615  143.7220  161.3521 N   0  3  0  0  0  0  0  0  0  0  0  0
  151.0931  144.4130  160.8278 O   0  0  0  0  0  0  0  0  0  0  0  0
  152.4255  143.9785  162.4583 O   0  5  0  0  0  0  0  0  0  0  0  0
  152.0358  142.2695  159.3974 C   0  0  0  0  0  0  0  0  0  0  0  0
  152.5117  141.1477  158.6917 N   0  0  0  0  0  0  0  0  0  0  0  0
  151.9766  140.9316  157.3405 C   0  0  0  0  0  0  0  0  0  0  0  0
  150.5550  141.4993  157.2010 C   0  0  0  0  0  0  0  0  0  0  0  0
  149.7117  140.6045  156.3820 N   0  3  0  0  0  0  0  0  0  0  0  0
  149.9767  140.6337  154.9231 C   0  0  2  0  0  0  0  0  0  0  0  0
  148.9290  141.4894  154.1758 C   0  0  0  0  0  0  0  0  0  0  0  0
  147.5354  140.8379  154.1884 C   0  0  0  0  0  0  0  0  0  0  0  0
  147.5823  139.4136  153.6161 C   0  0  0  0  0  0  0  0  0  0  0  0
  148.6226  138.5468  154.3439 C   0  0  0  0  0  0  0  0  0  0  0  0
  150.0218  139.2019  154.3250 C   0  0  2  0  0  0  0  0  0  0  0  0
  151.1110  138.2978  154.9467 C   0  0  0  0  0  0  0  0  0  0  0  0
  151.0310  137.0485  154.4879 F   0  0  0  0  0  0  0  0  0  0  0  0
  152.3177  138.7807  154.6524 F   0  0  0  0  0  0  0  0  0  0  0  0
  150.9838  138.2784  156.2731 F   0  0  0  0  0  0  0  0  0  0  0  0
  154.6280  139.9646  161.0453 H   0  0  0  0  0  0  0  0  0  0  0  0
  153.7986  141.8674  162.2489 H   0  0  0  0  0  0  0  0  0  0  0  0
  151.3161  142.8676  158.8569 H   0  0  0  0  0  0  0  0  0  0  0  0
  152.6357  141.3806  156.5947 H   0  0  0  0  0  0  0  0  0  0  0  0
  151.9706  139.8659  157.1054 H   0  0  0  0  0  0  0  0  0  0  0  0
  150.1131  141.6260  158.1891 H   0  0  0  0  0  0  0  0  0  0  0  0
  150.5877  142.4840  156.7331 H   0  0  0  0  0  0  0  0  0  0  0  0
  149.8820  139.6614  156.7022 H   0  0  0  0  0  0  0  0  0  0  0  0
  150.9573  141.0883  154.7757 H   0  0  0  0  0  0  0  0  0  0  0  0
  148.8744  142.4966  154.5879 H   0  0  0  0  0  0  0  0  0  0  0  0
  149.2480  141.6148  153.1402 H   0  0  0  0  0  0  0  0  0  0  0  0
  147.1471  140.8121  155.2071 H   0  0  0  0  0  0  0  0  0  0  0  0
  146.8377  141.4447  153.6106 H   0  0  0  0  0  0  0  0  0  0  0  0
  146.5973  138.9512  153.6879 H   0  0  0  0  0  0  0  0  0  0  0  0
  147.8246  139.4569  152.5535 H   0  0  0  0  0  0  0  0  0  0  0  0
  148.3022  138.3757  155.3721 H   0  0  0  0  0  0  0  0  0  0  0  0
  148.6627  137.5652  153.8707 H   0  0  0  0  0  0  0  0  0  0  0  0
  150.2962  139.3178  153.2750 H   0  0  0  0  0  0  0  0  0  0  0  0
  148.7382  140.8231  156.5402 H   0  0  0  0  0  0  0  0  0  0  0  0
  1  2  2  0  0  0  0
  2 10  1  0  0  0  0
  2  3  1  0  0  0  0
  3  4  2  0  0  0  0
  3 24  1  0  0  0  0
  4  5  1  0  0  0  0
  4 25  1  0  0  0  0
  5  6  1  0  0  0  0
  5  9  2  0  0  0  0
  6  7  2  0  0  0  0
  6  8  1  0  0  0  0
  9 10  1  0  0  0  0
  9 26  1  0  0  0  0
 10 11  1  0  0  0  0
 11 12  1  0  0  0  0
 11 27  1  0  0  0  0
 11 28  1  0  0  0  0
 12 13  1  0  0  0  0
 12 29  1  0  0  0  0
 12 30  1  0  0  0  0
 13 14  1  0  0  0  0
 13 31  1  0  0  0  0
 13 42  1  0  0  0  0
 14 19  1  0  0  0  0
 14 15  1  0  0  0  0
 14 32  1  0  0  0  0
 15 16  1  0  0  0  0
 15 33  1  0  0  0  0
 15 34  1  0  0  0  0
 16 17  1  0  0  0  0
 16 35  1  0  0  0  0
 16 36  1  0  0  0  0
 17 18  1  0  0  0  0
 17 37  1  0  0  0  0
 17 38  1  0  0  0  0
 18 19  1  0  0  0  0
 18 39  1  0  0  0  0
 18 40  1  0  0  0  0
 19 20  1  0  0  0  0
 19 41  1  0  0  0  0
 20 21  1  0  0  0  0
 20 22  1  0  0  0  0
 20 23  1  0  0  0  0
M  CHG  1   6   1
M  CHG  1   8  -1
M  CHG  1  13   1
M  END
> <s_m_source_file>
AV-unprocessed.smi

> <i_m_source_file_index>
3029

> <i_lp_mmshare_version>
43012

> <i_f3d_flags>
0

> <s_epik_input>
Tz1jMVtjSF1bY0hdYyhbTitdKD1PKVtPLV0pW2NIXW4xW0NIMl1bQ0gyXVtOSF1bQ0BASF0yW0NIMl1bQ0gyXVtDSDJdW0NIMl1bQ0BIXTJDKEYpKEYpRg==

> <s_epik_cmdline>
J2VwaWtfcHl0aG9uJywgJy1waCcsICc3LjAnLCAnLXRuJywgJzgnLCAnLW1hJywgJzIwMCcsICctbWV0YWxfYmluZGluZycsICctaW1hZScsICc8aW5maWxlLm1hZT4nLCAnLW9tYWUnLCAnPG91dGZpbGUubWFlPic=

> <r_lp_tautomer_probability>
1

> <r_epik_Ionization_Penalty>
0.037386

> <r_epik_Ionization_Penalty_Charging>
0.037386

> <r_epik_Ionization_Penalty_Neutral>
0

> <r_epik_State_Penalty>
0.0312892

> <r_epik_Charging_Adjusted_Penalty>
0.0686752

> <i_epik_Tot_Q>
1

> <i_epik_Tot_abs_Q>
3

> <r_epik_Metal_State_Penalty>
0.0312892

> <b_epik_Metal_Only>
0

> <s_lp_Force_Field>
OPLS_2005

> <r_lp_Energy>
34.7992

> <b_lp_Chiralities_Consistent>
1

> <s_lp_Variant>
AV-unprocessed.smi:3029-3

> <Gold.Version>
5.8.1

> <Gold.Id.Protein>
6NUR|6NUR_protein|mol2

> <Gold.PLP.Fitness>
45.8645

> <Gold.PLP.PLP>
-45.7199

> <Gold.PLP.part.hbond>
-1.0000

> <Gold.PLP.part.metal>
0.0000

> <Gold.PLP.part.buried>
-3.9128

> <Gold.PLP.part.nonpolar>
-41.2989

> <Gold.PLP.part.repulsive>
0.3847

> <Gold.PLP.ligand.clash>
0.0000

> <Gold.PLP.ligand.torsion>
1.4708

> <Gold.PLP.Chemscore.Hbond>
1.0000

> <Gold.PLP.Chemscore.CHOScore>
0.0000

> <Gold.PLP.Chemscore.Metal>
0.0000

> <Gold.Chemscore.Hbonds>
donor molecule, donor type, donor heavy atom, donor atom, acceptor molecule, acceptor atom, score
      P1  H  7997  8010       L1     1  1.00

> <Gold.PLP.Chemscore.Internal.Correction>
0.0862

> <Gold.Rescore>
     Score         DG    S(hbond)    S(metal)    S(lipo)     H(rot)  DE(clash)    DE(int)     intcor
     10.98     -15.52       0.98        0.00      99.63       1.90       1.89       2.66       ----

> <Gold.Chemscore.Fitness>
10.9790

> <Gold.Chemscore.DG>
-15.5222

> <Gold.Chemscore.ZeroCoef>
-5.4800

> <Gold.Chemscore.Hbond>
0.9756

> <Gold.Chemscore.Metal>
0.0000

> <Gold.Chemscore.Lipo>
99.6334

> <Gold.Chemscore.Internal_Hbond>
0.0000

> <Gold.Chemscore.DEClash>
1.8863

> <Gold.Chemscore.DEInternal>
2.6569

> <Gold.Chemscore.Rot>
1.9037

> <Gold.Chemscore.Internal.Correction>
   9.000000E+99

> <Gold.Chemscore.Hbonds>
donor molecule, donor type, donor heavy atom, donor atom, acceptor molecule, acceptor atom, score
      P1  H  7997  8010       L1     1  0.55

> <Gold.Chemscore.Hbond.Weighted>
-3.2586

> <Gold.Chemscore.Metal.Weighted>
-0.0000

> <Gold.Chemscore.Lipo.Weighted>
-11.6571

> <Gold.Chemscore.Internal_Hbond.Weighted>
0.0000

> <Gold.Chemscore.DEClash.Weighted>
1.8863

> <Gold.Chemscore.DEInternal.Weighted>
2.6569

> <Gold.Chemscore.Rot.Weighted>
4.8736

> <Gold.Chemscore.Internal.Correction.Weighted>
   9.000000E+99

> <Gold.Protein.RotatedTorsions>
[ 6907 6896 6895 6894 ] final  113.39 input  -60.11 | X-H torsion
[ 7974 7965 7964 7962 ] final -153.45 input  175.53 | X-H torsion
[ 8008 7997 7996 7995 ] final   21.75 input   59.86 | X-H torsion
[ 10167 10162 10161 10158 ] final  -26.94 input  -65.29 | X-H torsion
[ 10718 10713 10712 10709 ] final  106.41 input   66.30 | X-H torsion
[ 10763 10752 10751 10750 ] final   69.86 input  -60.55 | X-H torsion
[ 11005 11000 10999 10996 ] final  129.27 input  -57.11 | X-H torsion

> <Gold.Protein.ActiveResidues>
 VAL166  LYS551  ARG553  GLY616  TRP617  ASP618  TYR619  PRO620  LYS621  CYS622 
 ASP623  PHE694  ASN695  SER759  ASP760  ASP761  ALA762  ILE779  LEU786  VAL792 
 PHE793  MET794  SER795  GLU796  ALA797  LYS798  CYS799  TRP800  GLU811  SER814 

> <Gold.Protein.RotatedAtoms>
  152.4863  133.8382  159.7138 H   0  0  0  0  0  0  0  0  0  0  0  0  # atno 6907 bound_to 6896
  150.8953  133.7180  159.2900 H   0  0  0  0  0  0  0  0  0  0  0  0  # atno 6908 bound_to 6896
  151.4639  135.1044  159.9785 H   0  0  0  0  0  0  0  0  0  0  0  0  # atno 6909 bound_to 6896
  144.7740  140.4524  143.5887 H   0  0  0  0  0  0  0  0  0  0  0  0  # atno 7974 bound_to 7965
  154.9553  140.3071  155.5056 H   0  0  0  0  0  0  0  0  0  0  0  0  # atno 8008 bound_to 7997
  156.2983  140.2311  156.4572 H   0  0  0  0  0  0  0  0  0  0  0  0  # atno 8009 bound_to 7997
  154.8016  140.0433  157.1265 H   0  0  0  0  0  0  0  0  0  0  0  0  # atno 8010 bound_to 7997
  140.7280  143.4135  151.1066 H   0  0  0  0  0  0  0  0  0  0  0  0  # atno 10167 bound_to 10162
  157.6669  131.0850  150.6002 H   0  0  0  0  0  0  0  0  0  0  0  0  # atno 10718 bound_to 10713
  153.0310  135.5195  154.7353 H   0  0  0  0  0  0  0  0  0  0  0  0  # atno 10763 bound_to 10752
  154.6369  135.2907  155.0153 H   0  0  0  0  0  0  0  0  0  0  0  0  # atno 10764 bound_to 10752
  154.1085  135.6625  153.4933 H   0  0  0  0  0  0  0  0  0  0  0  0  # atno 10765 bound_to 10752
  139.9606  134.9603  156.9123 H   0  0  0  0  0  0  0  0  0  0  0  0  # atno 11005 bound_to 11000
  145.6240  139.1527  143.3006 LP  0  0  0  0  0  0  0  0  0  0  0  0  # atno 17320 bound_to 7965
  146.1907  140.6348  142.9147 LP  0  0  0  0  0  0  0  0  0  0  0  0  # atno 17321 bound_to 7965
  139.7772  143.8408  152.3131 LP  0  0  0  0  0  0  0  0  0  0  0  0  # atno 17342 bound_to 10162
  139.8347  144.7238  150.9406 LP  0  0  0  0  0  0  0  0  0  0  0  0  # atno 17343 bound_to 10162
  156.6303  130.4430  149.5789 LP  0  0  0  0  0  0  0  0  0  0  0  0  # atno 17370 bound_to 10713
  156.2287  130.6781  151.1442 LP  0  0  0  0  0  0  0  0  0  0  0  0  # atno 17371 bound_to 10713
  140.5509  134.0628  155.7369 LP  0  0  0  0  0  0  0  0  0  0  0  0  # atno 17394 bound_to 11000
  141.1283  133.9346  157.2590 LP  0  0  0  0  0  0  0  0  0  0  0  0  # atno 17395 bound_to 11000

$$$$
