AV-unprocessed.smi:916|AV-procd|sdf|4160|dock10
  -GOLD-   22720 2 63D 1   1.00000     0.00000
 Structure written by MMmdl.
 43 44  0  0  0  0  0  0  0  0  1 V2000
  143.9455  132.1534  151.0083 C   0  0  0  0  0  0  0  0  0  0  0  0
  145.1596  131.2320  150.8444 C   0  0  0  0  0  0  0  0  0  0  0  0
  146.1963  131.4633  151.9015 C   0  0  0  0  0  0  0  0  0  0  0  0
  146.6604  130.5493  152.8160 C   0  0  0  0  0  0  0  0  0  0  0  0
  147.8736  131.2324  153.8654 S   0  0  0  0  0  0  0  0  0  0  0  0
  147.7039  132.7549  153.0059 C   0  0  0  0  0  0  0  0  0  0  0  0
  148.4780  133.8969  153.3396 N   0  0  0  0  0  0  0  0  0  0  0  0
  149.2256  134.1001  154.4385 C   0  0  0  0  0  0  0  0  0  0  0  0
  149.4083  133.2794  155.3384 O   0  0  0  0  0  0  0  0  0  0  0  0
  149.7589  135.3302  154.4421 N   0  0  0  0  0  0  0  0  0  0  0  0
  150.5971  135.8755  155.5053 C   0  0  0  0  0  0  0  0  0  0  0  0
  150.4492  137.4121  155.6443 C   0  0  2  0  0  0  0  0  0  0  0  0
  151.0243  138.1645  154.4519 C   0  0  0  0  0  0  0  0  0  0  0  0
  152.4949  138.3639  154.8277 C   0  0  0  0  0  0  0  0  0  0  0  0
  152.5891  138.0798  156.2208 O   0  0  0  0  0  0  0  0  0  0  0  0
  151.2822  138.0349  156.7774 C   0  0  2  0  0  0  0  0  0  0  0  0
  151.2689  137.3200  158.1477 C   0  0  0  0  0  0  0  0  0  0  0  0
  149.8426  137.1965  158.7109 C   0  0  0  0  0  0  0  0  0  0  0  0
  152.1704  138.0476  159.1580 C   0  0  0  0  0  0  0  0  0  0  0  0
  146.7981  132.7194  152.0222 N   0  0  0  0  0  0  0  0  0  0  0  0
  143.2070  131.9652  150.2289 H   0  0  0  0  0  0  0  0  0  0  0  0
  144.2369  133.2021  150.9460 H   0  0  0  0  0  0  0  0  0  0  0  0
  143.4591  131.9972  151.9718 H   0  0  0  0  0  0  0  0  0  0  0  0
  144.8288  130.1931  150.8676 H   0  0  0  0  0  0  0  0  0  0  0  0
  145.5936  131.3852  149.8558 H   0  0  0  0  0  0  0  0  0  0  0  0
  146.3640  129.5176  152.9339 H   0  0  0  0  0  0  0  0  0  0  0  0
  148.4348  134.6580  152.6781 H   0  0  0  0  0  0  0  0  0  0  0  0
  149.5614  135.9391  153.6616 H   0  0  0  0  0  0  0  0  0  0  0  0
  150.3433  135.3713  156.4378 H   0  0  0  0  0  0  0  0  0  0  0  0
  151.6326  135.6117  155.2884 H   0  0  0  0  0  0  0  0  0  0  0  0
  149.3954  137.6598  155.7764 H   0  0  0  0  0  0  0  0  0  0  0  0
  150.8980  137.6538  153.4971 H   0  0  0  0  0  0  0  0  0  0  0  0
  150.5360  139.1363  154.3671 H   0  0  0  0  0  0  0  0  0  0  0  0
  153.1434  137.6797  154.2804 H   0  0  0  0  0  0  0  0  0  0  0  0
  152.8224  139.3827  154.6186 H   0  0  0  0  0  0  0  0  0  0  0  0
  150.9550  139.0673  156.9198 H   0  0  0  0  0  0  0  0  0  0  0  0
  151.6745  136.3154  158.0257 H   0  0  0  0  0  0  0  0  0  0  0  0
  149.3892  138.1777  158.8553 H   0  0  0  0  0  0  0  0  0  0  0  0
  149.8441  136.6869  159.6748 H   0  0  0  0  0  0  0  0  0  0  0  0
  149.1928  136.6273  158.0464 H   0  0  0  0  0  0  0  0  0  0  0  0
  151.8320  139.0703  159.3279 H   0  0  0  0  0  0  0  0  0  0  0  0
  153.2024  138.0927  158.8088 H   0  0  0  0  0  0  0  0  0  0  0  0
  152.1758  137.5351  160.1206 H   0  0  0  0  0  0  0  0  0  0  0  0
  1  2  1  0  0  0  0
  1 21  1  0  0  0  0
  1 22  1  0  0  0  0
  1 23  1  0  0  0  0
  2  3  1  0  0  0  0
  2 24  1  0  0  0  0
  2 25  1  0  0  0  0
  3 20  1  0  0  0  0
  3  4  2  0  0  0  0
  4  5  1  0  0  0  0
  4 26  1  0  0  0  0
  5  6  1  0  0  0  0
  6  7  1  0  0  0  0
  6 20  2  0  0  0  0
  7  8  1  0  0  0  0
  7 27  1  0  0  0  0
  8  9  2  0  0  0  0
  8 10  1  0  0  0  0
 10 11  1  0  0  0  0
 10 28  1  0  0  0  0
 11 12  1  0  0  0  0
 11 29  1  0  0  0  0
 11 30  1  0  0  0  0
 12 16  1  0  0  0  0
 12 13  1  0  0  0  0
 12 31  1  0  0  0  0
 13 14  1  0  0  0  0
 13 32  1  0  0  0  0
 13 33  1  0  0  0  0
 14 15  1  0  0  0  0
 14 34  1  0  0  0  0
 14 35  1  0  0  0  0
 15 16  1  0  0  0  0
 16 17  1  0  0  0  0
 16 36  1  0  0  0  0
 17 18  1  0  0  0  0
 17 19  1  0  0  0  0
 17 37  1  0  0  0  0
 18 38  1  0  0  0  0
 18 39  1  0  0  0  0
 18 40  1  0  0  0  0
 19 41  1  0  0  0  0
 19 42  1  0  0  0  0
 19 43  1  0  0  0  0
M  END
> <s_m_source_file>
AV-unprocessed.smi

> <i_m_source_file_index>
916

> <i_lp_mmshare_version>
43012

> <i_f3d_flags>
0

> <s_epik_input>
W0NIM11bQ0gyXWMxW2NIXXNjKG4xKVtOSF1DKD1PKVtOSF1bQ0gyXVtDQEBIXTJbQ0gyXVtDSDJdT1tDQEhdMltDSF0oW0NIM10pW0NIM10=

> <s_epik_cmdline>
J2VwaWtfcHl0aG9uJywgJy1waCcsICc3LjAnLCAnLXRuJywgJzgnLCAnLW1hJywgJzIwMCcsICctbWV0YWxfYmluZGluZycsICctaW1hZScsICc8aW5maWxlLm1hZT4nLCAnLW9tYWUnLCAnPG91dGZpbGUubWFlPic=

> <r_lp_tautomer_probability>
0.999

> <r_epik_Ionization_Penalty>
0.000518907

> <r_epik_Ionization_Penalty_Charging>
0

> <r_epik_Ionization_Penalty_Neutral>
0.000518907

> <r_epik_State_Penalty>
0.000177984

> <r_epik_Charging_Adjusted_Penalty>
0.000177984

> <i_epik_Tot_Q>
0

> <i_epik_Tot_abs_Q>
0

> <r_epik_Metal_State_Penalty>
-0

> <b_epik_Metal_Only>
0

> <s_lp_Force_Field>
OPLS_2005

> <r_lp_Energy>
18.5448

> <b_lp_Chiralities_Consistent>
1

> <s_lp_Variant>
AV-unprocessed.smi:916-3

> <Gold.Version>
5.8.1

> <Gold.Id.Protein>
6NUR|6NUR_protein|mol2

> <Gold.PLP.Fitness>
39.2986

> <Gold.PLP.PLP>
-33.7337

> <Gold.PLP.part.hbond>
-2.1810

> <Gold.PLP.part.metal>
0.0000

> <Gold.PLP.part.buried>
-4.6416

> <Gold.PLP.part.nonpolar>
-26.3365

> <Gold.PLP.part.repulsive>
0.2118

> <Gold.PLP.ligand.clash>
0.0000

> <Gold.PLP.ligand.torsion>
0.2487

> <Gold.PLP.Chemscore.Hbond>
2.0000

> <Gold.PLP.Chemscore.CHOScore>
0.0000

> <Gold.PLP.Chemscore.Metal>
0.0000

> <Gold.Chemscore.Hbonds>
donor molecule, donor type, donor heavy atom, donor atom, acceptor molecule, acceptor atom, score
      L1  H     7    27       P1  7948  1.00
      L1  H    10    28       P1  7948  1.00

> <Gold.PLP.Chemscore.Internal.Correction>
0.0622

> <Gold.Rescore>
     Score         DG    S(hbond)    S(metal)    S(lipo)     H(rot)  DE(clash)    DE(int)     intcor
     13.67     -15.13       1.25        0.00      80.29       1.52       0.02       1.45       ----

> <Gold.Chemscore.Fitness>
13.6657

> <Gold.Chemscore.DG>
-15.1344

> <Gold.Chemscore.ZeroCoef>
-5.4800

> <Gold.Chemscore.Hbond>
1.2459

> <Gold.Chemscore.Metal>
0.0000

> <Gold.Chemscore.Lipo>
80.2891

> <Gold.Chemscore.Internal_Hbond>
0.0000

> <Gold.Chemscore.DEClash>
0.0237

> <Gold.Chemscore.DEInternal>
1.4450

> <Gold.Chemscore.Rot>
1.5238

> <Gold.Chemscore.Internal.Correction>
   9.000000E+99

> <Gold.Chemscore.Hbonds>
donor molecule, donor type, donor heavy atom, donor atom, acceptor molecule, acceptor atom, score
      L1  H     7    27       P1  7948  0.25
      L1  H    10    28       P1  7948  0.33

> <Gold.Chemscore.Hbond.Weighted>
-4.1614

> <Gold.Chemscore.Metal.Weighted>
-0.0000

> <Gold.Chemscore.Lipo.Weighted>
-9.3938

> <Gold.Chemscore.Internal_Hbond.Weighted>
0.0000

> <Gold.Chemscore.DEClash.Weighted>
0.0237

> <Gold.Chemscore.DEInternal.Weighted>
1.4450

> <Gold.Chemscore.Rot.Weighted>
3.9008

> <Gold.Chemscore.Internal.Correction.Weighted>
   9.000000E+99

> <Gold.Protein.RotatedTorsions>
[ 6907 6896 6895 6894 ] final -166.25 input  -60.11 | X-H torsion
[ 7974 7965 7964 7962 ] final  115.38 input  175.53 | X-H torsion
[ 8008 7997 7996 7995 ] final  154.24 input   59.86 | X-H torsion
[ 10167 10162 10161 10158 ] final -178.38 input  -65.29 | X-H torsion
[ 10718 10713 10712 10709 ] final  -55.08 input   66.30 | X-H torsion
[ 10763 10752 10751 10750 ] final  129.58 input  -60.55 | X-H torsion
[ 11005 11000 10999 10996 ] final   11.17 input  -57.11 | X-H torsion

> <Gold.Protein.ActiveResidues>
 VAL166  LYS551  ARG553  GLY616  TRP617  ASP618  TYR619  PRO620  LYS621  CYS622 
 ASP623  PHE694  ASN695  SER759  ASP760  ASP761  ALA762  ILE779  LEU786  VAL792 
 PHE793  MET794  SER795  GLU796  ALA797  LYS798  CYS799  TRP800  GLU811  SER814 

> <Gold.Protein.RotatedAtoms>
  151.4406  133.3644  159.2781 H   0  0  0  0  0  0  0  0  0  0  0  0  # atno 6907 bound_to 6896
  150.9160  134.8579  159.7468 H   0  0  0  0  0  0  0  0  0  0  0  0  # atno 6908 bound_to 6896
  152.4957  134.4340  159.9573 H   0  0  0  0  0  0  0  0  0  0  0  0  # atno 6909 bound_to 6896
  145.1927  139.2992  143.4360 H   0  0  0  0  0  0  0  0  0  0  0  0  # atno 7974 bound_to 7965
  156.2541  140.1972  156.6615 H   0  0  0  0  0  0  0  0  0  0  0  0  # atno 8008 bound_to 7997
  154.6461  140.0577  156.9927 H   0  0  0  0  0  0  0  0  0  0  0  0  # atno 8009 bound_to 7997
  155.1489  140.3249  155.4438 H   0  0  0  0  0  0  0  0  0  0  0  0  # atno 8010 bound_to 7997
  139.5435  144.2298  152.0942 H   0  0  0  0  0  0  0  0  0  0  0  0  # atno 10167 bound_to 10162
  156.1398  130.4155  150.0123 H   0  0  0  0  0  0  0  0  0  0  0  0  # atno 10718 bound_to 10713
  153.7440  135.3220  155.3309 H   0  0  0  0  0  0  0  0  0  0  0  0  # atno 10763 bound_to 10752
  154.8285  135.4551  154.0998 H   0  0  0  0  0  0  0  0  0  0  0  0  # atno 10764 bound_to 10752
  153.2181  135.6944  153.8115 H   0  0  0  0  0  0  0  0  0  0  0  0  # atno 10765 bound_to 10752
  140.5063  134.0696  155.7806 H   0  0  0  0  0  0  0  0  0  0  0  0  # atno 11005 bound_to 11000
  146.3433  140.2145  142.8590 LP  0  0  0  0  0  0  0  0  0  0  0  0  # atno 17320 bound_to 7965
  145.0025  140.8644  143.5273 LP  0  0  0  0  0  0  0  0  0  0  0  0  # atno 17321 bound_to 7965
  140.1781  144.4871  150.6543 LP  0  0  0  0  0  0  0  0  0  0  0  0  # atno 17342 bound_to 10162
  140.6674  143.2273  151.5708 LP  0  0  0  0  0  0  0  0  0  0  0  0  # atno 17343 bound_to 10162
  156.8012  130.9291  151.3646 LP  0  0  0  0  0  0  0  0  0  0  0  0  # atno 17370 bound_to 10713
  157.6565  130.8929  149.9740 LP  0  0  0  0  0  0  0  0  0  0  0  0  # atno 17371 bound_to 10713
  141.1409  133.9139  157.2327 LP  0  0  0  0  0  0  0  0  0  0  0  0  # atno 17394 bound_to 11000
  139.9684  135.0135  156.9449 LP  0  0  0  0  0  0  0  0  0  0  0  0  # atno 17395 bound_to 11000

$$$$
