AV-unprocessed.smi:942|AV-procd|sdf|4228|dock10
  -GOLD-   22720 2133D 1   1.00000     0.00000
 Structure written by MMmdl.
 42 44  0  0  0  0  0  0  0  0  1 V2000
  151.1981  139.5675  157.7680 O   0  0  0  0  0  0  0  0  0  0  0  0
  151.6294  140.6120  157.2793 C   0  0  0  0  0  0  0  0  0  0  0  0
  151.6232  140.8655  155.9618 N   0  0  0  0  0  0  0  0  0  0  0  0
  151.1328  139.9571  154.9293 C   0  0  1  0  0  0  0  0  0  0  0  0
  151.9950  138.6801  154.8410 C   0  0  0  0  0  0  0  0  0  0  0  0
  151.1138  137.5307  155.3349 C   0  0  0  0  0  0  0  0  0  0  0  0
  149.6940  137.9692  154.9906 C   0  0  0  0  0  0  0  0  0  0  0  0
  149.7035  139.4769  155.2659 C   0  0  2  0  0  0  0  0  0  0  0  0
  148.6660  140.2007  154.5479 N   0  0  0  0  0  0  0  0  0  0  0  0
  147.7325  139.6878  153.6542 C   0  0  0  0  0  0  0  0  0  0  0  0
  146.9671  140.7498  153.2290 C   0  0  0  0  0  0  0  0  0  0  0  0
  147.4091  141.9200  153.8407 N   0  0  0  0  0  0  0  0  0  0  0  0
  148.4162  141.5166  154.6045 C   0  0  0  0  0  0  0  0  0  0  0  0
  152.2126  141.7088  158.1800 C   0  0  0  0  0  0  0  0  0  0  0  0
  152.1896  141.2828  159.6635 C   0  0  0  0  0  0  0  0  0  0  0  0
  152.7742  142.3808  160.5675 C   0  0  0  0  0  0  0  0  0  0  0  0
  152.0380  143.7159  160.3714 C   0  0  0  0  0  0  0  0  0  0  0  0
  152.0396  144.1423  158.8947 C   0  0  0  0  0  0  0  0  0  0  0  0
  151.4552  143.0406  157.9950 C   0  0  0  0  0  0  0  0  0  0  0  0
  151.9929  141.7519  155.6499 H   0  0  0  0  0  0  0  0  0  0  0  0
  151.1515  140.4638  153.9623 H   0  0  0  0  0  0  0  0  0  0  0  0
  152.2651  138.5041  153.7991 H   0  0  0  0  0  0  0  0  0  0  0  0
  152.9273  138.7442  155.4037 H   0  0  0  0  0  0  0  0  0  0  0  0
  151.3796  136.5742  154.8838 H   0  0  0  0  0  0  0  0  0  0  0  0
  151.2142  137.4295  156.4165 H   0  0  0  0  0  0  0  0  0  0  0  0
  149.5001  137.7654  153.9367 H   0  0  0  0  0  0  0  0  0  0  0  0
  148.9396  137.4423  155.5757 H   0  0  0  0  0  0  0  0  0  0  0  0
  149.5247  139.6071  156.3353 H   0  0  0  0  0  0  0  0  0  0  0  0
  147.6914  138.6387  153.4005 H   0  0  0  0  0  0  0  0  0  0  0  0
  146.1401  140.7618  152.5344 H   0  0  0  0  0  0  0  0  0  0  0  0
  148.9859  142.1967  155.2208 H   0  0  0  0  0  0  0  0  0  0  0  0
  153.2532  141.8687  157.8913 H   0  0  0  0  0  0  0  0  0  0  0  0
  151.1673  141.0665  159.9782 H   0  0  0  0  0  0  0  0  0  0  0  0
  152.7554  140.3602  159.7986 H   0  0  0  0  0  0  0  0  0  0  0  0
  152.7143  142.0733  161.6118 H   0  0  0  0  0  0  0  0  0  0  0  0
  153.8338  142.5116  160.3440 H   0  0  0  0  0  0  0  0  0  0  0  0
  151.0097  143.6204  160.7225 H   0  0  0  0  0  0  0  0  0  0  0  0
  152.5028  144.4901  160.9823 H   0  0  0  0  0  0  0  0  0  0  0  0
  151.4694  145.0637  158.7733 H   0  0  0  0  0  0  0  0  0  0  0  0
  153.0597  144.3669  158.5805 H   0  0  0  0  0  0  0  0  0  0  0  0
  151.5032  143.3585  156.9526 H   0  0  0  0  0  0  0  0  0  0  0  0
  150.3973  142.9090  158.2292 H   0  0  0  0  0  0  0  0  0  0  0  0
  1  2  2  0  0  0  0
  2  3  1  0  0  0  0
  2 14  1  0  0  0  0
  3  4  1  0  0  0  0
  3 20  1  0  0  0  0
  4  8  1  0  0  0  0
  4  5  1  0  0  0  0
  4 21  1  0  0  0  0
  5  6  1  0  0  0  0
  5 22  1  0  0  0  0
  5 23  1  0  0  0  0
  6  7  1  0  0  0  0
  6 24  1  0  0  0  0
  6 25  1  0  0  0  0
  7  8  1  0  0  0  0
  7 26  1  0  0  0  0
  7 27  1  0  0  0  0
  8  9  1  0  0  0  0
  8 28  1  0  0  0  0
  9 13  1  0  0  0  0
  9 10  1  0  0  0  0
 10 11  2  0  0  0  0
 10 29  1  0  0  0  0
 11 12  1  0  0  0  0
 11 30  1  0  0  0  0
 12 13  2  0  0  0  0
 13 31  1  0  0  0  0
 14 19  1  0  0  0  0
 14 15  1  0  0  0  0
 14 32  1  0  0  0  0
 15 16  1  0  0  0  0
 15 33  1  0  0  0  0
 15 34  1  0  0  0  0
 16 17  1  0  0  0  0
 16 35  1  0  0  0  0
 16 36  1  0  0  0  0
 17 18  1  0  0  0  0
 17 37  1  0  0  0  0
 17 38  1  0  0  0  0
 18 19  1  0  0  0  0
 18 39  1  0  0  0  0
 18 40  1  0  0  0  0
 19 41  1  0  0  0  0
 19 42  1  0  0  0  0
M  END
> <s_m_source_file>
AV-unprocessed.smi

> <i_m_source_file_index>
942

> <i_lp_mmshare_version>
43012

> <i_f3d_flags>
0

> <s_epik_input>
W0NIMl0xW0NIMl1bQ0gyXVtDSDJdW0NIMl1bQ0hdMUMoPU8pW05IXVtDQEBIXTJbQ0gyXVtDSDJdW0NIMl1bQ0BIXTJuM1tjSF1bY0hdbltjSF0z

> <s_epik_cmdline>
J2VwaWtfcHl0aG9uJywgJy1waCcsICc3LjAnLCAnLXRuJywgJzgnLCAnLW1hJywgJzIwMCcsICctbWV0YWxfYmluZGluZycsICctaW1hZScsICc8aW5maWxlLm1hZT4nLCAnLW9tYWUnLCAnPG91dGZpbGUubWFlPic=

> <r_lp_tautomer_probability>
1

> <r_epik_Ionization_Penalty>
0.778458

> <r_epik_Ionization_Penalty_Charging>
0.778458

> <r_epik_Ionization_Penalty_Neutral>
2.79355e-08

> <r_epik_State_Penalty>
0.807804

> <r_epik_Charging_Adjusted_Penalty>
1.58626

> <i_epik_Tot_Q>
0

> <i_epik_Tot_abs_Q>
0

> <r_epik_Metal_State_Penalty>
0.343007

> <b_epik_Metal_Only>
0

> <s_lp_Force_Field>
OPLS_2005

> <r_lp_Energy>
31.6658

> <b_lp_Chiralities_Consistent>
1

> <s_lp_Variant>
AV-unprocessed.smi:942-8

> <Gold.Version>
5.8.1

> <Gold.Id.Protein>
6NUR|6NUR_protein|mol2

> <Gold.PLP.Fitness>
42.5839

> <Gold.PLP.PLP>
-36.8537

> <Gold.PLP.part.hbond>
0.0000

> <Gold.PLP.part.metal>
0.0000

> <Gold.PLP.part.buried>
-0.3105

> <Gold.PLP.part.nonpolar>
-36.7686

> <Gold.PLP.part.repulsive>
0.3393

> <Gold.PLP.ligand.clash>
0.0000

> <Gold.PLP.ligand.torsion>
0.0551

> <Gold.PLP.Chemscore.Hbond>
0.0000

> <Gold.PLP.Chemscore.CHOScore>
1.9417

> <Gold.PLP.Chemscore.Metal>
0.0000

> <Gold.Chemscore.Hbonds>
donor molecule, donor type, donor heavy atom, donor atom, acceptor molecule, acceptor atom, score
      L1  C    11    30       P1 10175  1.00
      L1  C    13    31       P1  8028  0.94

> <Gold.PLP.Chemscore.Internal.Correction>
0.0155

> <Gold.Rescore>
     Score         DG    S(hbond)    S(metal)    S(lipo)     H(rot)  DE(clash)    DE(int)     intcor
     12.30     -13.65       0.00        0.00     101.29       1.44       0.08       1.27       ----

> <Gold.Chemscore.Fitness>
12.2953

> <Gold.Chemscore.DG>
-13.6452

> <Gold.Chemscore.ZeroCoef>
-5.4800

> <Gold.Chemscore.Hbond>
0.0000

> <Gold.Chemscore.Metal>
0.0000

> <Gold.Chemscore.Lipo>
101.2855

> <Gold.Chemscore.Internal_Hbond>
0.0000

> <Gold.Chemscore.DEClash>
0.0811

> <Gold.Chemscore.DEInternal>
1.2689

> <Gold.Chemscore.Rot>
1.4395

> <Gold.Chemscore.Internal.Correction>
   9.000000E+99

> <Gold.Chemscore.Hbond.Weighted>
-0.0000

> <Gold.Chemscore.Metal.Weighted>
-0.0000

> <Gold.Chemscore.Lipo.Weighted>
-11.8504

> <Gold.Chemscore.Internal_Hbond.Weighted>
0.0000

> <Gold.Chemscore.DEClash.Weighted>
0.0811

> <Gold.Chemscore.DEInternal.Weighted>
1.2689

> <Gold.Chemscore.Rot.Weighted>
3.6852

> <Gold.Chemscore.Internal.Correction.Weighted>
   9.000000E+99

> <Gold.Protein.RotatedTorsions>
[ 6907 6896 6895 6894 ] final   18.03 input  -60.11 | X-H torsion
[ 7974 7965 7964 7962 ] final   18.80 input  175.53 | X-H torsion
[ 8008 7997 7996 7995 ] final   16.56 input   59.86 | X-H torsion
[ 10167 10162 10161 10158 ] final -176.60 input  -65.29 | X-H torsion
[ 10718 10713 10712 10709 ] final  -30.99 input   66.30 | X-H torsion
[ 10763 10752 10751 10750 ] final -166.38 input  -60.55 | X-H torsion
[ 11005 11000 10999 10996 ] final -109.53 input  -57.11 | X-H torsion

> <Gold.Protein.ActiveResidues>
 VAL166  LYS551  ARG553  GLY616  TRP617  ASP618  TYR619  PRO620  LYS621  CYS622 
 ASP623  PHE694  ASN695  SER759  ASP760  ASP761  ALA762  ILE779  LEU786  VAL792 
 PHE793  MET794  SER795  GLU796  ALA797  LYS798  CYS799  TRP800  GLU811  SER814 

> <Gold.Protein.RotatedAtoms>
  151.8588  135.0531  160.0466 H   0  0  0  0  0  0  0  0  0  0  0  0  # atno 6907 bound_to 6896
  152.2679  133.5351  159.5429 H   0  0  0  0  0  0  0  0  0  0  0  0  # atno 6908 bound_to 6896
  150.7140  134.0655  159.3888 H   0  0  0  0  0  0  0  0  0  0  0  0  # atno 6909 bound_to 6896
  146.2172  139.8405  142.8642 H   0  0  0  0  0  0  0  0  0  0  0  0  # atno 7974 bound_to 7965
  154.8788  140.2970  155.5437 H   0  0  0  0  0  0  0  0  0  0  0  0  # atno 8008 bound_to 7997
  156.3022  140.2446  156.3721 H   0  0  0  0  0  0  0  0  0  0  0  0  # atno 8009 bound_to 7997
  154.8739  140.0400  157.1730 H   0  0  0  0  0  0  0  0  0  0  0  0  # atno 8010 bound_to 7997
  139.5522  144.2081  152.1096 H   0  0  0  0  0  0  0  0  0  0  0  0  # atno 10167 bound_to 10162
  156.3928  130.4376  149.7381 H   0  0  0  0  0  0  0  0  0  0  0  0  # atno 10718 bound_to 10713
  154.6838  135.2959  154.9576 H   0  0  0  0  0  0  0  0  0  0  0  0  # atno 10763 bound_to 10752
  154.0561  135.6638  153.4810 H   0  0  0  0  0  0  0  0  0  0  0  0  # atno 10764 bound_to 10752
  153.0565  135.5141  154.7895 H   0  0  0  0  0  0  0  0  0  0  0  0  # atno 10765 bound_to 10752
  141.0843  133.9167  157.2221 H   0  0  0  0  0  0  0  0  0  0  0  0  # atno 11005 bound_to 11000
  145.2903  141.0165  143.3666 LP  0  0  0  0  0  0  0  0  0  0  0  0  # atno 17320 bound_to 7965
  144.9082  139.4562  143.6600 LP  0  0  0  0  0  0  0  0  0  0  0  0  # atno 17321 bound_to 7965
  140.1578  144.5054  150.6650 LP  0  0  0  0  0  0  0  0  0  0  0  0  # atno 17342 bound_to 10162
  140.6787  143.2316  151.5441 LP  0  0  0  0  0  0  0  0  0  0  0  0  # atno 17343 bound_to 10162
  156.4428  130.7869  151.2890 LP  0  0  0  0  0  0  0  0  0  0  0  0  # atno 17370 bound_to 10713
  157.7500  131.0119  150.3365 LP  0  0  0  0  0  0  0  0  0  0  0  0  # atno 17371 bound_to 10713
  139.9659  135.0142  156.9386 LP  0  0  0  0  0  0  0  0  0  0  0  0  # atno 17394 bound_to 11000
  140.5399  134.0730  155.7338 LP  0  0  0  0  0  0  0  0  0  0  0  0  # atno 17395 bound_to 11000

$$$$
