AV-unprocessed.smi:375|AV-procd|sdf|2453|dock2
  -GOLD-   2262022393D 1   1.00000     0.00000
 Structure written by MMmdl.
 36 38  0  0  0  0  0  0  0  0  1 V2000
  153.8886  140.4227  160.2475 C   0  0  0  0  0  0  0  0  0  0  0  0
  152.9970  141.2465  159.4405 N   0  0  0  0  0  0  0  0  0  0  0  0
  152.4452  140.9247  158.2472 C   0  0  0  0  0  0  0  0  0  0  0  0
  152.6104  139.8703  157.6341 O   0  0  0  0  0  0  0  0  0  0  0  0
  151.6949  141.9751  157.8350 N   0  0  0  0  0  0  0  0  0  0  0  0
  150.9576  142.0877  156.5758 C   0  0  0  0  0  0  0  0  0  0  0  0
  150.5407  140.7123  156.0115 C   0  0  2  0  0  0  0  0  0  0  0  0
  151.6303  140.1860  155.2815 O   0  0  0  0  0  0  0  0  0  0  0  0
  149.2610  140.7742  155.1839 C   0  0  0  0  0  0  0  0  0  0  0  0
  148.6073  142.0099  154.9801 C   0  0  0  0  0  0  0  0  0  0  0  0
  147.4138  142.0705  154.2354 C   0  0  0  0  0  0  0  0  0  0  0  0
  146.8621  140.8950  153.6929 C   0  0  0  0  0  0  0  0  0  0  0  0
  147.5048  139.6591  153.8958 C   0  0  0  0  0  0  0  0  0  0  0  0
  148.7001  139.5962  154.6383 C   0  0  0  0  0  0  0  0  0  0  0  0
  149.2976  138.3959  154.8325 F   0  0  0  0  0  0  0  0  0  0  0  0
  151.7757  142.9980  158.7905 C   0  0  0  0  0  0  0  0  0  0  0  0
  151.1958  144.2779  158.8271 C   0  0  0  0  0  0  0  0  0  0  0  0
  151.4878  145.0877  159.9498 C   0  0  0  0  0  0  0  0  0  0  0  0
  152.3312  144.6141  160.9884 C   0  0  0  0  0  0  0  0  0  0  0  0
  152.9013  143.3208  160.9263 C   0  0  0  0  0  0  0  0  0  0  0  0
  152.5956  142.5391  159.7992 C   0  0  0  0  0  0  0  0  0  0  0  0
  154.1266  139.4765  159.7602 H   0  0  0  0  0  0  0  0  0  0  0  0
  153.4262  140.1999  161.2095 H   0  0  0  0  0  0  0  0  0  0  0  0
  154.8248  140.9501  160.4322 H   0  0  0  0  0  0  0  0  0  0  0  0
  150.0744  142.7115  156.7233 H   0  0  0  0  0  0  0  0  0  0  0  0
  151.5791  142.6170  155.8525 H   0  0  0  0  0  0  0  0  0  0  0  0
  150.3831  140.0264  156.8439 H   0  0  0  0  0  0  0  0  0  0  0  0
  152.3384  140.0146  155.8833 H   0  0  0  0  0  0  0  0  0  0  0  0
  149.0165  142.9167  155.4010 H   0  0  0  0  0  0  0  0  0  0  0  0
  146.9201  143.0190  154.0837 H   0  0  0  0  0  0  0  0  0  0  0  0
  145.9454  140.9408  153.1238 H   0  0  0  0  0  0  0  0  0  0  0  0
  147.0789  138.7562  153.4839 H   0  0  0  0  0  0  0  0  0  0  0  0
  150.5557  144.6325  158.0329 H   0  0  0  0  0  0  0  0  0  0  0  0
  151.0639  146.0787  160.0166 H   0  0  0  0  0  0  0  0  0  0  0  0
  152.5411  145.2489  161.8365 H   0  0  0  0  0  0  0  0  0  0  0  0
  153.5451  142.9531  161.7117 H   0  0  0  0  0  0  0  0  0  0  0  0
  1  2  1  0  0  0  0
  1 22  1  0  0  0  0
  1 23  1  0  0  0  0
  1 24  1  0  0  0  0
  2 21  1  0  0  0  0
  2  3  1  0  0  0  0
  3  4  2  0  0  0  0
  3  5  1  0  0  0  0
  5  6  1  0  0  0  0
  5 16  1  0  0  0  0
  6  7  1  0  0  0  0
  6 25  1  0  0  0  0
  6 26  1  0  0  0  0
  7  8  1  0  0  0  0
  7  9  1  0  0  0  0
  7 27  1  0  0  0  0
  8 28  1  0  0  0  0
  9 14  1  0  0  0  0
  9 10  2  0  0  0  0
 10 11  1  0  0  0  0
 10 29  1  0  0  0  0
 11 12  2  0  0  0  0
 11 30  1  0  0  0  0
 12 13  1  0  0  0  0
 12 31  1  0  0  0  0
 13 14  2  0  0  0  0
 13 32  1  0  0  0  0
 14 15  1  0  0  0  0
 16 21  2  0  0  0  0
 16 17  1  0  0  0  0
 17 18  2  0  0  0  0
 17 33  1  0  0  0  0
 18 19  1  0  0  0  0
 18 34  1  0  0  0  0
 19 20  2  0  0  0  0
 19 35  1  0  0  0  0
 20 21  1  0  0  0  0
 20 36  1  0  0  0  0
M  END
> <s_m_source_file>
AV-unprocessed.smi

> <i_m_source_file_index>
375

> <i_lp_mmshare_version>
43012

> <i_f3d_flags>
0

> <s_epik_input>
W2NIXTFbY0hdW2NIXVtjSF1jKGMxMiluKFtDSDNdKWMoPU8pbjJbQ0gyXVtDQEhdKFtPSF0pYzNbY0hdW2NIXVtjSF1bY0hdYzNG

> <s_epik_cmdline>
J2VwaWtfcHl0aG9uJywgJy1waCcsICc3LjAnLCAnLXRuJywgJzgnLCAnLW1hJywgJzIwMCcsICctbWV0YWxfYmluZGluZycsICctaW1hZScsICc8aW5maWxlLm1hZT4nLCAnLW9tYWUnLCAnPG91dGZpbGUubWFlPic=

> <r_lp_tautomer_probability>
1

> <r_epik_Ionization_Penalty>
1.34619e-06

> <r_epik_Ionization_Penalty_Charging>
2.57375e-09

> <r_epik_Ionization_Penalty_Neutral>
1.34362e-06

> <r_epik_State_Penalty>
-0

> <r_epik_Charging_Adjusted_Penalty>
2.57375e-09

> <i_epik_Tot_Q>
0

> <i_epik_Tot_abs_Q>
0

> <r_epik_Metal_State_Penalty>
-0

> <b_epik_Metal_Only>
0

> <s_lp_Force_Field>
OPLS_2005

> <r_lp_Energy>
41.1048

> <b_lp_Chiralities_Consistent>
1

> <s_lp_Variant>
AV-unprocessed.smi:375-1

> <Gold.Version>
5.8.1

> <Gold.Id.Protein>
6NUR|6NUR_protein|mol2

> <Gold.PLP.Fitness>
56.6962

> <Gold.PLP.PLP>
-52.2065

> <Gold.PLP.part.hbond>
-2.0000

> <Gold.PLP.part.metal>
0.0000

> <Gold.PLP.part.buried>
-6.1051

> <Gold.PLP.part.nonpolar>
-44.3941

> <Gold.PLP.part.repulsive>
0.0000

> <Gold.PLP.ligand.clash>
0.0000

> <Gold.PLP.ligand.torsion>
0.6646

> <Gold.PLP.Chemscore.Hbond>
1.9280

> <Gold.PLP.Chemscore.CHOScore>
0.0000

> <Gold.PLP.Chemscore.Metal>
0.0000

> <Gold.Chemscore.Hbonds>
donor molecule, donor type, donor heavy atom, donor atom, acceptor molecule, acceptor atom, score
      P1  H  7989  7998       L1     8  0.93
      P1  H  7997  8010       L1     4  0.99

> <Gold.PLP.Chemscore.Internal.Correction>
0.0348

> <Gold.Rescore>
     Score         DG    S(hbond)    S(metal)    S(lipo)     H(rot)  DE(clash)    DE(int)     intcor
     17.23     -21.05       1.69        0.00     125.19       1.85       0.04       3.78       ----

> <Gold.Chemscore.Fitness>
17.2274

> <Gold.Chemscore.DG>
-21.0455

> <Gold.Chemscore.ZeroCoef>
-5.4800

> <Gold.Chemscore.Hbond>
1.6904

> <Gold.Chemscore.Metal>
0.0000

> <Gold.Chemscore.Lipo>
125.1854

> <Gold.Chemscore.Internal_Hbond>
0.0000

> <Gold.Chemscore.DEClash>
0.0421

> <Gold.Chemscore.DEInternal>
3.7761

> <Gold.Chemscore.Rot>
1.8465

> <Gold.Chemscore.Internal.Correction>
   9.000000E+99

> <Gold.Chemscore.Hbonds>
donor molecule, donor type, donor heavy atom, donor atom, acceptor molecule, acceptor atom, score
      P1  H  7989  7998       L1     8  0.71
      P1  H  7997  8010       L1     4  0.46

> <Gold.Chemscore.Hbond.Weighted>
-5.6459

> <Gold.Chemscore.Metal.Weighted>
-0.0000

> <Gold.Chemscore.Lipo.Weighted>
-14.6467

> <Gold.Chemscore.Internal_Hbond.Weighted>
0.0000

> <Gold.Chemscore.DEClash.Weighted>
0.0421

> <Gold.Chemscore.DEInternal.Weighted>
3.7761

> <Gold.Chemscore.Rot.Weighted>
4.7270

> <Gold.Chemscore.Internal.Correction.Weighted>
   9.000000E+99

> <Gold.Protein.RotatedTorsions>
[ 6907 6896 6895 6894 ] final   70.47 input  -60.11 | X-H torsion
[ 7974 7965 7964 7962 ] final -116.83 input  175.53 | X-H torsion
[ 8008 7997 7996 7995 ] final   60.70 input   59.86 | X-H torsion
[ 10167 10162 10161 10158 ] final   72.20 input  -65.29 | X-H torsion
[ 10718 10713 10712 10709 ] final -130.68 input   66.30 | X-H torsion
[ 10763 10752 10751 10750 ] final   49.49 input  -60.55 | X-H torsion
[ 11005 11000 10999 10996 ] final -167.21 input  -57.11 | X-H torsion

> <Gold.Protein.ActiveResidues>
 VAL166  LYS551  ARG553  GLY616  TRP617  ASP618  TYR619  PRO620  LYS621  CYS622 
 ASP623  PHE694  ASN695  SER759  ASP760  ASP761  ALA762  ILE779  LEU786  VAL792 
 PHE793  MET794  SER795  GLU796  ALA797  LYS798  CYS799  TRP800  GLU811  SER814 

> <Gold.Protein.RotatedAtoms>
  152.4751  134.4863  159.9681 H   0  0  0  0  0  0  0  0  0  0  0  0  # atno 6907 bound_to 6896
  151.4881  133.3525  159.2857 H   0  0  0  0  0  0  0  0  0  0  0  0  # atno 6908 bound_to 6896
  150.8785  134.8199  159.7269 H   0  0  0  0  0  0  0  0  0  0  0  0  # atno 6909 bound_to 6896
  145.0923  140.8498  143.3975 H   0  0  0  0  0  0  0  0  0  0  0  0  # atno 7974 bound_to 7965
  155.5865  140.3492  155.4554 H   0  0  0  0  0  0  0  0  0  0  0  0  # atno 8008 bound_to 7997
  156.0333  140.1279  157.0259 H   0  0  0  0  0  0  0  0  0  0  0  0  # atno 8009 bound_to 7997
  154.4361  140.1039  156.6117 H   0  0  0  0  0  0  0  0  0  0  0  0  # atno 8010 bound_to 7997
  140.0378  144.5414  150.7457 H   0  0  0  0  0  0  0  0  0  0  0  0  # atno 10167 bound_to 10162
  156.2169  130.6953  151.0712 H   0  0  0  0  0  0  0  0  0  0  0  0  # atno 10718 bound_to 10713
  152.9787  135.5910  154.4098 H   0  0  0  0  0  0  0  0  0  0  0  0  # atno 10763 bound_to 10752
  154.3734  135.2767  155.2255 H   0  0  0  0  0  0  0  0  0  0  0  0  # atno 10764 bound_to 10752
  154.4200  135.6061  153.6059 H   0  0  0  0  0  0  0  0  0  0  0  0  # atno 10765 bound_to 10752
  140.5558  134.5382  157.5132 H   0  0  0  0  0  0  0  0  0  0  0  0  # atno 11005 bound_to 11000
  145.1052  139.2795  143.5666 LP  0  0  0  0  0  0  0  0  0  0  0  0  # atno 17320 bound_to 7965
  146.3531  140.0631  142.8628 LP  0  0  0  0  0  0  0  0  0  0  0  0  # atno 17321 bound_to 7965
  140.7273  143.2650  151.4074 LP  0  0  0  0  0  0  0  0  0  0  0  0  # atno 17342 bound_to 10162
  139.6033  144.1249  152.2222 LP  0  0  0  0  0  0  0  0  0  0  0  0  # atno 17343 bound_to 10162
  157.7067  131.0753  150.6641 LP  0  0  0  0  0  0  0  0  0  0  0  0  # atno 17370 bound_to 10713
  156.6702  130.4537  149.5659 LP  0  0  0  0  0  0  0  0  0  0  0  0  # atno 17371 bound_to 10713
  139.9432  134.7749  156.0626 LP  0  0  0  0  0  0  0  0  0  0  0  0  # atno 17394 bound_to 11000
  141.1144  133.6632  156.3058 LP  0  0  0  0  0  0  0  0  0  0  0  0  # atno 17395 bound_to 11000

$$$$
