AV-unprocessed.smi:1512|AV-procd|sdf|6107|dock6
  -GOLD-   22720 6243D 1   1.00000     0.00000
 Structure written by MMmdl.
 44 46  0  0  0  0  0  0  0  0  3 V2000
  147.0024  134.2781  153.9853 C   0  0  0  0  0  0  0  0  0  0  0  0
  145.9925  135.1603  153.2335 C   0  0  1  0  0  0  0  0  0  0  0  0
  146.6788  136.3686  152.7791 N   0  0  0  0  0  0  0  0  0  0  0  0
  146.3812  137.6268  153.1387 C   0  0  0  0  0  0  0  0  0  0  0  0
  145.5122  137.9126  153.9632 O   0  0  0  0  0  0  0  0  0  0  0  0
  147.1999  138.7326  152.4585 C   0  0  0  0  0  0  0  0  0  0  0  0
  147.7855  139.6802  153.4225 N   0  0  0  0  0  0  0  0  0  0  0  0
  147.0077  140.8003  153.7709 C   0  0  0  0  0  0  0  0  0  0  0  0
  147.4510  141.7321  154.6268 C   0  0  0  0  0  0  0  0  0  0  0  0
  148.7638  141.5635  155.2002 C   0  0  0  0  0  0  0  0  0  0  0  0
  149.5292  140.4942  154.8821 C   0  0  0  0  0  0  0  0  0  0  0  0
  150.8326  140.3842  155.4961 N   0  3  0  0  0  0  0  0  0  0  0  0
  151.0386  140.9635  156.5581 O   0  0  0  0  0  0  0  0  0  0  0  0
  151.6954  139.7240  154.9245 O   0  5  0  0  0  0  0  0  0  0  0  0
  149.0398  139.4729  153.9332 C   0  0  0  0  0  0  0  0  0  0  0  0
  149.7098  138.4926  153.6015 O   0  0  0  0  0  0  0  0  0  0  0  0
  145.3550  134.4293  152.0257 C   0  0  1  0  0  0  0  0  0  0  0  0
  146.3935  133.8034  151.0627 C   0  0  0  0  0  0  0  0  0  0  0  0
  145.9466  132.3339  150.9640 C   0  0  2  0  0  0  0  0  0  0  0  0
  144.6219  132.2494  150.1845 C   0  0  0  0  0  0  0  0  0  0  0  0
  143.6045  132.8265  151.1858 C   0  0  0  0  0  0  0  0  0  0  0  0
  144.4877  133.1959  152.3929 C   0  0  1  0  0  0  0  0  0  0  0  0
  145.4968  132.0532  152.3914 C   0  0  0  0  0  0  0  0  0  0  0  0
  146.5294  133.3849  154.3926 H   0  0  0  0  0  0  0  0  0  0  0  0
  147.4466  134.8187  154.8220 H   0  0  0  0  0  0  0  0  0  0  0  0
  147.8126  133.9551  153.3307 H   0  0  0  0  0  0  0  0  0  0  0  0
  145.1994  135.4245  153.9345 H   0  0  0  0  0  0  0  0  0  0  0  0
  147.4149  136.2380  152.1005 H   0  0  0  0  0  0  0  0  0  0  0  0
  147.9755  138.2569  151.8569 H   0  0  0  0  0  0  0  0  0  0  0  0
  146.5746  139.2726  151.7447 H   0  0  0  0  0  0  0  0  0  0  0  0
  146.0396  140.8573  153.2947 H   0  0  0  0  0  0  0  0  0  0  0  0
  146.8421  142.5878  154.8792 H   0  0  0  0  0  0  0  0  0  0  0  0
  149.1255  142.3046  155.8982 H   0  0  0  0  0  0  0  0  0  0  0  0
  144.7398  135.1502  151.4846 H   0  0  0  0  0  0  0  0  0  0  0  0
  146.4086  134.2982  150.0911 H   0  0  0  0  0  0  0  0  0  0  0  0
  147.4028  133.8534  151.4730 H   0  0  0  0  0  0  0  0  0  0  0  0
  146.7209  131.6662  150.5849 H   0  0  0  0  0  0  0  0  0  0  0  0
  144.6551  132.8142  149.2520 H   0  0  0  0  0  0  0  0  0  0  0  0
  144.3766  131.2146  149.9424 H   0  0  0  0  0  0  0  0  0  0  0  0
  143.0629  133.6841  150.7853 H   0  0  0  0  0  0  0  0  0  0  0  0
  142.8693  132.0697  151.4629 H   0  0  0  0  0  0  0  0  0  0  0  0
  143.9146  133.2943  153.3147 H   0  0  0  0  0  0  0  0  0  0  0  0
  145.0381  131.0706  152.5158 H   0  0  0  0  0  0  0  0  0  0  0  0
  146.2914  132.1715  153.1297 H   0  0  0  0  0  0  0  0  0  0  0  0
  1  2  1  0  0  0  0
  1 24  1  0  0  0  0
  1 25  1  0  0  0  0
  1 26  1  0  0  0  0
  2  3  1  0  0  0  0
  2 17  1  0  0  0  0
  2 27  1  0  0  0  0
  3  4  1  0  0  0  0
  3 28  1  0  0  0  0
  4  5  2  0  0  0  0
  4  6  1  0  0  0  0
  6  7  1  0  0  0  0
  6 29  1  0  0  0  0
  6 30  1  0  0  0  0
  7 15  1  0  0  0  0
  7  8  1  0  0  0  0
  8  9  2  0  0  0  0
  8 31  1  0  0  0  0
  9 10  1  0  0  0  0
  9 32  1  0  0  0  0
 10 11  2  0  0  0  0
 10 33  1  0  0  0  0
 11 12  1  0  0  0  0
 11 15  1  0  0  0  0
 12 13  2  0  0  0  0
 12 14  1  0  0  0  0
 15 16  2  0  0  0  0
 17 22  1  0  0  0  0
 17 18  1  0  0  0  0
 17 34  1  0  0  0  0
 18 19  1  0  0  0  0
 18 35  1  0  0  0  0
 18 36  1  0  0  0  0
 19 23  1  0  0  0  0
 19 20  1  0  0  0  0
 19 37  1  0  0  0  0
 20 21  1  0  0  0  0
 20 38  1  0  0  0  0
 20 39  1  0  0  0  0
 21 22  1  0  0  0  0
 21 40  1  0  0  0  0
 21 41  1  0  0  0  0
 22 23  1  0  0  0  0
 22 42  1  0  0  0  0
 23 43  1  0  0  0  0
 23 44  1  0  0  0  0
M  CHG  1  12   1
M  CHG  1  14  -1
M  END
> <s_m_source_file>
AV-unprocessed.smi

> <i_m_source_file_index>
1512

> <i_lp_mmshare_version>
43012

> <i_f3d_flags>
0

> <s_epik_input>
W0NIMl0xW0NIMl1bQ0BIXShbQ0gyXTIpW0NAQEhdKFtDSDJdW0NAQEhdMTIpW0NASF0oW0NIM10pW05IXUMoPU8pW0NIMl1uM1tjSF1bY0hdW2NIXWMoW04rXSg9TylbTy1dKWMzPU8=

> <s_epik_cmdline>
J2VwaWtfcHl0aG9uJywgJy1waCcsICc3LjAnLCAnLXRuJywgJzgnLCAnLW1hJywgJzIwMCcsICctbWV0YWxfYmluZGluZycsICctaW1hZScsICc8aW5maWxlLm1hZT4nLCAnLW9tYWUnLCAnPG91dGZpbGUubWFlPic=

> <r_lp_tautomer_probability>
1

> <r_epik_Ionization_Penalty>
2.17697e-08

> <r_epik_Ionization_Penalty_Charging>
1.42735e-10

> <r_epik_Ionization_Penalty_Neutral>
2.16269e-08

> <r_epik_State_Penalty>
-0

> <r_epik_Charging_Adjusted_Penalty>
1.42735e-10

> <i_epik_Tot_Q>
0

> <i_epik_Tot_abs_Q>
2

> <r_epik_Metal_State_Penalty>
-0

> <b_epik_Metal_Only>
0

> <s_lp_Force_Field>
OPLS_2005

> <r_lp_Energy>
63.9552

> <b_lp_Chiralities_Consistent>
1

> <s_lp_Variant>
AV-unprocessed.smi:1512-8

> <Gold.Version>
5.8.1

> <Gold.Id.Protein>
6NUR|6NUR_protein|mol2

> <Gold.PLP.Fitness>
43.9963

> <Gold.PLP.PLP>
-36.4316

> <Gold.PLP.part.hbond>
-1.9990

> <Gold.PLP.part.metal>
0.0000

> <Gold.PLP.part.buried>
-0.8332

> <Gold.PLP.part.nonpolar>
-35.7661

> <Gold.PLP.part.repulsive>
2.0165

> <Gold.PLP.ligand.clash>
0.0000

> <Gold.PLP.ligand.torsion>
0.7434

> <Gold.PLP.Chemscore.Hbond>
2.0000

> <Gold.PLP.Chemscore.CHOScore>
1.0000

> <Gold.PLP.Chemscore.Metal>
0.0000

> <Gold.Chemscore.Hbonds>
donor molecule, donor type, donor heavy atom, donor atom, acceptor molecule, acceptor atom, score
      L1  H     3    28       P1  7948  0.94
      P1  H  7989  7998       L1    14  0.55
      L1  C     8    31       P1 10175  1.00

> <Gold.PLP.Chemscore.Internal.Correction>
0.0514

> <Gold.Rescore>
     Score         DG    S(hbond)    S(metal)    S(lipo)     H(rot)  DE(clash)    DE(int)     intcor
     13.21     -16.85       1.95        0.00      79.72       1.75       1.03       2.61       ----

> <Gold.Chemscore.Fitness>
13.2134

> <Gold.Chemscore.DG>
-16.8489

> <Gold.Chemscore.ZeroCoef>
-5.4800

> <Gold.Chemscore.Hbond>
1.9507

> <Gold.Chemscore.Metal>
0.0000

> <Gold.Chemscore.Lipo>
79.7184

> <Gold.Chemscore.Internal_Hbond>
0.0000

> <Gold.Chemscore.DEClash>
1.0264

> <Gold.Chemscore.DEInternal>
2.6091

> <Gold.Chemscore.Rot>
1.7474

> <Gold.Chemscore.Internal.Correction>
   9.000000E+99

> <Gold.Chemscore.Hbonds>
donor molecule, donor type, donor heavy atom, donor atom, acceptor molecule, acceptor atom, score
      L1  H     3    28       P1  7948  0.86
      P1  H  7989  7998       L1    14  0.03

> <Gold.Chemscore.Hbond.Weighted>
-6.5152

> <Gold.Chemscore.Metal.Weighted>
-0.0000

> <Gold.Chemscore.Lipo.Weighted>
-9.3270

> <Gold.Chemscore.Internal_Hbond.Weighted>
0.0000

> <Gold.Chemscore.DEClash.Weighted>
1.0264

> <Gold.Chemscore.DEInternal.Weighted>
2.6091

> <Gold.Chemscore.Rot.Weighted>
4.4733

> <Gold.Chemscore.Internal.Correction.Weighted>
   9.000000E+99

> <Gold.Protein.RotatedTorsions>
[ 6907 6896 6895 6894 ] final   15.50 input  -60.11 | X-H torsion
[ 7974 7965 7964 7962 ] final   85.93 input  175.53 | X-H torsion
[ 8008 7997 7996 7995 ] final -106.67 input   59.86 | X-H torsion
[ 10167 10162 10161 10158 ] final  -98.42 input  -65.29 | X-H torsion
[ 10718 10713 10712 10709 ] final  168.76 input   66.30 | X-H torsion
[ 10763 10752 10751 10750 ] final  122.86 input  -60.55 | X-H torsion
[ 11005 11000 10999 10996 ] final  -28.03 input  -57.11 | X-H torsion

> <Gold.Protein.ActiveResidues>
 VAL166  LYS551  ARG553  GLY616  TRP617  ASP618  TYR619  PRO620  LYS621  CYS622 
 ASP623  PHE694  ASN695  SER759  ASP760  ASP761  ALA762  ILE779  LEU786  VAL792 
 PHE793  MET794  SER795  GLU796  ALA797  LYS798  CYS799  TRP800  GLU811  SER814 

> <Gold.Protein.RotatedAtoms>
  151.8190  135.0657  160.0422 H   0  0  0  0  0  0  0  0  0  0  0  0  # atno 6907 bound_to 6896
  152.2964  133.5608  159.5599 H   0  0  0  0  0  0  0  0  0  0  0  0  # atno 6908 bound_to 6896
  150.7253  134.0270  159.3762 H   0  0  0  0  0  0  0  0  0  0  0  0  # atno 6909 bound_to 6896
  145.5790  139.2323  143.2363 H   0  0  0  0  0  0  0  0  0  0  0  0  # atno 7974 bound_to 7965
  154.9180  140.0408  157.1982 H   0  0  0  0  0  0  0  0  0  0  0  0  # atno 8008 bound_to 7997
  154.8282  140.2895  155.5719 H   0  0  0  0  0  0  0  0  0  0  0  0  # atno 8009 bound_to 7997
  156.2985  140.2506  156.3202 H   0  0  0  0  0  0  0  0  0  0  0  0  # atno 8010 bound_to 7997
  140.2731  143.3331  152.0515 H   0  0  0  0  0  0  0  0  0  0  0  0  # atno 10167 bound_to 10162
  157.0325  131.0263  151.2740 H   0  0  0  0  0  0  0  0  0  0  0  0  # atno 10718 bound_to 10713
  153.6364  135.3387  155.3058 H   0  0  0  0  0  0  0  0  0  0  0  0  # atno 10763 bound_to 10752
  154.8569  135.4308  154.2051 H   0  0  0  0  0  0  0  0  0  0  0  0  # atno 10764 bound_to 10752
  153.2959  135.7021  153.7322 H   0  0  0  0  0  0  0  0  0  0  0  0  # atno 10765 bound_to 10752
  140.9172  133.7422  156.0751 H   0  0  0  0  0  0  0  0  0  0  0  0  # atno 11005 bound_to 11000
  146.1730  140.6616  142.9224 LP  0  0  0  0  0  0  0  0  0  0  0  0  # atno 17320 bound_to 7965
  144.7403  140.4922  143.6874 LP  0  0  0  0  0  0  0  0  0  0  0  0  # atno 17321 bound_to 7965
  139.4983  144.6642  151.6394 LP  0  0  0  0  0  0  0  0  0  0  0  0  # atno 17342 bound_to 10162
  140.5873  143.9841  150.6303 LP  0  0  0  0  0  0  0  0  0  0  0  0  # atno 17343 bound_to 10162
  157.5167  130.7972  149.7764 LP  0  0  0  0  0  0  0  0  0  0  0  0  # atno 17370 bound_to 10713
  156.0065  130.3853  150.2414 LP  0  0  0  0  0  0  0  0  0  0  0  0  # atno 17371 bound_to 10713
  140.8034  134.3482  157.5433 LP  0  0  0  0  0  0  0  0  0  0  0  0  # atno 17394 bound_to 11000
  139.8768  134.9211  156.3268 LP  0  0  0  0  0  0  0  0  0  0  0  0  # atno 17395 bound_to 11000

$$$$
