AV-unprocessed.smi:2439|AV-procd|sdf|9606|dock3
  -GOLD-   2272013243D 1   1.00000     0.00000
 Structure written by MMmdl.
 41 43  0  0  0  0  0  0  0  0  2 V2000
  153.5658  140.0235  158.9804 N   0  0  0  0  0  0  0  0  0  0  0  0
  152.9281  140.9880  158.9382 C   0  0  0  0  0  0  0  0  0  0  0  0
  152.1236  142.2029  158.8844 C   0  0  0  0  0  0  0  0  0  0  0  0
  152.4354  143.2671  159.7563 C   0  0  0  0  0  0  0  0  0  0  0  0
  151.6608  144.4405  159.7107 C   0  0  0  0  0  0  0  0  0  0  0  0
  150.6011  144.5034  158.7883 C   0  0  0  0  0  0  0  0  0  0  0  0
  150.2920  143.4933  157.9488 N   0  0  0  0  0  0  0  0  0  0  0  0
  151.0325  142.3580  157.9874 C   0  0  0  0  0  0  0  0  0  0  0  0
  150.6863  141.3211  157.1008 N   0  0  0  0  0  0  0  0  0  0  0  0
  150.4374  141.5630  155.6846 C   0  0  0  0  0  0  0  0  0  0  0  0
  149.0317  141.1154  155.2483 C   0  0  1  0  0  0  0  0  0  0  0  0
  147.9364  141.8156  156.0718 C   0  0  0  0  0  0  0  0  0  0  0  0
  146.5891  141.4386  155.5770 N   0  3  1  0  0  0  0  0  0  0  0  0
  145.4732  142.0324  156.3591 C   0  0  0  0  0  0  0  0  0  0  0  0
  145.2769  143.5291  156.0498 C   0  0  0  0  0  0  0  0  0  0  0  0
  145.1000  143.7635  154.5435 C   0  0  0  0  0  0  0  0  0  0  0  0
  146.2691  143.1452  153.7638 C   0  0  0  0  0  0  0  0  0  0  0  0
  146.4414  141.6497  154.1104 C   0  0  1  0  0  0  0  0  0  0  0  0
  147.6181  140.9977  153.3580 C   0  0  0  0  0  0  0  0  0  0  0  0
  148.8561  141.4655  153.8794 O   0  0  0  0  0  0  0  0  0  0  0  0
  153.2568  143.1902  160.4545 H   0  0  0  0  0  0  0  0  0  0  0  0
  151.8745  145.2718  160.3663 H   0  0  0  0  0  0  0  0  0  0  0  0
  149.9838  145.3872  158.7231 H   0  0  0  0  0  0  0  0  0  0  0  0
  150.5036  140.3980  157.4682 H   0  0  0  0  0  0  0  0  0  0  0  0
  150.5839  142.6217  155.4675 H   0  0  0  0  0  0  0  0  0  0  0  0
  151.1920  141.0294  155.1060 H   0  0  0  0  0  0  0  0  0  0  0  0
  148.9340  140.0348  155.3673 H   0  0  0  0  0  0  0  0  0  0  0  0
  148.0261  141.5325  157.1214 H   0  0  0  0  0  0  0  0  0  0  0  0
  148.0723  142.8961  156.0242 H   0  0  0  0  0  0  0  0  0  0  0  0
  144.5587  141.4903  156.1149 H   0  0  0  0  0  0  0  0  0  0  0  0
  145.6432  141.8813  157.4258 H   0  0  0  0  0  0  0  0  0  0  0  0
  144.4056  143.9056  156.5866 H   0  0  0  0  0  0  0  0  0  0  0  0
  146.1282  144.1038  156.4150 H   0  0  0  0  0  0  0  0  0  0  0  0
  144.1611  143.3191  154.2108 H   0  0  0  0  0  0  0  0  0  0  0  0
  145.0306  144.8314  154.3341 H   0  0  0  0  0  0  0  0  0  0  0  0
  146.0935  143.2605  152.6938 H   0  0  0  0  0  0  0  0  0  0  0  0
  147.1859  143.6944  153.9806 H   0  0  0  0  0  0  0  0  0  0  0  0
  145.5297  141.1358  153.8019 H   0  0  0  0  0  0  0  0  0  0  0  0
  147.5720  139.9106  153.4399 H   0  0  0  0  0  0  0  0  0  0  0  0
  147.5676  141.2322  152.2945 H   0  0  0  0  0  0  0  0  0  0  0  0
  146.5261  140.4405  155.7205 H   0  0  0  0  0  0  0  0  0  0  0  0
  1  2  3  0  0  0  0
  2  3  1  0  0  0  0
  3  8  1  0  0  0  0
  3  4  2  0  0  0  0
  4  5  1  0  0  0  0
  4 21  1  0  0  0  0
  5  6  2  0  0  0  0
  5 22  1  0  0  0  0
  6  7  1  0  0  0  0
  6 23  1  0  0  0  0
  7  8  2  0  0  0  0
  8  9  1  0  0  0  0
  9 10  1  0  0  0  0
  9 24  1  0  0  0  0
 10 11  1  0  0  0  0
 10 25  1  0  0  0  0
 10 26  1  0  0  0  0
 11 20  1  0  0  0  0
 11 12  1  0  0  0  0
 11 27  1  0  0  0  0
 12 13  1  0  0  0  0
 12 28  1  0  0  0  0
 12 29  1  0  0  0  0
 13 18  1  0  0  0  0
 13 14  1  0  0  0  0
 13 41  1  0  0  0  0
 14 15  1  0  0  0  0
 14 30  1  0  0  0  0
 14 31  1  0  0  0  0
 15 16  1  0  0  0  0
 15 32  1  0  0  0  0
 15 33  1  0  0  0  0
 16 17  1  0  0  0  0
 16 34  1  0  0  0  0
 16 35  1  0  0  0  0
 17 18  1  0  0  0  0
 17 36  1  0  0  0  0
 17 37  1  0  0  0  0
 18 19  1  0  0  0  0
 18 38  1  0  0  0  0
 19 20  1  0  0  0  0
 19 39  1  0  0  0  0
 19 40  1  0  0  0  0
M  CHG  1  13   1
M  END
> <s_m_source_file>
AV-unprocessed.smi

> <i_m_source_file_index>
2439

> <i_lp_mmshare_version>
43012

> <i_f3d_flags>
0

> <s_epik_input>
TiNDYzFbY0hdW2NIXVtjSF1uYzFbTkhdW0NIMl1bQ0BIXShbQ0gyXTIpT1tDSDJdW0NAQEhdKE4yMylbQ0gyXVtDSDJdW0NIMl1bQ0gyXTM=

> <s_epik_cmdline>
J2VwaWtfcHl0aG9uJywgJy1waCcsICc3LjAnLCAnLXRuJywgJzgnLCAnLW1hJywgJzIwMCcsICctbWV0YWxfYmluZGluZycsICctaW1hZScsICc8aW5maWxlLm1hZT4nLCAnLW9tYWUnLCAnPG91dGZpbGUubWFlPic=

> <r_epik_Ionization_Penalty>
0.0803594

> <r_epik_Ionization_Penalty_Charging>
0.0803403

> <r_epik_Ionization_Penalty_Neutral>
1.90988e-05

> <r_epik_State_Penalty>
0.0711481

> <r_epik_Charging_Adjusted_Penalty>
0.151488

> <i_epik_Tot_Q>
1

> <i_epik_Tot_abs_Q>
1

> <r_epik_Metal_State_Penalty>
0.0711482

> <b_epik_Metal_Only>
0

> <s_lp_Force_Field>
OPLS_2005

> <r_lp_Energy>
29.8986

> <b_lp_Chiralities_Consistent>
1

> <s_lp_Variant>
AV-unprocessed.smi:2439-4

> <Gold.Version>
5.8.1

> <Gold.Id.Protein>
6NUR|6NUR_protein|mol2

> <Gold.PLP.Fitness>
44.1935

> <Gold.PLP.PLP>
-37.2855

> <Gold.PLP.part.hbond>
-2.1769

> <Gold.PLP.part.metal>
0.0000

> <Gold.PLP.part.buried>
-4.1170

> <Gold.PLP.part.nonpolar>
-30.8500

> <Gold.PLP.part.repulsive>
1.6382

> <Gold.PLP.ligand.clash>
0.0000

> <Gold.PLP.ligand.torsion>
0.4146

> <Gold.PLP.Chemscore.Hbond>
1.6812

> <Gold.PLP.Chemscore.CHOScore>
0.8969

> <Gold.PLP.Chemscore.Metal>
0.0000

> <Gold.Chemscore.Hbonds>
donor molecule, donor type, donor heavy atom, donor atom, acceptor molecule, acceptor atom, score
      P1  H  7997  8009       L1     1  0.67
      P1  H  8011  8017       L1    20  0.70
      L1  C     6    23       P1  8029  0.86

> <Gold.PLP.Chemscore.Internal.Correction>
0.0028

> <Gold.Rescore>
     Score         DG    S(hbond)    S(metal)    S(lipo)     H(rot)  DE(clash)    DE(int)     intcor
     16.14     -17.30       1.26        0.00      92.66       1.27       0.78       0.37       ----

> <Gold.Chemscore.Fitness>
16.1417

> <Gold.Chemscore.DG>
-17.2986

> <Gold.Chemscore.ZeroCoef>
-5.4800

> <Gold.Chemscore.Hbond>
1.2629

> <Gold.Chemscore.Metal>
0.0000

> <Gold.Chemscore.Lipo>
92.6615

> <Gold.Chemscore.Internal_Hbond>
0.0000

> <Gold.Chemscore.DEClash>
0.7828

> <Gold.Chemscore.DEInternal>
0.3742

> <Gold.Chemscore.Rot>
1.2659

> <Gold.Chemscore.Internal.Correction>
   9.000000E+99

> <Gold.Chemscore.Hbonds>
donor molecule, donor type, donor heavy atom, donor atom, acceptor molecule, acceptor atom, score
      P1  H  7997  8009       L1     1  0.38
      P1  H  8011  8017       L1    20  0.36

> <Gold.Chemscore.Hbond.Weighted>
-4.2180

> <Gold.Chemscore.Metal.Weighted>
-0.0000

> <Gold.Chemscore.Lipo.Weighted>
-10.8414

> <Gold.Chemscore.Internal_Hbond.Weighted>
0.0000

> <Gold.Chemscore.DEClash.Weighted>
0.7828

> <Gold.Chemscore.DEInternal.Weighted>
0.3742

> <Gold.Chemscore.Rot.Weighted>
3.2408

> <Gold.Chemscore.Internal.Correction.Weighted>
   9.000000E+99

> <Gold.Protein.RotatedTorsions>
[ 6907 6896 6895 6894 ] final  -95.87 input  -60.11 | X-H torsion
[ 7974 7965 7964 7962 ] final   73.98 input  175.53 | X-H torsion
[ 8008 7997 7996 7995 ] final  134.89 input   59.86 | X-H torsion
[ 10167 10162 10161 10158 ] final -108.34 input  -65.29 | X-H torsion
[ 10718 10713 10712 10709 ] final  -38.43 input   66.30 | X-H torsion
[ 10763 10752 10751 10750 ] final   50.06 input  -60.55 | X-H torsion
[ 11005 11000 10999 10996 ] final -106.40 input  -57.11 | X-H torsion

> <Gold.Protein.ActiveResidues>
 VAL166  LYS551  ARG553  GLY616  TRP617  ASP618  TYR619  PRO620  LYS621  CYS622 
 ASP623  PHE694  ASN695  SER759  ASP760  ASP761  ALA762  ILE779  LEU786  VAL792 
 PHE793  MET794  SER795  GLU796  ALA797  LYS798  CYS799  TRP800  GLU811  SER814 

> <Gold.Protein.RotatedAtoms>
  150.6974  134.1591  159.4169 H   0  0  0  0  0  0  0  0  0  0  0  0  # atno 6907 bound_to 6896
  151.9572  135.0139  160.0555 H   0  0  0  0  0  0  0  0  0  0  0  0  # atno 6908 bound_to 6896
  152.1959  133.4771  159.5069 H   0  0  0  0  0  0  0  0  0  0  0  0  # atno 6909 bound_to 6896
  145.7340  139.2695  143.1525 H   0  0  0  0  0  0  0  0  0  0  0  0  # atno 7974 bound_to 7965
  156.3001  140.2484  156.3491 H   0  0  0  0  0  0  0  0  0  0  0  0  # atno 8008 bound_to 7997
  154.8982  140.0407  157.1897 H   0  0  0  0  0  0  0  0  0  0  0  0  # atno 8009 bound_to 7997
  154.8527  140.2908  155.5592 H   0  0  0  0  0  0  0  0  0  0  0  0  # atno 8010 bound_to 7997
  140.1672  143.4072  152.1381 H   0  0  0  0  0  0  0  0  0  0  0  0  # atno 10167 bound_to 10162
  156.3038  130.4243  149.8117 H   0  0  0  0  0  0  0  0  0  0  0  0  # atno 10718 bound_to 10713
  152.9785  135.5891  154.4191 H   0  0  0  0  0  0  0  0  0  0  0  0  # atno 10763 bound_to 10752
  154.3817  135.2767  155.2209 H   0  0  0  0  0  0  0  0  0  0  0  0  # atno 10764 bound_to 10752
  154.4120  135.6079  153.6013 H   0  0  0  0  0  0  0  0  0  0  0  0  # atno 10765 bound_to 10752
  141.1006  133.8890  157.1851 H   0  0  0  0  0  0  0  0  0  0  0  0  # atno 11005 bound_to 11000
  146.0511  140.8069  142.9781 LP  0  0  0  0  0  0  0  0  0  0  0  0  # atno 17320 bound_to 7965
  144.6886  140.3054  143.7257 LP  0  0  0  0  0  0  0  0  0  0  0  0  # atno 17321 bound_to 7965
  139.5354  144.7204  151.4912 LP  0  0  0  0  0  0  0  0  0  0  0  0  # atno 17342 bound_to 10162
  140.6605  143.8508  150.6882 LP  0  0  0  0  0  0  0  0  0  0  0  0  # atno 17343 bound_to 10162
  156.5485  130.8331  151.3292 LP  0  0  0  0  0  0  0  0  0  0  0  0  # atno 17370 bound_to 10713
  157.7374  130.9796  150.2194 LP  0  0  0  0  0  0  0  0  0  0  0  0  # atno 17371 bound_to 10713
  139.9857  135.0083  156.9856 LP  0  0  0  0  0  0  0  0  0  0  0  0  # atno 17394 bound_to 11000
  140.5030  134.1078  155.7254 LP  0  0  0  0  0  0  0  0  0  0  0  0  # atno 17395 bound_to 11000

$$$$
