AV-unprocessed.smi:3313|AV-procd|sdf|12729|dock9
  -GOLD-   2272019 73D 1   1.00000     0.00000
 Structure written by MMmdl.
 43 43  0  0  0  0  0  0  0  0  2 V2000
  148.9649  138.1063  155.2913 C   0  0  0  0  0  0  0  0  0  0  0  0
  149.3238  138.9804  154.0777 C   0  0  2  0  0  0  0  0  0  0  0  0
  149.2880  140.4908  154.4091 C   0  0  0  0  0  0  0  0  0  0  0  0
  150.1523  140.8452  155.5205 N   0  0  0  0  0  0  0  0  0  0  0  0
  149.8401  141.5514  156.6635 C   0  0  0  0  0  0  0  0  0  0  0  0
  150.9804  141.6399  157.4094 C   0  0  0  0  0  0  0  0  0  0  0  0
  151.9510  140.9538  156.6270 C   0  0  0  0  0  0  0  0  0  0  0  0
  151.4525  140.4812  155.4959 N   0  0  0  0  0  0  0  0  0  0  0  0
  148.4167  138.6530  152.9542 N   0  3  0  0  0  0  0  0  0  0  0  0
  147.0149  139.0925  153.1218 C   0  0  0  0  0  0  0  0  0  0  0  0
  146.1233  138.5249  152.0042 C   0  0  0  0  0  0  0  0  0  0  0  0
  145.8330  137.0315  152.1822 C   0  0  0  0  0  0  0  0  0  0  0  0
  146.1566  136.4616  153.2240 O   0  0  0  0  0  0  0  0  0  0  0  0
  145.2265  136.4191  151.1492 N   0  0  0  0  0  0  0  0  0  0  0  0
  144.8266  135.0115  151.0297 C   0  0  0  0  0  0  0  0  0  0  0  0
  144.1546  134.8527  149.6544 C   0  0  0  0  0  0  0  0  0  0  0  0
  143.8101  134.6369  152.1295 C   0  0  0  0  0  0  0  0  0  0  0  0
  146.0617  134.0886  151.0939 C   0  0  0  0  0  0  0  0  0  0  0  0
  149.6731  138.2430  156.1090 H   0  0  0  0  0  0  0  0  0  0  0  0
  148.9786  137.0478  155.0298 H   0  0  0  0  0  0  0  0  0  0  0  0
  147.9699  138.3427  155.6704 H   0  0  0  0  0  0  0  0  0  0  0  0
  150.3360  138.7095  153.7738 H   0  0  0  0  0  0  0  0  0  0  0  0
  149.5956  141.0881  153.5506 H   0  0  0  0  0  0  0  0  0  0  0  0
  148.2703  140.7989  154.6531 H   0  0  0  0  0  0  0  0  0  0  0  0
  148.8444  141.9257  156.8505 H   0  0  0  0  0  0  0  0  0  0  0  0
  151.1036  142.1230  158.3674 H   0  0  0  0  0  0  0  0  0  0  0  0
  152.9958  140.7869  156.8449 H   0  0  0  0  0  0  0  0  0  0  0  0
  148.7768  139.1170  152.1326 H   0  0  0  0  0  0  0  0  0  0  0  0
  146.6473  138.7673  154.0953 H   0  0  0  0  0  0  0  0  0  0  0  0
  146.9755  140.1827  153.1076 H   0  0  0  0  0  0  0  0  0  0  0  0
  145.1815  139.0752  151.9726 H   0  0  0  0  0  0  0  0  0  0  0  0
  146.6020  138.6662  151.0345 H   0  0  0  0  0  0  0  0  0  0  0  0
  145.0151  136.9942  150.3465 H   0  0  0  0  0  0  0  0  0  0  0  0
  143.8247  133.8262  149.4894 H   0  0  0  0  0  0  0  0  0  0  0  0
  144.8378  135.1101  148.8438 H   0  0  0  0  0  0  0  0  0  0  0  0
  143.2785  135.4961  149.5625 H   0  0  0  0  0  0  0  0  0  0  0  0
  142.9489  135.3063  152.1201 H   0  0  0  0  0  0  0  0  0  0  0  0
  144.2489  134.6777  153.1264 H   0  0  0  0  0  0  0  0  0  0  0  0
  143.4365  133.6220  151.9886 H   0  0  0  0  0  0  0  0  0  0  0  0
  145.7848  133.0497  150.9109 H   0  0  0  0  0  0  0  0  0  0  0  0
  146.5488  134.1215  152.0683 H   0  0  0  0  0  0  0  0  0  0  0  0
  146.8041  134.3655  150.3446 H   0  0  0  0  0  0  0  0  0  0  0  0
  148.4376  137.6562  152.7930 H   0  0  0  0  0  0  0  0  0  0  0  0
  1  2  1  0  0  0  0
  1 19  1  0  0  0  0
  1 20  1  0  0  0  0
  1 21  1  0  0  0  0
  2  3  1  0  0  0  0
  2  9  1  0  0  0  0
  2 22  1  0  0  0  0
  3  4  1  0  0  0  0
  3 23  1  0  0  0  0
  3 24  1  0  0  0  0
  4  8  1  0  0  0  0
  4  5  1  0  0  0  0
  5  6  2  0  0  0  0
  5 25  1  0  0  0  0
  6  7  1  0  0  0  0
  6 26  1  0  0  0  0
  7  8  2  0  0  0  0
  7 27  1  0  0  0  0
  9 10  1  0  0  0  0
  9 28  1  0  0  0  0
  9 43  1  0  0  0  0
 10 11  1  0  0  0  0
 10 29  1  0  0  0  0
 10 30  1  0  0  0  0
 11 12  1  0  0  0  0
 11 31  1  0  0  0  0
 11 32  1  0  0  0  0
 12 13  2  0  0  0  0
 12 14  1  0  0  0  0
 14 15  1  0  0  0  0
 14 33  1  0  0  0  0
 15 16  1  0  0  0  0
 15 17  1  0  0  0  0
 15 18  1  0  0  0  0
 16 34  1  0  0  0  0
 16 35  1  0  0  0  0
 16 36  1  0  0  0  0
 17 37  1  0  0  0  0
 17 38  1  0  0  0  0
 17 39  1  0  0  0  0
 18 40  1  0  0  0  0
 18 41  1  0  0  0  0
 18 42  1  0  0  0  0
M  CHG  1   9   1
M  END
> <s_m_source_file>
AV-unprocessed.smi

> <i_m_source_file_index>
3313

> <i_lp_mmshare_version>
43012

> <i_f3d_flags>
0

> <s_epik_input>
bjFbY0hdW2NIXVtjSF1uMVtDSDJdW0NAQEhdKFtDSDNdKVtOSF1bQ0gyXVtDSDJdQyg9TylbTkhdQyhbQ0gzXSkoW0NIM10pW0NIM10=

> <s_epik_cmdline>
J2VwaWtfcHl0aG9uJywgJy1waCcsICc3LjAnLCAnLXRuJywgJzgnLCAnLW1hJywgJzIwMCcsICctbWV0YWxfYmluZGluZycsICctaW1hZScsICc8aW5maWxlLm1hZT4nLCAnLW9tYWUnLCAnPG91dGZpbGUubWFlPic=

> <r_lp_tautomer_probability>
1

> <r_epik_Ionization_Penalty>
0.0056766

> <r_epik_Ionization_Penalty_Charging>
0.00567288

> <r_epik_Ionization_Penalty_Neutral>
3.71277e-06

> <r_epik_State_Penalty>
0.0041598

> <r_epik_Charging_Adjusted_Penalty>
0.00983268

> <i_epik_Tot_Q>
1

> <i_epik_Tot_abs_Q>
1

> <r_epik_Metal_State_Penalty>
-0

> <b_epik_Metal_Only>
0

> <s_lp_Force_Field>
OPLS_2005

> <r_lp_Energy>
7.49453

> <b_lp_Chiralities_Consistent>
1

> <s_lp_Variant>
AV-unprocessed.smi:3313-1

> <Gold.Version>
5.8.1

> <Gold.Id.Protein>
6NUR|6NUR_protein|mol2

> <Gold.PLP.Fitness>
42.4039

> <Gold.PLP.PLP>
-29.3473

> <Gold.PLP.part.hbond>
-3.9813

> <Gold.PLP.part.metal>
0.0000

> <Gold.PLP.part.buried>
1.3810

> <Gold.PLP.part.nonpolar>
-27.3393

> <Gold.PLP.part.repulsive>
0.7103

> <Gold.PLP.ligand.clash>
0.0000

> <Gold.PLP.ligand.torsion>
0.2448

> <Gold.PLP.Chemscore.Hbond>
4.4903

> <Gold.PLP.Chemscore.CHOScore>
0.0000

> <Gold.PLP.Chemscore.Metal>
0.0000

> <Gold.Chemscore.Hbonds>
donor molecule, donor type, donor heavy atom, donor atom, acceptor molecule, acceptor atom, score
      L1  H     9    28       P1  7957  1.00
      L1  H     9    43       P1  7948  2.00
      L1  H    14    33       P1 10171  0.83
      P1  H  7989  7998       L1     8  0.55

> <Gold.PLP.Chemscore.Internal.Correction>
0.0753

> <Gold.Rescore>
     Score         DG    S(hbond)    S(metal)    S(lipo)     H(rot)  DE(clash)    DE(int)     intcor
     17.17     -17.73       2.95        0.00      68.74       2.20       0.32       0.24       ----

> <Gold.Chemscore.Fitness>
17.1698

> <Gold.Chemscore.DG>
-17.7254

> <Gold.Chemscore.ZeroCoef>
-5.4800

> <Gold.Chemscore.Hbond>
2.9466

> <Gold.Chemscore.Metal>
0.0000

> <Gold.Chemscore.Lipo>
68.7424

> <Gold.Chemscore.Internal_Hbond>
0.0000

> <Gold.Chemscore.DEClash>
0.3159

> <Gold.Chemscore.DEInternal>
0.2397

> <Gold.Chemscore.Rot>
2.2027

> <Gold.Chemscore.Internal.Correction>
   9.000000E+99

> <Gold.Chemscore.Hbonds>
donor molecule, donor type, donor heavy atom, donor atom, acceptor molecule, acceptor atom, score
      L1  H     9    28       P1  7957  0.95
      L1  H     9    43       P1  7948  0.94
      L1  H    14    33       P1 10171  0.78
      P1  H  7989  7998       L1     8  0.04

> <Gold.Chemscore.Hbond.Weighted>
-9.8415

> <Gold.Chemscore.Metal.Weighted>
-0.0000

> <Gold.Chemscore.Lipo.Weighted>
-8.0429

> <Gold.Chemscore.Internal_Hbond.Weighted>
0.0000

> <Gold.Chemscore.DEClash.Weighted>
0.3159

> <Gold.Chemscore.DEInternal.Weighted>
0.2397

> <Gold.Chemscore.Rot.Weighted>
5.6390

> <Gold.Chemscore.Internal.Correction.Weighted>
   9.000000E+99

> <Gold.Protein.RotatedTorsions>
[ 6907 6896 6895 6894 ] final  172.04 input  -60.11 | X-H torsion
[ 7974 7965 7964 7962 ] final  -40.89 input  175.53 | X-H torsion
[ 8008 7997 7996 7995 ] final  150.61 input   59.86 | X-H torsion
[ 10167 10162 10161 10158 ] final  -83.18 input  -65.29 | X-H torsion
[ 10718 10713 10712 10709 ] final   58.50 input   66.30 | X-H torsion
[ 10763 10752 10751 10750 ] final  101.82 input  -60.55 | X-H torsion
[ 11005 11000 10999 10996 ] final   66.30 input  -57.11 | X-H torsion

> <Gold.Protein.ActiveResidues>
 VAL166  LYS551  ARG553  GLY616  TRP617  ASP618  TYR619  PRO620  LYS621  CYS622 
 ASP623  PHE694  ASN695  SER759  ASP760  ASP761  ALA762  ILE779  LEU786  VAL792 
 PHE793  MET794  SER795  GLU796  ALA797  LYS798  CYS799  TRP800  GLU811  SER814 

> <Gold.Protein.RotatedAtoms>
  151.7906  133.3359  159.3497 H   0  0  0  0  0  0  0  0  0  0  0  0  # atno 6907 bound_to 6896
  150.7393  134.5846  159.5966 H   0  0  0  0  0  0  0  0  0  0  0  0  # atno 6908 bound_to 6896
  152.3213  134.7378  160.0364 H   0  0  0  0  0  0  0  0  0  0  0  0  # atno 6909 bound_to 6896
  146.0263  140.6788  142.9154 H   0  0  0  0  0  0  0  0  0  0  0  0  # atno 7974 bound_to 7965
  156.2708  140.2070  156.6045 H   0  0  0  0  0  0  0  0  0  0  0  0  # atno 8008 bound_to 7997
  154.6880  140.0533  157.0358 H   0  0  0  0  0  0  0  0  0  0  0  0  # atno 8009 bound_to 7997
  155.0906  140.3196  155.4578 H   0  0  0  0  0  0  0  0  0  0  0  0  # atno 8010 bound_to 7997
  140.4251  143.2570  151.8837 H   0  0  0  0  0  0  0  0  0  0  0  0  # atno 10167 bound_to 10162
  157.5601  130.8829  149.9098 H   0  0  0  0  0  0  0  0  0  0  0  0  # atno 10718 bound_to 10713
  153.3316  135.4031  155.1500 H   0  0  0  0  0  0  0  0  0  0  0  0  # atno 10763 bound_to 10752
  154.8624  135.3612  154.5462 H   0  0  0  0  0  0  0  0  0  0  0  0  # atno 10764 bound_to 10752
  153.5902  135.7074  153.5486 H   0  0  0  0  0  0  0  0  0  0  0  0  # atno 10765 bound_to 10752
  139.9840  134.6697  156.0209 H   0  0  0  0  0  0  0  0  0  0  0  0  # atno 11005 bound_to 11000
  144.7011  140.3655  143.7155 LP  0  0  0  0  0  0  0  0  0  0  0  0  # atno 17320 bound_to 7965
  145.7113  139.1685  143.2537 LP  0  0  0  0  0  0  0  0  0  0  0  0  # atno 17321 bound_to 7965
  139.4783  144.5396  151.8548 LP  0  0  0  0  0  0  0  0  0  0  0  0  # atno 17342 bound_to 10162
  140.4490  144.1881  150.5896 LP  0  0  0  0  0  0  0  0  0  0  0  0  # atno 17343 bound_to 10162
  156.0655  130.3693  150.0888 LP  0  0  0  0  0  0  0  0  0  0  0  0  # atno 17370 bound_to 10713
  156.9053  130.9634  151.3570 LP  0  0  0  0  0  0  0  0  0  0  0  0  # atno 17371 bound_to 10713
  141.1508  133.6549  156.4008 LP  0  0  0  0  0  0  0  0  0  0  0  0  # atno 17394 bound_to 11000
  140.5038  134.6460  157.5259 LP  0  0  0  0  0  0  0  0  0  0  0  0  # atno 17395 bound_to 11000

$$$$
