AV-unprocessed.smi:1201|AV-procd|sdf|5027|dock8
  -GOLD-   22720 4 53D 1   1.00000     0.00000
 Structure written by MMmdl.
 31 32  0  0  0  0  0  0  0  0  1 V2000
  146.4258  138.4422  151.4219 C   0  0  0  0  0  0  0  0  0  0  0  0
  146.9998  138.1373  152.6882 O   0  0  0  0  0  0  0  0  0  0  0  0
  147.5887  139.1594  153.4040 C   0  0  0  0  0  0  0  0  0  0  0  0
  147.1966  140.4852  153.1329 C   0  0  0  0  0  0  0  0  0  0  0  0
  147.7928  141.5348  153.8578 C   0  0  0  0  0  0  0  0  0  0  0  0
  148.7621  141.2229  154.8414 C   0  0  0  0  0  0  0  0  0  0  0  0
  149.4511  142.1842  155.6305 N   0  0  0  0  0  0  0  0  0  0  0  0
  150.4900  142.0056  156.4644 C   0  0  0  0  0  0  0  0  0  0  0  0
  151.0590  140.9357  156.6792 O   0  0  0  0  0  0  0  0  0  0  0  0
  150.8527  143.1620  157.0364 N   0  0  0  0  0  0  0  0  0  0  0  0
  151.9382  143.3136  157.9963 C   0  0  0  0  0  0  0  0  0  0  0  0
  151.9980  144.6650  158.6821 C   0  0  0  0  0  0  0  0  0  0  0  0
  152.1035  144.7513  160.1868 C   0  0  0  0  0  0  0  0  0  0  0  0
  150.8343  145.1849  159.4945 C   0  0  0  0  0  0  0  0  0  0  0  0
  149.0912  139.8643  155.0282 C   0  0  0  0  0  0  0  0  0  0  0  0
  148.5240  138.8536  154.3369 N   0  0  0  0  0  0  0  0  0  0  0  0
  146.0113  137.5336  150.9855 H   0  0  0  0  0  0  0  0  0  0  0  0
  147.1725  138.8308  150.7279 H   0  0  0  0  0  0  0  0  0  0  0  0
  145.6136  139.1643  151.5163 H   0  0  0  0  0  0  0  0  0  0  0  0
  146.4536  140.6949  152.3777 H   0  0  0  0  0  0  0  0  0  0  0  0
  147.5020  142.5486  153.6332 H   0  0  0  0  0  0  0  0  0  0  0  0
  149.1394  143.1373  155.5142 H   0  0  0  0  0  0  0  0  0  0  0  0
  150.3357  143.9956  156.7981 H   0  0  0  0  0  0  0  0  0  0  0  0
  151.8902  142.5215  158.7458 H   0  0  0  0  0  0  0  0  0  0  0  0
  152.8745  143.1663  157.4580 H   0  0  0  0  0  0  0  0  0  0  0  0
  152.5713  145.4090  158.1320 H   0  0  0  0  0  0  0  0  0  0  0  0
  152.0718  143.8225  160.7532 H   0  0  0  0  0  0  0  0  0  0  0  0
  152.7420  145.5287  160.6013 H   0  0  0  0  0  0  0  0  0  0  0  0
  150.6260  146.2516  159.4451 H   0  0  0  0  0  0  0  0  0  0  0  0
  149.9608  144.5442  159.5992 H   0  0  0  0  0  0  0  0  0  0  0  0
  149.8327  139.5760  155.7591 H   0  0  0  0  0  0  0  0  0  0  0  0
  1  2  1  0  0  0  0
  1 17  1  0  0  0  0
  1 18  1  0  0  0  0
  1 19  1  0  0  0  0
  2  3  1  0  0  0  0
  3 16  1  0  0  0  0
  3  4  2  0  0  0  0
  4  5  1  0  0  0  0
  4 20  1  0  0  0  0
  5  6  2  0  0  0  0
  5 21  1  0  0  0  0
  6  7  1  0  0  0  0
  6 15  1  0  0  0  0
  7  8  1  0  0  0  0
  7 22  1  0  0  0  0
  8  9  2  0  0  0  0
  8 10  1  0  0  0  0
 10 11  1  0  0  0  0
 10 23  1  0  0  0  0
 11 12  1  0  0  0  0
 11 24  1  0  0  0  0
 11 25  1  0  0  0  0
 12 14  1  0  0  0  0
 12 13  1  0  0  0  0
 12 26  1  0  0  0  0
 13 14  1  0  0  0  0
 13 27  1  0  0  0  0
 13 28  1  0  0  0  0
 14 29  1  0  0  0  0
 14 30  1  0  0  0  0
 15 16  2  0  0  0  0
 15 31  1  0  0  0  0
M  END
> <s_m_source_file>
AV-unprocessed.smi

> <i_m_source_file_index>
1201

> <i_lp_mmshare_version>
43012

> <i_f3d_flags>
0

> <s_epik_input>
W0NIM11PYzFbY0hdW2NIXWMoW2NIXW4xKVtOSF1DKD1PKVtOSF1bQ0gyXVtDSF0yW0NIMl1bQ0gyXTI=

> <s_epik_cmdline>
J2VwaWtfcHl0aG9uJywgJy1waCcsICc3LjAnLCAnLXRuJywgJzgnLCAnLW1hJywgJzIwMCcsICctbWV0YWxfYmluZGluZycsICctaW1hZScsICc8aW5maWxlLm1hZT4nLCAnLW9tYWUnLCAnPG91dGZpbGUubWFlPic=

> <r_lp_tautomer_probability>
1

> <r_epik_Ionization_Penalty>
9.92182e-05

> <r_epik_Ionization_Penalty_Charging>
0

> <r_epik_Ionization_Penalty_Neutral>
9.92182e-05

> <r_epik_State_Penalty>
-0

> <r_epik_Charging_Adjusted_Penalty>
0

> <i_epik_Tot_Q>
0

> <i_epik_Tot_abs_Q>
0

> <r_epik_Metal_State_Penalty>
-0

> <b_epik_Metal_Only>
0

> <s_lp_Force_Field>
OPLS_2005

> <r_lp_Energy>
14.9196

> <b_lp_Chiralities_Consistent>
1

> <s_lp_Variant>
AV-unprocessed.smi:1201-1

> <Gold.Version>
5.8.1

> <Gold.Id.Protein>
6NUR|6NUR_protein|mol2

> <Gold.PLP.Fitness>
39.0287

> <Gold.PLP.PLP>
-34.2359

> <Gold.PLP.part.hbond>
-2.0000

> <Gold.PLP.part.metal>
0.0000

> <Gold.PLP.part.buried>
-4.0184

> <Gold.PLP.part.nonpolar>
-30.9461

> <Gold.PLP.part.repulsive>
1.9858

> <Gold.PLP.ligand.clash>
0.0000

> <Gold.PLP.ligand.torsion>
0.7410

> <Gold.PLP.Chemscore.Hbond>
1.9120

> <Gold.PLP.Chemscore.CHOScore>
0.0000

> <Gold.PLP.Chemscore.Metal>
0.0000

> <Gold.Chemscore.Hbonds>
donor molecule, donor type, donor heavy atom, donor atom, acceptor molecule, acceptor atom, score
      L1  H     7    22       P1  8028  1.00
      L1  H    10    23       P1  8028  0.91

> <Gold.PLP.Chemscore.Internal.Correction>
0.5387

> <Gold.Rescore>
     Score         DG    S(hbond)    S(metal)    S(lipo)     H(rot)  DE(clash)    DE(int)     intcor
     15.39     -17.96       1.84        0.00      85.84       1.45       0.34       2.23       ----

> <Gold.Chemscore.Fitness>
15.3922

> <Gold.Chemscore.DG>
-17.9586

> <Gold.Chemscore.ZeroCoef>
-5.4800

> <Gold.Chemscore.Hbond>
1.8402

> <Gold.Chemscore.Metal>
0.0000

> <Gold.Chemscore.Lipo>
85.8422

> <Gold.Chemscore.Internal_Hbond>
0.0000

> <Gold.Chemscore.DEClash>
0.3352

> <Gold.Chemscore.DEInternal>
2.2313

> <Gold.Chemscore.Rot>
1.4497

> <Gold.Chemscore.Internal.Correction>
   9.000000E+99

> <Gold.Chemscore.Hbonds>
donor molecule, donor type, donor heavy atom, donor atom, acceptor molecule, acceptor atom, score
      L1  H     7    22       P1  8028  0.99
      L1  H    10    23       P1  8028  0.88

> <Gold.Chemscore.Hbond.Weighted>
-6.1462

> <Gold.Chemscore.Metal.Weighted>
-0.0000

> <Gold.Chemscore.Lipo.Weighted>
-10.0435

> <Gold.Chemscore.Internal_Hbond.Weighted>
0.0000

> <Gold.Chemscore.DEClash.Weighted>
0.3352

> <Gold.Chemscore.DEInternal.Weighted>
2.2313

> <Gold.Chemscore.Rot.Weighted>
3.7111

> <Gold.Chemscore.Internal.Correction.Weighted>
   9.000000E+99

> <Gold.Protein.RotatedTorsions>
[ 6907 6896 6895 6894 ] final   96.91 input  -60.11 | X-H torsion
[ 7974 7965 7964 7962 ] final  136.08 input  175.53 | X-H torsion
[ 8008 7997 7996 7995 ] final  102.45 input   59.86 | X-H torsion
[ 10167 10162 10161 10158 ] final   23.41 input  -65.29 | X-H torsion
[ 10718 10713 10712 10709 ] final  149.84 input   66.30 | X-H torsion
[ 10763 10752 10751 10750 ] final   16.29 input  -60.55 | X-H torsion
[ 11005 11000 10999 10996 ] final -131.20 input  -57.11 | X-H torsion

> <Gold.Protein.ActiveResidues>
 VAL166  LYS551  ARG553  GLY616  TRP617  ASP618  TYR619  PRO620  LYS621  CYS622 
 ASP623  PHE694  ASN695  SER759  ASP760  ASP761  ALA762  ILE779  LEU786  VAL792 
 PHE793  MET794  SER795  GLU796  ALA797  LYS798  CYS799  TRP800  GLU811  SER814 

> <Gold.Protein.RotatedAtoms>
  152.5430  134.0814  159.8237 H   0  0  0  0  0  0  0  0  0  0  0  0  # atno 6907 bound_to 6896
  151.0916  133.5304  159.2622 H   0  0  0  0  0  0  0  0  0  0  0  0  # atno 6908 bound_to 6896
  151.2093  135.0484  159.8959 H   0  0  0  0  0  0  0  0  0  0  0  0  # atno 6909 bound_to 6896
  144.9600  139.4721  143.5484 H   0  0  0  0  0  0  0  0  0  0  0  0  # atno 7974 bound_to 7965
  156.1394  140.3181  155.8472 H   0  0  0  0  0  0  0  0  0  0  0  0  # atno 8008 bound_to 7997
  155.4183  140.0510  157.3044 H   0  0  0  0  0  0  0  0  0  0  0  0  # atno 8009 bound_to 7997
  154.4964  140.2112  155.9451 H   0  0  0  0  0  0  0  0  0  0  0  0  # atno 8010 bound_to 7997
  140.5271  143.9904  150.6446 H   0  0  0  0  0  0  0  0  0  0  0  0  # atno 10167 bound_to 10162
  157.2910  131.0853  151.1462 H   0  0  0  0  0  0  0  0  0  0  0  0  # atno 10718 bound_to 10713
  153.1445  135.6766  153.8976 H   0  0  0  0  0  0  0  0  0  0  0  0  # atno 10763 bound_to 10752
  153.8423  135.3104  155.3428 H   0  0  0  0  0  0  0  0  0  0  0  0  # atno 10764 bound_to 10752
  154.7814  135.4886  153.9937 H   0  0  0  0  0  0  0  0  0  0  0  0  # atno 10765 bound_to 10752
  140.9279  134.1358  157.4259 H   0  0  0  0  0  0  0  0  0  0  0  0  # atno 11005 bound_to 11000
  146.3350  139.8744  142.8834 LP  0  0  0  0  0  0  0  0  0  0  0  0  # atno 17320 bound_to 7965
  145.2714  141.0110  143.3770 LP  0  0  0  0  0  0  0  0  0  0  0  0  # atno 17321 bound_to 7965
  140.3269  143.3102  152.0727 LP  0  0  0  0  0  0  0  0  0  0  0  0  # atno 17342 bound_to 10162
  139.4942  144.6536  151.6622 LP  0  0  0  0  0  0  0  0  0  0  0  0  # atno 17343 bound_to 10162
  157.2858  130.6772  149.6089 LP  0  0  0  0  0  0  0  0  0  0  0  0  # atno 17370 bound_to 10713
  155.9667  130.4436  150.5426 LP  0  0  0  0  0  0  0  0  0  0  0  0  # atno 17371 bound_to 10713
  139.8789  134.9995  156.5956 LP  0  0  0  0  0  0  0  0  0  0  0  0  # atno 17394 bound_to 11000
  140.7901  133.8589  155.8639 LP  0  0  0  0  0  0  0  0  0  0  0  0  # atno 17395 bound_to 11000

$$$$
