AV-unprocessed.smi:448|AV-procd|sdf|2605|dock1
  -GOLD-   2262023 03D 1   1.00000     0.00000
 Structure written by MMmdl.
 43 44  0  0  0  0  0  0  0  0  1 V2000
  150.1428  144.0515  159.3820 C   0  0  0  0  0  0  0  0  0  0  0  0
  151.6075  144.0037  158.8965 C   0  0  0  0  0  0  0  0  0  0  0  0
  152.2756  145.3473  159.2468 C   0  0  0  0  0  0  0  0  0  0  0  0
  152.3538  142.8782  159.6442 C   0  0  0  0  0  0  0  0  0  0  0  0
  151.6993  143.8064  157.3557 C   0  0  0  0  0  0  0  0  0  0  0  0
  151.1489  142.4759  156.8222 C   0  0  0  0  0  0  0  0  0  0  0  0
  151.6313  141.4152  157.2192 O   0  0  0  0  0  0  0  0  0  0  0  0
  150.1228  142.5715  155.9554 N   0  0  0  0  0  0  0  0  0  0  0  0
  149.4547  141.5248  155.2665 C   0  0  0  0  0  0  0  0  0  0  0  0
  148.0551  141.6708  155.1632 C   0  0  0  0  0  0  0  0  0  0  0  0
  147.3033  140.6924  154.4851 C   0  0  0  0  0  0  0  0  0  0  0  0
  147.9629  139.5794  153.9112 C   0  0  0  0  0  0  0  0  0  0  0  0
  147.2787  138.5615  153.2124 N   0  0  0  0  0  0  0  0  0  0  0  0
  146.4365  137.6438  153.9739 C   0  0  0  0  0  0  0  0  0  0  0  0
  146.0328  136.4411  153.1039 C   0  0  0  0  0  0  0  0  0  0  0  0
  145.4076  136.9003  151.9102 O   0  0  0  0  0  0  0  0  0  0  0  0
  146.2866  137.7019  151.1281 C   0  0  0  0  0  0  0  0  0  0  0  0
  146.7041  138.9493  151.9265 C   0  0  0  0  0  0  0  0  0  0  0  0
  149.3659  139.5214  154.0749 C   0  0  0  0  0  0  0  0  0  0  0  0
  150.0876  140.4565  154.7263 N   0  0  0  0  0  0  0  0  0  0  0  0
  150.0862  144.3025  160.4418 H   0  0  0  0  0  0  0  0  0  0  0  0
  149.6382  143.0936  159.2581 H   0  0  0  0  0  0  0  0  0  0  0  0
  149.5685  144.8016  158.8373 H   0  0  0  0  0  0  0  0  0  0  0  0
  151.7757  146.1806  158.7518 H   0  0  0  0  0  0  0  0  0  0  0  0
  153.3222  145.3640  158.9408 H   0  0  0  0  0  0  0  0  0  0  0  0
  152.2467  145.5402  160.3199 H   0  0  0  0  0  0  0  0  0  0  0  0
  152.3620  143.0565  160.7200 H   0  0  0  0  0  0  0  0  0  0  0  0
  153.3911  142.8046  159.3162 H   0  0  0  0  0  0  0  0  0  0  0  0
  151.8880  141.9051  159.4851 H   0  0  0  0  0  0  0  0  0  0  0  0
  151.1575  144.6089  156.8532 H   0  0  0  0  0  0  0  0  0  0  0  0
  152.7373  143.9111  157.0346 H   0  0  0  0  0  0  0  0  0  0  0  0
  149.7991  143.5048  155.7482 H   0  0  0  0  0  0  0  0  0  0  0  0
  147.5560  142.5259  155.5957 H   0  0  0  0  0  0  0  0  0  0  0  0
  146.2344  140.8224  154.4081 H   0  0  0  0  0  0  0  0  0  0  0  0
  146.9691  137.2870  154.8563 H   0  0  0  0  0  0  0  0  0  0  0  0
  145.5445  138.1700  154.3163 H   0  0  0  0  0  0  0  0  0  0  0  0
  146.9020  135.8282  152.8600 H   0  0  0  0  0  0  0  0  0  0  0  0
  145.3355  135.8027  153.6463 H   0  0  0  0  0  0  0  0  0  0  0  0
  147.1605  137.1195  150.8321 H   0  0  0  0  0  0  0  0  0  0  0  0
  145.7762  137.9973  150.2115 H   0  0  0  0  0  0  0  0  0  0  0  0
  145.8349  139.5829  152.1073 H   0  0  0  0  0  0  0  0  0  0  0  0
  147.4026  139.5345  151.3302 H   0  0  0  0  0  0  0  0  0  0  0  0
  149.9385  138.6920  153.6875 H   0  0  0  0  0  0  0  0  0  0  0  0
  1  2  1  0  0  0  0
  1 21  1  0  0  0  0
  1 22  1  0  0  0  0
  1 23  1  0  0  0  0
  2  3  1  0  0  0  0
  2  4  1  0  0  0  0
  2  5  1  0  0  0  0
  3 24  1  0  0  0  0
  3 25  1  0  0  0  0
  3 26  1  0  0  0  0
  4 27  1  0  0  0  0
  4 28  1  0  0  0  0
  4 29  1  0  0  0  0
  5  6  1  0  0  0  0
  5 30  1  0  0  0  0
  5 31  1  0  0  0  0
  6  7  2  0  0  0  0
  6  8  1  0  0  0  0
  8  9  1  0  0  0  0
  8 32  1  0  0  0  0
  9 20  1  0  0  0  0
  9 10  2  0  0  0  0
 10 11  1  0  0  0  0
 10 33  1  0  0  0  0
 11 12  2  0  0  0  0
 11 34  1  0  0  0  0
 12 13  1  0  0  0  0
 12 19  1  0  0  0  0
 13 18  1  0  0  0  0
 13 14  1  0  0  0  0
 14 15  1  0  0  0  0
 14 35  1  0  0  0  0
 14 36  1  0  0  0  0
 15 16  1  0  0  0  0
 15 37  1  0  0  0  0
 15 38  1  0  0  0  0
 16 17  1  0  0  0  0
 17 18  1  0  0  0  0
 17 39  1  0  0  0  0
 17 40  1  0  0  0  0
 18 41  1  0  0  0  0
 18 42  1  0  0  0  0
 19 20  2  0  0  0  0
 19 43  1  0  0  0  0
M  END
> <s_m_source_file>
AV-unprocessed.smi

> <i_m_source_file_index>
448

> <i_lp_mmshare_version>
43012

> <i_f3d_flags>
0

> <s_epik_input>
W0NIM11DKFtDSDNdKShbQ0gzXSlbQ0gyXUMoPU8pW05IXWMxW2NIXVtjSF1jKFtjSF1uMSlOMltDSDJdW0NIMl1PW0NIMl1bQ0gyXTI=

> <s_epik_cmdline>
J2VwaWtfcHl0aG9uJywgJy1waCcsICc3LjAnLCAnLXRuJywgJzgnLCAnLW1hJywgJzIwMCcsICctbWV0YWxfYmluZGluZycsICctaW1hZScsICc8aW5maWxlLm1hZT4nLCAnLW9tYWUnLCAnPG91dGZpbGUubWFlPic=

> <r_lp_tautomer_probability>
1

> <r_epik_Ionization_Penalty>
0.00318181

> <r_epik_Ionization_Penalty_Charging>
0

> <r_epik_Ionization_Penalty_Neutral>
0.00318181

> <r_epik_State_Penalty>
0.00295116

> <r_epik_Charging_Adjusted_Penalty>
0.00295116

> <i_epik_Tot_Q>
0

> <i_epik_Tot_abs_Q>
0

> <r_epik_Metal_State_Penalty>
-0

> <b_epik_Metal_Only>
0

> <s_lp_Force_Field>
OPLS_2005

> <r_lp_Energy>
25.5761

> <b_lp_Chiralities_Consistent>
1

> <s_lp_Variant>
AV-unprocessed.smi:448-1

> <Gold.Version>
5.8.1

> <Gold.Id.Protein>
6NUR|6NUR_protein|mol2

> <Gold.PLP.Fitness>
41.4356

> <Gold.PLP.PLP>
-36.3202

> <Gold.PLP.part.hbond>
-1.8988

> <Gold.PLP.part.metal>
0.0000

> <Gold.PLP.part.buried>
2.3860

> <Gold.PLP.part.nonpolar>
-36.9385

> <Gold.PLP.part.repulsive>
0.7265

> <Gold.PLP.ligand.clash>
0.0000

> <Gold.PLP.ligand.torsion>
0.5036

> <Gold.PLP.Chemscore.Hbond>
1.9040

> <Gold.PLP.Chemscore.CHOScore>
0.0000

> <Gold.PLP.Chemscore.Metal>
0.0000

> <Gold.Chemscore.Hbonds>
donor molecule, donor type, donor heavy atom, donor atom, acceptor molecule, acceptor atom, score
      L1  H     8    32       P1  8028  0.98
      P1  H  7989  7998       L1    20  0.94
      L1  C    19    43       P1  7957  0.01

> <Gold.PLP.Chemscore.Internal.Correction>
0.4104

> <Gold.Rescore>
     Score         DG    S(hbond)    S(metal)    S(lipo)     H(rot)  DE(clash)    DE(int)     intcor
     14.79     -18.75       1.33        0.00     103.94       1.30       1.59       2.38       ----

> <Gold.Chemscore.Fitness>
14.7862

> <Gold.Chemscore.DG>
-18.7511

> <Gold.Chemscore.ZeroCoef>
-5.4800

> <Gold.Chemscore.Hbond>
1.3322

> <Gold.Chemscore.Metal>
0.0000

> <Gold.Chemscore.Lipo>
103.9352

> <Gold.Chemscore.Internal_Hbond>
0.0000

> <Gold.Chemscore.DEClash>
1.5898

> <Gold.Chemscore.DEInternal>
2.3751

> <Gold.Chemscore.Rot>
1.3042

> <Gold.Chemscore.Internal.Correction>
   9.000000E+99

> <Gold.Chemscore.Hbonds>
donor molecule, donor type, donor heavy atom, donor atom, acceptor molecule, acceptor atom, score
      L1  H     8    32       P1  8028  0.91
      P1  H  7989  7998       L1    20  0.39

> <Gold.Chemscore.Hbond.Weighted>
-4.4495

> <Gold.Chemscore.Metal.Weighted>
-0.0000

> <Gold.Chemscore.Lipo.Weighted>
-12.1604

> <Gold.Chemscore.Internal_Hbond.Weighted>
0.0000

> <Gold.Chemscore.DEClash.Weighted>
1.5898

> <Gold.Chemscore.DEInternal.Weighted>
2.3751

> <Gold.Chemscore.Rot.Weighted>
3.3389

> <Gold.Chemscore.Internal.Correction.Weighted>
   9.000000E+99

> <Gold.Protein.RotatedTorsions>
[ 6907 6896 6895 6894 ] final  165.33 input  -60.11 | X-H torsion
[ 7974 7965 7964 7962 ] final -141.77 input  175.53 | X-H torsion
[ 8008 7997 7996 7995 ] final   81.90 input   59.86 | X-H torsion
[ 10167 10162 10161 10158 ] final  -34.55 input  -65.29 | X-H torsion
[ 10718 10713 10712 10709 ] final -135.84 input   66.30 | X-H torsion
[ 10763 10752 10751 10750 ] final  175.42 input  -60.55 | X-H torsion
[ 11005 11000 10999 10996 ] final    3.83 input  -57.11 | X-H torsion

> <Gold.Protein.ActiveResidues>
 VAL166  LYS551  ARG553  GLY616  TRP617  ASP618  TYR619  PRO620  LYS621  CYS622 
 ASP623  PHE694  ASN695  SER759  ASP760  ASP761  ALA762  ILE779  LEU786  VAL792 
 PHE793  MET794  SER795  GLU796  ALA797  LYS798  CYS799  TRP800  GLU811  SER814 

> <Gold.Protein.RotatedAtoms>
  151.8961  133.3527  159.3814 H   0  0  0  0  0  0  0  0  0  0  0  0  # atno 6907 bound_to 6896
  150.7091  134.4875  159.5509 H   0  0  0  0  0  0  0  0  0  0  0  0  # atno 6908 bound_to 6896
  152.2454  134.8186  160.0505 H   0  0  0  0  0  0  0  0  0  0  0  0  # atno 6909 bound_to 6896
  144.8494  140.6040  143.5400 H   0  0  0  0  0  0  0  0  0  0  0  0  # atno 7974 bound_to 7965
  155.9034  140.3432  155.6044 H   0  0  0  0  0  0  0  0  0  0  0  0  # atno 8008 bound_to 7997
  155.7473  140.0815  157.2237 H   0  0  0  0  0  0  0  0  0  0  0  0  # atno 8009 bound_to 7997
  154.4046  140.1560  156.2671 H   0  0  0  0  0  0  0  0  0  0  0  0  # atno 8010 bound_to 7997
  140.7183  143.3540  151.2097 H   0  0  0  0  0  0  0  0  0  0  0  0  # atno 10167 bound_to 10162
  156.2705  130.7263  151.1228 H   0  0  0  0  0  0  0  0  0  0  0  0  # atno 10718 bound_to 10713
  154.4674  135.2770  155.1668 H   0  0  0  0  0  0  0  0  0  0  0  0  # atno 10763 bound_to 10752
  154.3431  135.6166  153.5609 H   0  0  0  0  0  0  0  0  0  0  0  0  # atno 10764 bound_to 10752
  152.9860  135.5793  154.5048 H   0  0  0  0  0  0  0  0  0  0  0  0  # atno 10765 bound_to 10752
  140.5887  133.9944  155.8079 H   0  0  0  0  0  0  0  0  0  0  0  0  # atno 11005 bound_to 11000
  145.4530  139.1521  143.3908 LP  0  0  0  0  0  0  0  0  0  0  0  0  # atno 17320 bound_to 7965
  146.2772  140.4657  142.8791 LP  0  0  0  0  0  0  0  0  0  0  0  0  # atno 17321 bound_to 7965
  139.7077  143.9428  152.2934 LP  0  0  0  0  0  0  0  0  0  0  0  0  # atno 17342 bound_to 10162
  139.9142  144.6838  150.8529 LP  0  0  0  0  0  0  0  0  0  0  0  0  # atno 17343 bound_to 10162
  157.7282  131.0633  150.5830 LP  0  0  0  0  0  0  0  0  0  0  0  0  # atno 17370 bound_to 10713
  156.5926  130.4333  149.5930 LP  0  0  0  0  0  0  0  0  0  0  0  0  # atno 17371 bound_to 10713
  141.0949  133.9859  157.3177 LP  0  0  0  0  0  0  0  0  0  0  0  0  # atno 17394 bound_to 11000
  139.9284  135.0201  156.8314 LP  0  0  0  0  0  0  0  0  0  0  0  0  # atno 17395 bound_to 11000

$$$$
