AV-unprocessed.smi:644|AV-procd|sdf|3158|dock10
  -GOLD-   22720 0 83D 1   1.00000     0.00000
 Structure written by MMmdl.
 38 40  0  0  0  0  0  0  0  0  2 V2000
  152.2328  144.0794  161.5911 C   0  0  0  0  0  0  0  0  0  0  0  0
  152.1022  143.2190  160.3458 C   0  0  0  0  0  0  0  0  0  0  0  0
  151.3093  143.6950  159.2770 C   0  0  0  0  0  0  0  0  0  0  0  0
  151.2078  142.8845  158.1524 C   0  0  0  0  0  0  0  0  0  0  0  0
  150.5136  143.0631  156.9534 N   0  3  0  0  0  0  0  0  0  0  0  0
  150.7161  141.9849  156.1461 C   0  0  0  0  0  0  0  0  0  0  0  0
  151.5301  141.1219  156.8124 N   0  0  0  0  0  0  0  0  0  0  0  0
  152.0526  139.8109  156.4065 C   0  0  0  0  0  0  0  0  0  0  0  0
  150.9735  138.9086  155.7778 C   0  0  1  0  0  0  0  0  0  0  0  0
  150.8266  139.2361  154.4091 O   0  0  0  0  0  0  0  0  0  0  0  0
  151.3213  137.4177  155.9108 C   0  0  0  0  0  0  0  0  0  0  0  0
  150.1752  136.3657  154.9670 S   0  0  0  0  0  0  0  0  0  0  0  0
  150.4912  134.8031  155.7228 C   0  0  0  0  0  0  0  0  0  0  0  0
  151.2127  134.6143  156.8373 N   0  0  0  0  0  0  0  0  0  0  0  0
  151.2904  133.2752  157.1962 N   0  0  0  0  0  0  0  0  0  0  0  0
  150.6232  132.5002  156.3379 C   0  0  0  0  0  0  0  0  0  0  0  0
  149.8370  133.3332  155.0099 S   0  0  0  0  0  0  0  0  0  0  0  0
  151.8627  141.6408  158.0676 C   0  0  0  0  0  0  0  0  0  0  0  0
  152.6482  141.1567  159.1103 C   0  0  0  0  0  0  0  0  0  0  0  0
  152.7632  141.9657  160.2633 C   0  0  0  0  0  0  0  0  0  0  0  0
  153.6126  141.4633  161.4185 C   0  0  0  0  0  0  0  0  0  0  0  0
  151.6640  145.0049  161.4983 H   0  0  0  0  0  0  0  0  0  0  0  0
  153.2757  144.3455  161.7653 H   0  0  0  0  0  0  0  0  0  0  0  0
  151.8600  143.5462  162.4660 H   0  0  0  0  0  0  0  0  0  0  0  0
  150.8025  144.6474  159.3331 H   0  0  0  0  0  0  0  0  0  0  0  0
  150.3019  141.8377  155.1590 H   0  0  0  0  0  0  0  0  0  0  0  0
  152.8621  139.9858  155.6962 H   0  0  0  0  0  0  0  0  0  0  0  0
  152.5030  139.3350  157.2785 H   0  0  0  0  0  0  0  0  0  0  0  0
  150.0187  139.0936  156.2712 H   0  0  0  0  0  0  0  0  0  0  0  0
  149.9060  139.3496  154.2263 H   0  0  0  0  0  0  0  0  0  0  0  0
  152.3436  137.2359  155.5762 H   0  0  0  0  0  0  0  0  0  0  0  0
  151.2682  137.1243  156.9598 H   0  0  0  0  0  0  0  0  0  0  0  0
  150.5939  131.4312  156.4876 H   0  0  0  0  0  0  0  0  0  0  0  0
  153.1494  140.2021  159.0464 H   0  0  0  0  0  0  0  0  0  0  0  0
  154.0409  140.4841  161.2028 H   0  0  0  0  0  0  0  0  0  0  0  0
  153.0124  141.3713  162.3240 H   0  0  0  0  0  0  0  0  0  0  0  0
  154.4357  142.1506  161.6161 H   0  0  0  0  0  0  0  0  0  0  0  0
  149.9410  143.8589  156.7027 H   0  0  0  0  0  0  0  0  0  0  0  0
  1  2  1  0  0  0  0
  1 22  1  0  0  0  0
  1 23  1  0  0  0  0
  1 24  1  0  0  0  0
  2 20  1  0  0  0  0
  2  3  2  0  0  0  0
  3  4  1  0  0  0  0
  3 25  1  0  0  0  0
  4 18  2  0  0  0  0
  4  5  1  0  0  0  0
  5  6  2  0  0  0  0
  5 38  1  0  0  0  0
  6  7  1  0  0  0  0
  6 26  1  0  0  0  0
  7  8  1  0  0  0  0
  7 18  1  0  0  0  0
  8  9  1  0  0  0  0
  8 27  1  0  0  0  0
  8 28  1  0  0  0  0
  9 10  1  0  0  0  0
  9 11  1  0  0  0  0
  9 29  1  0  0  0  0
 10 30  1  0  0  0  0
 11 12  1  0  0  0  0
 11 31  1  0  0  0  0
 11 32  1  0  0  0  0
 12 13  1  0  0  0  0
 13 17  1  0  0  0  0
 13 14  2  0  0  0  0
 14 15  1  0  0  0  0
 15 16  2  0  0  0  0
 16 17  1  0  0  0  0
 16 33  1  0  0  0  0
 18 19  1  0  0  0  0
 19 20  2  0  0  0  0
 19 34  1  0  0  0  0
 20 21  1  0  0  0  0
 21 35  1  0  0  0  0
 21 36  1  0  0  0  0
 21 37  1  0  0  0  0
M  CHG  1   5   1
M  END
> <s_m_source_file>
AV-unprocessed.smi

> <i_m_source_file_index>
644

> <i_lp_mmshare_version>
43012

> <i_f3d_flags>
0

> <s_epik_input>
W0NIM11jKFtjSF0xKWMoW0NIM10pW2NIXWMoYzEyKW4oW2NIXW4yKVtDSDJdW0NASF0oW09IXSlbQ0gyXVNjM25uW2NIXXMz

> <s_epik_cmdline>
J2VwaWtfcHl0aG9uJywgJy1waCcsICc3LjAnLCAnLXRuJywgJzgnLCAnLW1hJywgJzIwMCcsICctbWV0YWxfYmluZGluZycsICctaW1hZScsICc8aW5maWxlLm1hZT4nLCAnLW9tYWUnLCAnPG91dGZpbGUubWFlPic=

> <r_lp_tautomer_probability>
1

> <r_epik_Ionization_Penalty>
1.07492

> <r_epik_Ionization_Penalty_Charging>
1.07491

> <r_epik_Ionization_Penalty_Neutral>
3.80549e-06

> <r_epik_State_Penalty>
1.12982

> <r_epik_Charging_Adjusted_Penalty>
2.20473

> <i_epik_Tot_Q>
1

> <i_epik_Tot_abs_Q>
1

> <r_epik_Metal_State_Penalty>
1.2206

> <b_epik_Metal_Only>
0

> <s_lp_Force_Field>
OPLS_2005

> <r_lp_Energy>
12.6095

> <b_lp_Chiralities_Consistent>
1

> <s_lp_Variant>
AV-unprocessed.smi:644-4

> <Gold.Version>
5.8.1

> <Gold.Id.Protein>
6NUR|6NUR_protein|mol2

> <Gold.PLP.Fitness>
54.9028

> <Gold.PLP.PLP>
-44.8663

> <Gold.PLP.part.hbond>
-3.6760

> <Gold.PLP.part.metal>
0.0000

> <Gold.PLP.part.buried>
-6.7913

> <Gold.PLP.part.nonpolar>
-35.0029

> <Gold.PLP.part.repulsive>
0.0222

> <Gold.PLP.ligand.clash>
0.0000

> <Gold.PLP.ligand.torsion>
0.6395

> <Gold.PLP.Chemscore.Hbond>
3.7520

> <Gold.PLP.Chemscore.CHOScore>
0.0000

> <Gold.PLP.Chemscore.Metal>
0.0000

> <Gold.Chemscore.Hbonds>
donor molecule, donor type, donor heavy atom, donor atom, acceptor molecule, acceptor atom, score
      L1  H     5    38       P1  8028  2.00
      P1  H  6896  6908       L1    15  0.75
      P1  H  7989  7998       L1    10  1.00

> <Gold.PLP.Chemscore.Internal.Correction>
0.0594

> <Gold.Rescore>
     Score         DG    S(hbond)    S(metal)    S(lipo)     H(rot)  DE(clash)    DE(int)     intcor
     19.96     -20.58       2.37        0.00     116.88       2.53       0.02       0.60       ----

> <Gold.Chemscore.Fitness>
19.9562

> <Gold.Chemscore.DG>
-20.5757

> <Gold.Chemscore.ZeroCoef>
-5.4800

> <Gold.Chemscore.Hbond>
2.3658

> <Gold.Chemscore.Metal>
0.0000

> <Gold.Chemscore.Lipo>
116.8760

> <Gold.Chemscore.Internal_Hbond>
0.0000

> <Gold.Chemscore.DEClash>
0.0154

> <Gold.Chemscore.DEInternal>
0.6040

> <Gold.Chemscore.Rot>
2.5315

> <Gold.Chemscore.Internal.Correction>
   9.000000E+99

> <Gold.Chemscore.Hbonds>
donor molecule, donor type, donor heavy atom, donor atom, acceptor molecule, acceptor atom, score
      L1  H     5    38       P1  8028  0.98
      P1  H  6896  6908       L1    15  0.22
      P1  H  7989  7998       L1    10  0.32

> <Gold.Chemscore.Hbond.Weighted>
-7.9017

> <Gold.Chemscore.Metal.Weighted>
-0.0000

> <Gold.Chemscore.Lipo.Weighted>
-13.6745

> <Gold.Chemscore.Internal_Hbond.Weighted>
0.0000

> <Gold.Chemscore.DEClash.Weighted>
0.0154

> <Gold.Chemscore.DEInternal.Weighted>
0.6040

> <Gold.Chemscore.Rot.Weighted>
6.4805

> <Gold.Chemscore.Internal.Correction.Weighted>
   9.000000E+99

> <Gold.Protein.RotatedTorsions>
[ 6907 6896 6895 6894 ] final   82.05 input  -60.11 | X-H torsion
[ 7974 7965 7964 7962 ] final   97.36 input  175.53 | X-H torsion
[ 8008 7997 7996 7995 ] final  -88.69 input   59.86 | X-H torsion
[ 10167 10162 10161 10158 ] final   24.09 input  -65.29 | X-H torsion
[ 10718 10713 10712 10709 ] final -128.77 input   66.30 | X-H torsion
[ 10763 10752 10751 10750 ] final   -6.03 input  -60.55 | X-H torsion
[ 11005 11000 10999 10996 ] final  -91.56 input  -57.11 | X-H torsion

> <Gold.Protein.ActiveResidues>
 VAL166  LYS551  ARG553  GLY616  TRP617  ASP618  TYR619  PRO620  LYS621  CYS622 
 ASP623  PHE694  ASN695  SER759  ASP760  ASP761  ALA762  ILE779  LEU786  VAL792 
 PHE793  MET794  SER795  GLU796  ALA797  LYS798  CYS799  TRP800  GLU811  SER814 

> <Gold.Protein.RotatedAtoms>
  152.5287  134.3110  159.9113 H   0  0  0  0  0  0  0  0  0  0  0  0  # atno 6907 bound_to 6896
  151.3059  133.4095  159.2651 H   0  0  0  0  0  0  0  0  0  0  0  0  # atno 6908 bound_to 6896
  151.0079  134.9390  159.8048 H   0  0  0  0  0  0  0  0  0  0  0  0  # atno 6909 bound_to 6896
  145.4266  139.2315  143.3167 H   0  0  0  0  0  0  0  0  0  0  0  0  # atno 7974 bound_to 7965
  154.6778  140.0550  157.0233 H   0  0  0  0  0  0  0  0  0  0  0  0  # atno 8008 bound_to 7997
  155.0996  140.3227  155.4532 H   0  0  0  0  0  0  0  0  0  0  0  0  # atno 8009 bound_to 7997
  156.2682  140.2033  156.6122 H   0  0  0  0  0  0  0  0  0  0  0  0  # atno 8010 bound_to 7997
  140.5216  143.9992  150.6420 H   0  0  0  0  0  0  0  0  0  0  0  0  # atno 10167 bound_to 10162
  156.1982  130.6840  151.0507 H   0  0  0  0  0  0  0  0  0  0  0  0  # atno 10718 bound_to 10713
  153.4067  135.7006  153.6387 H   0  0  0  0  0  0  0  0  0  0  0  0  # atno 10763 bound_to 10752
  153.4898  135.3675  155.2486 H   0  0  0  0  0  0  0  0  0  0  0  0  # atno 10764 bound_to 10752
  154.8714  135.4086  154.3412 H   0  0  0  0  0  0  0  0  0  0  0  0  # atno 10765 bound_to 10752
  141.1542  133.7763  156.9896 H   0  0  0  0  0  0  0  0  0  0  0  0  # atno 11005 bound_to 11000
  146.2629  140.4997  142.8846 LP  0  0  0  0  0  0  0  0  0  0  0  0  # atno 17320 bound_to 7965
  144.8210  140.6550  143.6353 LP  0  0  0  0  0  0  0  0  0  0  0  0  # atno 17321 bound_to 7965
  140.3343  143.3058  152.0655 LP  0  0  0  0  0  0  0  0  0  0  0  0  # atno 17342 bound_to 10162
  139.4925  144.6487  151.6722 LP  0  0  0  0  0  0  0  0  0  0  0  0  # atno 17343 bound_to 10162
  157.6970  131.0790  150.6938 LP  0  0  0  0  0  0  0  0  0  0  0  0  # atno 17370 bound_to 10713
  156.6995  130.4619  149.5577 LP  0  0  0  0  0  0  0  0  0  0  0  0  # atno 17371 bound_to 10713
  140.1012  134.9534  157.1925 LP  0  0  0  0  0  0  0  0  0  0  0  0  # atno 17394 bound_to 11000
  140.3316  134.2803  155.7227 LP  0  0  0  0  0  0  0  0  0  0  0  0  # atno 17395 bound_to 11000

$$$$
