#       Name:                AV-unprocessed.smi:3345
#       Creating user name   scv26
#       Creation time:       Fri Mar 27 19:32:03 2020


#       File generated by GOLD software.
#

@<TRIPOS>MOLECULE
AV-unprocessed.smi:3345
    47    48     1
SMALL
NO_CHARGES


@<TRIPOS>ATOM
      1 ****        -2.0939  -2.3850  -2.1182 C.3            1 S1                 0.0000
      2 ****        -1.5714  -1.1461  -1.3788 C.3            1 S1                 0.0000
      3 ****        -1.9784  -1.1582   0.1125 C.3            1 S1                 0.0000
      4 ****        -1.3675  -0.0517   0.8938 N.4            1 S1                 1.0000
      5 ****        -2.0075   1.2652   0.6611 C.3            1 S1                 0.0000
      6 ****        -1.2559   2.3595   1.4360 C.3            1 S1                 0.0000
      7 ****        -1.2491   2.0369   2.8214 O.3            1 S1                 0.0000
      8 ****        -0.5799   0.8088   3.0811 C.3            1 S1                 0.0000
      9 ****        -1.2910  -0.3398   2.3451 C.3            1 S1                 0.0000
     10 ****        -0.1164  -1.0764  -1.5135 N.am           1 S1                 0.0000
     11 ****         0.5946   0.0215  -1.8191 C.2            1 S1                 0.0000
     12 ****         0.0797   1.1000  -2.1146 O.2            1 S1                 0.0000
     13 ****         2.1204  -0.1152  -1.7234 C.3            1 S1                 0.0000
     14 ****         2.8642   0.8367  -2.6817 C.3            1 S1                 0.0000
     15 ****         2.5358   0.0580  -0.3364 N.pl3          1 S1                 0.0000
     16 ****         2.7749  -0.8553   0.6074 C.2            1 S1                 0.0000
     17 ****         3.0752  -0.3405   1.7914 N.2            1 S1                 0.0000
     18 ****         3.0012   0.9892   1.4881 C.2            1 S1                 0.0000
     19 ****         2.6549   1.2827   0.2353 N.2            1 S1                 0.0000
     20 ****        -3.1804  -2.4504  -2.0525 H              1 S1                 0.0000
     21 ****        -1.6796  -3.3037  -1.7013 H              1 S1                 0.0000
     22 ****        -1.8304  -2.3512  -3.1759 H              1 S1                 0.0000
     23 ****        -2.0279  -0.2788  -1.8576 H              1 S1                 0.0000
     24 ****        -3.0640  -1.1339   0.2184 H              1 S1                 0.0000
     25 ****        -1.6522  -2.1068   0.5420 H              1 S1                 0.0000
     26 ****        -2.0079   1.5082  -0.4006 H              1 S1                 0.0000
     27 ****        -3.0503   1.2298   0.9798 H              1 S1                 0.0000
     28 ****        -0.2342   2.4664   1.0671 H              1 S1                 0.0000
     29 ****        -1.7477   3.3227   1.2995 H              1 S1                 0.0000
     30 ****         0.4632   0.8804   2.7732 H              1 S1                 0.0000
     31 ****        -0.5815   0.6250   4.1555 H              1 S1                 0.0000
     32 ****        -2.2968  -0.4771   2.7455 H              1 S1                 0.0000
     33 ****        -0.7473  -1.2705   2.5113 H              1 S1                 0.0000
     34 ****         0.3955  -1.9213  -1.3037 H              1 S1                 0.0000
     35 ****         2.3808  -1.1348  -2.0129 H              1 S1                 0.0000
     36 ****         2.5724   0.6574  -3.7170 H              1 S1                 0.0000
     37 ****         3.9422   0.6876  -2.6167 H              1 S1                 0.0000
     38 ****         2.6631   1.8858  -2.4603 H              1 S1                 0.0000
     39 ****         2.7190  -1.9189   0.4271 H              1 S1                 0.0000
     40 ****         3.1855   1.7637   2.2181 H              1 S1                 0.0000
     41 ****        -0.4130   0.0281   0.5730 H              1 S1                 0.0000
     42 ****        -2.1941   1.9630   3.1400 LP             1 S1                 0.0000
     43 ****        -0.7853   2.7688   3.3207 LP             1 S1                 0.0000
     44 ****        -0.9160   1.1897  -2.1355 LP             1 S1                 0.0000
     45 ****         0.6573   1.8865  -2.3338 LP             1 S1                 0.0000
     46 ****         3.2928  -0.7939   2.6557 LP             1 S1                 0.0000
     47 ****         2.5171   2.1819  -0.1801 LP             1 S1                 0.0000
@<TRIPOS>BOND
    1    1    2 1     
    2    1   20 1     
    3    1   21 1     
    4    1   22 1     
    5    2    3 1     
    6    2   10 1     
    7    2   23 1     
    8    3    4 1     
    9    3   24 1     
   10    3   25 1     
   11    4    9 1     
   12    4    5 1     
   13    4   41 1     
   14    5    6 1     
   15    5   26 1     
   16    5   27 1     
   17    6    7 1     
   18    6   28 1     
   19    6   29 1     
   20    7    8 1     
   21    8    9 1     
   22    8   30 1     
   23    8   31 1     
   24    9   32 1     
   25    9   33 1     
   26   10   11 am    
   27   10   34 1     
   28   11   12 2     
   29   11   13 1     
   30   13   14 1     
   31   13   15 1     
   32   13   35 1     
   33   14   36 1     
   34   14   37 1     
   35   14   38 1     
   36   15   19 1     
   37   15   16 1     
   38   16   17 2     
   39   16   39 1     
   40   17   18 1     
   41   18   19 2     
   42   18   40 1     
   43    7   42 1     
   44    7   43 1     
   45   12   44 1     
   46   12   45 1     
   47   17   46 1     
   48   19   47 1     
@<TRIPOS>SUBSTRUCTURE
      1 S1             1
@<TRIPOS>SET
LONE_PAIRS      STATIC     ATOMS    <user>   **** ""
6 42 43 44 45 46 47
DONOR_HYDROGENS      STATIC     ATOMS    <user>   **** ""
2 41 34
ATOM$BLUE        STATIC     ATOMS    COLORGROUP SYSTEM
6 42 43 44 45 46 47
ATOM$RED        STATIC     ATOMS    COLORGROUP SYSTEM
2 41 34
