AV-unprocessed.smi:34|AV-procd|sdf|239|dock6
  -GOLD-   2262015583D 1   1.00000     0.00000
 Structure written by MMmdl.
 54 58  0  0  0  0  0  0  0  0  2 V2000
  153.1819  140.5656  159.7492 O   0  0  0  0  0  0  0  0  0  0  0  0
  152.6925  141.0315  158.7180 C   0  0  0  0  0  0  0  0  0  0  0  0
  152.5056  140.4062  157.5281 N   0  5  0  0  0  0  0  0  0  0  0  0
  151.7416  139.3050  157.4662 C   0  0  0  0  0  0  0  0  0  0  0  0
  151.1130  138.8426  158.5774 N   0  0  0  0  0  0  0  0  0  0  0  0
  150.3501  137.7447  158.5163 C   0  0  0  0  0  0  0  0  0  0  0  0
  150.0833  136.9634  157.4645 N   0  0  0  0  0  0  0  0  0  0  0  0
  150.7201  137.4133  156.3448 C   0  0  0  0  0  0  0  0  0  0  0  0
  151.5601  138.5612  156.2679 C   0  0  0  0  0  0  0  0  0  0  0  0
  152.0460  138.7267  154.9793 N   0  0  0  0  0  0  0  0  0  0  0  0
  151.4870  137.6971  154.3458 C   0  0  0  0  0  0  0  0  0  0  0  0
  150.6871  136.8832  155.0677 N   0  0  0  0  0  0  0  0  0  0  0  0
  149.9323  135.6589  154.6401 C   0  0  2  0  0  0  0  0  0  0  0  0
  148.6131  135.7710  155.0844 O   0  0  0  0  0  0  0  0  0  0  0  0
  148.4649  135.0257  156.2857 C   0  0  1  0  0  0  0  0  0  0  0  0
  146.9877  134.7458  156.5826 C   0  0  0  0  0  0  0  0  0  0  0  0
  146.7876  134.8108  157.9849 O   0  0  0  0  0  0  0  0  0  0  0  0
  147.0587  135.9462  158.6555 C   0  0  0  0  0  0  0  0  0  0  0  0
  147.2965  137.0234  158.1055 O   0  0  0  0  0  0  0  0  0  0  0  0
  147.0396  135.7626  160.1356 C   0  0  0  0  0  0  0  0  0  0  0  0
  146.8057  134.4746  160.6713 C   0  0  0  0  0  0  0  0  0  0  0  0
  146.7811  134.2705  162.0647 C   0  0  0  0  0  0  0  0  0  0  0  0
  146.9901  135.3523  162.9397 C   0  0  0  0  0  0  0  0  0  0  0  0
  147.2237  136.6386  162.4195 C   0  0  0  0  0  0  0  0  0  0  0  0
  147.2485  136.8447  161.0263 C   0  0  0  0  0  0  0  0  0  0  0  0
  149.3070  133.7843  155.9981 C   0  0  1  0  0  0  0  0  0  0  0  0
  148.6469  132.9472  155.1948 F   0  0  0  0  0  0  0  0  0  0  0  0
  150.5067  134.3577  155.2563 C   0  0  2  0  0  0  0  0  0  0  0  0
  151.5860  134.5476  156.1545 O   0  0  0  0  0  0  0  0  0  0  0  0
  152.2950  142.4830  158.6961 C   0  0  0  0  0  0  0  0  0  0  0  0
  152.4118  143.2585  159.8721 C   0  0  0  0  0  0  0  0  0  0  0  0
  152.0212  144.6118  159.8797 C   0  0  0  0  0  0  0  0  0  0  0  0
  151.5002  145.2018  158.7129 C   0  0  0  0  0  0  0  0  0  0  0  0
  151.3664  144.4362  157.5396 C   0  0  0  0  0  0  0  0  0  0  0  0
  151.7570  143.0828  157.5312 C   0  0  0  0  0  0  0  0  0  0  0  0
  149.8847  137.4504  159.4452 H   0  0  0  0  0  0  0  0  0  0  0  0
  151.6750  137.5295  153.2957 H   0  0  0  0  0  0  0  0  0  0  0  0
  149.9700  135.6841  153.5503 H   0  0  0  0  0  0  0  0  0  0  0  0
  148.9140  135.5724  157.1166 H   0  0  0  0  0  0  0  0  0  0  0  0
  146.3474  135.4631  156.0673 H   0  0  0  0  0  0  0  0  0  0  0  0
  146.7195  133.7484  156.2311 H   0  0  0  0  0  0  0  0  0  0  0  0
  146.6428  133.6284  160.0193 H   0  0  0  0  0  0  0  0  0  0  0  0
  146.6016  133.2824  162.4617 H   0  0  0  0  0  0  0  0  0  0  0  0
  146.9711  135.1958  164.0082 H   0  0  0  0  0  0  0  0  0  0  0  0
  147.3846  137.4699  163.0900 H   0  0  0  0  0  0  0  0  0  0  0  0
  147.4292  137.8453  160.6612 H   0  0  0  0  0  0  0  0  0  0  0  0
  149.5698  133.2254  156.8972 H   0  0  0  0  0  0  0  0  0  0  0  0
  150.8359  133.6924  154.4572 H   0  0  0  0  0  0  0  0  0  0  0  0
  151.7731  133.7223  156.5763 H   0  0  0  0  0  0  0  0  0  0  0  0
  152.8085  142.8197  160.7762 H   0  0  0  0  0  0  0  0  0  0  0  0
  152.1204  145.1961  160.7824 H   0  0  0  0  0  0  0  0  0  0  0  0
  151.1998  146.2390  158.7191 H   0  0  0  0  0  0  0  0  0  0  0  0
  150.9606  144.8855  156.6455 H   0  0  0  0  0  0  0  0  0  0  0  0
  151.6356  142.5091  156.6235 H   0  0  0  0  0  0  0  0  0  0  0  0
  1  2  2  0  0  0  0
  2  3  1  0  0  0  0
  2 30  1  0  0  0  0
  3  4  1  0  0  0  0
  4  9  1  0  0  0  0
  4  5  2  0  0  0  0
  5  6  1  0  0  0  0
  6  7  2  0  0  0  0
  6 36  1  0  0  0  0
  7  8  1  0  0  0  0
  8 12  1  0  0  0  0
  8  9  2  0  0  0  0
  9 10  1  0  0  0  0
 10 11  2  0  0  0  0
 11 12  1  0  0  0  0
 11 37  1  0  0  0  0
 12 13  1  0  0  0  0
 13 28  1  0  0  0  0
 13 14  1  0  0  0  0
 13 38  1  0  0  0  0
 14 15  1  0  0  0  0
 15 16  1  0  0  0  0
 15 26  1  0  0  0  0
 15 39  1  0  0  0  0
 16 17  1  0  0  0  0
 16 40  1  0  0  0  0
 16 41  1  0  0  0  0
 17 18  1  0  0  0  0
 18 19  2  0  0  0  0
 18 20  1  0  0  0  0
 20 25  1  0  0  0  0
 20 21  2  0  0  0  0
 21 22  1  0  0  0  0
 21 42  1  0  0  0  0
 22 23  2  0  0  0  0
 22 43  1  0  0  0  0
 23 24  1  0  0  0  0
 23 44  1  0  0  0  0
 24 25  2  0  0  0  0
 24 45  1  0  0  0  0
 25 46  1  0  0  0  0
 26 27  1  0  0  0  0
 26 28  1  0  0  0  0
 26 47  1  0  0  0  0
 28 29  1  0  0  0  0
 28 48  1  0  0  0  0
 29 49  1  0  0  0  0
 30 35  1  0  0  0  0
 30 31  2  0  0  0  0
 31 32  1  0  0  0  0
 31 50  1  0  0  0  0
 32 33  2  0  0  0  0
 32 51  1  0  0  0  0
 33 34  1  0  0  0  0
 33 52  1  0  0  0  0
 34 35  2  0  0  0  0
 34 53  1  0  0  0  0
 35 54  1  0  0  0  0
M  CHG  1   3  -1
M  END
> <s_m_source_file>
AV-unprocessed.smi

> <i_m_source_file_index>
34

> <i_lp_mmshare_version>
43012

> <i_f3d_flags>
0

> <s_epik_input>
W2NIXTFbY0hdW2NIXVtjSF1bY0hdYzFDKD1PKVtOSF1jKG5bY0hdbjIpYyhjMjMpbltjSF1uM1tDQEBIXTRPW0NASF0oW0NAQEhdKEYpW0NASF00W09IXSlbQ0gyXU9DKD1PKWM1W2NIXVtjSF1bY0hdW2NIXVtjSF01

> <s_epik_cmdline>
J2VwaWtfcHl0aG9uJywgJy1waCcsICc3LjAnLCAnLXRuJywgJzgnLCAnLW1hJywgJzIwMCcsICctbWV0YWxfYmluZGluZycsICctaW1hZScsICc8aW5maWxlLm1hZT4nLCAnLW9tYWUnLCAnPG91dGZpbGUubWFlPic=

> <r_lp_tautomer_probability>
1

> <r_epik_Ionization_Penalty>
4.33227

> <r_epik_Ionization_Penalty_Charging>
3.41027

> <r_epik_Ionization_Penalty_Neutral>
0.922001

> <r_epik_State_Penalty>
3.41358

> <r_epik_Charging_Adjusted_Penalty>
6.82385

> <i_epik_Tot_Q>
-1

> <i_epik_Tot_abs_Q>
1

> <r_epik_Metal_State_Penalty>
0.496292

> <b_epik_Metal_Only>
1

> <s_epik_Chemistry_Notes>
This compound has an ester and may undergo hydrolysis at high or low pH. This compound contains an acetal/aminal-like group ( X-CH(R)-Y where X, Y are N, S, or O) that may be acid/base labile, releasing an aldehyde.

> <s_lp_Force_Field>
OPLS_2005

> <r_lp_Energy>
47.457

> <b_lp_Chiralities_Consistent>
1

> <s_lp_Variant>
AV-unprocessed.smi:34-25

> <Gold.Version>
5.8.1

> <Gold.Id.Protein>
6NUR|6NUR_protein|mol2

> <Gold.PLP.Fitness>
65.3173

> <Gold.PLP.PLP>
-57.2916

> <Gold.PLP.part.hbond>
-2.0000

> <Gold.PLP.part.metal>
0.0000

> <Gold.PLP.part.buried>
-4.2457

> <Gold.PLP.part.nonpolar>
-49.6209

> <Gold.PLP.part.repulsive>
0.1273

> <Gold.PLP.ligand.clash>
0.0085

> <Gold.PLP.ligand.torsion>
1.3581

> <Gold.PLP.Chemscore.Hbond>
2.5600

> <Gold.PLP.Chemscore.CHOScore>
0.7380

> <Gold.PLP.Chemscore.Metal>
0.0000

> <Gold.Chemscore.Hbonds>
donor molecule, donor type, donor heavy atom, donor atom, acceptor molecule, acceptor atom, score
      P1  H  7997  8010       L1     3  1.51
      P1  H 10752 10765       L1    29  0.62
      L1  C    11    37       P1  7949  1.00

> <Gold.PLP.Chemscore.Internal.Correction>
0.8564

> <Gold.Rescore>
     Score         DG    S(hbond)    S(metal)    S(lipo)     H(rot)  DE(clash)    DE(int)     intcor
     12.59     -18.84       1.35        0.00     134.57       2.69       1.09       5.16       ----

> <Gold.Chemscore.Fitness>
12.5869

> <Gold.Chemscore.DG>
-18.8358

> <Gold.Chemscore.ZeroCoef>
-5.4800

> <Gold.Chemscore.Hbond>
1.3499

> <Gold.Chemscore.Metal>
0.0000

> <Gold.Chemscore.Lipo>
134.5694

> <Gold.Chemscore.Internal_Hbond>
0.0000

> <Gold.Chemscore.DEClash>
1.0905

> <Gold.Chemscore.DEInternal>
5.1584

> <Gold.Chemscore.Rot>
2.6944

> <Gold.Chemscore.Internal.Correction>
   9.000000E+99

> <Gold.Chemscore.Hbonds>
donor molecule, donor type, donor heavy atom, donor atom, acceptor molecule, acceptor atom, score
      P1  H  7997  8010       L1     3  0.28
      P1  H 10752 10765       L1    29  0.32

> <Gold.Chemscore.Hbond.Weighted>
-4.5088

> <Gold.Chemscore.Metal.Weighted>
-0.0000

> <Gold.Chemscore.Lipo.Weighted>
-15.7446

> <Gold.Chemscore.Internal_Hbond.Weighted>
0.0000

> <Gold.Chemscore.DEClash.Weighted>
1.0905

> <Gold.Chemscore.DEInternal.Weighted>
5.1584

> <Gold.Chemscore.Rot.Weighted>
6.8975

> <Gold.Chemscore.Internal.Correction.Weighted>
   9.000000E+99

> <Gold.Protein.RotatedTorsions>
[ 6907 6896 6895 6894 ] final  138.35 input  -60.11 | X-H torsion
[ 7974 7965 7964 7962 ] final  -92.71 input  175.53 | X-H torsion
[ 8008 7997 7996 7995 ] final   48.68 input   59.86 | X-H torsion
[ 10167 10162 10161 10158 ] final   39.31 input  -65.29 | X-H torsion
[ 10718 10713 10712 10709 ] final   29.75 input   66.30 | X-H torsion
[ 10763 10752 10751 10750 ] final -150.69 input  -60.55 | X-H torsion
[ 11005 11000 10999 10996 ] final   38.33 input  -57.11 | X-H torsion

> <Gold.Protein.ActiveResidues>
 VAL166  LYS551  ARG553  GLY616  TRP617  ASP618  TYR619  PRO620  LYS621  CYS622 
 ASP623  PHE694  ASN695  SER759  ASP760  ASP761  ALA762  ILE779  LEU786  VAL792 
 PHE793  MET794  SER795  GLU796  ALA797  LYS798  CYS799  TRP800  GLU811  SER814 

> <Gold.Protein.RotatedAtoms>
  152.2675  133.5353  159.5418 H   0  0  0  0  0  0  0  0  0  0  0  0  # atno 6907 bound_to 6896
  150.7147  134.0743  159.3884 H   0  0  0  0  0  0  0  0  0  0  0  0  # atno 6908 bound_to 6896
  151.8659  135.0507  160.0525 H   0  0  0  0  0  0  0  0  0  0  0  0  # atno 6909 bound_to 6896
  145.3962  140.9533  143.2312 H   0  0  0  0  0  0  0  0  0  0  0  0  # atno 7974 bound_to 7965
  155.3897  140.3432  155.4251 H   0  0  0  0  0  0  0  0  0  0  0  0  # atno 8008 bound_to 7997
  156.1564  140.1587  156.8718 H   0  0  0  0  0  0  0  0  0  0  0  0  # atno 8009 bound_to 7997
  154.5099  140.0793  156.7950 H   0  0  0  0  0  0  0  0  0  0  0  0  # atno 8010 bound_to 7997
  140.3852  144.1926  150.6130 H   0  0  0  0  0  0  0  0  0  0  0  0  # atno 10167 bound_to 10162
  157.2506  130.7113  149.6403 H   0  0  0  0  0  0  0  0  0  0  0  0  # atno 10718 bound_to 10713
  154.8103  135.3278  154.7322 H   0  0  0  0  0  0  0  0  0  0  0  0  # atno 10763 bound_to 10752
  153.7972  135.6906  153.4866 H   0  0  0  0  0  0  0  0  0  0  0  0  # atno 10764 bound_to 10752
  153.1878  135.4562  155.0056 H   0  0  0  0  0  0  0  0  0  0  0  0  # atno 10765 bound_to 10752
  140.2137  134.3724  155.8037 H   0  0  0  0  0  0  0  0  0  0  0  0  # atno 11005 bound_to 11000
  144.8405  139.5479  143.6902 LP  0  0  0  0  0  0  0  0  0  0  0  0  # atno 17320 bound_to 7965
  146.2774  139.6787  142.9253 LP  0  0  0  0  0  0  0  0  0  0  0  0  # atno 17321 bound_to 7965
  140.4896  143.2352  151.8837 LP  0  0  0  0  0  0  0  0  0  0  0  0  # atno 17342 bound_to 10162
  139.4792  144.5180  151.8841 LP  0  0  0  0  0  0  0  0  0  0  0  0  # atno 17343 bound_to 10162
  155.9666  130.4429  150.5398 LP  0  0  0  0  0  0  0  0  0  0  0  0  # atno 17370 bound_to 10713
  157.3282  131.0694  151.1881 LP  0  0  0  0  0  0  0  0  0  0  0  0  # atno 17371 bound_to 10713
  141.2225  133.7156  156.8460 LP  0  0  0  0  0  0  0  0  0  0  0  0  # atno 17394 bound_to 11000
  140.1923  134.8956  157.3075 LP  0  0  0  0  0  0  0  0  0  0  0  0  # atno 17395 bound_to 11000

$$$$
