AV-unprocessed.smi:1385|AV-procd|sdf|5634|dock9
  -GOLD-   22720 5253D 1   1.00000     0.00000
 Structure written by MMmdl.
 38 39  0  0  0  0  0  0  0  0  3 V2000
  148.5216  123.8020  150.7294 C   0  0  0  0  0  0  0  0  0  0  0  0
  148.2822  125.1417  151.3375 C   0  0  0  0  0  0  0  0  0  0  0  0
  147.7525  125.2985  152.5569 N   0  0  0  0  0  0  0  0  0  0  0  0
  147.6317  126.6352  152.9101 N   0  0  0  0  0  0  0  0  0  0  0  0
  148.0783  127.4498  151.9440 C   0  0  0  0  0  0  0  0  0  0  0  0
  148.0782  128.8665  152.0433 N   0  0  0  0  0  0  0  0  0  0  0  0
  147.0333  129.7078  151.9497 C   0  0  0  0  0  0  0  0  0  0  0  0
  145.8673  129.3752  151.7352 O   0  0  0  0  0  0  0  0  0  0  0  0
  147.4176  130.9813  152.1206 N   0  0  0  0  0  0  0  0  0  0  0  0
  146.5261  132.1372  152.0919 C   0  0  2  0  0  0  0  0  0  0  0  0
  146.6719  132.9130  150.7700 C   0  0  0  0  0  0  0  0  0  0  0  0
  145.8095  134.1860  150.7756 C   0  0  0  0  0  0  0  0  0  0  0  0
  146.1421  135.0569  151.9354 N   0  3  1  0  0  0  0  0  0  0  0  0
  145.4254  136.3564  151.9151 C   0  0  0  0  0  0  0  0  0  0  0  0
  145.9198  137.2130  150.7449 C   0  0  0  0  0  0  0  0  0  0  0  0
  145.3176  136.8953  149.5833 N   0  5  0  0  0  0  0  0  0  0  0  0
  146.7868  138.0627  150.9389 O   0  0  0  0  0  0  0  0  0  0  0  0
  145.9728  134.3389  153.2242 C   0  0  0  0  0  0  0  0  0  0  0  0
  146.8411  133.0705  153.2717 C   0  0  0  0  0  0  0  0  0  0  0  0
  148.6832  126.6408  150.5082 S   0  0  0  0  0  0  0  0  0  0  0  0
  147.8173  123.0708  151.1275 H   0  0  0  0  0  0  0  0  0  0  0  0
  149.5357  123.4693  150.9509 H   0  0  0  0  0  0  0  0  0  0  0  0
  148.3970  123.8515  149.6476 H   0  0  0  0  0  0  0  0  0  0  0  0
  148.9789  129.2863  152.2193 H   0  0  0  0  0  0  0  0  0  0  0  0
  148.3956  131.1639  152.2914 H   0  0  0  0  0  0  0  0  0  0  0  0
  145.4941  131.7951  152.1929 H   0  0  0  0  0  0  0  0  0  0  0  0
  147.7166  133.1839  150.6100 H   0  0  0  0  0  0  0  0  0  0  0  0
  146.3843  132.2824  149.9280 H   0  0  0  0  0  0  0  0  0  0  0  0
  145.9677  134.7246  149.8410 H   0  0  0  0  0  0  0  0  0  0  0  0
  144.7516  133.9211  150.8100 H   0  0  0  0  0  0  0  0  0  0  0  0
  144.3447  136.1981  151.8982 H   0  0  0  0  0  0  0  0  0  0  0  0
  145.6409  136.9161  152.8263 H   0  0  0  0  0  0  0  0  0  0  0  0
  145.7465  136.1781  148.9859 H   0  0  0  0  0  0  0  0  0  0  0  0
  146.2528  134.9938  154.0503 H   0  0  0  0  0  0  0  0  0  0  0  0
  144.9212  134.0831  153.3641 H   0  0  0  0  0  0  0  0  0  0  0  0
  146.6787  132.5488  154.2157 H   0  0  0  0  0  0  0  0  0  0  0  0
  147.8948  133.3538  153.2513 H   0  0  0  0  0  0  0  0  0  0  0  0
  147.1234  135.2845  151.8616 H   0  0  0  0  0  0  0  0  0  0  0  0
  1  2  1  0  0  0  0
  1 21  1  0  0  0  0
  1 22  1  0  0  0  0
  1 23  1  0  0  0  0
  2 20  1  0  0  0  0
  2  3  2  0  0  0  0
  3  4  1  0  0  0  0
  4  5  2  0  0  0  0
  5  6  1  0  0  0  0
  5 20  1  0  0  0  0
  6  7  1  0  0  0  0
  6 24  1  0  0  0  0
  7  8  2  0  0  0  0
  7  9  1  0  0  0  0
  9 10  1  0  0  0  0
  9 25  1  0  0  0  0
 10 19  1  0  0  0  0
 10 11  1  0  0  0  0
 10 26  1  0  0  0  0
 11 12  1  0  0  0  0
 11 27  1  0  0  0  0
 11 28  1  0  0  0  0
 12 13  1  0  0  0  0
 12 29  1  0  0  0  0
 12 30  1  0  0  0  0
 13 14  1  0  0  0  0
 13 18  1  0  0  0  0
 13 38  1  0  0  0  0
 14 15  1  0  0  0  0
 14 31  1  0  0  0  0
 14 32  1  0  0  0  0
 15 16  1  0  0  0  0
 15 17  2  0  0  0  0
 16 33  1  0  0  0  0
 18 19  1  0  0  0  0
 18 34  1  0  0  0  0
 18 35  1  0  0  0  0
 19 36  1  0  0  0  0
 19 37  1  0  0  0  0
M  CHG  1  13   1
M  CHG  1  16  -1
M  END
> <s_m_source_file>
AV-unprocessed.smi

> <i_m_source_file_index>
1385

> <i_lp_mmshare_version>
43012

> <i_f3d_flags>
0

> <s_epik_input>
W0NIM11jMW5uYyhzMSlbTkhdQyg9TylbTkhdW0NIXTJbQ0gyXVtDSDJdTihbQ0gyXVtDSDJdMilbQ0gyXUMoPU8pW05IMl0=

> <s_epik_cmdline>
J2VwaWtfcHl0aG9uJywgJy1waCcsICc3LjAnLCAnLXRuJywgJzgnLCAnLW1hJywgJzIwMCcsICctbWV0YWxfYmluZGluZycsICctaW1hZScsICc8aW5maWxlLm1hZT4nLCAnLW9tYWUnLCAnPG91dGZpbGUubWFlPic=

> <r_lp_tautomer_probability>
1

> <r_epik_Ionization_Penalty>
5.73549

> <r_epik_Ionization_Penalty_Charging>
5.73152

> <r_epik_Ionization_Penalty_Neutral>
0.00396448

> <r_epik_State_Penalty>
6.57436

> <r_epik_Charging_Adjusted_Penalty>
12.3059

> <i_epik_Tot_Q>
0

> <i_epik_Tot_abs_Q>
2

> <r_epik_Metal_State_Penalty>
2.87628

> <b_epik_Metal_Only>
1

> <s_lp_Force_Field>
OPLS_2005

> <r_lp_Energy>
6.06006

> <b_lp_Chiralities_Consistent>
1

> <s_lp_Variant>
AV-unprocessed.smi:1385-7

> <Gold.Version>
5.8.1

> <Gold.Id.Protein>
6NUR|6NUR_protein|mol2

> <Gold.PLP.Fitness>
40.8170

> <Gold.PLP.PLP>
-31.3578

> <Gold.PLP.part.hbond>
-5.7195

> <Gold.PLP.part.metal>
0.0000

> <Gold.PLP.part.buried>
0.5119

> <Gold.PLP.part.nonpolar>
-28.3191

> <Gold.PLP.part.repulsive>
1.8134

> <Gold.PLP.ligand.clash>
0.0000

> <Gold.PLP.ligand.torsion>
1.2799

> <Gold.PLP.Chemscore.Hbond>
4.0000

> <Gold.PLP.Chemscore.CHOScore>
0.0000

> <Gold.PLP.Chemscore.Metal>
0.0000

> <Gold.Chemscore.Hbonds>
donor molecule, donor type, donor heavy atom, donor atom, acceptor molecule, acceptor atom, score
      L1  H    13    38       P1  7948  2.00
      L1  H    16    33       P1  7921  1.00
      P1  H  7954  7966       L1    17  1.00

> <Gold.PLP.Chemscore.Internal.Correction>
0.0191

> <Gold.Rescore>
     Score         DG    S(hbond)    S(metal)    S(lipo)     H(rot)  DE(clash)    DE(int)     intcor
     11.43     -15.42       2.91        0.00      46.34       2.04       2.66       1.33       ----

> <Gold.Chemscore.Fitness>
11.4281

> <Gold.Chemscore.DG>
-15.4205

> <Gold.Chemscore.ZeroCoef>
-5.4800

> <Gold.Chemscore.Hbond>
2.9140

> <Gold.Chemscore.Metal>
0.0000

> <Gold.Chemscore.Lipo>
46.3429

> <Gold.Chemscore.Internal_Hbond>
0.0000

> <Gold.Chemscore.DEClash>
2.6608

> <Gold.Chemscore.DEInternal>
1.3316

> <Gold.Chemscore.Rot>
2.0369

> <Gold.Chemscore.Internal.Correction>
   9.000000E+99

> <Gold.Chemscore.Hbonds>
donor molecule, donor type, donor heavy atom, donor atom, acceptor molecule, acceptor atom, score
      L1  H     9    25       P1 10747  0.02
      L1  H    13    38       P1  7948  0.94
      L1  H    16    33       P1  7921  0.99
      P1  H  7954  7966       L1    17  0.85

> <Gold.Chemscore.Hbond.Weighted>
-9.7328

> <Gold.Chemscore.Metal.Weighted>
-0.0000

> <Gold.Chemscore.Lipo.Weighted>
-5.4221

> <Gold.Chemscore.Internal_Hbond.Weighted>
0.0000

> <Gold.Chemscore.DEClash.Weighted>
2.6608

> <Gold.Chemscore.DEInternal.Weighted>
1.3316

> <Gold.Chemscore.Rot.Weighted>
5.2144

> <Gold.Chemscore.Internal.Correction.Weighted>
   9.000000E+99

> <Gold.Protein.RotatedTorsions>
[ 6907 6896 6895 6894 ] final -141.06 input  -60.11 | X-H torsion
[ 7974 7965 7964 7962 ] final   37.60 input  175.53 | X-H torsion
[ 8008 7997 7996 7995 ] final    0.69 input   59.86 | X-H torsion
[ 10167 10162 10161 10158 ] final  151.21 input  -65.29 | X-H torsion
[ 10718 10713 10712 10709 ] final -105.20 input   66.30 | X-H torsion
[ 10763 10752 10751 10750 ] final  175.59 input  -60.55 | X-H torsion
[ 11005 11000 10999 10996 ] final -177.13 input  -57.11 | X-H torsion

> <Gold.Protein.ActiveResidues>
 VAL166  LYS551  ARG553  GLY616  TRP617  ASP618  TYR619  PRO620  LYS621  CYS622 
 ASP623  PHE694  ASN695  SER759  ASP760  ASP761  ALA762  ILE779  LEU786  VAL792 
 PHE793  MET794  SER795  GLU796  ALA797  LYS798  CYS799  TRP800  GLU811  SER814 

> <Gold.Protein.RotatedAtoms>
  151.0688  133.5483  159.2628 H   0  0  0  0  0  0  0  0  0  0  0  0  # atno 6907 bound_to 6896
  151.2430  135.0595  159.9042 H   0  0  0  0  0  0  0  0  0  0  0  0  # atno 6908 bound_to 6896
  152.5408  134.0460  159.8142 H   0  0  0  0  0  0  0  0  0  0  0  0  # atno 6909 bound_to 6896
  146.1125  139.5874  142.9343 H   0  0  0  0  0  0  0  0  0  0  0  0  # atno 7974 bound_to 7965
  154.6710  140.2612  155.7007 H   0  0  0  0  0  0  0  0  0  0  0  0  # atno 8008 bound_to 7997
  156.2659  140.2829  156.1141 H   0  0  0  0  0  0  0  0  0  0  0  0  # atno 8009 bound_to 7997
  155.1168  140.0376  157.2729 H   0  0  0  0  0  0  0  0  0  0  0  0  # atno 8010 bound_to 7997
  139.4842  144.5460  151.7484 H   0  0  0  0  0  0  0  0  0  0  0  0  # atno 10167 bound_to 10162
  156.0336  130.5552  150.7506 H   0  0  0  0  0  0  0  0  0  0  0  0  # atno 10718 bound_to 10713
  154.4696  135.2770  155.1652 H   0  0  0  0  0  0  0  0  0  0  0  0  # atno 10763 bound_to 10752
  154.3407  135.6171  153.5598 H   0  0  0  0  0  0  0  0  0  0  0  0  # atno 10764 bound_to 10752
  152.9863  135.5787  154.5074 H   0  0  0  0  0  0  0  0  0  0  0  0  # atno 10765 bound_to 10752
  140.4443  134.6402  157.4772 H   0  0  0  0  0  0  0  0  0  0  0  0  # atno 11005 bound_to 11000
  145.5634  141.0402  143.2214 LP  0  0  0  0  0  0  0  0  0  0  0  0  # atno 17320 bound_to 7965
  144.7524  139.7160  143.7268 LP  0  0  0  0  0  0  0  0  0  0  0  0  # atno 17321 bound_to 7965
  140.5006  144.1174  150.5970 LP  0  0  0  0  0  0  0  0  0  0  0  0  # atno 17342 bound_to 10162
  140.4066  143.2677  151.9883 LP  0  0  0  0  0  0  0  0  0  0  0  0  # atno 17343 bound_to 10162
  157.5051  131.0921  151.0267 LP  0  0  0  0  0  0  0  0  0  0  0  0  # atno 17370 bound_to 10713
  157.0637  130.5836  149.5390 LP  0  0  0  0  0  0  0  0  0  0  0  0  # atno 17371 bound_to 10713
  140.0049  134.6780  155.9472 LP  0  0  0  0  0  0  0  0  0  0  0  0  # atno 17394 bound_to 11000
  141.1692  133.6537  156.4589 LP  0  0  0  0  0  0  0  0  0  0  0  0  # atno 17395 bound_to 11000

$$$$
