#       Name:                AV-unprocessed.smi:1758
#       Creating user name   scv26
#       Creation time:       Fri Mar 27 08:30:28 2020


#       File generated by GOLD software.
#

@<TRIPOS>MOLECULE
AV-unprocessed.smi:1758
    47    49     1
SMALL
NO_CHARGES


@<TRIPOS>ATOM
      1 ****        -5.5202   2.5252   3.0339 C.3            1 S1                 0.0000
      2 ****        -4.9503   1.2235   3.6103 C.3            1 S1                 0.0000
      3 ****        -3.5064   1.1683   3.4888 N.pl3          1 S1                 0.0000
      4 ****        -2.7545   0.5001   2.5428 C.2            1 S1                 0.0000
      5 ****        -1.4502   0.7582   2.8580 C.2            1 S1                 0.0000
      6 ****        -0.2648   0.3192   2.2157 N.am           1 S1                 0.0000
      7 ****        -0.1685  -0.4952   1.1525 C.2            1 S1                 0.0000
      8 ****        -1.1202  -0.9909   0.5492 O.2            1 S1                 0.0000
      9 ****         1.1108  -0.7072   0.8125 N.am           1 S1                 0.0000
     10 ****         1.5464  -1.5655  -0.2862 C.3            1 S1                 0.0000
     11 ****         3.0400  -1.8641  -0.2655 C.3            1 S1                 0.0000
     12 ****         3.3154  -2.3446  -1.6942 C.3            1 S1                 0.0000
     13 ****         2.2891  -1.7183  -2.5641 N.4            1 S1                 1.0000
     14 ****         2.8524  -0.9393  -3.6995 C.3            1 S1                 0.0000
     15 ****         1.7937  -0.0067  -4.3063 C.3            1 S1                 0.0000
     16 ****         1.2949   1.0262  -3.2777 C.3            1 S1                 0.0000
     17 ****         1.4895   0.5531  -1.8243 C.3            1 S1                 0.0000
     18 ****         1.3274  -0.9813  -1.6955 C.3            1 S1                 0.0000
     19 ****        -1.4872   1.5926   4.0054 C.2            1 S1                 0.0000
     20 ****        -2.7336   1.8358   4.3812 N.2            1 S1                 0.0000
     21 ****        -6.6062   2.5463   3.1257 H              1 S1                 0.0000
     22 ****        -5.2733   2.6280   1.9768 H              1 S1                 0.0000
     23 ****        -5.1256   3.3965   3.5575 H              1 S1                 0.0000
     24 ****        -5.2193   1.1240   4.6628 H              1 S1                 0.0000
     25 ****        -5.3769   0.3642   3.0915 H              1 S1                 0.0000
     26 ****        -3.2105  -0.0806   1.7545 H              1 S1                 0.0000
     27 ****         0.5998   0.6535   2.6155 H              1 S1                 0.0000
     28 ****         1.8317  -0.2610   1.3609 H              1 S1                 0.0000
     29 ****         1.0169  -2.5185  -0.2160 H              1 S1                 0.0000
     30 ****         3.6059  -0.9528  -0.0662 H              1 S1                 0.0000
     31 ****         3.3164  -2.6029   0.4875 H              1 S1                 0.0000
     32 ****         4.3372  -2.1190  -2.0027 H              1 S1                 0.0000
     33 ****         3.1897  -3.4261  -1.7554 H              1 S1                 0.0000
     34 ****         3.7024  -0.3431  -3.3627 H              1 S1                 0.0000
     35 ****         3.2311  -1.6321  -4.4516 H              1 S1                 0.0000
     36 ****         2.1908   0.5036  -5.1842 H              1 S1                 0.0000
     37 ****         0.9531  -0.6068  -4.6577 H              1 S1                 0.0000
     38 ****         1.8161   1.9744  -3.4140 H              1 S1                 0.0000
     39 ****         0.2402   1.2316  -3.4653 H              1 S1                 0.0000
     40 ****         2.4840   0.8407  -1.4804 H              1 S1                 0.0000
     41 ****         0.7834   1.0814  -1.1834 H              1 S1                 0.0000
     42 ****         0.3179  -1.2320  -2.0248 H              1 S1                 0.0000
     43 ****        -0.6695   2.0198   4.5670 H              1 S1                 0.0000
     44 ****         1.7621  -2.4784  -2.9702 H              1 S1                 0.0000
     45 ****        -2.0556  -0.7955   0.8439 LP             1 S1                 0.0000
     46 ****        -0.9579  -1.5890  -0.2357 LP             1 S1                 0.0000
     47 ****        -3.0387   2.3910   5.1549 LP             1 S1                 0.0000
@<TRIPOS>BOND
    1    1    2 1     
    2    1   21 1     
    3    1   22 1     
    4    1   23 1     
    5    2    3 1     
    6    2   24 1     
    7    2   25 1     
    8    3   20 1     
    9    3    4 1     
   10    4    5 2     
   11    4   26 1     
   12    5    6 1     
   13    5   19 1     
   14    6    7 am    
   15    6   27 1     
   16    7    8 2     
   17    7    9 am    
   18    9   10 1     
   19    9   28 1     
   20   10   18 1     
   21   10   11 1     
   22   10   29 1     
   23   11   12 1     
   24   11   30 1     
   25   11   31 1     
   26   12   13 1     
   27   12   32 1     
   28   12   33 1     
   29   13   18 1     
   30   13   14 1     
   31   13   44 1     
   32   14   15 1     
   33   14   34 1     
   34   14   35 1     
   35   15   16 1     
   36   15   36 1     
   37   15   37 1     
   38   16   17 1     
   39   16   38 1     
   40   16   39 1     
   41   17   18 1     
   42   17   40 1     
   43   17   41 1     
   44   18   42 1     
   45   19   20 2     
   46   19   43 1     
   47    8   45 1     
   48    8   46 1     
   49   20   47 1     
@<TRIPOS>SUBSTRUCTURE
      1 S1             1
@<TRIPOS>SET
LONE_PAIRS      STATIC     ATOMS    <user>   **** ""
3 45 46 47
DONOR_HYDROGENS      STATIC     ATOMS    <user>   **** ""
3 27 28 44
ATOM$BLUE        STATIC     ATOMS    COLORGROUP SYSTEM
3 45 46 47
ATOM$RED        STATIC     ATOMS    COLORGROUP SYSTEM
3 27 28 44
