AV-unprocessed.smi:728|AV-procd|sdf|3518|dock5
  -GOLD-   22720 0513D 1   1.00000     0.00000
 Structure written by MMmdl.
 39 40  0  0  0  0  0  0  0  0  1 V2000
  154.2844  137.3188  163.8289 C   0  0  0  0  0  0  0  0  0  0  0  0
  154.7432  137.9659  162.5131 C   0  0  0  0  0  0  0  0  0  0  0  0
  154.9800  139.4757  162.6618 C   0  0  0  0  0  0  0  0  0  0  0  0
  153.8062  137.6705  161.3844 C   0  0  0  0  0  0  0  0  0  0  0  0
  153.2399  138.5483  160.5584 N   0  0  0  0  0  0  0  0  0  0  0  0
  152.6173  137.7179  159.6761 C   0  0  0  0  0  0  0  0  0  0  0  0
  151.8110  138.2202  158.5208 C   0  0  0  0  0  0  0  0  0  0  0  0
  152.2083  139.6563  158.1753 C   0  0  0  0  0  0  0  0  0  0  0  0
  152.6452  139.9228  157.0559 O   0  0  0  0  0  0  0  0  0  0  0  0
  152.0563  140.5686  159.1487 N   0  0  0  0  0  0  0  0  0  0  0  0
  152.4180  141.9788  159.0517 C   0  0  0  0  0  0  0  0  0  0  0  0
  152.2328  142.6755  160.4160 C   0  0  0  0  0  0  0  0  0  0  0  0
  152.5224  144.1825  160.3236 C   0  0  0  0  0  0  0  0  0  0  0  0
  151.6626  144.8516  159.2396 C   0  0  0  0  0  0  0  0  0  0  0  0
  151.8529  144.1639  157.8784 C   0  0  0  0  0  0  0  0  0  0  0  0
  151.5576  142.6580  157.9692 C   0  0  0  0  0  0  0  0  0  0  0  0
  152.7759  136.4180  159.8952 N   0  0  0  0  0  0  0  0  0  0  0  0
  153.6003  136.3790  161.0287 O   0  0  0  0  0  0  0  0  0  0  0  0
  154.1765  136.2393  163.7185 H   0  0  0  0  0  0  0  0  0  0  0  0
  153.3235  137.7184  164.1553 H   0  0  0  0  0  0  0  0  0  0  0  0
  155.0058  137.4978  164.6265 H   0  0  0  0  0  0  0  0  0  0  0  0
  155.7018  137.5133  162.2551 H   0  0  0  0  0  0  0  0  0  0  0  0
  155.3744  139.9030  161.7391 H   0  0  0  0  0  0  0  0  0  0  0  0
  155.6969  139.6855  163.4559 H   0  0  0  0  0  0  0  0  0  0  0  0
  154.0540  139.9998  162.9015 H   0  0  0  0  0  0  0  0  0  0  0  0
  151.9617  137.5749  157.6537 H   0  0  0  0  0  0  0  0  0  0  0  0
  150.7493  138.1777  158.7674 H   0  0  0  0  0  0  0  0  0  0  0  0
  151.6908  140.2542  160.0360 H   0  0  0  0  0  0  0  0  0  0  0  0
  153.4647  142.0604  158.7522 H   0  0  0  0  0  0  0  0  0  0  0  0
  151.2123  142.5251  160.7718 H   0  0  0  0  0  0  0  0  0  0  0  0
  152.8885  142.2242  161.1617 H   0  0  0  0  0  0  0  0  0  0  0  0
  152.3390  144.6559  161.2886 H   0  0  0  0  0  0  0  0  0  0  0  0
  153.5785  144.3372  160.0992 H   0  0  0  0  0  0  0  0  0  0  0  0
  150.6115  144.8082  159.5274 H   0  0  0  0  0  0  0  0  0  0  0  0
  151.9190  145.9085  159.1615 H   0  0  0  0  0  0  0  0  0  0  0  0
  151.2034  144.6261  157.1344 H   0  0  0  0  0  0  0  0  0  0  0  0
  152.8761  144.3152  157.5324 H   0  0  0  0  0  0  0  0  0  0  0  0
  151.7370  142.1899  157.0007 H   0  0  0  0  0  0  0  0  0  0  0  0
  150.4995  142.5116  158.1917 H   0  0  0  0  0  0  0  0  0  0  0  0
  1  2  1  0  0  0  0
  1 19  1  0  0  0  0
  1 20  1  0  0  0  0
  1 21  1  0  0  0  0
  2  3  1  0  0  0  0
  2  4  1  0  0  0  0
  2 22  1  0  0  0  0
  3 23  1  0  0  0  0
  3 24  1  0  0  0  0
  3 25  1  0  0  0  0
  4 18  1  0  0  0  0
  4  5  2  0  0  0  0
  5  6  1  0  0  0  0
  6  7  1  0  0  0  0
  6 17  2  0  0  0  0
  7  8  1  0  0  0  0
  7 26  1  0  0  0  0
  7 27  1  0  0  0  0
  8  9  2  0  0  0  0
  8 10  1  0  0  0  0
 10 11  1  0  0  0  0
 10 28  1  0  0  0  0
 11 16  1  0  0  0  0
 11 12  1  0  0  0  0
 11 29  1  0  0  0  0
 12 13  1  0  0  0  0
 12 30  1  0  0  0  0
 12 31  1  0  0  0  0
 13 14  1  0  0  0  0
 13 32  1  0  0  0  0
 13 33  1  0  0  0  0
 14 15  1  0  0  0  0
 14 34  1  0  0  0  0
 14 35  1  0  0  0  0
 15 16  1  0  0  0  0
 15 36  1  0  0  0  0
 15 37  1  0  0  0  0
 16 38  1  0  0  0  0
 16 39  1  0  0  0  0
 17 18  1  0  0  0  0
M  END
> <s_m_source_file>
AV-unprocessed.smi

> <i_m_source_file_index>
728

> <i_lp_mmshare_version>
43012

> <i_f3d_flags>
0

> <s_epik_input>
W0NIM11bQ0hdKFtDSDNdKWMxbmMobm8xKVtDSDJdQyg9TylbTkhdW0NIXTJbQ0gyXVtDSDJdW0NIMl1bQ0gyXVtDSDJdMg==

> <s_epik_cmdline>
J2VwaWtfcHl0aG9uJywgJy1waCcsICc3LjAnLCAnLXRuJywgJzgnLCAnLW1hJywgJzIwMCcsICctbWV0YWxfYmluZGluZycsICctaW1hZScsICc8aW5maWxlLm1hZT4nLCAnLW9tYWUnLCAnPG91dGZpbGUubWFlPic=

> <r_lp_tautomer_probability>
1

> <r_epik_Ionization_Penalty>
6.23623e-08

> <r_epik_Ionization_Penalty_Charging>
0

> <r_epik_Ionization_Penalty_Neutral>
6.23623e-08

> <r_epik_State_Penalty>
-0

> <r_epik_Charging_Adjusted_Penalty>
0

> <i_epik_Tot_Q>
0

> <i_epik_Tot_abs_Q>
0

> <r_epik_Metal_State_Penalty>
-0

> <b_epik_Metal_Only>
0

> <s_lp_Force_Field>
OPLS_2005

> <r_lp_Energy>
7.21718

> <b_lp_Chiralities_Consistent>
1

> <s_lp_Variant>
AV-unprocessed.smi:728-1

> <Gold.Version>
5.8.1

> <Gold.Id.Protein>
6NUR|6NUR_protein|mol2

> <Gold.PLP.Fitness>
41.3502

> <Gold.PLP.PLP>
-36.0034

> <Gold.PLP.part.hbond>
-2.0000

> <Gold.PLP.part.metal>
0.0000

> <Gold.PLP.part.buried>
-3.7380

> <Gold.PLP.part.nonpolar>
-28.7533

> <Gold.PLP.part.repulsive>
0.1354

> <Gold.PLP.ligand.clash>
0.0000

> <Gold.PLP.ligand.torsion>
0.3840

> <Gold.PLP.Chemscore.Hbond>
2.0000

> <Gold.PLP.Chemscore.CHOScore>
0.0000

> <Gold.PLP.Chemscore.Metal>
0.0000

> <Gold.Chemscore.Hbonds>
donor molecule, donor type, donor heavy atom, donor atom, acceptor molecule, acceptor atom, score
      P1  H  6896  6909       L1    17  0.85
      P1  H  7997  8008       L1     9  1.00

> <Gold.PLP.Chemscore.Internal.Correction>
0.1148

> <Gold.Rescore>
     Score         DG    S(hbond)    S(metal)    S(lipo)     H(rot)  DE(clash)    DE(int)     intcor
     18.33     -18.56       1.99        0.00      90.66       1.63       0.02       0.22       ----

> <Gold.Chemscore.Fitness>
18.3257

> <Gold.Chemscore.DG>
-18.5644

> <Gold.Chemscore.ZeroCoef>
-5.4800

> <Gold.Chemscore.Hbond>
1.9931

> <Gold.Chemscore.Metal>
0.0000

> <Gold.Chemscore.Lipo>
90.6626

> <Gold.Chemscore.Internal_Hbond>
0.0000

> <Gold.Chemscore.DEClash>
0.0224

> <Gold.Chemscore.DEInternal>
0.2163

> <Gold.Chemscore.Rot>
1.6329

> <Gold.Chemscore.Internal.Correction>
   9.000000E+99

> <Gold.Chemscore.Hbonds>
donor molecule, donor type, donor heavy atom, donor atom, acceptor molecule, acceptor atom, score
      P1  H  6896  6909       L1    17  0.14
      P1  H  7997  8008       L1     9  0.91

> <Gold.Chemscore.Hbond.Weighted>
-6.6570

> <Gold.Chemscore.Metal.Weighted>
-0.0000

> <Gold.Chemscore.Lipo.Weighted>
-10.6075

> <Gold.Chemscore.Internal_Hbond.Weighted>
0.0000

> <Gold.Chemscore.DEClash.Weighted>
0.0224

> <Gold.Chemscore.DEInternal.Weighted>
0.2163

> <Gold.Chemscore.Rot.Weighted>
4.1802

> <Gold.Chemscore.Internal.Correction.Weighted>
   9.000000E+99

> <Gold.Protein.RotatedTorsions>
[ 6907 6896 6895 6894 ] final  158.45 input  -60.11 | X-H torsion
[ 7974 7965 7964 7962 ] final   63.35 input  175.53 | X-H torsion
[ 8008 7997 7996 7995 ] final  -73.84 input   59.86 | X-H torsion
[ 10167 10162 10161 10158 ] final   24.69 input  -65.29 | X-H torsion
[ 10718 10713 10712 10709 ] final   50.26 input   66.30 | X-H torsion
[ 10763 10752 10751 10750 ] final  -91.48 input  -60.55 | X-H torsion
[ 11005 11000 10999 10996 ] final -162.03 input  -57.11 | X-H torsion

> <Gold.Protein.ActiveResidues>
 VAL166  LYS551  ARG553  GLY616  TRP617  ASP618  TYR619  PRO620  LYS621  CYS622 
 ASP623  PHE694  ASN695  SER759  ASP760  ASP761  ALA762  ILE779  LEU786  VAL792 
 PHE793  MET794  SER795  GLU796  ALA797  LYS798  CYS799  TRP800  GLU811  SER814 

> <Gold.Protein.RotatedAtoms>
  152.0002  133.3823  159.4178 H   0  0  0  0  0  0  0  0  0  0  0  0  # atno 6907 bound_to 6896
  150.6911  134.3842  159.5057 H   0  0  0  0  0  0  0  0  0  0  0  0  # atno 6908 bound_to 6896
  152.1588  134.8929  160.0594 H   0  0  0  0  0  0  0  0  0  0  0  0  # atno 6909 bound_to 6896
  145.8629  139.3326  143.0808 H   0  0  0  0  0  0  0  0  0  0  0  0  # atno 7974 bound_to 7965
  154.5281  140.0772  156.8295 H   0  0  0  0  0  0  0  0  0  0  0  0  # atno 8008 bound_to 7997
  155.3433  140.3408  155.4221 H   0  0  0  0  0  0  0  0  0  0  0  0  # atno 8009 bound_to 7997
  156.1753  140.1633  156.8361 H   0  0  0  0  0  0  0  0  0  0  0  0  # atno 8010 bound_to 7997
  140.5168  144.0069  150.6398 H   0  0  0  0  0  0  0  0  0  0  0  0  # atno 10167 bound_to 10162
  157.4867  130.8350  149.8155 H   0  0  0  0  0  0  0  0  0  0  0  0  # atno 10718 bound_to 10713
  154.6765  135.5266  153.8206 H   0  0  0  0  0  0  0  0  0  0  0  0  # atno 10763 bound_to 10752
  153.0536  135.6542  154.0643 H   0  0  0  0  0  0  0  0  0  0  0  0  # atno 10764 bound_to 10752
  154.0535  135.2967  155.3316 H   0  0  0  0  0  0  0  0  0  0  0  0  # atno 10765 bound_to 10752
  140.6138  134.4822  157.5218 H   0  0  0  0  0  0  0  0  0  0  0  0  # atno 11005 bound_to 11000
  145.9227  140.9104  143.0397 LP  0  0  0  0  0  0  0  0  0  0  0  0  # atno 17320 bound_to 7965
  144.6726  140.1311  143.7443 LP  0  0  0  0  0  0  0  0  0  0  0  0  # atno 17321 bound_to 7965
  140.3407  143.3021  152.0591 LP  0  0  0  0  0  0  0  0  0  0  0  0  # atno 17342 bound_to 10162
  139.4911  144.6444  151.6809 LP  0  0  0  0  0  0  0  0  0  0  0  0  # atno 17343 bound_to 10162
  156.0151  130.3817  150.2138 LP  0  0  0  0  0  0  0  0  0  0  0  0  # atno 17370 bound_to 10713
  157.0326  131.0012  151.3308 LP  0  0  0  0  0  0  0  0  0  0  0  0  # atno 17371 bound_to 10713
  139.9181  134.8204  156.1299 LP  0  0  0  0  0  0  0  0  0  0  0  0  # atno 17394 bound_to 11000
  141.0790  133.6762  156.2296 LP  0  0  0  0  0  0  0  0  0  0  0  0  # atno 17395 bound_to 11000

$$$$
