AV-unprocessed.smi:128|AV-procd|sdf|1155|dock4
  -GOLD-   2262018293D 1   1.00000     0.00000
 Structure written by MMmdl.
 41 44  0  0  0  0  0  0  0  0  1 V2000
  152.3300  140.1319  156.0543 O   0  0  0  0  0  0  0  0  0  0  0  0
  151.1709  140.2019  155.6421 C   0  0  0  0  0  0  0  0  0  0  0  0
  150.3126  141.3619  155.8563 C   0  0  0  0  0  0  0  0  0  0  0  0
  150.7778  142.4144  156.5503 F   0  0  0  0  0  0  0  0  0  0  0  0
  149.0545  141.3976  155.3670 C   0  0  0  0  0  0  0  0  0  0  0  0
  148.4963  140.3609  154.6400 N   0  0  0  0  0  0  0  0  0  0  0  0
  147.0871  140.4734  154.1097 C   0  0  2  0  0  0  0  0  0  0  0  0
  146.9968  141.5796  153.0499 C   0  0  0  0  0  0  0  0  0  0  0  0
  146.3047  142.6975  153.8032 C   0  0  0  0  0  0  0  0  0  0  0  0
  145.4338  141.9206  154.7823 C   0  0  0  0  0  0  0  0  0  0  0  0
  146.2418  140.8162  155.1684 O   0  0  0  0  0  0  0  0  0  0  0  0
  149.2573  139.2019  154.3723 C   0  0  0  0  0  0  0  0  0  0  0  0
  148.7997  138.2817  153.6905 O   0  0  0  0  0  0  0  0  0  0  0  0
  150.5686  139.1538  154.9022 N   0  0  0  0  0  0  0  0  0  0  0  0
  151.3637  137.9661  154.6306 C   0  0  0  0  0  0  0  0  0  0  0  0
  150.8700  136.7680  155.3880 C   0  0  0  0  0  0  0  0  0  0  0  0
  151.1408  135.4764  155.1776 N   0  0  0  0  0  0  0  0  0  0  0  0
  150.4497  134.7851  156.1454 N   0  0  0  0  0  0  0  0  0  0  0  0
  149.8115  135.7048  156.8770 C   0  0  0  0  0  0  0  0  0  0  0  0
  148.9429  135.5019  158.0359 C   0  0  0  0  0  0  0  0  0  0  0  0
  148.6823  136.5570  158.9408 C   0  0  0  0  0  0  0  0  0  0  0  0
  147.8467  136.3499  160.0557 C   0  0  0  0  0  0  0  0  0  0  0  0
  147.2643  135.0874  160.2761 C   0  0  0  0  0  0  0  0  0  0  0  0
  146.1380  134.8070  161.7841 Br  0  0  0  0  0  0  0  0  0  0  0  0
  147.5170  134.0321  159.3793 C   0  0  0  0  0  0  0  0  0  0  0  0
  148.3524  134.2385  158.2643 C   0  0  0  0  0  0  0  0  0  0  0  0
  150.0407  136.9738  156.4427 O   0  0  0  0  0  0  0  0  0  0  0  0
  148.4641  142.2822  155.5536 H   0  0  0  0  0  0  0  0  0  0  0  0
  146.7995  139.4913  153.7330 H   0  0  0  0  0  0  0  0  0  0  0  0
  147.9747  141.8546  152.6524 H   0  0  0  0  0  0  0  0  0  0  0  0
  146.3706  141.2244  152.2306 H   0  0  0  0  0  0  0  0  0  0  0  0
  147.0360  143.2999  154.3430 H   0  0  0  0  0  0  0  0  0  0  0  0
  145.7307  143.3593  153.1542 H   0  0  0  0  0  0  0  0  0  0  0  0
  145.1300  142.5158  155.6435 H   0  0  0  0  0  0  0  0  0  0  0  0
  144.5351  141.5515  154.2857 H   0  0  0  0  0  0  0  0  0  0  0  0
  151.3551  137.7715  153.5576 H   0  0  0  0  0  0  0  0  0  0  0  0
  152.4015  138.1853  154.8868 H   0  0  0  0  0  0  0  0  0  0  0  0
  149.1192  137.5335  158.7919 H   0  0  0  0  0  0  0  0  0  0  0  0
  147.6545  137.1611  160.7422 H   0  0  0  0  0  0  0  0  0  0  0  0
  147.0711  133.0628  159.5465 H   0  0  0  0  0  0  0  0  0  0  0  0
  148.5361  133.4176  157.5867 H   0  0  0  0  0  0  0  0  0  0  0  0
  1  2  2  0  0  0  0
  2 14  1  0  0  0  0
  2  3  1  0  0  0  0
  3  4  1  0  0  0  0
  3  5  2  0  0  0  0
  5  6  1  0  0  0  0
  5 28  1  0  0  0  0
  6  7  1  0  0  0  0
  6 12  1  0  0  0  0
  7 11  1  0  0  0  0
  7  8  1  0  0  0  0
  7 29  1  0  0  0  0
  8  9  1  0  0  0  0
  8 30  1  0  0  0  0
  8 31  1  0  0  0  0
  9 10  1  0  0  0  0
  9 32  1  0  0  0  0
  9 33  1  0  0  0  0
 10 11  1  0  0  0  0
 10 34  1  0  0  0  0
 10 35  1  0  0  0  0
 12 13  2  0  0  0  0
 12 14  1  0  0  0  0
 14 15  1  0  0  0  0
 15 16  1  0  0  0  0
 15 36  1  0  0  0  0
 15 37  1  0  0  0  0
 16 27  1  0  0  0  0
 16 17  2  0  0  0  0
 17 18  1  0  0  0  0
 18 19  2  0  0  0  0
 19 20  1  0  0  0  0
 19 27  1  0  0  0  0
 20 26  1  0  0  0  0
 20 21  2  0  0  0  0
 21 22  1  0  0  0  0
 21 38  1  0  0  0  0
 22 23  2  0  0  0  0
 22 39  1  0  0  0  0
 23 24  1  0  0  0  0
 23 25  1  0  0  0  0
 25 26  2  0  0  0  0
 25 40  1  0  0  0  0
 26 41  1  0  0  0  0
M  END
> <s_m_source_file>
AV-unprocessed.smi

> <i_m_source_file_index>
128

> <i_lp_mmshare_version>
43012

> <i_f3d_flags>
0

> <s_epik_input>
TzFbQ0gyXVtDSDJdW0NIMl1bQ0BIXTFuKFtjSF1jKEYpYzI9TyljKD1PKW4yW0NIMl1jM25uYyhvMyktYzRbY0hdW2NIXWMoQnIpW2NIXVtjSF00

> <s_epik_cmdline>
J2VwaWtfcHl0aG9uJywgJy1waCcsICc3LjAnLCAnLXRuJywgJzgnLCAnLW1hJywgJzIwMCcsICctbWV0YWxfYmluZGluZycsICctaW1hZScsICc8aW5maWxlLm1hZT4nLCAnLW9tYWUnLCAnPG91dGZpbGUubWFlPic=

> <r_lp_tautomer_probability>
1

> <r_epik_Ionization_Penalty>
2.55537e-09

> <r_epik_Ionization_Penalty_Charging>
2.54231e-09

> <r_epik_Ionization_Penalty_Neutral>
1.30653e-11

> <r_epik_State_Penalty>
-0

> <r_epik_Charging_Adjusted_Penalty>
2.54231e-09

> <i_epik_Tot_Q>
0

> <i_epik_Tot_abs_Q>
0

> <r_epik_Metal_State_Penalty>
-0

> <b_epik_Metal_Only>
0

> <s_epik_Chemistry_Notes>
This compound contains an acetal/aminal-like group ( X-CH(R)-Y where X, Y are N, S, or O) that may be acid/base labile, releasing an aldehyde.

> <s_lp_Force_Field>
OPLS_2005

> <r_lp_Energy>
32.4944

> <b_lp_Chiralities_Consistent>
1

> <s_lp_Variant>
AV-unprocessed.smi:128-1

> <Gold.Version>
5.8.1

> <Gold.Id.Protein>
6NUR|6NUR_protein|mol2

> <Gold.PLP.Fitness>
49.8509

> <Gold.PLP.PLP>
-41.9941

> <Gold.PLP.part.hbond>
-2.1453

> <Gold.PLP.part.metal>
0.0000

> <Gold.PLP.part.buried>
-3.6474

> <Gold.PLP.part.nonpolar>
-37.4276

> <Gold.PLP.part.repulsive>
1.3422

> <Gold.PLP.ligand.clash>
0.0000

> <Gold.PLP.ligand.torsion>
0.5925

> <Gold.PLP.Chemscore.Hbond>
2.0000

> <Gold.PLP.Chemscore.CHOScore>
1.0000

> <Gold.PLP.Chemscore.Metal>
0.0000

> <Gold.Chemscore.Hbonds>
donor molecule, donor type, donor heavy atom, donor atom, acceptor molecule, acceptor atom, score
      P1  H  7997  8009       L1     1  0.76
      P1  H 10752 10765       L1    17  1.00
      L1  C     5    28       P1  8028  1.00

> <Gold.PLP.Chemscore.Internal.Correction>
0.0418

> <Gold.Rescore>
     Score         DG    S(hbond)    S(metal)    S(lipo)     H(rot)  DE(clash)    DE(int)     intcor
     12.04     -14.79       1.70        0.00      68.15       1.70       0.99       1.76       ----

> <Gold.Chemscore.Fitness>
12.0440

> <Gold.Chemscore.DG>
-14.7928

> <Gold.Chemscore.ZeroCoef>
-5.4800

> <Gold.Chemscore.Hbond>
1.7026

> <Gold.Chemscore.Metal>
0.0000

> <Gold.Chemscore.Lipo>
68.1456

> <Gold.Chemscore.Internal_Hbond>
0.0000

> <Gold.Chemscore.DEClash>
0.9877

> <Gold.Chemscore.DEInternal>
1.7610

> <Gold.Chemscore.Rot>
1.6980

> <Gold.Chemscore.Internal.Correction>
   9.000000E+99

> <Gold.Chemscore.Hbonds>
donor molecule, donor type, donor heavy atom, donor atom, acceptor molecule, acceptor atom, score
      P1  H  7997  8009       L1     1  0.72
      P1  H 10752 10765       L1    17  0.34

> <Gold.Chemscore.Hbond.Weighted>
-5.6866

> <Gold.Chemscore.Metal.Weighted>
-0.0000

> <Gold.Chemscore.Lipo.Weighted>
-7.9730

> <Gold.Chemscore.Internal_Hbond.Weighted>
0.0000

> <Gold.Chemscore.DEClash.Weighted>
0.9877

> <Gold.Chemscore.DEInternal.Weighted>
1.7610

> <Gold.Chemscore.Rot.Weighted>
4.3469

> <Gold.Chemscore.Internal.Correction.Weighted>
   9.000000E+99

> <Gold.Protein.RotatedTorsions>
[ 6907 6896 6895 6894 ] final   55.88 input  -60.11 | X-H torsion
[ 7974 7965 7964 7962 ] final  -28.76 input  175.53 | X-H torsion
[ 8008 7997 7996 7995 ] final -137.93 input   59.86 | X-H torsion
[ 10167 10162 10161 10158 ] final -115.54 input  -65.29 | X-H torsion
[ 10718 10713 10712 10709 ] final  149.20 input   66.30 | X-H torsion
[ 10763 10752 10751 10750 ] final -169.19 input  -60.55 | X-H torsion
[ 11005 11000 10999 10996 ] final  -90.01 input  -57.11 | X-H torsion

> <Gold.Protein.ActiveResidues>
 VAL166  LYS551  ARG553  GLY616  TRP617  ASP618  TYR619  PRO620  LYS621  CYS622 
 ASP623  PHE694  ASN695  SER759  ASP760  ASP761  ALA762  ILE779  LEU786  VAL792 
 PHE793  MET794  SER795  GLU796  ALA797  LYS798  CYS799  TRP800  GLU811  SER814 

> <Gold.Protein.RotatedAtoms>
  152.3582  134.6909  160.0215 H   0  0  0  0  0  0  0  0  0  0  0  0  # atno 6907 bound_to 6896
  151.7241  133.3310  159.3331 H   0  0  0  0  0  0  0  0  0  0  0  0  # atno 6908 bound_to 6896
  150.7586  134.6356  159.6254 H   0  0  0  0  0  0  0  0  0  0  0  0  # atno 6909 bound_to 6896
  146.1265  140.5325  142.8712 H   0  0  0  0  0  0  0  0  0  0  0  0  # atno 7974 bound_to 7965
  155.4200  140.0518  157.3026 H   0  0  0  0  0  0  0  0  0  0  0  0  # atno 8008 bound_to 7997
  154.4907  140.2119  155.9514 H   0  0  0  0  0  0  0  0  0  0  0  0  # atno 8009 bound_to 7997
  156.1338  140.3167  155.8394 H   0  0  0  0  0  0  0  0  0  0  0  0  # atno 8010 bound_to 7997
  140.0889  143.4718  152.1881 H   0  0  0  0  0  0  0  0  0  0  0  0  # atno 10167 bound_to 10162
  157.2991  131.0867  151.1403 H   0  0  0  0  0  0  0  0  0  0  0  0  # atno 10718 bound_to 10713
  154.6550  135.2916  154.9939 H   0  0  0  0  0  0  0  0  0  0  0  0  # atno 10763 bound_to 10752
  154.1019  135.6575  153.4873 H   0  0  0  0  0  0  0  0  0  0  0  0  # atno 10764 bound_to 10752
  153.0397  135.5244  154.7474 H   0  0  0  0  0  0  0  0  0  0  0  0  # atno 10765 bound_to 10752
  141.1574  133.7665  156.9677 H   0  0  0  0  0  0  0  0  0  0  0  0  # atno 11005 bound_to 11000
  144.7647  140.5504  143.6711 LP  0  0  0  0  0  0  0  0  0  0  0  0  # atno 17320 bound_to 7965
  145.5354  139.1475  143.3476 LP  0  0  0  0  0  0  0  0  0  0  0  0  # atno 17321 bound_to 7965
  139.5736  144.7476  151.3825 LP  0  0  0  0  0  0  0  0  0  0  0  0  # atno 17342 bound_to 10162
  140.7039  143.7563  150.7448 LP  0  0  0  0  0  0  0  0  0  0  0  0  # atno 17343 bound_to 10162
  157.2769  130.6731  149.6047 LP  0  0  0  0  0  0  0  0  0  0  0  0  # atno 17370 bound_to 10713
  155.9670  130.4461  150.5530 LP  0  0  0  0  0  0  0  0  0  0  0  0  # atno 17371 bound_to 10713
  140.1150  134.9453  157.2121 LP  0  0  0  0  0  0  0  0  0  0  0  0  # atno 17394 bound_to 11000
  140.3144  134.2987  155.7259 LP  0  0  0  0  0  0  0  0  0  0  0  0  # atno 17395 bound_to 11000

$$$$
