#       Name:                AV-unprocessed.smi:153
#       Creating user name   scv26
#       Creation time:       Thu Mar 26 18:48:09 2020


#       File generated by GOLD software.
#

@<TRIPOS>MOLECULE
AV-unprocessed.smi:153
    71    74     1
SMALL
NO_CHARGES


@<TRIPOS>ATOM
      1 ****        -6.2261   0.0216   0.7263 C.3            1 S1                 0.0000
      2 ****        -5.3143  -1.1894   0.9816 C.3            1 S1                 0.0000
      3 ****        -5.6239  -2.2204   0.0512 O.3            1 S1                 0.0000
      4 ****        -4.4790  -3.0418  -0.0853 C.3            1 S1                 0.0000
      5 ****        -3.3554  -2.0191  -0.1562 C.3            1 S1                 0.0000
      6 ****        -3.7829  -0.9550   0.8595 C.3            1 S1                 0.0000
      7 ****        -3.4772   0.3196   0.3196 O.3            1 S1                 0.0000
      8 ****        -3.0884  -1.0891   2.2408 C.3            1 S1                 0.0000
      9 ****        -1.6399  -0.9421   2.2065 N.pl3          1 S1                 0.0000
     10 ****        -0.7111  -1.9541   2.1343 C.2            1 S1                 0.0000
     11 ****         0.5334  -1.5646   2.1181 N.2            1 S1                 0.0000
     12 ****         0.4673  -0.1781   2.2139 C.ar           1 S1                 0.0000
     13 ****         1.4329   0.8748   2.2465 C.ar           1 S1                 0.0000
     14 ****         2.7822   0.6994   2.1891 N.pl3          1 S1                 0.0000
     15 ****         3.3593  -0.5958   2.5259 C.3            1 S1                 0.0000
     16 ****         3.6165   1.6692   1.4753 C.3            1 S1                 0.0000
     17 ****         3.8078   1.3126  -0.0129 C.3            1 S1                 0.0000
     18 ****         4.8297   2.1517  -0.5127 O.3            1 S1                 0.0000
     19 ****         2.5335   1.5367  -0.8580 C.3            1 S1                 0.0000
     20 ****         2.6706   1.0568  -2.2563 N.4            1 S1                 1.0000
     21 ****         2.5840  -0.4197  -2.3874 C.3            1 S1                 0.0000
     22 ****         2.7578  -0.8418  -3.8563 C.3            1 S1                 0.0000
     23 ****         1.7796  -0.1931  -4.6589 O.3            1 S1                 0.0000
     24 ****         1.9101   1.2221  -4.6146 C.3            1 S1                 0.0000
     25 ****         1.7065   1.7132  -3.1714 C.3            1 S1                 0.0000
     26 ****         0.9556   2.1453   2.3218 N.ar           1 S1                 0.0000
     27 ****        -0.3574   2.3811   2.3769 C.ar           1 S1                 0.0000
     28 ****        -1.3611   1.5047   2.3591 N.ar           1 S1                 0.0000
     29 ****        -0.8990   0.2257   2.2698 C.ar           1 S1                 0.0000
     30 ****        -6.0071   0.8325   1.4217 H              1 S1                 0.0000
     31 ****        -7.2738  -0.2500   0.8554 H              1 S1                 0.0000
     32 ****        -6.1088   0.4034  -0.2882 H              1 S1                 0.0000
     33 ****        -5.5438  -1.5870   1.9718 H              1 S1                 0.0000
     34 ****        -4.3738  -3.6847   0.7900 H              1 S1                 0.0000
     35 ****        -4.5370  -3.6697  -0.9747 H              1 S1                 0.0000
     36 ****        -2.3771  -2.4594   0.0289 H              1 S1                 0.0000
     37 ****        -3.3348  -1.6019  -1.1646 H              1 S1                 0.0000
     38 ****        -2.5377   0.4145   0.2888 H              1 S1                 0.0000
     39 ****        -3.4873  -0.3449   2.9317 H              1 S1                 0.0000
     40 ****        -3.3155  -2.0614   2.6807 H              1 S1                 0.0000
     41 ****        -0.9872  -2.9975   2.0855 H              1 S1                 0.0000
     42 ****         2.9002  -1.0065   3.4258 H              1 S1                 0.0000
     43 ****         4.4285  -0.5011   2.7177 H              1 S1                 0.0000
     44 ****         3.2266  -1.3027   1.7067 H              1 S1                 0.0000
     45 ****         3.2419   2.6882   1.5748 H              1 S1                 0.0000
     46 ****         4.5899   1.6765   1.9674 H              1 S1                 0.0000
     47 ****         4.1563   0.2833  -0.0866 H              1 S1                 0.0000
     48 ****         5.0796   1.8528  -1.3732 H              1 S1                 0.0000
     49 ****         1.6739   1.0353  -0.4144 H              1 S1                 0.0000
     50 ****         2.2958   2.6018  -0.8517 H              1 S1                 0.0000
     51 ****         3.3491  -0.9050  -1.7824 H              1 S1                 0.0000
     52 ****         1.6179  -0.7656  -2.0154 H              1 S1                 0.0000
     53 ****         3.7596  -0.6010  -4.2159 H              1 S1                 0.0000
     54 ****         2.6354  -1.9206  -3.9538 H              1 S1                 0.0000
     55 ****         2.8880   1.5222  -4.9950 H              1 S1                 0.0000
     56 ****         1.1628   1.6673  -5.2715 H              1 S1                 0.0000
     57 ****         0.6875   1.5002  -2.8442 H              1 S1                 0.0000
     58 ****         1.8367   2.7953  -3.1324 H              1 S1                 0.0000
     59 ****        -0.6446   3.4203   2.4432 H              1 S1                 0.0000
     60 ****         3.5901   1.3329  -2.5699 H              1 S1                 0.0000
     61 ****        -5.8618  -1.8194  -0.8335 LP             1 S1                 0.0000
     62 ****        -6.3931  -2.7630   0.3888 LP             1 S1                 0.0000
     63 ****        -3.8697   1.0342   0.8986 LP             1 S1                 0.0000
     64 ****        -3.8543   0.3942  -0.6036 LP             1 S1                 0.0000
     65 ****         1.3521  -2.1349   2.0516 LP             1 S1                 0.0000
     66 ****         5.6211   2.1162   0.0975 LP             1 S1                 0.0000
     67 ****         4.4939   3.0920  -0.5688 LP             1 S1                 0.0000
     68 ****         0.8705  -0.4443  -4.3266 LP             1 S1                 0.0000
     69 ****         1.8844  -0.4978  -5.6056 LP             1 S1                 0.0000
     70 ****         1.5960   2.9132   2.3361 LP             1 S1                 0.0000
     71 ****        -2.3286   1.7535   2.4053 LP             1 S1                 0.0000
@<TRIPOS>BOND
    1    1    2 1     
    2    1   30 1     
    3    1   31 1     
    4    1   32 1     
    5    2    6 1     
    6    2    3 1     
    7    2   33 1     
    8    3    4 1     
    9    4    5 1     
   10    4   34 1     
   11    4   35 1     
   12    5    6 1     
   13    5   36 1     
   14    5   37 1     
   15    6    7 1     
   16    6    8 1     
   17    7   38 1     
   18    8    9 1     
   19    8   39 1     
   20    8   40 1     
   21    9   29 1     
   22    9   10 1     
   23   10   11 2     
   24   10   41 1     
   25   11   12 1     
   26   12   29 ar    
   27   12   13 ar    
   28   13   14 1     
   29   13   26 ar    
   30   14   15 1     
   31   14   16 1     
   32   15   42 1     
   33   15   43 1     
   34   15   44 1     
   35   16   17 1     
   36   16   45 1     
   37   16   46 1     
   38   17   18 1     
   39   17   19 1     
   40   17   47 1     
   41   18   48 1     
   42   19   20 1     
   43   19   49 1     
   44   19   50 1     
   45   20   25 1     
   46   20   21 1     
   47   20   60 1     
   48   21   22 1     
   49   21   51 1     
   50   21   52 1     
   51   22   23 1     
   52   22   53 1     
   53   22   54 1     
   54   23   24 1     
   55   24   25 1     
   56   24   55 1     
   57   24   56 1     
   58   25   57 1     
   59   25   58 1     
   60   26   27 ar    
   61   27   28 ar    
   62   27   59 1     
   63   28   29 ar    
   64    3   61 1     
   65    3   62 1     
   66    7   63 1     
   67    7   64 1     
   68   11   65 1     
   69   18   66 1     
   70   18   67 1     
   71   23   68 1     
   72   23   69 1     
   73   26   70 1     
   74   28   71 1     
@<TRIPOS>SUBSTRUCTURE
      1 S1             1
@<TRIPOS>SET
LONE_PAIRS      STATIC     ATOMS    <user>   **** ""
11 61 62 63 64 65 66 67 68 69 70 71
DONOR_HYDROGENS      STATIC     ATOMS    <user>   **** ""
3 38 48 60
ATOM$BLUE        STATIC     ATOMS    COLORGROUP SYSTEM
11 61 62 63 64 65 66 67 68 69 70 71
ATOM$RED        STATIC     ATOMS    COLORGROUP SYSTEM
3 38 48 60
