#       Name:                AV-unprocessed.smi:1045
#       Creating user name   scv26
#       Creation time:       Fri Mar 27 02:57:23 2020


#       File generated by GOLD software.
#

@<TRIPOS>MOLECULE
AV-unprocessed.smi:1045
    48    49     1
SMALL
NO_CHARGES


@<TRIPOS>ATOM
      1 ****        -5.5632   1.0252  -4.0315 C.3            1 S1                 0.0000
      2 ****        -4.1487   0.9433  -4.0301 O.3            1 S1                 0.0000
      3 ****        -3.6823  -0.3941  -4.1225 C.3            1 S1                 0.0000
      4 ****        -2.1453  -0.4202  -4.1291 C.3            1 S1                 0.0000
      5 ****        -1.5487   0.3058  -5.3438 C.3            1 S1                 0.0000
      6 ****        -1.6302   0.1652  -2.8928 N.am           1 S1                 0.0000
      7 ****        -0.8323  -0.4445  -2.0047 C.2            1 S1                 0.0000
      8 ****        -0.4289  -1.6006  -2.1278 O.2            1 S1                 0.0000
      9 ****        -0.5238   0.3785  -0.9876 N.am           1 S1                 0.0000
     10 ****         0.2804   0.1092   0.1525 C.ar           1 S1                 0.0000
     11 ****         0.8117   1.2102   0.8581 C.ar           1 S1                 0.0000
     12 ****         1.6025   0.9915   2.0047 C.ar           1 S1                 0.0000
     13 ****         1.8428  -0.3330   2.4387 C.ar           1 S1                 0.0000
     14 ****         2.6087  -0.6583   3.5669 N.3            1 S1                 0.0000
     15 ****         3.9918  -0.2145   3.5186 C.3            1 S1                 0.0000
     16 ****         4.4972  -0.2897   4.9617 C.3            1 S1                 0.0000
     17 ****         3.2305  -0.2567   5.8253 C.3            1 S1                 0.0000
     18 ****         2.0745  -0.1665   4.8257 C.3            1 S1                 0.0000
     19 ****         1.3049  -1.3595   1.7451 N.pl3          1 S1                 1.0000
     20 ****         0.5454  -1.1940   0.6404 C.ar           1 S1                 0.0000
     21 ****        -5.8700   2.0685  -3.9589 H              1 S1                 0.0000
     22 ****        -5.9904   0.4888  -3.1832 H              1 S1                 0.0000
     23 ****        -5.9810   0.6147  -4.9518 H              1 S1                 0.0000
     24 ****        -4.0598  -0.9776  -3.2810 H              1 S1                 0.0000
     25 ****        -4.0641  -0.8588  -5.0331 H              1 S1                 0.0000
     26 ****        -1.8442  -1.4668  -4.1982 H              1 S1                 0.0000
     27 ****        -1.9091  -0.1300  -6.2760 H              1 S1                 0.0000
     28 ****        -0.4604   0.2349  -5.3467 H              1 S1                 0.0000
     29 ****        -1.8130   1.3638  -5.3475 H              1 S1                 0.0000
     30 ****        -1.9094   1.1165  -2.7021 H              1 S1                 0.0000
     31 ****        -0.8652   1.3254  -1.0653 H              1 S1                 0.0000
     32 ****         0.6200   2.2193   0.5233 H              1 S1                 0.0000
     33 ****         2.0129   1.8342   2.5413 H              1 S1                 0.0000
     34 ****         4.5826  -0.8458   2.8542 H              1 S1                 0.0000
     35 ****         4.0552   0.8112   3.1531 H              1 S1                 0.0000
     36 ****         5.0357  -1.2237   5.1277 H              1 S1                 0.0000
     37 ****         5.1774   0.5310   5.1910 H              1 S1                 0.0000
     38 ****         3.1563  -1.1745   6.4100 H              1 S1                 0.0000
     39 ****         3.2240   0.5819   6.5223 H              1 S1                 0.0000
     40 ****         1.7462   0.8689   4.7252 H              1 S1                 0.0000
     41 ****         1.2189  -0.7609   5.1480 H              1 S1                 0.0000
     42 ****         0.1738  -2.1096   0.2056 H              1 S1                 0.0000
     43 ****         1.4785  -2.3098   2.0734 H              1 S1                 0.0000
     44 ****        -3.8050   1.3451  -3.1813 LP             1 S1                 0.0000
     45 ****        -3.7967   1.4605  -4.8102 LP             1 S1                 0.0000
     46 ****        -0.6953  -2.1407  -2.9261 LP             1 S1                 0.0000
     47 ****         0.1652  -1.9998  -1.4295 LP             1 S1                 0.0000
     48 ****         2.5657  -1.6568   3.5348 LP             1 S1                 0.0000
@<TRIPOS>BOND
    1    1    2 1     
    2    1   21 1     
    3    1   22 1     
    4    1   23 1     
    5    2    3 1     
    6    3    4 1     
    7    3   24 1     
    8    3   25 1     
    9    4    5 1     
   10    4    6 1     
   11    4   26 1     
   12    5   27 1     
   13    5   28 1     
   14    5   29 1     
   15    6    7 am    
   16    6   30 1     
   17    7    8 2     
   18    7    9 am    
   19    9   10 1     
   20    9   31 1     
   21   10   20 ar    
   22   10   11 ar    
   23   11   12 ar    
   24   11   32 1     
   25   12   13 ar    
   26   12   33 1     
   27   13   14 1     
   28   13   19 ar    
   29   14   18 1     
   30   14   15 1     
   31   15   16 1     
   32   15   34 1     
   33   15   35 1     
   34   16   17 1     
   35   16   36 1     
   36   16   37 1     
   37   17   18 1     
   38   17   38 1     
   39   17   39 1     
   40   18   40 1     
   41   18   41 1     
   42   19   20 ar    
   43   19   43 1     
   44   20   42 1     
   45    2   44 1     
   46    2   45 1     
   47    8   46 1     
   48    8   47 1     
   49   14   48 1     
@<TRIPOS>SUBSTRUCTURE
      1 S1             1
@<TRIPOS>SET
LONE_PAIRS      STATIC     ATOMS    <user>   **** ""
5 44 45 46 47 48
DONOR_HYDROGENS      STATIC     ATOMS    <user>   **** ""
3 30 31 43
ATOM$BLUE        STATIC     ATOMS    COLORGROUP SYSTEM
5 44 45 46 47 48
ATOM$RED        STATIC     ATOMS    COLORGROUP SYSTEM
3 30 31 43
