AV-unprocessed.smi:3056|AV-procd|sdf|11659|dock9
  -GOLD-   2272017 63D 1   1.00000     0.00000
 Structure written by MMmdl.
 47 48  0  0  0  0  0  0  0  0  1 V2000
  152.2627  144.0588  158.5870 C   0  0  0  0  0  0  0  0  0  0  0  0
  151.3109  143.0838  157.9561 C   0  0  0  0  0  0  0  0  0  0  0  0
  150.4958  142.1119  158.6025 C   0  0  0  0  0  0  0  0  0  0  0  0
  149.7742  141.3997  157.7534 N   0  0  0  0  0  0  0  0  0  0  0  0
  150.0954  141.8929  156.5357 N   0  0  0  0  0  0  0  0  0  0  0  0
  149.5102  141.3211  155.3282 C   0  0  2  0  0  0  0  0  0  0  0  0
  148.0034  141.6417  155.2748 C   0  0  0  0  0  0  0  0  0  0  0  0
  149.8185  139.8013  155.1997 C   0  0  1  0  0  0  0  0  0  0  0  0
  148.9432  139.1035  154.1435 C   0  0  0  0  0  0  0  0  0  0  0  0
  151.2046  139.5997  154.7698 N   0  0  0  0  0  0  0  0  0  0  0  0
  151.7230  138.2301  154.9494 C   0  0  0  0  0  0  0  0  0  0  0  0
  152.6706  138.0291  156.1493 C   0  0  0  0  0  0  0  0  0  0  0  0
  153.7598  138.6056  156.1561 O   0  0  0  0  0  0  0  0  0  0  0  0
  152.2724  137.2359  157.1734 N   0  0  0  0  0  0  0  0  0  0  0  0
  153.0794  137.0177  158.3772 C   0  0  0  0  0  0  0  0  0  0  0  0
  152.3309  137.6246  159.5766 C   0  0  0  0  0  0  0  0  0  0  0  0
  151.0418  137.0257  159.6877 O   0  0  0  0  0  0  0  0  0  0  0  0
  150.2369  137.1936  158.5215 C   0  0  2  0  0  0  0  0  0  0  0  0
  148.8796  136.5290  158.7766 C   0  0  0  0  0  0  0  0  0  0  0  0
  150.9664  136.5817  157.3085 C   0  0  0  0  0  0  0  0  0  0  0  0
  151.0206  142.9114  156.6324 C   0  0  0  0  0  0  0  0  0  0  0  0
  152.3677  143.8885  159.6585 H   0  0  0  0  0  0  0  0  0  0  0  0
  151.9285  145.0881  158.4567 H   0  0  0  0  0  0  0  0  0  0  0  0
  153.2595  143.9855  158.1516 H   0  0  0  0  0  0  0  0  0  0  0  0
  150.4118  141.9002  159.6583 H   0  0  0  0  0  0  0  0  0  0  0  0
  149.9728  141.8324  154.4821 H   0  0  0  0  0  0  0  0  0  0  0  0
  147.5772  141.4088  154.2993 H   0  0  0  0  0  0  0  0  0  0  0  0
  147.8233  142.7024  155.4535 H   0  0  0  0  0  0  0  0  0  0  0  0
  147.4466  141.0793  156.0249 H   0  0  0  0  0  0  0  0  0  0  0  0
  149.6312  139.3128  156.1569 H   0  0  0  0  0  0  0  0  0  0  0  0
  147.8931  139.0954  154.4347 H   0  0  0  0  0  0  0  0  0  0  0  0
  149.2391  138.0620  154.0110 H   0  0  0  0  0  0  0  0  0  0  0  0
  149.0184  139.5953  153.1729 H   0  0  0  0  0  0  0  0  0  0  0  0
  151.7958  140.2890  155.2110 H   0  0  0  0  0  0  0  0  0  0  0  0
  150.8712  137.5632  155.0853 H   0  0  0  0  0  0  0  0  0  0  0  0
  152.2211  137.9204  154.0331 H   0  0  0  0  0  0  0  0  0  0  0  0
  153.2259  135.9471  158.5269 H   0  0  0  0  0  0  0  0  0  0  0  0
  154.0777  137.4517  158.3075 H   0  0  0  0  0  0  0  0  0  0  0  0
  152.8843  137.4457  160.4984 H   0  0  0  0  0  0  0  0  0  0  0  0
  152.2324  138.7059  159.4672 H   0  0  0  0  0  0  0  0  0  0  0  0
  150.0762  138.2598  158.3522 H   0  0  0  0  0  0  0  0  0  0  0  0
  148.2207  136.6384  157.9149 H   0  0  0  0  0  0  0  0  0  0  0  0
  148.3807  136.9793  159.6349 H   0  0  0  0  0  0  0  0  0  0  0  0
  148.9936  135.4635  158.9783 H   0  0  0  0  0  0  0  0  0  0  0  0
  150.3343  136.6711  156.4273 H   0  0  0  0  0  0  0  0  0  0  0  0
  151.1180  135.5113  157.4579 H   0  0  0  0  0  0  0  0  0  0  0  0
  151.3999  143.4193  155.7579 H   0  0  0  0  0  0  0  0  0  0  0  0
  1  2  1  0  0  0  0
  1 22  1  0  0  0  0
  1 23  1  0  0  0  0
  1 24  1  0  0  0  0
  2 21  2  0  0  0  0
  2  3  1  0  0  0  0
  3  4  2  0  0  0  0
  3 25  1  0  0  0  0
  4  5  1  0  0  0  0
  5  6  1  0  0  0  0
  5 21  1  0  0  0  0
  6  7  1  0  0  0  0
  6  8  1  0  0  0  0
  6 26  1  0  0  0  0
  7 27  1  0  0  0  0
  7 28  1  0  0  0  0
  7 29  1  0  0  0  0
  8  9  1  0  0  0  0
  8 10  1  0  0  0  0
  8 30  1  0  0  0  0
  9 31  1  0  0  0  0
  9 32  1  0  0  0  0
  9 33  1  0  0  0  0
 10 11  1  0  0  0  0
 10 34  1  0  0  0  0
 11 12  1  0  0  0  0
 11 35  1  0  0  0  0
 11 36  1  0  0  0  0
 12 13  2  0  0  0  0
 12 14  1  0  0  0  0
 14 20  1  0  0  0  0
 14 15  1  0  0  0  0
 15 16  1  0  0  0  0
 15 37  1  0  0  0  0
 15 38  1  0  0  0  0
 16 17  1  0  0  0  0
 16 39  1  0  0  0  0
 16 40  1  0  0  0  0
 17 18  1  0  0  0  0
 18 19  1  0  0  0  0
 18 20  1  0  0  0  0
 18 41  1  0  0  0  0
 19 42  1  0  0  0  0
 19 43  1  0  0  0  0
 19 44  1  0  0  0  0
 20 45  1  0  0  0  0
 20 46  1  0  0  0  0
 21 47  1  0  0  0  0
M  END
> <s_m_source_file>
AV-unprocessed.smi

> <i_m_source_file_index>
3056

> <i_lp_mmshare_version>
43012

> <i_f3d_flags>
0

> <s_epik_input>
W0NIM11jMVtjSF1ubihbY0hdMSlbQ0BIXShbQ0gzXSlbQ0BIXShbQ0gzXSlbTkhdW0NIMl1DKD1PKU4yW0NIMl1bQ0gyXU9bQ0BASF0oW0NIM10pW0NIMl0y

> <s_epik_cmdline>
J2VwaWtfcHl0aG9uJywgJy1waCcsICc3LjAnLCAnLXRuJywgJzgnLCAnLW1hJywgJzIwMCcsICctbWV0YWxfYmluZGluZycsICctaW1hZScsICc8aW5maWxlLm1hZT4nLCAnLW9tYWUnLCAnPG91dGZpbGUubWFlPic=

> <r_lp_tautomer_probability>
1

> <r_epik_Ionization_Penalty>
0.667689

> <r_epik_Ionization_Penalty_Charging>
0

> <r_epik_Ionization_Penalty_Neutral>
0.667689

> <r_epik_State_Penalty>
0.684601

> <r_epik_Charging_Adjusted_Penalty>
0.684601

> <i_epik_Tot_Q>
0

> <i_epik_Tot_abs_Q>
0

> <r_epik_Metal_State_Penalty>
0.681448

> <b_epik_Metal_Only>
0

> <s_lp_Force_Field>
OPLS_2005

> <r_lp_Energy>
30.5855

> <b_lp_Chiralities_Consistent>
1

> <s_lp_Variant>
AV-unprocessed.smi:3056-15

> <Gold.Version>
5.8.1

> <Gold.Id.Protein>
6NUR|6NUR_protein|mol2

> <Gold.PLP.Fitness>
38.9788

> <Gold.PLP.PLP>
-35.3024

> <Gold.PLP.part.hbond>
-2.3841

> <Gold.PLP.part.metal>
0.0000

> <Gold.PLP.part.buried>
-2.8986

> <Gold.PLP.part.nonpolar>
-30.2164

> <Gold.PLP.part.repulsive>
0.0595

> <Gold.PLP.ligand.clash>
0.0000

> <Gold.PLP.ligand.torsion>
0.7922

> <Gold.PLP.Chemscore.Hbond>
1.6880

> <Gold.PLP.Chemscore.CHOScore>
0.0333

> <Gold.PLP.Chemscore.Metal>
0.0000

> <Gold.Chemscore.Hbonds>
donor molecule, donor type, donor heavy atom, donor atom, acceptor molecule, acceptor atom, score
      P1  H  6896  6907       L1    17  1.00
      P1  H  7997  8010       L1    13  0.70
      L1  C    21    47       P1  8028  0.04

> <Gold.PLP.Chemscore.Internal.Correction>
0.0967

> <Gold.Rescore>
     Score         DG    S(hbond)    S(metal)    S(lipo)     H(rot)  DE(clash)    DE(int)     intcor
     15.77     -16.53       1.62        0.00      85.02       1.68       0.01       0.76       ----

> <Gold.Chemscore.Fitness>
15.7702

> <Gold.Chemscore.DG>
-16.5343

> <Gold.Chemscore.ZeroCoef>
-5.4800

> <Gold.Chemscore.Hbond>
1.6187

> <Gold.Chemscore.Metal>
0.0000

> <Gold.Chemscore.Lipo>
85.0173

> <Gold.Chemscore.Internal_Hbond>
0.0000

> <Gold.Chemscore.DEClash>
0.0060

> <Gold.Chemscore.DEInternal>
0.7581

> <Gold.Chemscore.Rot>
1.6793

> <Gold.Chemscore.Internal.Correction>
   9.000000E+99

> <Gold.Chemscore.Hbonds>
donor molecule, donor type, donor heavy atom, donor atom, acceptor molecule, acceptor atom, score
      P1  H  6896  6907       L1    17  0.33
      P1  H  7997  8010       L1    13  0.69

> <Gold.Chemscore.Hbond.Weighted>
-5.4064

> <Gold.Chemscore.Metal.Weighted>
-0.0000

> <Gold.Chemscore.Lipo.Weighted>
-9.9470

> <Gold.Chemscore.Internal_Hbond.Weighted>
0.0000

> <Gold.Chemscore.DEClash.Weighted>
0.0060

> <Gold.Chemscore.DEInternal.Weighted>
0.7581

> <Gold.Chemscore.Rot.Weighted>
4.2990

> <Gold.Chemscore.Internal.Correction.Weighted>
   9.000000E+99

> <Gold.Protein.RotatedTorsions>
[ 6907 6896 6895 6894 ] final   -8.68 input  -60.11 | X-H torsion
[ 7974 7965 7964 7962 ] final   98.01 input  175.53 | X-H torsion
[ 8008 7997 7996 7995 ] final   77.18 input   59.86 | X-H torsion
[ 10167 10162 10161 10158 ] final  -94.12 input  -65.29 | X-H torsion
[ 10718 10713 10712 10709 ] final  -22.96 input   66.30 | X-H torsion
[ 10763 10752 10751 10750 ] final  107.58 input  -60.55 | X-H torsion
[ 11005 11000 10999 10996 ] final -163.62 input  -57.11 | X-H torsion

> <Gold.Protein.ActiveResidues>
 VAL166  LYS551  ARG553  GLY616  TRP617  ASP618  TYR619  PRO620  LYS621  CYS622 
 ASP623  PHE694  ASN695  SER759  ASP760  ASP761  ALA762  ILE779  LEU786  VAL792 
 PHE793  MET794  SER795  GLU796  ALA797  LYS798  CYS799  TRP800  GLU811  SER814 

> <Gold.Protein.RotatedAtoms>
  151.4298  135.1008  159.9638 H   0  0  0  0  0  0  0  0  0  0  0  0  # atno 6907 bound_to 6896
  152.4960  133.8628  159.7269 H   0  0  0  0  0  0  0  0  0  0  0  0  # atno 6908 bound_to 6896
  150.9163  133.6877  159.2870 H   0  0  0  0  0  0  0  0  0  0  0  0  # atno 6909 bound_to 6896
  145.4178  139.2325  143.3213 H   0  0  0  0  0  0  0  0  0  0  0  0  # atno 7974 bound_to 7965
  155.8379  140.3463  155.5613 H   0  0  0  0  0  0  0  0  0  0  0  0  # atno 8008 bound_to 7997
  155.8172  140.0907  157.1889 H   0  0  0  0  0  0  0  0  0  0  0  0  # atno 8009 bound_to 7997
  154.4004  140.1437  156.3444 H   0  0  0  0  0  0  0  0  0  0  0  0  # atno 8010 bound_to 7997
  140.3177  143.3067  152.0080 H   0  0  0  0  0  0  0  0  0  0  0  0  # atno 10167 bound_to 10162
  156.4975  130.4580  149.6720 H   0  0  0  0  0  0  0  0  0  0  0  0  # atno 10718 bound_to 10713
  153.4087  135.3839  155.2036 H   0  0  0  0  0  0  0  0  0  0  0  0  # atno 10763 bound_to 10752
  154.8736  135.3789  154.4527 H   0  0  0  0  0  0  0  0  0  0  0  0  # atno 10764 bound_to 10752
  153.5033  135.7088  153.5882 H   0  0  0  0  0  0  0  0  0  0  0  0  # atno 10765 bound_to 10752
  140.5960  134.4996  157.5199 H   0  0  0  0  0  0  0  0  0  0  0  0  # atno 11005 bound_to 11000
  146.2672  140.4899  142.8829 LP  0  0  0  0  0  0  0  0  0  0  0  0  # atno 17320 bound_to 7965
  144.8265  140.6637  143.6318 LP  0  0  0  0  0  0  0  0  0  0  0  0  # atno 17321 bound_to 7965
  139.4880  144.6335  151.7022 LP  0  0  0  0  0  0  0  0  0  0  0  0  # atno 17342 bound_to 10162
  140.5511  144.0423  150.6127 LP  0  0  0  0  0  0  0  0  0  0  0  0  # atno 17343 bound_to 10162
  156.3365  130.7359  151.2298 LP  0  0  0  0  0  0  0  0  0  0  0  0  # atno 17370 bound_to 10713
  157.7467  131.0415  150.4651 LP  0  0  0  0  0  0  0  0  0  0  0  0  # atno 17371 bound_to 10713
  139.9253  134.8068  156.1087 LP  0  0  0  0  0  0  0  0  0  0  0  0  # atno 17394 bound_to 11000
  141.0904  133.6717  156.2527 LP  0  0  0  0  0  0  0  0  0  0  0  0  # atno 17395 bound_to 11000

$$$$
