AV-unprocessed.smi:1829|AV-procd|sdf|7430|dock1
  -GOLD-   22720 9113D 1   1.00000     0.00000
 Structure written by MMmdl.
 46 48  0  0  0  0  0  0  0  0  2 V2000
  150.8022  132.4988  157.0964 C   0  0  0  0  0  0  0  0  0  0  0  0
  149.8237  133.3938  156.3204 C   0  0  0  0  0  0  0  0  0  0  0  0
  149.5016  132.8164  154.9328 C   0  0  0  0  0  0  0  0  0  0  0  0
  150.3320  134.8270  156.2349 C   0  0  0  0  0  0  0  0  0  0  0  0
  150.5199  135.4343  154.9753 C   0  0  0  0  0  0  0  0  0  0  0  0
  150.9711  136.7647  154.8879 C   0  0  0  0  0  0  0  0  0  0  0  0
  151.2408  137.5046  156.0583 C   0  0  0  0  0  0  0  0  0  0  0  0
  151.6823  138.9572  155.9485 C   0  0  2  0  0  0  0  0  0  0  0  0
  152.9602  139.0900  155.3618 O   0  0  0  0  0  0  0  0  0  0  0  0
  151.7073  139.6633  157.3204 C   0  0  0  0  0  0  0  0  0  0  0  0
  151.2852  141.0715  157.2452 N   0  0  0  0  0  0  0  0  0  0  0  0
  150.4399  141.6999  156.3763 C   0  0  0  0  0  0  0  0  0  0  0  0
  149.6843  141.0826  155.2463 C   0  0  0  0  0  0  0  0  0  0  0  0
  148.9988  142.0414  154.4726 O   0  0  0  0  0  0  0  0  0  0  0  0
  150.4015  143.0149  156.7315 N   0  3  0  0  0  0  0  0  0  0  0  0
  151.2247  143.2308  157.8369 C   0  0  0  0  0  0  0  0  0  0  0  0
  151.5089  144.3920  158.5489 C   0  0  0  0  0  0  0  0  0  0  0  0
  152.3970  144.2651  159.6371 C   0  0  0  0  0  0  0  0  0  0  0  0
  152.9633  143.0204  159.9819 C   0  0  0  0  0  0  0  0  0  0  0  0
  152.6677  141.8500  159.2522 C   0  0  0  0  0  0  0  0  0  0  0  0
  151.7911  141.9851  158.1763 C   0  0  0  0  0  0  0  0  0  0  0  0
  151.0618  136.8957  157.3190 C   0  0  0  0  0  0  0  0  0  0  0  0
  150.6078  135.5659  157.4063 C   0  0  0  0  0  0  0  0  0  0  0  0
  150.9762  132.8883  158.1001 H   0  0  0  0  0  0  0  0  0  0  0  0
  151.7678  132.4292  156.5947 H   0  0  0  0  0  0  0  0  0  0  0  0
  150.4101  131.4868  157.2005 H   0  0  0  0  0  0  0  0  0  0  0  0
  148.8887  133.4082  156.8824 H   0  0  0  0  0  0  0  0  0  0  0  0
  148.7744  133.4384  154.4098 H   0  0  0  0  0  0  0  0  0  0  0  0
  149.0784  131.8151  155.0150 H   0  0  0  0  0  0  0  0  0  0  0  0
  150.3915  132.7460  154.3068 H   0  0  0  0  0  0  0  0  0  0  0  0
  150.3114  134.8854  154.0685 H   0  0  0  0  0  0  0  0  0  0  0  0
  151.0962  137.2207  153.9169 H   0  0  0  0  0  0  0  0  0  0  0  0
  150.9890  139.4772  155.2868 H   0  0  0  0  0  0  0  0  0  0  0  0
  152.9181  138.7651  154.4750 H   0  0  0  0  0  0  0  0  0  0  0  0
  151.0505  139.1522  158.0253 H   0  0  0  0  0  0  0  0  0  0  0  0
  152.7068  139.6333  157.7565 H   0  0  0  0  0  0  0  0  0  0  0  0
  150.3764  140.5385  154.6033 H   0  0  0  0  0  0  0  0  0  0  0  0
  148.9706  140.3559  155.6314 H   0  0  0  0  0  0  0  0  0  0  0  0
  149.0080  142.8645  154.9370 H   0  0  0  0  0  0  0  0  0  0  0  0
  151.0756  145.3462  158.2874 H   0  0  0  0  0  0  0  0  0  0  0  0
  152.6483  145.1399  160.2193 H   0  0  0  0  0  0  0  0  0  0  0  0
  153.6387  142.9618  160.8232 H   0  0  0  0  0  0  0  0  0  0  0  0
  153.1067  140.9013  159.5238 H   0  0  0  0  0  0  0  0  0  0  0  0
  151.2548  137.4513  158.2251 H   0  0  0  0  0  0  0  0  0  0  0  0
  150.4643  135.1191  158.3790 H   0  0  0  0  0  0  0  0  0  0  0  0
  149.8471  143.7114  156.2501 H   0  0  0  0  0  0  0  0  0  0  0  0
  1  2  1  0  0  0  0
  1 24  1  0  0  0  0
  1 25  1  0  0  0  0
  1 26  1  0  0  0  0
  2  3  1  0  0  0  0
  2  4  1  0  0  0  0
  2 27  1  0  0  0  0
  3 28  1  0  0  0  0
  3 29  1  0  0  0  0
  3 30  1  0  0  0  0
  4 23  1  0  0  0  0
  4  5  2  0  0  0  0
  5  6  1  0  0  0  0
  5 31  1  0  0  0  0
  6  7  2  0  0  0  0
  6 32  1  0  0  0  0
  7  8  1  0  0  0  0
  7 22  1  0  0  0  0
  8  9  1  0  0  0  0
  8 10  1  0  0  0  0
  8 33  1  0  0  0  0
  9 34  1  0  0  0  0
 10 11  1  0  0  0  0
 10 35  1  0  0  0  0
 10 36  1  0  0  0  0
 11 21  1  0  0  0  0
 11 12  1  0  0  0  0
 12 13  1  0  0  0  0
 12 15  2  0  0  0  0
 13 14  1  0  0  0  0
 13 37  1  0  0  0  0
 13 38  1  0  0  0  0
 14 39  1  0  0  0  0
 15 16  1  0  0  0  0
 15 46  1  0  0  0  0
 16 21  2  0  0  0  0
 16 17  1  0  0  0  0
 17 18  2  0  0  0  0
 17 40  1  0  0  0  0
 18 19  1  0  0  0  0
 18 41  1  0  0  0  0
 19 20  2  0  0  0  0
 19 42  1  0  0  0  0
 20 21  1  0  0  0  0
 20 43  1  0  0  0  0
 22 23  2  0  0  0  0
 22 44  1  0  0  0  0
 23 45  1  0  0  0  0
M  CHG  1  15   1
M  END
> <s_m_source_file>
AV-unprocessed.smi

> <i_m_source_file_index>
1829

> <i_lp_mmshare_version>
43012

> <i_f3d_flags>
0

> <s_epik_input>
W0NIM11bQ0hdKFtDSDNdKWMxW2NIXVtjSF1jKFtjSF1bY0hdMSlbQ0BIXShbT0hdKVtDSDJdbihjKG4yKVtDSDJdW09IXSljKGMyMylbY0hdW2NIXVtjSF1bY0hdMw==

> <s_epik_cmdline>
J2VwaWtfcHl0aG9uJywgJy1waCcsICc3LjAnLCAnLXRuJywgJzgnLCAnLW1hJywgJzIwMCcsICctbWV0YWxfYmluZGluZycsICctaW1hZScsICc8aW5maWxlLm1hZT4nLCAnLW9tYWUnLCAnPG91dGZpbGUubWFlPic=

> <r_epik_Ionization_Penalty>
1.35642

> <r_epik_Ionization_Penalty_Charging>
1.35557

> <r_epik_Ionization_Penalty_Neutral>
0.000856322

> <r_epik_State_Penalty>
1.43401

> <r_epik_Charging_Adjusted_Penalty>
2.78958

> <i_epik_Tot_Q>
1

> <i_epik_Tot_abs_Q>
1

> <r_epik_Metal_State_Penalty>
5.47166

> <b_epik_Metal_Only>
0

> <s_lp_Force_Field>
OPLS_2005

> <r_lp_Energy>
15.3194

> <b_lp_Chiralities_Consistent>
1

> <s_lp_Variant>
AV-unprocessed.smi:1829-3

> <Gold.Version>
5.8.1

> <Gold.Id.Protein>
6NUR|6NUR_protein|mol2

> <Gold.PLP.Fitness>
59.2751

> <Gold.PLP.PLP>
-48.3344

> <Gold.PLP.part.hbond>
-4.0599

> <Gold.PLP.part.metal>
0.0000

> <Gold.PLP.part.buried>
-4.1594

> <Gold.PLP.part.nonpolar>
-40.5843

> <Gold.PLP.part.repulsive>
0.0552

> <Gold.PLP.ligand.clash>
0.0000

> <Gold.PLP.ligand.torsion>
0.9816

> <Gold.PLP.Chemscore.Hbond>
4.2077

> <Gold.PLP.Chemscore.CHOScore>
0.0000

> <Gold.PLP.Chemscore.Metal>
0.0000

> <Gold.Chemscore.Hbonds>
donor molecule, donor type, donor heavy atom, donor atom, acceptor molecule, acceptor atom, score
      L1  H    14    39       P1  8028  1.00
      L1  H    15    46       P1  8028  1.89
      P1  H  7997  8009       L1     9  1.00
      P1  H  8011  8017       L1    14  0.11

> <Gold.PLP.Chemscore.Internal.Correction>
0.2807

> <Gold.Rescore>
     Score         DG    S(hbond)    S(metal)    S(lipo)     H(rot)  DE(clash)    DE(int)     intcor
     22.45     -24.51       3.13        0.00     133.72       2.75       0.07       1.99       ----

> <Gold.Chemscore.Fitness>
22.4498

> <Gold.Chemscore.DG>
-24.5115

> <Gold.Chemscore.ZeroCoef>
-5.4800

> <Gold.Chemscore.Hbond>
3.1256

> <Gold.Chemscore.Metal>
0.0000

> <Gold.Chemscore.Lipo>
133.7165

> <Gold.Chemscore.Internal_Hbond>
0.0000

> <Gold.Chemscore.DEClash>
0.0673

> <Gold.Chemscore.DEInternal>
1.9944

> <Gold.Chemscore.Rot>
2.7550

> <Gold.Chemscore.Internal.Correction>
   9.000000E+99

> <Gold.Chemscore.Hbonds>
donor molecule, donor type, donor heavy atom, donor atom, acceptor molecule, acceptor atom, score
      L1  H    14    39       P1  8028  0.97
      L1  H    15    46       P1  8028  0.90
      P1  H  7997  8009       L1     9  0.99
      P1  H  8011  8017       L1    14  0.06

> <Gold.Chemscore.Hbond.Weighted>
-10.4394

> <Gold.Chemscore.Metal.Weighted>
-0.0000

> <Gold.Chemscore.Lipo.Weighted>
-15.6448

> <Gold.Chemscore.Internal_Hbond.Weighted>
0.0000

> <Gold.Chemscore.DEClash.Weighted>
0.0673

> <Gold.Chemscore.DEInternal.Weighted>
1.9944

> <Gold.Chemscore.Rot.Weighted>
7.0527

> <Gold.Chemscore.Internal.Correction.Weighted>
   9.000000E+99

> <Gold.Protein.RotatedTorsions>
[ 6907 6896 6895 6894 ] final -140.48 input  -60.11 | X-H torsion
[ 7974 7965 7964 7962 ] final  -27.03 input  175.53 | X-H torsion
[ 8008 7997 7996 7995 ] final -148.22 input   59.86 | X-H torsion
[ 10167 10162 10161 10158 ] final -136.08 input  -65.29 | X-H torsion
[ 10718 10713 10712 10709 ] final   12.61 input   66.30 | X-H torsion
[ 10763 10752 10751 10750 ] final  -65.21 input  -60.55 | X-H torsion
[ 11005 11000 10999 10996 ] final  158.05 input  -57.11 | X-H torsion

> <Gold.Protein.ActiveResidues>
 VAL166  LYS551  ARG553  GLY616  TRP617  ASP618  TYR619  PRO620  LYS621  CYS622 
 ASP623  PHE694  ASN695  SER759  ASP760  ASP761  ALA762  ILE779  LEU786  VAL792 
 PHE793  MET794  SER795  GLU796  ALA797  LYS798  CYS799  TRP800  GLU811  SER814 

> <Gold.Protein.RotatedAtoms>
  151.0612  133.5542  159.2633 H   0  0  0  0  0  0  0  0  0  0  0  0  # atno 6907 bound_to 6896
  151.2517  135.0623  159.9074 H   0  0  0  0  0  0  0  0  0  0  0  0  # atno 6908 bound_to 6896
  152.5398  134.0371  159.8105 H   0  0  0  0  0  0  0  0  0  0  0  0  # atno 6909 bound_to 6896
  146.1385  140.5098  142.8662 H   0  0  0  0  0  0  0  0  0  0  0  0  # atno 7974 bound_to 7965
  155.5881  140.0650  157.2766 H   0  0  0  0  0  0  0  0  0  0  0  0  # atno 8008 bound_to 7997
  154.4313  140.1840  156.1093 H   0  0  0  0  0  0  0  0  0  0  0  0  # atno 8009 bound_to 7997
  156.0254  140.3312  155.7086 H   0  0  0  0  0  0  0  0  0  0  0  0  # atno 8010 bound_to 7997
  139.8714  143.6953  152.2639 H   0  0  0  0  0  0  0  0  0  0  0  0  # atno 10167 bound_to 10162
  157.0127  130.6123  149.5710 H   0  0  0  0  0  0  0  0  0  0  0  0  # atno 10718 bound_to 10713
  154.3417  135.6155  153.5599 H   0  0  0  0  0  0  0  0  0  0  0  0  # atno 10763 bound_to 10752
  152.9804  135.5771  154.4845 H   0  0  0  0  0  0  0  0  0  0  0  0  # atno 10764 bound_to 10752
  154.4551  135.2854  155.1731 H   0  0  0  0  0  0  0  0  0  0  0  0  # atno 10765 bound_to 10752
  140.1828  134.8463  157.2823 H   0  0  0  0  0  0  0  0  0  0  0  0  # atno 11005 bound_to 11000
  144.7766  140.5753  143.6633 LP  0  0  0  0  0  0  0  0  0  0  0  0  # atno 17320 bound_to 7965
  145.5100  139.1479  143.3610 LP  0  0  0  0  0  0  0  0  0  0  0  0  # atno 17321 bound_to 7965
  139.7281  144.7588  151.0847 LP  0  0  0  0  0  0  0  0  0  0  0  0  # atno 17342 bound_to 10162
  140.7760  143.5123  150.9637 LP  0  0  0  0  0  0  0  0  0  0  0  0  # atno 17343 bound_to 10162
  156.0130  130.5223  150.8049 LP  0  0  0  0  0  0  0  0  0  0  0  0  # atno 17370 bound_to 10713
  157.5308  131.0936  150.9957 LP  0  0  0  0  0  0  0  0  0  0  0  0  # atno 17371 bound_to 10713
  140.2248  134.3980  155.7549 LP  0  0  0  0  0  0  0  0  0  0  0  0  # atno 17394 bound_to 11000
  141.2223  133.7184  156.8547 LP  0  0  0  0  0  0  0  0  0  0  0  0  # atno 17395 bound_to 11000

$$$$
