#       Name:                AV-unprocessed.smi:699
#       Creating user name   scv26
#       Creation time:       Fri Mar 27 00:38:20 2020


#       File generated by GOLD software.
#

@<TRIPOS>MOLECULE
AV-unprocessed.smi:699
    39    40     1
SMALL
NO_CHARGES


@<TRIPOS>ATOM
      1 ****        -1.8202  -0.5207   3.7174 N.am           1 S1                 0.0000
      2 ****        -2.5173  -0.1830   2.6297 C.2            1 S1                 0.0000
      3 ****        -3.3500   0.7218   2.6432 O.2            1 S1                 0.0000
      4 ****        -2.2358  -0.9779   1.3457 C.3            1 S1                 0.0000
      5 ****        -3.4847  -1.6645   0.7747 C.3            1 S1                 0.0000
      6 ****        -3.1628  -1.8559  -0.7043 C.3            1 S1                 0.0000
      7 ****        -2.3914  -0.5952  -1.0945 C.3            1 S1                 0.0000
      8 ****        -1.6971  -0.0988   0.1904 C.3            1 S1                 0.0000
      9 ****        -0.2410  -0.1934   0.1007 N.am           1 S1                 0.0000
     10 ****         0.5506   0.6724  -0.5486 C.2            1 S1                 0.0000
     11 ****         0.1232   1.6496  -1.1625 O.2            1 S1                 0.0000
     12 ****         1.8430   0.3147  -0.4478 N.am           1 S1                 0.0000
     13 ****         2.9962   0.9529  -0.9823 C.ar           1 S1                 0.0000
     14 ****         4.1953   0.2108  -1.0139 C.ar           1 S1                 0.0000
     15 ****         5.3590   0.8186  -1.5258 C.ar           1 S1                 0.0000
     16 ****         5.3921   2.0869  -1.9853 N.ar           1 S1                 0.0000
     17 ****         4.2473   2.8006  -1.9436 C.ar           1 S1                 0.0000
     18 ****         3.0297   2.2886  -1.4519 C.ar           1 S1                 0.0000
     19 ****        -1.9777  -0.0275   4.5842 H              1 S1                 0.0000
     20 ****        -1.1437  -1.2687   3.6732 H              1 S1                 0.0000
     21 ****        -1.5098  -1.7641   1.5646 H              1 S1                 0.0000
     22 ****        -3.6992  -2.6119   1.2700 H              1 S1                 0.0000
     23 ****        -4.3666  -1.0299   0.8764 H              1 S1                 0.0000
     24 ****        -2.5225  -2.7303  -0.8292 H              1 S1                 0.0000
     25 ****        -4.0548  -2.0073  -1.3129 H              1 S1                 0.0000
     26 ****        -1.7000  -0.7856  -1.9164 H              1 S1                 0.0000
     27 ****        -3.0927   0.1661  -1.4390 H              1 S1                 0.0000
     28 ****        -1.9676   0.9479   0.3466 H              1 S1                 0.0000
     29 ****         0.1931  -0.9735   0.5719 H              1 S1                 0.0000
     30 ****         2.0216  -0.5510   0.0394 H              1 S1                 0.0000
     31 ****         4.2273  -0.8085  -0.6574 H              1 S1                 0.0000
     32 ****         6.2887   0.2706  -1.5652 H              1 S1                 0.0000
     33 ****         4.3038   3.8154  -2.3087 H              1 S1                 0.0000
     34 ****         2.1631   2.9305  -1.4376 H              1 S1                 0.0000
     35 ****        -3.5223   1.2302   3.4869 LP             1 S1                 0.0000
     36 ****        -3.8548   0.9492   1.8104 LP             1 S1                 0.0000
     37 ****        -0.8600   1.8295  -1.1941 LP             1 S1                 0.0000
     38 ****         0.7591   2.2638  -1.6299 LP             1 S1                 0.0000
     39 ****         6.2364   2.4846  -2.3446 LP             1 S1                 0.0000
@<TRIPOS>BOND
    1    1    2 am    
    2    1   19 1     
    3    1   20 1     
    4    2    3 2     
    5    2    4 1     
    6    4    8 1     
    7    4    5 1     
    8    4   21 1     
    9    5    6 1     
   10    5   22 1     
   11    5   23 1     
   12    6    7 1     
   13    6   24 1     
   14    6   25 1     
   15    7    8 1     
   16    7   26 1     
   17    7   27 1     
   18    8    9 1     
   19    8   28 1     
   20    9   10 am    
   21    9   29 1     
   22   10   11 2     
   23   10   12 am    
   24   12   13 1     
   25   12   30 1     
   26   13   18 ar    
   27   13   14 ar    
   28   14   15 ar    
   29   14   31 1     
   30   15   16 ar    
   31   15   32 1     
   32   16   17 ar    
   33   17   18 ar    
   34   17   33 1     
   35   18   34 1     
   36    3   35 1     
   37    3   36 1     
   38   11   37 1     
   39   11   38 1     
   40   16   39 1     
@<TRIPOS>SUBSTRUCTURE
      1 S1             1
@<TRIPOS>SET
LONE_PAIRS      STATIC     ATOMS    <user>   **** ""
5 35 36 37 38 39
DONOR_HYDROGENS      STATIC     ATOMS    <user>   **** ""
4 19 20 29 30
ATOM$BLUE        STATIC     ATOMS    COLORGROUP SYSTEM
5 35 36 37 38 39
ATOM$RED        STATIC     ATOMS    COLORGROUP SYSTEM
4 19 20 29 30
