AV-unprocessed.smi:1632|AV-procd|sdf|6531|dock4
  -GOLD-   22720 7213D 1   1.00000     0.00000
 Structure written by MMmdl.
 43 45  0  0  0  0  0  0  0  0  2 V2000
  155.5299  138.4038  154.2537 O   0  0  0  0  0  0  0  0  0  0  0  0
  154.3704  137.6223  154.4423 C   0  0  0  0  0  0  0  0  0  0  0  0
  153.1619  138.5378  154.6735 C   0  0  0  0  0  0  0  0  0  0  0  0
  151.8353  137.7631  154.6929 C   0  0  0  0  0  0  0  0  0  0  0  0
  150.6542  138.6614  154.4912 C   0  0  0  0  0  0  0  0  0  0  0  0
  149.5856  138.4018  153.6844 N   0  3  0  0  0  0  0  0  0  0  0  0
  148.6741  139.4556  153.7479 C   0  0  0  0  0  0  0  0  0  0  0  0
  147.4561  139.6480  153.1028 C   0  0  0  0  0  0  0  0  0  0  0  0
  146.7687  140.8448  153.3935 C   0  0  0  0  0  0  0  0  0  0  0  0
  147.2949  141.7936  154.2940 C   0  0  0  0  0  0  0  0  0  0  0  0
  148.5308  141.5868  154.9417 C   0  0  0  0  0  0  0  0  0  0  0  0
  149.2040  140.4011  154.6482 C   0  0  0  0  0  0  0  0  0  0  0  0
  150.4219  139.8690  155.0866 N   0  0  0  0  0  0  0  0  0  0  0  0
  151.2258  140.6386  156.0502 C   0  0  0  0  0  0  0  0  0  0  0  0
  150.3963  141.1422  157.2488 C   0  0  1  0  0  0  0  0  0  0  0  0
  149.6504  140.0528  157.7511 O   0  0  0  0  0  0  0  0  0  0  0  0
  151.2616  141.7958  158.3207 C   0  0  0  0  0  0  0  0  0  0  0  0
  151.2081  143.1929  158.5258 C   0  0  0  0  0  0  0  0  0  0  0  0
  151.9914  143.7967  159.5280 C   0  0  0  0  0  0  0  0  0  0  0  0
  152.8363  143.0085  160.3315 C   0  0  0  0  0  0  0  0  0  0  0  0
  152.8952  141.6160  160.1333 C   0  0  0  0  0  0  0  0  0  0  0  0
  152.1085  141.0092  159.1349 C   0  0  0  0  0  0  0  0  0  0  0  0
  152.1637  139.6650  158.9721 F   0  0  0  0  0  0  0  0  0  0  0  0
  156.2854  137.8823  154.4793 H   0  0  0  0  0  0  0  0  0  0  0  0
  154.2167  136.9937  153.5649 H   0  0  0  0  0  0  0  0  0  0  0  0
  154.5235  136.9626  155.2969 H   0  0  0  0  0  0  0  0  0  0  0  0
  153.2892  139.0605  155.6218 H   0  0  0  0  0  0  0  0  0  0  0  0
  153.1305  139.3053  153.8989 H   0  0  0  0  0  0  0  0  0  0  0  0
  151.8328  136.9998  153.9143 H   0  0  0  0  0  0  0  0  0  0  0  0
  151.7373  137.2394  155.6427 H   0  0  0  0  0  0  0  0  0  0  0  0
  147.0511  138.9226  152.4126 H   0  0  0  0  0  0  0  0  0  0  0  0
  145.8189  141.0388  152.9164 H   0  0  0  0  0  0  0  0  0  0  0  0
  146.7401  142.6993  154.4924 H   0  0  0  0  0  0  0  0  0  0  0  0
  148.9265  142.3204  155.6283 H   0  0  0  0  0  0  0  0  0  0  0  0
  152.0454  140.0027  156.3875 H   0  0  0  0  0  0  0  0  0  0  0  0
  151.6925  141.4706  155.5233 H   0  0  0  0  0  0  0  0  0  0  0  0
  149.6620  141.8668  156.8966 H   0  0  0  0  0  0  0  0  0  0  0  0
  150.2402  139.4682  158.2028 H   0  0  0  0  0  0  0  0  0  0  0  0
  150.5585  143.8071  157.9197 H   0  0  0  0  0  0  0  0  0  0  0  0
  151.9422  144.8647  159.6815 H   0  0  0  0  0  0  0  0  0  0  0  0
  153.4362  143.4707  161.1016 H   0  0  0  0  0  0  0  0  0  0  0  0
  153.5396  141.0110  160.7539 H   0  0  0  0  0  0  0  0  0  0  0  0
  149.4935  137.5638  153.1246 H   0  0  0  0  0  0  0  0  0  0  0  0
  1  2  1  0  0  0  0
  1 24  1  0  0  0  0
  2  3  1  0  0  0  0
  2 25  1  0  0  0  0
  2 26  1  0  0  0  0
  3  4  1  0  0  0  0
  3 27  1  0  0  0  0
  3 28  1  0  0  0  0
  4  5  1  0  0  0  0
  4 29  1  0  0  0  0
  4 30  1  0  0  0  0
  5 13  1  0  0  0  0
  5  6  2  0  0  0  0
  6  7  1  0  0  0  0
  6 43  1  0  0  0  0
  7 12  2  0  0  0  0
  7  8  1  0  0  0  0
  8  9  2  0  0  0  0
  8 31  1  0  0  0  0
  9 10  1  0  0  0  0
  9 32  1  0  0  0  0
 10 11  2  0  0  0  0
 10 33  1  0  0  0  0
 11 12  1  0  0  0  0
 11 34  1  0  0  0  0
 12 13  1  0  0  0  0
 13 14  1  0  0  0  0
 14 15  1  0  0  0  0
 14 35  1  0  0  0  0
 14 36  1  0  0  0  0
 15 16  1  0  0  0  0
 15 17  1  0  0  0  0
 15 37  1  0  0  0  0
 16 38  1  0  0  0  0
 17 22  1  0  0  0  0
 17 18  2  0  0  0  0
 18 19  1  0  0  0  0
 18 39  1  0  0  0  0
 19 20  2  0  0  0  0
 19 40  1  0  0  0  0
 20 21  1  0  0  0  0
 20 41  1  0  0  0  0
 21 22  2  0  0  0  0
 21 42  1  0  0  0  0
 22 23  1  0  0  0  0
M  CHG  1   6   1
M  END
> <s_m_source_file>
AV-unprocessed.smi

> <i_m_source_file_index>
1632

> <i_lp_mmshare_version>
43012

> <i_f3d_flags>
0

> <s_epik_input>
W09IXVtDSDJdW0NIMl1bQ0gyXWMobjEpbihjKGMxMilbY0hdW2NIXVtjSF1bY0hdMilbQ0gyXVtDQEhdKFtPSF0pYzNbY0hdW2NIXVtjSF1bY0hdYzNG

> <s_epik_cmdline>
J2VwaWtfcHl0aG9uJywgJy1waCcsICc3LjAnLCAnLXRuJywgJzgnLCAnLW1hJywgJzIwMCcsICctbWV0YWxfYmluZGluZycsICctaW1hZScsICc8aW5maWxlLm1hZT4nLCAnLW9tYWUnLCAnPG91dGZpbGUubWFlPic=

> <r_epik_Ionization_Penalty>
0.786441

> <r_epik_Ionization_Penalty_Charging>
0.786439

> <r_epik_Ionization_Penalty_Neutral>
1.50852e-06

> <r_epik_State_Penalty>
0.816472

> <r_epik_Charging_Adjusted_Penalty>
1.60291

> <i_epik_Tot_Q>
1

> <i_epik_Tot_abs_Q>
1

> <r_epik_Metal_State_Penalty>
4.73733

> <b_epik_Metal_Only>
0

> <s_lp_Force_Field>
OPLS_2005

> <r_lp_Energy>
15.9798

> <b_lp_Chiralities_Consistent>
1

> <s_lp_Variant>
AV-unprocessed.smi:1632-4

> <Gold.Version>
5.8.1

> <Gold.Id.Protein>
6NUR|6NUR_protein|mol2

> <Gold.PLP.Fitness>
58.2097

> <Gold.PLP.PLP>
-50.8816

> <Gold.PLP.part.hbond>
-3.0000

> <Gold.PLP.part.metal>
0.0000

> <Gold.PLP.part.buried>
5.3192

> <Gold.PLP.part.nonpolar>
-53.3795

> <Gold.PLP.part.repulsive>
0.0673

> <Gold.PLP.ligand.clash>
0.0000

> <Gold.PLP.ligand.torsion>
0.6577

> <Gold.PLP.Chemscore.Hbond>
2.8640

> <Gold.PLP.Chemscore.CHOScore>
0.0000

> <Gold.PLP.Chemscore.Metal>
0.0000

> <Gold.Chemscore.Hbonds>
donor molecule, donor type, donor heavy atom, donor atom, acceptor molecule, acceptor atom, score
      L1  H     6    43       P1  7948  2.00
      P1  H  7997  8010       L1     1  0.37

> <Gold.PLP.Chemscore.Internal.Correction>
0.0515

> <Gold.Rescore>
     Score         DG    S(hbond)    S(metal)    S(lipo)     H(rot)  DE(clash)    DE(int)     intcor
     15.63     -19.00       1.40        0.00     144.72       3.16       1.72       1.66       ----

> <Gold.Chemscore.Fitness>
15.6260

> <Gold.Chemscore.DG>
-19.0021

> <Gold.Chemscore.ZeroCoef>
-5.4800

> <Gold.Chemscore.Hbond>
1.4012

> <Gold.Chemscore.Metal>
0.0000

> <Gold.Chemscore.Lipo>
144.7241

> <Gold.Chemscore.Internal_Hbond>
0.0000

> <Gold.Chemscore.DEClash>
1.7185

> <Gold.Chemscore.DEInternal>
1.6575

> <Gold.Chemscore.Rot>
3.1604

> <Gold.Chemscore.Internal.Correction>
   9.000000E+99

> <Gold.Chemscore.Hbonds>
donor molecule, donor type, donor heavy atom, donor atom, acceptor molecule, acceptor atom, score
      L1  H     6    43       P1  7948  0.88
      P1  H  7997  8010       L1     1  0.26

> <Gold.Chemscore.Hbond.Weighted>
-4.6801

> <Gold.Chemscore.Metal.Weighted>
-0.0000

> <Gold.Chemscore.Lipo.Weighted>
-16.9327

> <Gold.Chemscore.Internal_Hbond.Weighted>
0.0000

> <Gold.Chemscore.DEClash.Weighted>
1.7185

> <Gold.Chemscore.DEInternal.Weighted>
1.6575

> <Gold.Chemscore.Rot.Weighted>
8.0907

> <Gold.Chemscore.Internal.Correction.Weighted>
   9.000000E+99

> <Gold.Protein.RotatedTorsions>
[ 6907 6896 6895 6894 ] final  -76.60 input  -60.11 | X-H torsion
[ 7974 7965 7964 7962 ] final -144.56 input  175.53 | X-H torsion
[ 8008 7997 7996 7995 ] final  171.26 input   59.86 | X-H torsion
[ 10167 10162 10161 10158 ] final -147.27 input  -65.29 | X-H torsion
[ 10718 10713 10712 10709 ] final    2.45 input   66.30 | X-H torsion
[ 10763 10752 10751 10750 ] final  132.86 input  -60.55 | X-H torsion
[ 11005 11000 10999 10996 ] final  -30.36 input  -57.11 | X-H torsion

> <Gold.Protein.ActiveResidues>
 VAL166  LYS551  ARG553  GLY616  TRP617  ASP618  TYR619  PRO620  LYS621  CYS622 
 ASP623  PHE694  ASN695  SER759  ASP760  ASP761  ALA762  ILE779  LEU786  VAL792 
 PHE793  MET794  SER795  GLU796  ALA797  LYS798  CYS799  TRP800  GLU811  SER814 

> <Gold.Protein.RotatedAtoms>
  150.7023  134.4548  159.5352 H   0  0  0  0  0  0  0  0  0  0  0  0  # atno 6907 bound_to 6896
  152.2234  134.8389  160.0492 H   0  0  0  0  0  0  0  0  0  0  0  0  # atno 6908 bound_to 6896
  151.9231  133.3556  159.3941 H   0  0  0  0  0  0  0  0  0  0  0  0  # atno 6909 bound_to 6896
  144.8289  140.5694  143.5529 H   0  0  0  0  0  0  0  0  0  0  0  0  # atno 7974 bound_to 7965
  156.1288  140.1516  156.9096 H   0  0  0  0  0  0  0  0  0  0  0  0  # atno 8008 bound_to 7997
  154.4892  140.0856  156.7597 H   0  0  0  0  0  0  0  0  0  0  0  0  # atno 8009 bound_to 7997
  155.4294  140.3426  155.4281 H   0  0  0  0  0  0  0  0  0  0  0  0  # atno 8010 bound_to 7997
  139.7637  143.8339  152.2612 H   0  0  0  0  0  0  0  0  0  0  0  0  # atno 10167 bound_to 10162
  156.8632  130.5594  149.5661 H   0  0  0  0  0  0  0  0  0  0  0  0  # atno 10718 bound_to 10713
  153.7976  135.3146  155.3386 H   0  0  0  0  0  0  0  0  0  0  0  0  # atno 10763 bound_to 10752
  154.8102  135.4672  154.0498 H   0  0  0  0  0  0  0  0  0  0  0  0  # atno 10764 bound_to 10752
  153.1836  135.6897  153.8532 H   0  0  0  0  0  0  0  0  0  0  0  0  # atno 10765 bound_to 10752
  140.9376  133.7299  156.1028 H   0  0  0  0  0  0  0  0  0  0  0  0  # atno 11005 bound_to 11000
  145.4940  139.1487  143.3694 LP  0  0  0  0  0  0  0  0  0  0  0  0  # atno 17320 bound_to 7965
  146.2593  140.5079  142.8860 LP  0  0  0  0  0  0  0  0  0  0  0  0  # atno 17321 bound_to 7965
  139.8353  144.7235  150.9399 LP  0  0  0  0  0  0  0  0  0  0  0  0  # atno 17342 bound_to 10162
  140.7809  143.4032  151.1114 LP  0  0  0  0  0  0  0  0  0  0  0  0  # atno 17343 bound_to 10162
  156.0765  130.5786  150.9484 LP  0  0  0  0  0  0  0  0  0  0  0  0  # atno 17370 bound_to 10713
  157.6238  131.0927  150.8573 LP  0  0  0  0  0  0  0  0  0  0  0  0  # atno 17371 bound_to 10713
  140.7778  134.3760  157.5494 LP  0  0  0  0  0  0  0  0  0  0  0  0  # atno 17394 bound_to 11000
  139.8812  134.9063  156.2918 LP  0  0  0  0  0  0  0  0  0  0  0  0  # atno 17395 bound_to 11000

$$$$
