AV-unprocessed.smi:1948|AV-procd|sdf|7876|dock3
  -GOLD-   2272010 23D 1   1.00000     0.00000
 Structure written by MMmdl.
 29 30  0  0  0  0  0  0  0  0  2 V2000
  149.4239  136.0464  158.8538 O   0  0  0  0  0  0  0  0  0  0  0  0
  148.8109  137.0793  159.1337 C   0  0  0  0  0  0  0  0  0  0  0  0
  147.8655  137.2142  160.0919 N   0  5  0  0  0  0  0  0  0  0  0  0
  147.3593  136.1255  160.6945 C   0  0  0  0  0  0  0  0  0  0  0  0
  147.0797  134.9972  160.0221 N   0  0  0  0  0  0  0  0  0  0  0  0
  146.5702  133.9909  160.8317 N   0  0  0  0  0  0  0  0  0  0  0  0
  146.4850  134.3859  162.1018 C   0  0  0  0  0  0  0  0  0  0  0  0
  147.0238  136.0202  162.4251 S   0  0  0  0  0  0  0  0  0  0  0  0
  149.0600  138.2105  158.4579 N   0  0  0  0  0  0  0  0  0  0  0  0
  150.0182  138.3693  157.3669 C   0  0  2  0  0  0  0  0  0  0  0  0
  150.2519  139.8619  157.0587 C   0  0  0  0  0  0  0  0  0  0  0  0
  151.2119  140.0489  155.8706 C   0  0  0  0  0  0  0  0  0  0  0  0
  150.7472  139.2863  154.6154 C   0  0  2  0  0  0  0  0  0  0  0  0
  149.5937  139.8986  154.0728 O   0  0  0  0  0  0  0  0  0  0  0  0
  150.4623  137.8046  154.9250 C   0  0  0  0  0  0  0  0  0  0  0  0
  149.5048  137.6313  156.1173 C   0  0  0  0  0  0  0  0  0  0  0  0
  146.1067  133.7096  162.8536 H   0  0  0  0  0  0  0  0  0  0  0  0
  148.5360  139.0312  158.7243 H   0  0  0  0  0  0  0  0  0  0  0  0
  150.9671  137.9154  157.6598 H   0  0  0  0  0  0  0  0  0  0  0  0
  149.2997  140.3472  156.8394 H   0  0  0  0  0  0  0  0  0  0  0  0
  150.6576  140.3679  157.9353 H   0  0  0  0  0  0  0  0  0  0  0  0
  151.3311  141.1098  155.6479 H   0  0  0  0  0  0  0  0  0  0  0  0
  152.1999  139.6876  156.1587 H   0  0  0  0  0  0  0  0  0  0  0  0
  151.5252  139.3471  153.8538 H   0  0  0  0  0  0  0  0  0  0  0  0
  149.6421  139.8486  153.1305 H   0  0  0  0  0  0  0  0  0  0  0  0
  150.0587  137.3047  154.0437 H   0  0  0  0  0  0  0  0  0  0  0  0
  151.4034  137.3028  155.1538 H   0  0  0  0  0  0  0  0  0  0  0  0
  149.3826  136.5697  156.3354 H   0  0  0  0  0  0  0  0  0  0  0  0
  148.5158  138.0047  155.8471 H   0  0  0  0  0  0  0  0  0  0  0  0
  1  2  2  0  0  0  0
  2  3  1  0  0  0  0
  2  9  1  0  0  0  0
  3  4  1  0  0  0  0
  4  8  1  0  0  0  0
  4  5  2  0  0  0  0
  5  6  1  0  0  0  0
  6  7  2  0  0  0  0
  7  8  1  0  0  0  0
  7 17  1  0  0  0  0
  9 10  1  0  0  0  0
  9 18  1  0  0  0  0
 10 16  1  0  0  0  0
 10 11  1  0  0  0  0
 10 19  1  0  0  0  0
 11 12  1  0  0  0  0
 11 20  1  0  0  0  0
 11 21  1  0  0  0  0
 12 13  1  0  0  0  0
 12 22  1  0  0  0  0
 12 23  1  0  0  0  0
 13 14  1  0  0  0  0
 13 15  1  0  0  0  0
 13 24  1  0  0  0  0
 14 25  1  0  0  0  0
 15 16  1  0  0  0  0
 15 26  1  0  0  0  0
 15 27  1  0  0  0  0
 16 28  1  0  0  0  0
 16 29  1  0  0  0  0
M  CHG  1   3  -1
M  END
> <s_m_source_file>
AV-unprocessed.smi

> <i_m_source_file_index>
1948

> <i_lp_mmshare_version>
43012

> <i_f3d_flags>
0

> <s_epik_input>
czFbY0hdbm5jMVtOSF1DKD1PKVtOSF1bQ0BASF0yW0NIMl1bQ0gyXVtDQEBIXShbT0hdKVtDSDJdW0NIMl0y

> <s_epik_cmdline>
J2VwaWtfcHl0aG9uJywgJy1waCcsICc3LjAnLCAnLXRuJywgJzgnLCAnLW1hJywgJzIwMCcsICctbWV0YWxfYmluZGluZycsICctaW1hZScsICc8aW5maWxlLm1hZT4nLCAnLW9tYWUnLCAnPG91dGZpbGUubWFlPic=

> <r_lp_tautomer_probability>
1

> <r_epik_Ionization_Penalty>
4.52057

> <r_epik_Ionization_Penalty_Charging>
4.4725

> <r_epik_Ionization_Penalty_Neutral>
0.048076

> <r_epik_State_Penalty>
4.47218

> <r_epik_Charging_Adjusted_Penalty>
8.94468

> <i_epik_Tot_Q>
-1

> <i_epik_Tot_abs_Q>
1

> <r_epik_Metal_State_Penalty>
0.805713

> <b_epik_Metal_Only>
1

> <s_lp_Force_Field>
OPLS_2005

> <r_lp_Energy>
8.18749

> <b_lp_Chiralities_Consistent>
1

> <s_lp_Variant>
AV-unprocessed.smi:1948-4

> <Gold.Version>
5.8.1

> <Gold.Id.Protein>
6NUR|6NUR_protein|mol2

> <Gold.PLP.Fitness>
39.7664

> <Gold.PLP.PLP>
-28.2042

> <Gold.PLP.part.hbond>
-4.2538

> <Gold.PLP.part.metal>
0.0000

> <Gold.PLP.part.buried>
-3.8369

> <Gold.PLP.part.nonpolar>
-21.0713

> <Gold.PLP.part.repulsive>
0.1873

> <Gold.PLP.ligand.clash>
0.0000

> <Gold.PLP.ligand.torsion>
0.4659

> <Gold.PLP.Chemscore.Hbond>
4.1623

> <Gold.PLP.Chemscore.CHOScore>
0.0000

> <Gold.PLP.Chemscore.Metal>
0.0000

> <Gold.Chemscore.Hbonds>
donor molecule, donor type, donor heavy atom, donor atom, acceptor molecule, acceptor atom, score
      L1  H    14    25       P1  7957  1.00
      P1  H  6896  6907       L1     1  1.00
      P1  H  6931  6943       L1     3  0.15
      P1  H  6934  6947       L1     3  1.30

> <Gold.PLP.Chemscore.Internal.Correction>
0.0069

> <Gold.Rescore>
     Score         DG    S(hbond)    S(metal)    S(lipo)     H(rot)  DE(clash)    DE(int)     intcor
     14.01     -15.81       2.63        0.00      46.86       1.53       0.03       1.77       ----

> <Gold.Chemscore.Fitness>
14.0112

> <Gold.Chemscore.DG>
-15.8051

> <Gold.Chemscore.ZeroCoef>
-5.4800

> <Gold.Chemscore.Hbond>
2.6252

> <Gold.Chemscore.Metal>
0.0000

> <Gold.Chemscore.Lipo>
46.8645

> <Gold.Chemscore.Internal_Hbond>
0.0000

> <Gold.Chemscore.DEClash>
0.0270

> <Gold.Chemscore.DEInternal>
1.7669

> <Gold.Chemscore.Rot>
1.5337

> <Gold.Chemscore.Internal.Correction>
   9.000000E+99

> <Gold.Chemscore.Hbonds>
donor molecule, donor type, donor heavy atom, donor atom, acceptor molecule, acceptor atom, score
      L1  H    14    25       P1  7957  0.98
      P1  H  6896  6907       L1     1  0.93
      P1  H  6931  6943       L1     3  0.01
      P1  H  6934  6947       L1     3  0.58

> <Gold.Chemscore.Hbond.Weighted>
-8.7681

> <Gold.Chemscore.Metal.Weighted>
-0.0000

> <Gold.Chemscore.Lipo.Weighted>
-5.4831

> <Gold.Chemscore.Internal_Hbond.Weighted>
0.0000

> <Gold.Chemscore.DEClash.Weighted>
0.0270

> <Gold.Chemscore.DEInternal.Weighted>
1.7669

> <Gold.Chemscore.Rot.Weighted>
3.9262

> <Gold.Chemscore.Internal.Correction.Weighted>
   9.000000E+99

> <Gold.Protein.RotatedTorsions>
[ 6907 6896 6895 6894 ] final  -47.83 input  -60.11 | X-H torsion
[ 7974 7965 7964 7962 ] final   -3.31 input  175.53 | X-H torsion
[ 8008 7997 7996 7995 ] final -113.56 input   59.86 | X-H torsion
[ 10167 10162 10161 10158 ] final  140.73 input  -65.29 | X-H torsion
[ 10718 10713 10712 10709 ] final   50.87 input   66.30 | X-H torsion
[ 10763 10752 10751 10750 ] final -118.84 input  -60.55 | X-H torsion
[ 11005 11000 10999 10996 ] final -141.21 input  -57.11 | X-H torsion

> <Gold.Protein.ActiveResidues>
 VAL166  LYS551  ARG553  GLY616  TRP617  ASP618  TYR619  PRO620  LYS621  CYS622 
 ASP623  PHE694  ASN695  SER759  ASP760  ASP761  ALA762  ILE779  LEU786  VAL792 
 PHE793  MET794  SER795  GLU796  ALA797  LYS798  CYS799  TRP800  GLU811  SER814 

> <Gold.Protein.RotatedAtoms>
  150.8967  134.8376  159.7331 H   0  0  0  0  0  0  0  0  0  0  0  0  # atno 6907 bound_to 6896
  152.4869  134.4564  159.9601 H   0  0  0  0  0  0  0  0  0  0  0  0  # atno 6908 bound_to 6896
  151.4621  133.3551  159.2846 H   0  0  0  0  0  0  0  0  0  0  0  0  # atno 6909 bound_to 6896
  146.2391  140.1701  142.8332 H   0  0  0  0  0  0  0  0  0  0  0  0  # atno 7974 bound_to 7965
  155.0226  140.0393  157.2443 H   0  0  0  0  0  0  0  0  0  0  0  0  # atno 8008 bound_to 7997
  154.7365  140.2740  155.6387 H   0  0  0  0  0  0  0  0  0  0  0  0  # atno 8009 bound_to 7997
  156.2854  140.2674  156.2080 H   0  0  0  0  0  0  0  0  0  0  0  0  # atno 8010 bound_to 7997
  139.5040  144.6216  151.6038 H   0  0  0  0  0  0  0  0  0  0  0  0  # atno 10167 bound_to 10162
  157.4927  130.8386  149.8221 H   0  0  0  0  0  0  0  0  0  0  0  0  # atno 10718 bound_to 10713
  154.8599  135.4260  154.2203 H   0  0  0  0  0  0  0  0  0  0  0  0  # atno 10763 bound_to 10752
  153.3209  135.6982  153.7037 H   0  0  0  0  0  0  0  0  0  0  0  0  # atno 10764 bound_to 10752
  153.6092  135.3522  155.2946 H   0  0  0  0  0  0  0  0  0  0  0  0  # atno 10765 bound_to 10752
  140.8347  134.2474  157.4840 H   0  0  0  0  0  0  0  0  0  0  0  0  # atno 11005 bound_to 11000
  145.0018  140.8639  143.5277 LP  0  0  0  0  0  0  0  0  0  0  0  0  # atno 17320 bound_to 7965
  145.1722  139.2398  143.5336 LP  0  0  0  0  0  0  0  0  0  0  0  0  # atno 17321 bound_to 7965
  140.5920  143.9763  150.6330 LP  0  0  0  0  0  0  0  0  0  0  0  0  # atno 17342 bound_to 10162
  140.2947  143.3300  152.1029 LP  0  0  0  0  0  0  0  0  0  0  0  0  # atno 17343 bound_to 10162
  156.0182  130.3805  150.2043 LP  0  0  0  0  0  0  0  0  0  0  0  0  # atno 17370 bound_to 10713
  157.0232  130.9985  151.3334 LP  0  0  0  0  0  0  0  0  0  0  0  0  # atno 17371 bound_to 10713
  139.8704  134.9604  156.4364 LP  0  0  0  0  0  0  0  0  0  0  0  0  # atno 17394 bound_to 11000
  140.8960  133.7814  155.9626 LP  0  0  0  0  0  0  0  0  0  0  0  0  # atno 17395 bound_to 11000

$$$$
