AV-unprocessed.smi:1106|AV-procd|sdf|4777|dock3
  -GOLD-   22720 3313D 1   1.00000     0.00000
 Structure written by MMmdl.
 48 49  0  0  0  0  0  0  0  0  2 V2000
  152.7194  143.1077  158.9324 C   0  0  0  0  0  0  0  0  0  0  0  0
  151.8719  141.9301  159.4367 C   0  0  0  0  0  0  0  0  0  0  0  0
  151.9005  140.7964  158.5493 N   0  0  0  0  0  0  0  0  0  0  0  0
  152.3943  139.5710  158.9532 C   0  0  0  0  0  0  0  0  0  0  0  0
  152.4366  138.4941  158.1396 C   0  0  0  0  0  0  0  0  0  0  0  0
  152.9467  137.2386  158.5818 C   0  0  0  0  0  0  0  0  0  0  0  0
  153.3463  136.2087  158.9266 N   0  0  0  0  0  0  0  0  0  0  0  0
  151.9584  138.5697  156.7611 C   0  0  0  0  0  0  0  0  0  0  0  0
  151.9590  137.6128  155.9841 O   0  0  0  0  0  0  0  0  0  0  0  0
  151.4754  139.8450  156.3735 N   0  0  0  0  0  0  0  0  0  0  0  0
  150.9906  139.9876  155.0081 C   0  0  0  0  0  0  0  0  0  0  0  0
  149.8791  138.9849  154.6244 C   0  0  2  0  0  0  0  0  0  0  0  0
  150.4805  137.9568  153.8644 O   0  0  0  0  0  0  0  0  0  0  0  0
  148.7417  139.6103  153.7887 C   0  0  0  0  0  0  0  0  0  0  0  0
  147.7622  138.5994  153.3153 N   0  3  2  0  0  0  0  0  0  0  0  0
  146.8241  139.1526  152.3052 C   0  0  0  0  0  0  0  0  0  0  0  0
  145.9138  138.0537  151.7309 C   0  0  0  0  0  0  0  0  0  0  0  0
  145.1366  137.3314  152.8446 C   0  0  1  0  0  0  0  0  0  0  0  0
  144.2477  136.2117  152.2851 C   0  0  0  0  0  0  0  0  0  0  0  0
  146.1304  136.8006  153.8912 C   0  0  0  0  0  0  0  0  0  0  0  0
  147.0342  137.9253  154.4235 C   0  0  0  0  0  0  0  0  0  0  0  0
  151.4217  140.9722  157.2301 C   0  0  0  0  0  0  0  0  0  0  0  0
  150.9695  142.0564  156.8523 O   0  0  0  0  0  0  0  0  0  0  0  0
  152.7055  143.9273  159.6508 H   0  0  0  0  0  0  0  0  0  0  0  0
  152.3466  143.4951  157.9839 H   0  0  0  0  0  0  0  0  0  0  0  0
  153.7585  142.8106  158.7880 H   0  0  0  0  0  0  0  0  0  0  0  0
  152.2476  141.5699  160.3955 H   0  0  0  0  0  0  0  0  0  0  0  0
  150.8260  142.2008  159.5931 H   0  0  0  0  0  0  0  0  0  0  0  0
  152.7616  139.4681  159.9644 H   0  0  0  0  0  0  0  0  0  0  0  0
  150.6716  141.0192  154.8530 H   0  0  0  0  0  0  0  0  0  0  0  0
  151.8631  139.8756  154.3610 H   0  0  0  0  0  0  0  0  0  0  0  0
  149.4828  138.5302  155.5313 H   0  0  0  0  0  0  0  0  0  0  0  0
  149.8328  137.5985  153.2760 H   0  0  0  0  0  0  0  0  0  0  0  0
  148.2069  140.3700  154.3593 H   0  0  0  0  0  0  0  0  0  0  0  0
  149.1864  140.1281  152.9372 H   0  0  0  0  0  0  0  0  0  0  0  0
  146.2234  139.9436  152.7576 H   0  0  0  0  0  0  0  0  0  0  0  0
  147.3879  139.6086  151.4901 H   0  0  0  0  0  0  0  0  0  0  0  0
  145.2187  138.4921  151.0138 H   0  0  0  0  0  0  0  0  0  0  0  0
  146.5182  137.3352  151.1749 H   0  0  0  0  0  0  0  0  0  0  0  0
  144.4855  138.0589  153.3319 H   0  0  0  0  0  0  0  0  0  0  0  0
  144.8404  135.4462  151.7831 H   0  0  0  0  0  0  0  0  0  0  0  0
  143.5304  136.6039  151.5634 H   0  0  0  0  0  0  0  0  0  0  0  0
  143.6815  135.7259  153.0802 H   0  0  0  0  0  0  0  0  0  0  0  0
  145.5901  136.3422  154.7203 H   0  0  0  0  0  0  0  0  0  0  0  0
  146.7475  136.0144  153.4531 H   0  0  0  0  0  0  0  0  0  0  0  0
  147.7371  137.5026  155.1403 H   0  0  0  0  0  0  0  0  0  0  0  0
  146.4360  138.6590  154.9661 H   0  0  0  0  0  0  0  0  0  0  0  0
  148.3011  137.8905  152.8376 H   0  0  0  0  0  0  0  0  0  0  0  0
  1  2  1  0  0  0  0
  1 24  1  0  0  0  0
  1 25  1  0  0  0  0
  1 26  1  0  0  0  0
  2  3  1  0  0  0  0
  2 27  1  0  0  0  0
  2 28  1  0  0  0  0
  3 22  1  0  0  0  0
  3  4  1  0  0  0  0
  4  5  2  0  0  0  0
  4 29  1  0  0  0  0
  5  6  1  0  0  0  0
  5  8  1  0  0  0  0
  6  7  3  0  0  0  0
  8  9  2  0  0  0  0
  8 10  1  0  0  0  0
 10 11  1  0  0  0  0
 10 22  1  0  0  0  0
 11 12  1  0  0  0  0
 11 30  1  0  0  0  0
 11 31  1  0  0  0  0
 12 13  1  0  0  0  0
 12 14  1  0  0  0  0
 12 32  1  0  0  0  0
 13 33  1  0  0  0  0
 14 15  1  0  0  0  0
 14 34  1  0  0  0  0
 14 35  1  0  0  0  0
 15 21  1  0  0  0  0
 15 16  1  0  0  0  0
 15 48  1  0  0  0  0
 16 17  1  0  0  0  0
 16 36  1  0  0  0  0
 16 37  1  0  0  0  0
 17 18  1  0  0  0  0
 17 38  1  0  0  0  0
 17 39  1  0  0  0  0
 18 19  1  0  0  0  0
 18 20  1  0  0  0  0
 18 40  1  0  0  0  0
 19 41  1  0  0  0  0
 19 42  1  0  0  0  0
 19 43  1  0  0  0  0
 20 21  1  0  0  0  0
 20 44  1  0  0  0  0
 20 45  1  0  0  0  0
 21 46  1  0  0  0  0
 21 47  1  0  0  0  0
 22 23  2  0  0  0  0
M  CHG  1  15   1
M  END
> <s_m_source_file>
AV-unprocessed.smi

> <i_m_source_file_index>
1106

> <i_lp_mmshare_version>
43012

> <i_f3d_flags>
0

> <s_epik_input>
W0NIM11bQ0gyXW4xW2NIXWMoQyNOKWMoPU8pbihjMT1PKVtDSDJdW0NASF0oW09IXSlbQ0gyXU4yW0NIMl1bQ0gyXVtDSF0oW0NIM10pW0NIMl1bQ0gyXTI=

> <s_epik_cmdline>
J2VwaWtfcHl0aG9uJywgJy1waCcsICc3LjAnLCAnLXRuJywgJzgnLCAnLW1hJywgJzIwMCcsICctbWV0YWxfYmluZGluZycsICctaW1hZScsICc8aW5maWxlLm1hZT4nLCAnLW9tYWUnLCAnPG91dGZpbGUubWFlPic=

> <r_epik_Ionization_Penalty>
0.00136816

> <r_epik_Ionization_Penalty_Charging>
0.00136813

> <r_epik_Ionization_Penalty_Neutral>
3.19882e-08

> <r_epik_State_Penalty>
0.000910892

> <r_epik_Charging_Adjusted_Penalty>
0.00227902

> <i_epik_Tot_Q>
1

> <i_epik_Tot_abs_Q>
1

> <r_epik_Metal_State_Penalty>
-0

> <b_epik_Metal_Only>
0

> <s_lp_Force_Field>
OPLS_2005

> <r_lp_Energy>
27.8711

> <b_lp_Chiralities_Consistent>
1

> <s_lp_Variant>
AV-unprocessed.smi:1106-1

> <Gold.Version>
5.8.1

> <Gold.Id.Protein>
6NUR|6NUR_protein|mol2

> <Gold.PLP.Fitness>
45.5423

> <Gold.PLP.PLP>
-35.2308

> <Gold.PLP.part.hbond>
-4.7901

> <Gold.PLP.part.metal>
0.0000

> <Gold.PLP.part.buried>
2.7508

> <Gold.PLP.part.nonpolar>
-34.1650

> <Gold.PLP.part.repulsive>
0.1137

> <Gold.PLP.ligand.clash>
0.0000

> <Gold.PLP.ligand.torsion>
0.6490

> <Gold.PLP.Chemscore.Hbond>
3.8160

> <Gold.PLP.Chemscore.CHOScore>
0.0000

> <Gold.PLP.Chemscore.Metal>
0.0000

> <Gold.Chemscore.Hbonds>
donor molecule, donor type, donor heavy atom, donor atom, acceptor molecule, acceptor atom, score
      L1  H    13    33       P1  7948  0.80
      L1  H    15    48       P1  7948  2.00
      P1  H  6896  6908       L1     7  0.80

> <Gold.PLP.Chemscore.Internal.Correction>
0.1615

> <Gold.Rescore>
     Score         DG    S(hbond)    S(metal)    S(lipo)     H(rot)  DE(clash)    DE(int)     intcor
     13.26     -15.55       2.46        0.00      70.34       2.48       0.20       2.09       ----

> <Gold.Chemscore.Fitness>
13.2565

> <Gold.Chemscore.DG>
-15.5533

> <Gold.Chemscore.ZeroCoef>
-5.4800

> <Gold.Chemscore.Hbond>
2.4557

> <Gold.Chemscore.Metal>
0.0000

> <Gold.Chemscore.Lipo>
70.3396

> <Gold.Chemscore.Internal_Hbond>
0.0000

> <Gold.Chemscore.DEClash>
0.2025

> <Gold.Chemscore.DEInternal>
2.0943

> <Gold.Chemscore.Rot>
2.4838

> <Gold.Chemscore.Internal.Correction>
   9.000000E+99

> <Gold.Chemscore.Hbonds>
donor molecule, donor type, donor heavy atom, donor atom, acceptor molecule, acceptor atom, score
      L1  H    13    33       P1  7948  0.43
      L1  H    15    48       P1  7948  0.94
      P1  H  6896  6908       L1     7  0.74

> <Gold.Chemscore.Hbond.Weighted>
-8.2020

> <Gold.Chemscore.Metal.Weighted>
-0.0000

> <Gold.Chemscore.Lipo.Weighted>
-8.2297

> <Gold.Chemscore.Internal_Hbond.Weighted>
0.0000

> <Gold.Chemscore.DEClash.Weighted>
0.2025

> <Gold.Chemscore.DEInternal.Weighted>
2.0943

> <Gold.Chemscore.Rot.Weighted>
6.3585

> <Gold.Chemscore.Internal.Correction.Weighted>
   9.000000E+99

> <Gold.Protein.RotatedTorsions>
[ 6907 6896 6895 6894 ] final  -66.30 input  -60.11 | X-H torsion
[ 7974 7965 7964 7962 ] final -175.94 input  175.53 | X-H torsion
[ 8008 7997 7996 7995 ] final  -19.58 input   59.86 | X-H torsion
[ 10167 10162 10161 10158 ] final  -67.12 input  -65.29 | X-H torsion
[ 10718 10713 10712 10709 ] final  102.90 input   66.30 | X-H torsion
[ 10763 10752 10751 10750 ] final   27.64 input  -60.55 | X-H torsion
[ 11005 11000 10999 10996 ] final  135.81 input  -57.11 | X-H torsion

> <Gold.Protein.ActiveResidues>
 VAL166  LYS551  ARG553  GLY616  TRP617  ASP618  TYR619  PRO620  LYS621  CYS622 
 ASP623  PHE694  ASN695  SER759  ASP760  ASP761  ALA762  ILE779  LEU786  VAL792 
 PHE793  MET794  SER795  GLU796  ALA797  LYS798  CYS799  TRP800  GLU811  SER814 

> <Gold.Protein.RotatedAtoms>
  150.7473  134.6040  159.6051 H   0  0  0  0  0  0  0  0  0  0  0  0  # atno 6907 bound_to 6896
  152.3393  134.7152  160.0277 H   0  0  0  0  0  0  0  0  0  0  0  0  # atno 6908 bound_to 6896
  151.7610  133.3298  159.3454 H   0  0  0  0  0  0  0  0  0  0  0  0  # atno 6909 bound_to 6896
  144.7127  140.1246  143.6403 H   0  0  0  0  0  0  0  0  0  0  0  0  # atno 7974 bound_to 7965
  154.4827  140.2085  155.9727 H   0  0  0  0  0  0  0  0  0  0  0  0  # atno 8008 bound_to 7997
  156.1189  140.3216  155.8149 H   0  0  0  0  0  0  0  0  0  0  0  0  # atno 8009 bound_to 7997
  155.4503  140.0516  157.2992 H   0  0  0  0  0  0  0  0  0  0  0  0  # atno 8010 bound_to 7997
  140.5606  143.2313  151.6735 H   0  0  0  0  0  0  0  0  0  0  0  0  # atno 10167 bound_to 10162
  157.6788  131.0765  150.5474 H   0  0  0  0  0  0  0  0  0  0  0  0  # atno 10718 bound_to 10713
  153.0543  135.6532  154.0617 H   0  0  0  0  0  0  0  0  0  0  0  0  # atno 10763 bound_to 10752
  154.0298  135.2912  155.3371 H   0  0  0  0  0  0  0  0  0  0  0  0  # atno 10764 bound_to 10752
  154.6849  135.5305  153.8380 H   0  0  0  0  0  0  0  0  0  0  0  0  # atno 10765 bound_to 10752
  140.0004  134.9480  157.0059 H   0  0  0  0  0  0  0  0  0  0  0  0  # atno 11005 bound_to 11000
  145.9341  139.2625  143.1308 LP  0  0  0  0  0  0  0  0  0  0  0  0  # atno 17320 bound_to 7965
  145.9492  140.8921  143.0268 LP  0  0  0  0  0  0  0  0  0  0  0  0  # atno 17321 bound_to 7965
  139.5068  144.3667  152.0510 LP  0  0  0  0  0  0  0  0  0  0  0  0  # atno 17342 bound_to 10162
  140.2793  144.3877  150.6124 LP  0  0  0  0  0  0  0  0  0  0  0  0  # atno 17343 bound_to 10162
  156.5780  130.4297  149.5990 LP  0  0  0  0  0  0  0  0  0  0  0  0  # atno 17370 bound_to 10713
  156.2685  130.7003  151.1794 LP  0  0  0  0  0  0  0  0  0  0  0  0  # atno 17371 bound_to 10713
  140.4738  134.1359  155.7207 LP  0  0  0  0  0  0  0  0  0  0  0  0  # atno 17394 bound_to 11000
  141.1637  133.8743  157.1774 LP  0  0  0  0  0  0  0  0  0  0  0  0  # atno 17395 bound_to 11000

$$$$
