AV-unprocessed.smi:109|AV-procd|sdf|1039|dock5
  -GOLD-   2262018 63D 1   1.00000     0.00000
 Structure written by MMmdl.
 58 61  0  0  0  0  0  0  0  0  1 V2000
  153.5013  139.2310  155.0256 O   0  0  0  0  0  0  0  0  0  0  0  0
  152.2473  139.8783  155.0103 C   0  0  0  0  0  0  0  0  0  0  0  0
  151.5094  139.6203  156.3355 C   0  0  0  0  0  0  0  0  0  0  0  0
  150.7056  140.8353  156.8604 C   0  0  2  0  0  0  0  0  0  0  0  0
  150.0124  141.4801  155.7431 N   0  0  0  0  0  0  0  0  0  0  0  0
  148.9669  140.9023  155.1101 C   0  0  0  0  0  0  0  0  0  0  0  0
  148.3028  141.5347  154.1079 N   0  0  0  0  0  0  0  0  0  0  0  0
  147.2654  140.9392  153.5120 C   0  0  0  0  0  0  0  0  0  0  0  0
  146.7410  139.7365  153.7570 N   0  0  0  0  0  0  0  0  0  0  0  0
  147.4102  139.0927  154.7570 C   0  0  0  0  0  0  0  0  0  0  0  0
  148.5193  139.6088  155.4825 C   0  0  0  0  0  0  0  0  0  0  0  0
  148.9237  138.6886  156.4399 N   0  0  0  0  0  0  0  0  0  0  0  0
  148.0934  137.6920  156.2896 C   0  0  0  0  0  0  0  0  0  0  0  0
  147.1695  137.8365  155.2747 N   0  0  0  0  0  0  0  0  0  0  0  0
  146.0699  136.9040  154.8623 C   0  0  2  0  0  0  0  0  0  0  0  0
  146.5162  136.1533  153.7687 O   0  0  0  0  0  0  0  0  0  0  0  0
  145.9181  136.6009  152.5535 C   0  0  2  0  0  0  0  0  0  0  0  0
  146.7819  137.7044  151.9006 C   0  0  0  0  0  0  0  0  0  0  0  0
  146.5747  137.7073  150.5046 O   0  0  0  0  0  0  0  0  0  0  0  0
  144.5342  137.0515  153.0391 C   0  0  2  0  0  0  0  0  0  0  0  0
  143.9089  137.9663  152.1602 O   0  0  0  0  0  0  0  0  0  0  0  0
  144.8164  137.6737  154.4006 C   0  0  1  0  0  0  0  0  0  0  0  0
  143.7162  137.4493  155.2601 O   0  0  0  0  0  0  0  0  0  0  0  0
  151.5788  141.8896  157.5999 C   0  0  0  0  0  0  0  0  0  0  0  0
  152.2396  141.3420  158.8898 C   0  0  0  0  0  0  0  0  0  0  0  0
  153.0656  142.4103  159.6254 C   0  0  0  0  0  0  0  0  0  0  0  0
  152.2195  143.6457  159.9560 C   0  0  0  0  0  0  0  0  0  0  0  0
  151.5801  144.2168  158.6850 C   0  0  0  0  0  0  0  0  0  0  0  0
  150.7491  143.1508  157.9549 C   0  0  0  0  0  0  0  0  0  0  0  0
  145.9163  136.2656  155.7335 H   0  0  0  0  0  0  0  0  0  0  0  0
  145.8127  135.7663  151.8591 H   0  0  0  0  0  0  0  0  0  0  0  0
  143.9004  136.1697  153.1496 H   0  0  0  0  0  0  0  0  0  0  0  0
  145.0355  138.7390  154.3090 H   0  0  0  0  0  0  0  0  0  0  0  0
  153.3644  138.3156  155.2160 H   0  0  0  0  0  0  0  0  0  0  0  0
  152.4107  140.9438  154.8484 H   0  0  0  0  0  0  0  0  0  0  0  0
  151.6657  139.5036  154.1676 H   0  0  0  0  0  0  0  0  0  0  0  0
  150.8385  138.7809  156.1615 H   0  0  0  0  0  0  0  0  0  0  0  0
  152.2207  139.2939  157.0956 H   0  0  0  0  0  0  0  0  0  0  0  0
  149.9897  140.4624  157.5925 H   0  0  0  0  0  0  0  0  0  0  0  0
  150.3374  142.4079  155.5116 H   0  0  0  0  0  0  0  0  0  0  0  0
  146.7881  141.5066  152.7268 H   0  0  0  0  0  0  0  0  0  0  0  0
  148.1420  136.8159  156.9194 H   0  0  0  0  0  0  0  0  0  0  0  0
  146.4802  138.6895  152.2559 H   0  0  0  0  0  0  0  0  0  0  0  0
  147.8410  137.6020  152.1312 H   0  0  0  0  0  0  0  0  0  0  0  0
  145.8361  138.2642  150.3118 H   0  0  0  0  0  0  0  0  0  0  0  0
  144.0891  138.8439  152.4611 H   0  0  0  0  0  0  0  0  0  0  0  0
  143.3813  136.5804  155.1004 H   0  0  0  0  0  0  0  0  0  0  0  0
  152.3799  142.1950  156.9247 H   0  0  0  0  0  0  0  0  0  0  0  0
  151.4725  140.9497  159.5587 H   0  0  0  0  0  0  0  0  0  0  0  0
  152.9087  140.5140  158.6623 H   0  0  0  0  0  0  0  0  0  0  0  0
  153.4820  141.9908  160.5416 H   0  0  0  0  0  0  0  0  0  0  0  0
  153.9148  142.7041  159.0073 H   0  0  0  0  0  0  0  0  0  0  0  0
  151.4412  143.3783  160.6718 H   0  0  0  0  0  0  0  0  0  0  0  0
  152.8378  144.4045  160.4367 H   0  0  0  0  0  0  0  0  0  0  0  0
  150.9492  145.0694  158.9382 H   0  0  0  0  0  0  0  0  0  0  0  0
  152.3580  144.5938  158.0195 H   0  0  0  0  0  0  0  0  0  0  0  0
  150.3287  143.6042  157.0570 H   0  0  0  0  0  0  0  0  0  0  0  0
  149.8994  142.8658  158.5769 H   0  0  0  0  0  0  0  0  0  0  0  0
  1  2  1  0  0  0  0
  1 34  1  0  0  0  0
  2  3  1  0  0  0  0
  2 35  1  0  0  0  0
  2 36  1  0  0  0  0
  3  4  1  0  0  0  0
  3 37  1  0  0  0  0
  3 38  1  0  0  0  0
  4  5  1  0  0  0  0
  4 24  1  0  0  0  0
  4 39  1  0  0  0  0
  5  6  1  0  0  0  0
  5 40  1  0  0  0  0
  6 11  1  0  0  0  0
  6  7  2  0  0  0  0
  7  8  1  0  0  0  0
  8  9  2  0  0  0  0
  8 41  1  0  0  0  0
  9 10  1  0  0  0  0
 10 14  1  0  0  0  0
 10 11  2  0  0  0  0
 11 12  1  0  0  0  0
 12 13  2  0  0  0  0
 13 14  1  0  0  0  0
 13 42  1  0  0  0  0
 14 15  1  0  0  0  0
 15 30  1  0  0  0  0
 15 22  1  0  0  0  0
 15 16  1  0  0  0  0
 16 17  1  0  0  0  0
 17 31  1  0  0  0  0
 17 18  1  0  0  0  0
 17 20  1  0  0  0  0
 18 19  1  0  0  0  0
 18 43  1  0  0  0  0
 18 44  1  0  0  0  0
 19 45  1  0  0  0  0
 20 32  1  0  0  0  0
 20 21  1  0  0  0  0
 20 22  1  0  0  0  0
 21 46  1  0  0  0  0
 22 33  1  0  0  0  0
 22 23  1  0  0  0  0
 23 47  1  0  0  0  0
 24 29  1  0  0  0  0
 24 25  1  0  0  0  0
 24 48  1  0  0  0  0
 25 26  1  0  0  0  0
 25 49  1  0  0  0  0
 25 50  1  0  0  0  0
 26 27  1  0  0  0  0
 26 51  1  0  0  0  0
 26 52  1  0  0  0  0
 27 28  1  0  0  0  0
 27 53  1  0  0  0  0
 27 54  1  0  0  0  0
 28 29  1  0  0  0  0
 28 55  1  0  0  0  0
 28 56  1  0  0  0  0
 29 57  1  0  0  0  0
 29 58  1  0  0  0  0
M  END
> <s_m_source_file>
AV-unprocessed.smi

> <i_m_source_file_index>
109

> <i_lp_mmshare_version>
43012

> <i_f3d_flags>
0

> <s_epik_input>
W0NIMl0xW0NIMl1bQ0gyXVtDSDJdW0NIMl1bQ0hdMVtDQEhdKFtDSDJdW0NIMl1bT0hdKVtOSF1jKG5bY0hdbjIpYyhjMjMpbltjSF1uM1tDQEBIXTRPW0NASF0oW0NIMl1bT0hdKVtDQEBIXShbT0hdKVtDQEhdNFtPSF0=

> <s_epik_cmdline>
J2VwaWtfcHl0aG9uJywgJy1waCcsICc3LjAnLCAnLXRuJywgJzgnLCAnLW1hJywgJzIwMCcsICctbWV0YWxfYmluZGluZycsICctaW1hZScsICc8aW5maWxlLm1hZT4nLCAnLW9tYWUnLCAnPG91dGZpbGUubWFlPic=

> <r_lp_tautomer_probability>
1

> <r_epik_Ionization_Penalty>
0.000793976

> <r_epik_Ionization_Penalty_Charging>
0

> <r_epik_Ionization_Penalty_Neutral>
0.000793976

> <r_epik_State_Penalty>
-0

> <r_epik_Charging_Adjusted_Penalty>
0

> <i_epik_Tot_Q>
0

> <i_epik_Tot_abs_Q>
0

> <r_epik_Metal_State_Penalty>
-0

> <b_epik_Metal_Only>
0

> <s_epik_Chemistry_Notes>
This compound contains an acetal/aminal-like group ( X-CH(R)-Y where X, Y are N, S, or O) that may be acid/base labile, releasing an aldehyde.

> <s_lp_Force_Field>
OPLS_2005

> <r_lp_Energy>
51.6151

> <b_lp_Chiralities_Consistent>
1

> <s_lp_Variant>
AV-unprocessed.smi:109-9

> <Gold.Version>
5.8.1

> <Gold.Id.Protein>
6NUR|6NUR_protein|mol2

> <Gold.PLP.Fitness>
48.6077

> <Gold.PLP.PLP>
-39.8732

> <Gold.PLP.part.hbond>
-5.9355

> <Gold.PLP.part.metal>
0.0000

> <Gold.PLP.part.buried>
-3.2012

> <Gold.PLP.part.nonpolar>
-32.4803

> <Gold.PLP.part.repulsive>
0.5195

> <Gold.PLP.ligand.clash>
0.0000

> <Gold.PLP.ligand.torsion>
1.6865

> <Gold.PLP.Chemscore.Hbond>
3.9440

> <Gold.PLP.Chemscore.CHOScore>
0.0000

> <Gold.PLP.Chemscore.Metal>
0.0000

> <Gold.Chemscore.Hbonds>
donor molecule, donor type, donor heavy atom, donor atom, acceptor molecule, acceptor atom, score
      L1  H    19    45       P1 10171  0.99
      L1  H    21    46       P1 10175  0.94
      P1  H  7954  7966       L1    19  0.98
      P1  H  7997  8010       L1     1  1.00

> <Gold.PLP.Chemscore.Internal.Correction>
0.2756

> <Gold.Rescore>
     Score         DG    S(hbond)    S(metal)    S(lipo)     H(rot)  DE(clash)    DE(int)     intcor
      5.28     -14.12       3.40        0.00      96.32       5.47       1.56       7.29       ----

> <Gold.Chemscore.Fitness>
5.2800

> <Gold.Chemscore.DG>
-14.1227

> <Gold.Chemscore.ZeroCoef>
-5.4800

> <Gold.Chemscore.Hbond>
3.4031

> <Gold.Chemscore.Metal>
0.0000

> <Gold.Chemscore.Lipo>
96.3238

> <Gold.Chemscore.Internal_Hbond>
0.0000

> <Gold.Chemscore.DEClash>
1.5552

> <Gold.Chemscore.DEInternal>
7.2875

> <Gold.Chemscore.Rot>
5.4662

> <Gold.Chemscore.Internal.Correction>
   9.000000E+99

> <Gold.Chemscore.Hbonds>
donor molecule, donor type, donor heavy atom, donor atom, acceptor molecule, acceptor atom, score
      L1  H    19    45       P1 10171  0.90
      L1  H    21    46       P1 10175  0.91
      P1  H  7954  7966       L1    19  0.37
      P1  H  7997  8010       L1     1  0.54
      P1  H  8011  8017       L1     7  0.01

> <Gold.Chemscore.Hbond.Weighted>
-11.3663

> <Gold.Chemscore.Metal.Weighted>
-0.0000

> <Gold.Chemscore.Lipo.Weighted>
-11.2699

> <Gold.Chemscore.Internal_Hbond.Weighted>
0.0000

> <Gold.Chemscore.DEClash.Weighted>
1.5552

> <Gold.Chemscore.DEInternal.Weighted>
7.2875

> <Gold.Chemscore.Rot.Weighted>
13.9935

> <Gold.Chemscore.Internal.Correction.Weighted>
   9.000000E+99

> <Gold.Protein.RotatedTorsions>
[ 6907 6896 6895 6894 ] final -128.03 input  -60.11 | X-H torsion
[ 7974 7965 7964 7962 ] final  112.61 input  175.53 | X-H torsion
[ 8008 7997 7996 7995 ] final  107.17 input   59.86 | X-H torsion
[ 10167 10162 10161 10158 ] final  -61.55 input  -65.29 | X-H torsion
[ 10718 10713 10712 10709 ] final -152.23 input   66.30 | X-H torsion
[ 10763 10752 10751 10750 ] final  163.56 input  -60.55 | X-H torsion
[ 11005 11000 10999 10996 ] final   20.55 input  -57.11 | X-H torsion

> <Gold.Protein.ActiveResidues>
 VAL166  LYS551  ARG553  GLY616  TRP617  ASP618  TYR619  PRO620  LYS621  CYS622 
 ASP623  PHE694  ASN695  SER759  ASP760  ASP761  ALA762  ILE779  LEU786  VAL792 
 PHE793  MET794  SER795  GLU796  ALA797  LYS798  CYS799  TRP800  GLU811  SER814 

> <Gold.Protein.RotatedAtoms>
  150.9135  133.6967  159.2848 H   0  0  0  0  0  0  0  0  0  0  0  0  # atno 6907 bound_to 6896
  151.4446  135.1022  159.9690 H   0  0  0  0  0  0  0  0  0  0  0  0  # atno 6908 bound_to 6896
  152.4943  133.8536  159.7269 H   0  0  0  0  0  0  0  0  0  0  0  0  # atno 6909 bound_to 6896
  145.2274  139.2834  143.4186 H   0  0  0  0  0  0  0  0  0  0  0  0  # atno 7974 bound_to 7965
  156.1803  140.3099  155.9135 H   0  0  0  0  0  0  0  0  0  0  0  0  # atno 8008 bound_to 7997
  155.3399  140.0465  157.3061 H   0  0  0  0  0  0  0  0  0  0  0  0  # atno 8009 bound_to 7997
  154.5335  140.2238  155.8773 H   0  0  0  0  0  0  0  0  0  0  0  0  # atno 8010 bound_to 7997
  140.5998  143.2359  151.5954 H   0  0  0  0  0  0  0  0  0  0  0  0  # atno 10167 bound_to 10162
  156.4697  130.8252  151.2482 H   0  0  0  0  0  0  0  0  0  0  0  0  # atno 10718 bound_to 10713
  154.2955  135.2760  155.2635 H   0  0  0  0  0  0  0  0  0  0  0  0  # atno 10763 bound_to 10752
  154.5095  135.5786  153.6597 H   0  0  0  0  0  0  0  0  0  0  0  0  # atno 10764 bound_to 10752
  152.9908  135.6177  154.3123 H   0  0  0  0  0  0  0  0  0  0  0  0  # atno 10765 bound_to 10752
  140.4014  134.1714  155.7664 H   0  0  0  0  0  0  0  0  0  0  0  0  # atno 11005 bound_to 11000
  146.3361  140.2599  142.8601 LP  0  0  0  0  0  0  0  0  0  0  0  0  # atno 17320 bound_to 7965
  144.9708  140.8367  143.5456 LP  0  0  0  0  0  0  0  0  0  0  0  0  # atno 17321 bound_to 7965
  139.5283  144.2992  152.1088 LP  0  0  0  0  0  0  0  0  0  0  0  0  # atno 17342 bound_to 10162
  140.2171  144.4504  150.6359 LP  0  0  0  0  0  0  0  0  0  0  0  0  # atno 17343 bound_to 10162
  157.7492  131.0080  150.3212 LP  0  0  0  0  0  0  0  0  0  0  0  0  # atno 17370 bound_to 10713
  156.3631  130.3850  149.7235 LP  0  0  0  0  0  0  0  0  0  0  0  0  # atno 17371 bound_to 10713
  141.1855  133.8321  157.1101 LP  0  0  0  0  0  0  0  0  0  0  0  0  # atno 17394 bound_to 11000
  140.0334  134.9890  157.0823 LP  0  0  0  0  0  0  0  0  0  0  0  0  # atno 17395 bound_to 11000

$$$$
