AV-unprocessed.smi:1911|AV-procd|sdf|7741|dock3
  -GOLD-   22720 9483D 1   1.00000     0.00000
 Structure written by MMmdl.
 52 54  0  0  0  0  0  0  0  0  2 V2000
  146.6090  131.9954  151.1649 N   0  0  0  0  0  0  0  0  0  0  0  0
  145.3637  132.2100  150.7326 C   0  0  0  0  0  0  0  0  0  0  0  0
  144.9678  131.8078  149.6410 O   0  0  0  0  0  0  0  0  0  0  0  0
  144.4288  133.0003  151.6563 C   0  0  0  0  0  0  0  0  0  0  0  0
  144.9098  134.3539  152.0196 N   0  0  0  0  0  0  0  0  0  0  0  0
  143.9184  135.1126  152.7969 C   0  0  0  0  0  0  0  0  0  0  0  0
  144.4895  136.4798  153.2128 C   0  0  0  0  0  0  0  0  0  0  0  0
  144.9306  137.2974  151.9875 C   0  0  0  0  0  0  0  0  0  0  0  0
  145.5940  138.5325  152.3947 N   0  0  0  0  0  0  0  0  0  0  0  0
  146.6209  138.6108  153.2526 C   0  0  0  0  0  0  0  0  0  0  0  0
  147.1202  137.6316  153.8060 O   0  0  0  0  0  0  0  0  0  0  0  0
  147.0086  139.8854  153.4316 N   0  0  0  0  0  0  0  0  0  0  0  0
  148.0658  140.3829  154.2401 C   0  0  0  0  0  0  0  0  0  0  0  0
  149.2355  139.6494  154.5576 C   0  0  0  0  0  0  0  0  0  0  0  0
  150.2344  140.2446  155.3555 C   0  0  0  0  0  0  0  0  0  0  0  0
  150.0635  141.5680  155.8263 C   0  0  0  0  0  0  0  0  0  0  0  0
  151.0211  142.2270  156.6204 N   0  0  0  0  0  0  0  0  0  0  0  0
  151.1473  143.6789  156.6262 C   0  0  0  0  0  0  0  0  0  0  0  0
  151.7051  144.0373  158.0082 C   0  0  0  0  0  0  0  0  0  0  0  0
  152.3730  142.7475  158.4849 C   0  0  0  0  0  0  0  0  0  0  0  0
  151.5005  141.6551  157.8677 C   0  0  0  0  0  0  0  0  0  0  0  0
  148.9365  142.2352  155.4811 N   0  3  0  0  0  0  0  0  0  0  0  0
  147.9561  141.7038  154.7196 C   0  0  0  0  0  0  0  0  0  0  0  0
  145.8862  136.4467  151.1396 C   0  0  0  0  0  0  0  0  0  0  0  0
  145.2594  135.0842  150.7968 C   0  0  0  0  0  0  0  0  0  0  0  0
  147.2562  131.4717  150.5937 H   0  0  0  0  0  0  0  0  0  0  0  0
  146.8946  132.3504  152.0659 H   0  0  0  0  0  0  0  0  0  0  0  0
  143.4672  133.0805  151.1470 H   0  0  0  0  0  0  0  0  0  0  0  0
  144.2508  132.4180  152.5624 H   0  0  0  0  0  0  0  0  0  0  0  0
  143.0047  135.2454  152.2147 H   0  0  0  0  0  0  0  0  0  0  0  0
  143.6379  134.5757  153.7028 H   0  0  0  0  0  0  0  0  0  0  0  0
  143.7395  137.0299  153.7822 H   0  0  0  0  0  0  0  0  0  0  0  0
  145.3360  136.3280  153.8844 H   0  0  0  0  0  0  0  0  0  0  0  0
  144.0545  137.5388  151.3821 H   0  0  0  0  0  0  0  0  0  0  0  0
  145.2439  139.3885  151.9900 H   0  0  0  0  0  0  0  0  0  0  0  0
  146.4469  140.5874  152.9723 H   0  0  0  0  0  0  0  0  0  0  0  0
  149.3966  138.6470  154.1929 H   0  0  0  0  0  0  0  0  0  0  0  0
  151.1231  139.6777  155.5890 H   0  0  0  0  0  0  0  0  0  0  0  0
  151.8438  143.9734  155.8407 H   0  0  0  0  0  0  0  0  0  0  0  0
  150.1967  144.1822  156.4469 H   0  0  0  0  0  0  0  0  0  0  0  0
  152.3882  144.8867  157.9815 H   0  0  0  0  0  0  0  0  0  0  0  0
  150.8834  144.2900  158.6797 H   0  0  0  0  0  0  0  0  0  0  0  0
  153.3844  142.6862  158.0802 H   0  0  0  0  0  0  0  0  0  0  0  0
  152.4390  142.6755  159.5707 H   0  0  0  0  0  0  0  0  0  0  0  0
  150.6517  141.4289  158.5144 H   0  0  0  0  0  0  0  0  0  0  0  0
  152.0657  140.7377  157.7013 H   0  0  0  0  0  0  0  0  0  0  0  0
  147.1135  142.3510  154.5223 H   0  0  0  0  0  0  0  0  0  0  0  0
  146.1415  136.9759  150.2207 H   0  0  0  0  0  0  0  0  0  0  0  0
  146.8233  136.2883  151.6761 H   0  0  0  0  0  0  0  0  0  0  0  0
  145.9764  134.5057  150.2126 H   0  0  0  0  0  0  0  0  0  0  0  0
  144.3765  135.2209  150.1695 H   0  0  0  0  0  0  0  0  0  0  0  0
  148.8218  143.1929  155.8131 H   0  0  0  0  0  0  0  0  0  0  0  0
  1  2  1  0  0  0  0
  1 26  1  0  0  0  0
  1 27  1  0  0  0  0
  2  3  2  0  0  0  0
  2  4  1  0  0  0  0
  4  5  1  0  0  0  0
  4 28  1  0  0  0  0
  4 29  1  0  0  0  0
  5 25  1  0  0  0  0
  5  6  1  0  0  0  0
  6  7  1  0  0  0  0
  6 30  1  0  0  0  0
  6 31  1  0  0  0  0
  7  8  1  0  0  0  0
  7 32  1  0  0  0  0
  7 33  1  0  0  0  0
  8  9  1  0  0  0  0
  8 24  1  0  0  0  0
  8 34  1  0  0  0  0
  9 10  1  0  0  0  0
  9 35  1  0  0  0  0
 10 11  2  0  0  0  0
 10 12  1  0  0  0  0
 12 13  1  0  0  0  0
 12 36  1  0  0  0  0
 13 23  1  0  0  0  0
 13 14  2  0  0  0  0
 14 15  1  0  0  0  0
 14 37  1  0  0  0  0
 15 16  2  0  0  0  0
 15 38  1  0  0  0  0
 16 17  1  0  0  0  0
 16 22  1  0  0  0  0
 17 21  1  0  0  0  0
 17 18  1  0  0  0  0
 18 19  1  0  0  0  0
 18 39  1  0  0  0  0
 18 40  1  0  0  0  0
 19 20  1  0  0  0  0
 19 41  1  0  0  0  0
 19 42  1  0  0  0  0
 20 21  1  0  0  0  0
 20 43  1  0  0  0  0
 20 44  1  0  0  0  0
 21 45  1  0  0  0  0
 21 46  1  0  0  0  0
 22 23  2  0  0  0  0
 22 52  1  0  0  0  0
 23 47  1  0  0  0  0
 24 25  1  0  0  0  0
 24 48  1  0  0  0  0
 24 49  1  0  0  0  0
 25 50  1  0  0  0  0
 25 51  1  0  0  0  0
M  CHG  1  22   1
M  END
> <s_m_source_file>
AV-unprocessed.smi

> <i_m_source_file_index>
1911

> <i_lp_mmshare_version>
43012

> <i_f3d_flags>
0

> <s_epik_input>
W05IMl1DKD1PKVtDSDJdTjFbQ0gyXVtDSDJdW0NIXShbQ0gyXVtDSDJdMSlbTkhdQyg9TylbTkhdYzJbY0hdW2NIXWMobltjSF0yKU4zW0NIMl1bQ0gyXVtDSDJdW0NIMl0z

> <s_epik_cmdline>
J2VwaWtfcHl0aG9uJywgJy1waCcsICc3LjAnLCAnLXRuJywgJzgnLCAnLW1hJywgJzIwMCcsICctbWV0YWxfYmluZGluZycsICctaW1hZScsICc8aW5maWxlLm1hZT4nLCAnLW9tYWUnLCAnPG91dGZpbGUubWFlPic=

> <r_epik_Ionization_Penalty>
1.24114

> <r_epik_Ionization_Penalty_Charging>
1.08532

> <r_epik_Ionization_Penalty_Neutral>
0.155817

> <r_epik_State_Penalty>
1.33508

> <r_epik_Charging_Adjusted_Penalty>
2.4204

> <i_epik_Tot_Q>
1

> <i_epik_Tot_abs_Q>
1

> <r_epik_Metal_State_Penalty>
1.43572

> <b_epik_Metal_Only>
0

> <s_lp_Force_Field>
OPLS_2005

> <r_lp_Energy>
42.7934

> <b_lp_Chiralities_Consistent>
1

> <s_lp_Variant>
AV-unprocessed.smi:1911-4

> <Gold.Version>
5.8.1

> <Gold.Id.Protein>
6NUR|6NUR_protein|mol2

> <Gold.PLP.Fitness>
50.4609

> <Gold.PLP.PLP>
-41.1776

> <Gold.PLP.part.hbond>
-4.2089

> <Gold.PLP.part.metal>
0.0000

> <Gold.PLP.part.buried>
-0.3936

> <Gold.PLP.part.nonpolar>
-38.5203

> <Gold.PLP.part.repulsive>
1.3851

> <Gold.PLP.ligand.clash>
0.0000

> <Gold.PLP.ligand.torsion>
0.8929

> <Gold.PLP.Chemscore.Hbond>
3.6240

> <Gold.PLP.Chemscore.CHOScore>
0.0000

> <Gold.PLP.Chemscore.Metal>
0.0000

> <Gold.Chemscore.Hbonds>
donor molecule, donor type, donor heavy atom, donor atom, acceptor molecule, acceptor atom, score
      L1  H     1    26       P1 10747  1.00
      L1  H     9    35       P1 10175  0.62
      L1  H    22    52       P1  8028  2.00

> <Gold.PLP.Chemscore.Internal.Correction>
0.1971

> <Gold.Rescore>
     Score         DG    S(hbond)    S(metal)    S(lipo)     H(rot)  DE(clash)    DE(int)     intcor
     15.14     -20.52       2.61        0.00      95.89       1.90       2.36       3.02       ----

> <Gold.Chemscore.Fitness>
15.1416

> <Gold.Chemscore.DG>
-20.5241

> <Gold.Chemscore.ZeroCoef>
-5.4800

> <Gold.Chemscore.Hbond>
2.6053

> <Gold.Chemscore.Metal>
0.0000

> <Gold.Chemscore.Lipo>
95.8871

> <Gold.Chemscore.Internal_Hbond>
0.0000

> <Gold.Chemscore.DEClash>
2.3641

> <Gold.Chemscore.DEInternal>
3.0184

> <Gold.Chemscore.Rot>
1.9049

> <Gold.Chemscore.Internal.Correction>
   9.000000E+99

> <Gold.Chemscore.Hbonds>
donor molecule, donor type, donor heavy atom, donor atom, acceptor molecule, acceptor atom, score
      L1  H     1    26       P1 10747  0.94
      L1  H     9    35       P1 10175  0.60
      L1  H    22    52       P1  8028  0.91

> <Gold.Chemscore.Hbond.Weighted>
-8.7019

> <Gold.Chemscore.Metal.Weighted>
-0.0000

> <Gold.Chemscore.Lipo.Weighted>
-11.2188

> <Gold.Chemscore.Internal_Hbond.Weighted>
0.0000

> <Gold.Chemscore.DEClash.Weighted>
2.3641

> <Gold.Chemscore.DEInternal.Weighted>
3.0184

> <Gold.Chemscore.Rot.Weighted>
4.8766

> <Gold.Chemscore.Internal.Correction.Weighted>
   9.000000E+99

> <Gold.Protein.RotatedTorsions>
[ 6907 6896 6895 6894 ] final   73.36 input  -60.11 | X-H torsion
[ 7974 7965 7964 7962 ] final  -84.07 input  175.53 | X-H torsion
[ 8008 7997 7996 7995 ] final   93.05 input   59.86 | X-H torsion
[ 10167 10162 10161 10158 ] final   14.20 input  -65.29 | X-H torsion
[ 10718 10713 10712 10709 ] final -148.96 input   66.30 | X-H torsion
[ 10763 10752 10751 10750 ] final  -90.28 input  -60.55 | X-H torsion
[ 11005 11000 10999 10996 ] final   33.60 input  -57.11 | X-H torsion

> <Gold.Protein.ActiveResidues>
 VAL166  LYS551  ARG553  GLY616  TRP617  ASP618  TYR619  PRO620  LYS621  CYS622 
 ASP623  PHE694  ASN695  SER759  ASP760  ASP761  ALA762  ILE779  LEU786  VAL792 
 PHE793  MET794  SER795  GLU796  ALA797  LYS798  CYS799  TRP800  GLU811  SER814 

> <Gold.Protein.RotatedAtoms>
  152.4919  134.4433  159.9550 H   0  0  0  0  0  0  0  0  0  0  0  0  # atno 6907 bound_to 6896
  151.4418  133.3635  159.2790 H   0  0  0  0  0  0  0  0  0  0  0  0  # atno 6908 bound_to 6896
  150.9082  134.8521  159.7467 H   0  0  0  0  0  0  0  0  0  0  0  0  # atno 6909 bound_to 6896
  145.5115  140.9539  143.1705 H   0  0  0  0  0  0  0  0  0  0  0  0  # atno 7974 bound_to 7965
  156.0423  140.3318  155.7257 H   0  0  0  0  0  0  0  0  0  0  0  0  # atno 8008 bound_to 7997
  155.5726  140.0629  157.2820 H   0  0  0  0  0  0  0  0  0  0  0  0  # atno 8009 bound_to 7997
  154.4398  140.1858  156.0883 H   0  0  0  0  0  0  0  0  0  0  0  0  # atno 8010 bound_to 7997
  140.5952  143.8716  150.6911 H   0  0  0  0  0  0  0  0  0  0  0  0  # atno 10167 bound_to 10162
  156.4270  130.8057  151.2282 H   0  0  0  0  0  0  0  0  0  0  0  0  # atno 10718 bound_to 10713
  154.6641  135.5310  153.8054 H   0  0  0  0  0  0  0  0  0  0  0  0  # atno 10763 bound_to 10752
  153.0460  135.6513  154.0827 H   0  0  0  0  0  0  0  0  0  0  0  0  # atno 10764 bound_to 10752
  154.0732  135.2952  155.3284 H   0  0  0  0  0  0  0  0  0  0  0  0  # atno 10765 bound_to 10752
  140.2614  134.3187  155.7856 H   0  0  0  0  0  0  0  0  0  0  0  0  # atno 11005 bound_to 11000
  144.7725  139.6703  143.7189 LP  0  0  0  0  0  0  0  0  0  0  0  0  # atno 17320 bound_to 7965
  146.2164  139.5556  142.9647 LP  0  0  0  0  0  0  0  0  0  0  0  0  # atno 17321 bound_to 7965
  140.2249  143.3780  152.1613 LP  0  0  0  0  0  0  0  0  0  0  0  0  # atno 17342 bound_to 10162
  139.5253  144.7094  151.5252 LP  0  0  0  0  0  0  0  0  0  0  0  0  # atno 17343 bound_to 10162
  157.7508  131.0210  150.3733 LP  0  0  0  0  0  0  0  0  0  0  0  0  # atno 17370 bound_to 10713
  156.4062  130.3925  149.6924 LP  0  0  0  0  0  0  0  0  0  0  0  0  # atno 17371 bound_to 10713
  141.2190  133.7412  156.9193 LP  0  0  0  0  0  0  0  0  0  0  0  0  # atno 17394 bound_to 11000
  140.1461  134.9261  157.2531 LP  0  0  0  0  0  0  0  0  0  0  0  0  # atno 17395 bound_to 11000

$$$$
