#       Name:                AV-unprocessed.smi:2510
#       Creating user name   scv26
#       Creation time:       Fri Mar 27 13:50:41 2020


#       File generated by GOLD software.
#

@<TRIPOS>MOLECULE
AV-unprocessed.smi:2510
    53    54     1
SMALL
NO_CHARGES


@<TRIPOS>ATOM
      1 ****         0.6224  -0.3166   1.6557 C.3            1 S1                 0.0000
      2 ****        -0.7251   0.3679   1.3723 C.3            1 S1                 0.0000
      3 ****        -1.6416  -0.2932   0.3032 C.3            1 S1                 0.0000
      4 ****        -3.0993  -0.0168   0.7468 C.3            1 S1                 0.0000
      5 ****        -3.5000   1.4690   0.7687 C.3            1 S1                 0.0000
      6 ****        -1.3826   0.0226  -1.2015 C.3            1 S1                 0.0000
      7 ****         0.0011   0.3864  -1.5108 N.am           1 S1                 0.0000
      8 ****         0.4272   1.6385  -1.7377 C.2            1 S1                 0.0000
      9 ****        -0.3111   2.6226  -1.6990 O.2            1 S1                 0.0000
     10 ****         1.9133   1.8097  -2.0547 C.3            1 S1                 0.0000
     11 ****         2.7388   1.5994  -0.8133 C.2            1 S1                 0.0000
     12 ****         2.8055   2.4238   0.3493 C.2            1 S1                 0.0000
     13 ****         3.6842   1.7782   1.1727 C.2            1 S1                 0.0000
     14 ****         4.1785   2.1075   2.5400 C.3            1 S1                 0.0000
     15 ****         4.0899   0.6525   0.4941 N.pl3          1 S1                 0.0000
     16 ****         3.5220   0.5333  -0.7204 N.2            1 S1                 0.0000
     17 ****        -1.6882  -1.4449  -1.5528 C.3            1 S1                 0.0000
     18 ****        -0.9385  -2.1424  -2.6857 C.3            1 S1                 0.0000
     19 ****        -1.3491  -1.7698  -0.0909 C.3            1 S1                 0.0000
     20 ****        -2.2248  -2.6891   0.5459 O.3            1 S1                 0.0000
     21 ****        -1.9971  -4.0353   0.1669 C.3            1 S1                 0.0000
     22 ****         4.7455  -0.0328   0.8421 H              1 S1                 0.0000
     23 ****         1.2029   0.2658   2.3714 H              1 S1                 0.0000
     24 ****         1.2279  -0.4221   0.7575 H              1 S1                 0.0000
     25 ****         0.4804  -1.3076   2.0871 H              1 S1                 0.0000
     26 ****        -1.2391   0.4300   2.3321 H              1 S1                 0.0000
     27 ****        -0.5307   1.4040   1.0944 H              1 S1                 0.0000
     28 ****        -3.7987  -0.5353   0.0911 H              1 S1                 0.0000
     29 ****        -3.2787  -0.4431   1.7346 H              1 S1                 0.0000
     30 ****        -4.5458   1.5768   1.0569 H              1 S1                 0.0000
     31 ****        -3.3830   1.9359  -0.2087 H              1 S1                 0.0000
     32 ****        -2.9083   2.0400   1.4838 H              1 S1                 0.0000
     33 ****        -2.1154   0.6957  -1.6481 H              1 S1                 0.0000
     34 ****         0.6760  -0.3635  -1.5563 H              1 S1                 0.0000
     35 ****         2.1954   1.1082  -2.8414 H              1 S1                 0.0000
     36 ****         2.0851   2.8096  -2.4548 H              1 S1                 0.0000
     37 ****         2.2784   3.3451   0.5493 H              1 S1                 0.0000
     38 ****         3.9377   3.1377   2.8032 H              1 S1                 0.0000
     39 ****         5.2604   1.9878   2.6035 H              1 S1                 0.0000
     40 ****         3.7204   1.4545   3.2831 H              1 S1                 0.0000
     41 ****        -2.7643  -1.5435  -1.7044 H              1 S1                 0.0000
     42 ****         0.1281  -2.2247  -2.4750 H              1 S1                 0.0000
     43 ****        -1.0491  -1.5970  -3.6231 H              1 S1                 0.0000
     44 ****        -1.3164  -3.1512  -2.8491 H              1 S1                 0.0000
     45 ****        -0.3022  -2.0576   0.0092 H              1 S1                 0.0000
     46 ****        -2.6627  -4.6894   0.7299 H              1 S1                 0.0000
     47 ****        -0.9706  -4.3383   0.3778 H              1 S1                 0.0000
     48 ****        -2.1988  -4.1894  -0.8929 H              1 S1                 0.0000
     49 ****        -1.2826   2.5109  -1.4900 LP             1 S1                 0.0000
     50 ****         0.0606   3.5338  -1.8766 LP             1 S1                 0.0000
     51 ****         3.6589  -0.1911  -1.3960 LP             1 S1                 0.0000
     52 ****        -3.1657  -2.4474   0.3086 LP             1 S1                 0.0000
     53 ****        -2.1004  -2.6126   1.5351 LP             1 S1                 0.0000
@<TRIPOS>BOND
    1    1    2 1     
    2    1   23 1     
    3    1   24 1     
    4    1   25 1     
    5    2    3 1     
    6    2   26 1     
    7    2   27 1     
    8    3   19 1     
    9    3    4 1     
   10    3    6 1     
   11    4    5 1     
   12    4   28 1     
   13    4   29 1     
   14    5   30 1     
   15    5   31 1     
   16    5   32 1     
   17    6    7 1     
   18    6   17 1     
   19    6   33 1     
   20    7    8 am    
   21    7   34 1     
   22    8    9 2     
   23    8   10 1     
   24   10   11 1     
   25   10   35 1     
   26   10   36 1     
   27   11   16 2     
   28   11   12 1     
   29   12   13 2     
   30   12   37 1     
   31   13   14 1     
   32   13   15 1     
   33   14   38 1     
   34   14   39 1     
   35   14   40 1     
   36   15   22 1     
   37   15   16 1     
   38   17   18 1     
   39   17   19 1     
   40   17   41 1     
   41   18   42 1     
   42   18   43 1     
   43   18   44 1     
   44   19   20 1     
   45   19   45 1     
   46   20   21 1     
   47   21   46 1     
   48   21   47 1     
   49   21   48 1     
   50    9   49 1     
   51    9   50 1     
   52   16   51 1     
   53   20   52 1     
   54   20   53 1     
@<TRIPOS>SUBSTRUCTURE
      1 S1             1
@<TRIPOS>SET
LONE_PAIRS      STATIC     ATOMS    <user>   **** ""
5 49 50 51 52 53
DONOR_HYDROGENS      STATIC     ATOMS    <user>   **** ""
2 34 22
ATOM$BLUE        STATIC     ATOMS    COLORGROUP SYSTEM
5 49 50 51 52 53
ATOM$RED        STATIC     ATOMS    COLORGROUP SYSTEM
2 34 22
