AV-unprocessed.smi:584|AV-procd|sdf|2999|dock3
  -GOLD-   2262023503D 1   1.00000     0.00000
 Structure written by MMmdl.
 41 42  0  0  0  0  0  0  0  0  1 V2000
  148.9098  140.7413  156.9382 O   0  0  0  0  0  0  0  0  0  0  0  0
  149.3629  141.2368  155.9052 C   0  0  0  0  0  0  0  0  0  0  0  0
  150.7428  141.9099  155.8869 C   0  0  0  0  0  0  0  0  0  0  0  0
  151.4047  141.9245  157.2021 N   0  0  0  0  0  0  0  0  0  0  0  0
  151.2786  143.1027  157.9638 C   0  0  0  0  0  0  0  0  0  0  0  0
  151.8531  143.2604  159.1714 C   0  0  0  0  0  0  0  0  0  0  0  0
  151.6602  144.5287  159.9878 C   0  0  0  0  0  0  0  0  0  0  0  0
  152.2754  144.4403  161.1672 F   0  0  0  0  0  0  0  0  0  0  0  0
  152.1682  145.5705  159.3311 F   0  0  0  0  0  0  0  0  0  0  0  0
  150.3665  144.7673  160.2068 F   0  0  0  0  0  0  0  0  0  0  0  0
  152.5970  142.1267  159.6843 C   0  0  0  0  0  0  0  0  0  0  0  0
  152.7247  140.9912  158.9702 C   0  0  0  0  0  0  0  0  0  0  0  0
  152.1168  140.8456  157.6455 C   0  0  0  0  0  0  0  0  0  0  0  0
  152.2404  139.8188  156.9774 O   0  0  0  0  0  0  0  0  0  0  0  0
  148.7086  141.2209  154.7338 N   0  0  0  0  0  0  0  0  0  0  0  0
  147.3978  140.6212  154.5008 C   0  0  0  0  0  0  0  0  0  0  0  0
  146.2524  141.6519  154.5960 C   0  0  0  0  0  0  0  0  0  0  0  0
  146.6161  142.9371  153.8234 C   0  0  0  0  0  0  0  0  0  0  0  0
  145.4913  143.9829  153.8869 C   0  0  0  0  0  0  0  0  0  0  0  0
  145.1229  144.3171  155.3397 C   0  0  0  0  0  0  0  0  0  0  0  0
  144.7459  143.0471  156.1157 C   0  0  0  0  0  0  0  0  0  0  0  0
  145.8693  141.9993  156.0533 C   0  0  0  0  0  0  0  0  0  0  0  0
  151.3731  141.3915  155.1625 H   0  0  0  0  0  0  0  0  0  0  0  0
  150.6326  142.9220  155.4936 H   0  0  0  0  0  0  0  0  0  0  0  0
  150.6876  143.8772  157.4963 H   0  0  0  0  0  0  0  0  0  0  0  0
  153.0657  142.1910  160.6552 H   0  0  0  0  0  0  0  0  0  0  0  0
  153.2904  140.1680  159.3814 H   0  0  0  0  0  0  0  0  0  0  0  0
  149.1565  141.6516  153.9380 H   0  0  0  0  0  0  0  0  0  0  0  0
  147.3664  140.1049  153.5399 H   0  0  0  0  0  0  0  0  0  0  0  0
  147.2578  139.8506  155.2593 H   0  0  0  0  0  0  0  0  0  0  0  0
  145.3744  141.2165  154.1161 H   0  0  0  0  0  0  0  0  0  0  0  0
  147.5329  143.3655  154.2310 H   0  0  0  0  0  0  0  0  0  0  0  0
  146.8271  142.6978  152.7805 H   0  0  0  0  0  0  0  0  0  0  0  0
  145.7966  144.8890  153.3631 H   0  0  0  0  0  0  0  0  0  0  0  0
  144.6115  143.6049  153.3646 H   0  0  0  0  0  0  0  0  0  0  0  0
  145.9651  144.8088  155.8281 H   0  0  0  0  0  0  0  0  0  0  0  0
  144.2948  145.0262  155.3606 H   0  0  0  0  0  0  0  0  0  0  0  0
  144.5278  143.2971  157.1544 H   0  0  0  0  0  0  0  0  0  0  0  0
  143.8296  142.6244  155.7013 H   0  0  0  0  0  0  0  0  0  0  0  0
  145.5421  141.1065  156.5859 H   0  0  0  0  0  0  0  0  0  0  0  0
  146.7453  142.3714  156.5862 H   0  0  0  0  0  0  0  0  0  0  0  0
  1  2  2  0  0  0  0
  2  3  1  0  0  0  0
  2 15  1  0  0  0  0
  3  4  1  0  0  0  0
  3 23  1  0  0  0  0
  3 24  1  0  0  0  0
  4 13  1  0  0  0  0
  4  5  1  0  0  0  0
  5  6  2  0  0  0  0
  5 25  1  0  0  0  0
  6  7  1  0  0  0  0
  6 11  1  0  0  0  0
  7  8  1  0  0  0  0
  7  9  1  0  0  0  0
  7 10  1  0  0  0  0
 11 12  2  0  0  0  0
 11 26  1  0  0  0  0
 12 13  1  0  0  0  0
 12 27  1  0  0  0  0
 13 14  2  0  0  0  0
 15 16  1  0  0  0  0
 15 28  1  0  0  0  0
 16 17  1  0  0  0  0
 16 29  1  0  0  0  0
 16 30  1  0  0  0  0
 17 22  1  0  0  0  0
 17 18  1  0  0  0  0
 17 31  1  0  0  0  0
 18 19  1  0  0  0  0
 18 32  1  0  0  0  0
 18 33  1  0  0  0  0
 19 20  1  0  0  0  0
 19 34  1  0  0  0  0
 19 35  1  0  0  0  0
 20 21  1  0  0  0  0
 20 36  1  0  0  0  0
 20 37  1  0  0  0  0
 21 22  1  0  0  0  0
 21 38  1  0  0  0  0
 21 39  1  0  0  0  0
 22 40  1  0  0  0  0
 22 41  1  0  0  0  0
M  END
> <s_m_source_file>
AV-unprocessed.smi

> <i_m_source_file_index>
584

> <i_lp_mmshare_version>
43012

> <i_f3d_flags>
0

> <s_epik_input>
W0NIMl0xW0NIMl1bQ0gyXVtDSDJdW0NIMl1bQ0hdMVtDSDJdW05IXUMoPU8pW0NIMl1uMltjSF1jKEMoRikoRilGKVtjSF1bY0hdYzI9Tw==

> <s_epik_cmdline>
J2VwaWtfcHl0aG9uJywgJy1waCcsICc3LjAnLCAnLXRuJywgJzgnLCAnLW1hJywgJzIwMCcsICctbWV0YWxfYmluZGluZycsICctaW1hZScsICc8aW5maWxlLm1hZT4nLCAnLW9tYWUnLCAnPG91dGZpbGUubWFlPic=

> <r_lp_tautomer_probability>
1

> <r_epik_Ionization_Penalty>
3.78989e-08

> <r_epik_Ionization_Penalty_Charging>
1.81011e-08

> <r_epik_Ionization_Penalty_Neutral>
1.97978e-08

> <r_epik_State_Penalty>
-0

> <r_epik_Charging_Adjusted_Penalty>
1.81011e-08

> <i_epik_Tot_Q>
0

> <i_epik_Tot_abs_Q>
0

> <r_epik_Metal_State_Penalty>
-0

> <b_epik_Metal_Only>
0

> <s_lp_Force_Field>
OPLS_2005

> <r_lp_Energy>
22.635

> <b_lp_Chiralities_Consistent>
1

> <s_lp_Variant>
AV-unprocessed.smi:584-1

> <Gold.Version>
5.8.1

> <Gold.Id.Protein>
6NUR|6NUR_protein|mol2

> <Gold.PLP.Fitness>
49.7779

> <Gold.PLP.PLP>
-45.7617

> <Gold.PLP.part.hbond>
-1.0000

> <Gold.PLP.part.metal>
0.0000

> <Gold.PLP.part.buried>
-7.5028

> <Gold.PLP.part.nonpolar>
-36.5963

> <Gold.PLP.part.repulsive>
0.1738

> <Gold.PLP.ligand.clash>
0.0000

> <Gold.PLP.ligand.torsion>
0.6512

> <Gold.PLP.Chemscore.Hbond>
1.0000

> <Gold.PLP.Chemscore.CHOScore>
0.7563

> <Gold.PLP.Chemscore.Metal>
0.0000

> <Gold.Chemscore.Hbonds>
donor molecule, donor type, donor heavy atom, donor atom, acceptor molecule, acceptor atom, score
      P1  H  7997  8008       L1    14  0.49
      L1  C     5    25       P1  8028  0.61

> <Gold.PLP.Chemscore.Internal.Correction>
0.0496

> <Gold.Rescore>
     Score         DG    S(hbond)    S(metal)    S(lipo)     H(rot)  DE(clash)    DE(int)     intcor
     13.70     -15.14       0.92        0.00      94.46       1.75       0.82       0.62       ----

> <Gold.Chemscore.Fitness>
13.6958

> <Gold.Chemscore.DG>
-15.1422

> <Gold.Chemscore.ZeroCoef>
-5.4800

> <Gold.Chemscore.Hbond>
0.9222

> <Gold.Chemscore.Metal>
0.0000

> <Gold.Chemscore.Lipo>
94.4574

> <Gold.Chemscore.Internal_Hbond>
0.0000

> <Gold.Chemscore.DEClash>
0.8238

> <Gold.Chemscore.DEInternal>
0.6226

> <Gold.Chemscore.Rot>
1.7459

> <Gold.Chemscore.Internal.Correction>
   9.000000E+99

> <Gold.Chemscore.Hbonds>
donor molecule, donor type, donor heavy atom, donor atom, acceptor molecule, acceptor atom, score
      P1  H  7997  8008       L1    14  0.06

> <Gold.Chemscore.Hbond.Weighted>
-3.0803

> <Gold.Chemscore.Metal.Weighted>
-0.0000

> <Gold.Chemscore.Lipo.Weighted>
-11.0515

> <Gold.Chemscore.Internal_Hbond.Weighted>
0.0000

> <Gold.Chemscore.DEClash.Weighted>
0.8238

> <Gold.Chemscore.DEInternal.Weighted>
0.6226

> <Gold.Chemscore.Rot.Weighted>
4.4696

> <Gold.Chemscore.Internal.Correction.Weighted>
   9.000000E+99

> <Gold.Protein.RotatedTorsions>
[ 6907 6896 6895 6894 ] final  -74.60 input  -60.11 | X-H torsion
[ 7974 7965 7964 7962 ] final  120.69 input  175.53 | X-H torsion
[ 8008 7997 7996 7995 ] final  -58.62 input   59.86 | X-H torsion
[ 10167 10162 10161 10158 ] final  -25.74 input  -65.29 | X-H torsion
[ 10718 10713 10712 10709 ] final -163.15 input   66.30 | X-H torsion
[ 10763 10752 10751 10750 ] final -100.97 input  -60.55 | X-H torsion
[ 11005 11000 10999 10996 ] final -125.16 input  -57.11 | X-H torsion

> <Gold.Protein.ActiveResidues>
 VAL166  LYS551  ARG553  GLY616  TRP617  ASP618  TYR619  PRO620  LYS621  CYS622 
 ASP623  PHE694  ASN695  SER759  ASP760  ASP761  ALA762  ILE779  LEU786  VAL792 
 PHE793  MET794  SER795  GLU796  ALA797  LYS798  CYS799  TRP800  GLU811  SER814 

> <Gold.Protein.RotatedAtoms>
  150.7087  134.4845  159.5486 H   0  0  0  0  0  0  0  0  0  0  0  0  # atno 6907 bound_to 6896
  152.2476  134.8163  160.0460 H   0  0  0  0  0  0  0  0  0  0  0  0  # atno 6908 bound_to 6896
  151.8922  133.3483  159.3839 H   0  0  0  0  0  0  0  0  0  0  0  0  # atno 6909 bound_to 6896
  145.1282  139.3345  143.4679 H   0  0  0  0  0  0  0  0  0  0  0  0  # atno 7974 bound_to 7965
  154.4316  140.1080  156.5985 H   0  0  0  0  0  0  0  0  0  0  0  0  # atno 8008 bound_to 7997
  155.5936  140.3492  155.4554 H   0  0  0  0  0  0  0  0  0  0  0  0  # atno 8009 bound_to 7997
  156.0228  140.1243  157.0329 H   0  0  0  0  0  0  0  0  0  0  0  0  # atno 8010 bound_to 7997
  140.7285  143.4239  151.0908 H   0  0  0  0  0  0  0  0  0  0  0  0  # atno 10167 bound_to 10162
  156.6206  130.8889  151.2957 H   0  0  0  0  0  0  0  0  0  0  0  0  # atno 10718 bound_to 10713
  154.7621  135.4915  153.9484 H   0  0  0  0  0  0  0  0  0  0  0  0  # atno 10763 bound_to 10752
  153.1264  135.6743  153.9258 H   0  0  0  0  0  0  0  0  0  0  0  0  # atno 10764 bound_to 10752
  153.8975  135.3113  155.3427 H   0  0  0  0  0  0  0  0  0  0  0  0  # atno 10765 bound_to 10752
  140.9784  134.0708  157.3793 H   0  0  0  0  0  0  0  0  0  0  0  0  # atno 11005 bound_to 11000
  146.3516  140.1269  142.8598 LP  0  0  0  0  0  0  0  0  0  0  0  0  # atno 17320 bound_to 7965
  145.0665  140.9125  143.4907 LP  0  0  0  0  0  0  0  0  0  0  0  0  # atno 17321 bound_to 7965
  139.7888  143.8249  152.3149 LP  0  0  0  0  0  0  0  0  0  0  0  0  # atno 17342 bound_to 10162
  139.8225  144.7289  150.9554 LP  0  0  0  0  0  0  0  0  0  0  0  0  # atno 17343 bound_to 10162
  157.7228  130.9582  150.1510 LP  0  0  0  0  0  0  0  0  0  0  0  0  # atno 17370 bound_to 10713
  156.2314  130.3682  149.8440 LP  0  0  0  0  0  0  0  0  0  0  0  0  # atno 17371 bound_to 10713
  139.8940  135.0133  156.6927 LP  0  0  0  0  0  0  0  0  0  0  0  0  # atno 17394 bound_to 11000
  140.7224  133.9129  155.8156 LP  0  0  0  0  0  0  0  0  0  0  0  0  # atno 17395 bound_to 11000

$$$$
