AV-unprocessed.smi:1304|AV-procd|sdf|5431|dock7
  -GOLD-   22720 4593D 1   1.00000     0.00000
 Structure written by MMmdl.
 48 49  0  0  0  0  0  0  0  0  2 V2000
  144.1573  143.6461  155.9016 C   0  0  0  0  0  0  0  0  0  0  0  0
  144.4530  142.2883  155.2393 C   0  0  0  0  0  0  0  0  0  0  0  0
  145.9572  141.9967  154.9485 C   0  0  1  0  0  0  0  0  0  0  0  0
  146.4861  143.1409  154.0431 C   0  0  0  0  0  0  0  0  0  0  0  0
  146.7524  142.0075  156.2877 C   0  0  0  0  0  0  0  0  0  0  0  0
  148.1893  142.1810  156.0951 N   0  0  0  0  0  0  0  0  0  0  0  0
  149.1231  141.3347  156.5510 C   0  0  0  0  0  0  0  0  0  0  0  0
  148.8495  140.3115  157.1798 O   0  0  0  0  0  0  0  0  0  0  0  0
  150.5784  141.7070  156.2314 C   0  0  0  0  0  0  0  0  0  0  0  0
  151.3372  142.1758  157.4032 N   0  0  0  0  0  0  0  0  0  0  0  0
  151.7145  143.5334  157.4193 C   0  0  0  0  0  0  0  0  0  0  0  0
  152.4145  144.0640  158.4344 C   0  0  0  0  0  0  0  0  0  0  0  0
  152.7824  143.2028  159.5332 C   0  0  0  0  0  0  0  0  0  0  0  0
  152.4295  141.9019  159.5265 C   0  0  0  0  0  0  0  0  0  0  0  0
  151.6656  141.3173  158.4179 C   0  0  0  0  0  0  0  0  0  0  0  0
  151.3420  140.1292  158.4013 O   0  0  0  0  0  0  0  0  0  0  0  0
  146.1014  140.6655  154.2524 N   0  3  0  0  0  0  0  0  0  0  0  0
  147.3887  140.4348  153.5369 C   0  0  0  0  0  0  0  0  0  0  0  0
  147.3276  139.1321  152.7207 C   0  0  0  0  0  0  0  0  0  0  0  0
  147.0161  138.0401  153.5741 O   0  0  0  0  0  0  0  0  0  0  0  0
  145.7490  138.2035  154.1948 C   0  0  0  0  0  0  0  0  0  0  0  0
  145.7678  139.4657  155.0714 C   0  0  0  0  0  0  0  0  0  0  0  0
  143.0866  143.7611  156.0708 H   0  0  0  0  0  0  0  0  0  0  0  0
  144.4767  144.4813  155.2783 H   0  0  0  0  0  0  0  0  0  0  0  0
  144.6480  143.7407  156.8700 H   0  0  0  0  0  0  0  0  0  0  0  0
  144.0485  141.5119  155.8897 H   0  0  0  0  0  0  0  0  0  0  0  0
  143.8642  142.2060  154.3260 H   0  0  0  0  0  0  0  0  0  0  0  0
  146.1887  144.1218  154.4154 H   0  0  0  0  0  0  0  0  0  0  0  0
  146.1107  143.0581  153.0230 H   0  0  0  0  0  0  0  0  0  0  0  0
  147.5753  143.1522  153.9937 H   0  0  0  0  0  0  0  0  0  0  0  0
  146.4167  142.8173  156.9358 H   0  0  0  0  0  0  0  0  0  0  0  0
  146.5857  141.0786  156.8343 H   0  0  0  0  0  0  0  0  0  0  0  0
  148.4925  142.9992  155.5870 H   0  0  0  0  0  0  0  0  0  0  0  0
  151.0647  140.8361  155.7895 H   0  0  0  0  0  0  0  0  0  0  0  0
  150.5873  142.4664  155.4473 H   0  0  0  0  0  0  0  0  0  0  0  0
  151.4069  144.1070  156.5571 H   0  0  0  0  0  0  0  0  0  0  0  0
  152.6988  145.1060  158.4270 H   0  0  0  0  0  0  0  0  0  0  0  0
  153.3455  143.6031  160.3635 H   0  0  0  0  0  0  0  0  0  0  0  0
  152.7162  141.2725  160.3563 H   0  0  0  0  0  0  0  0  0  0  0  0
  147.6152  141.2427  152.8437 H   0  0  0  0  0  0  0  0  0  0  0  0
  148.2119  140.3803  154.2496 H   0  0  0  0  0  0  0  0  0  0  0  0
  146.5877  139.2078  151.9221 H   0  0  0  0  0  0  0  0  0  0  0  0
  148.2897  138.9427  152.2445 H   0  0  0  0  0  0  0  0  0  0  0  0
  144.9614  138.2613  153.4416 H   0  0  0  0  0  0  0  0  0  0  0  0
  145.5415  137.3253  154.8063 H   0  0  0  0  0  0  0  0  0  0  0  0
  146.5024  139.3331  155.8660 H   0  0  0  0  0  0  0  0  0  0  0  0
  144.7937  139.5622  155.5466 H   0  0  0  0  0  0  0  0  0  0  0  0
  145.4025  140.6892  153.5234 H   0  0  0  0  0  0  0  0  0  0  0  0
  1  2  1  0  0  0  0
  1 23  1  0  0  0  0
  1 24  1  0  0  0  0
  1 25  1  0  0  0  0
  2  3  1  0  0  0  0
  2 26  1  0  0  0  0
  2 27  1  0  0  0  0
  3  4  1  0  0  0  0
  3  5  1  0  0  0  0
  3 17  1  0  0  0  0
  4 28  1  0  0  0  0
  4 29  1  0  0  0  0
  4 30  1  0  0  0  0
  5  6  1  0  0  0  0
  5 31  1  0  0  0  0
  5 32  1  0  0  0  0
  6  7  1  0  0  0  0
  6 33  1  0  0  0  0
  7  8  2  0  0  0  0
  7  9  1  0  0  0  0
  9 10  1  0  0  0  0
  9 34  1  0  0  0  0
  9 35  1  0  0  0  0
 10 15  1  0  0  0  0
 10 11  1  0  0  0  0
 11 12  2  0  0  0  0
 11 36  1  0  0  0  0
 12 13  1  0  0  0  0
 12 37  1  0  0  0  0
 13 14  2  0  0  0  0
 13 38  1  0  0  0  0
 14 15  1  0  0  0  0
 14 39  1  0  0  0  0
 15 16  2  0  0  0  0
 17 22  1  0  0  0  0
 17 18  1  0  0  0  0
 17 48  1  0  0  0  0
 18 19  1  0  0  0  0
 18 40  1  0  0  0  0
 18 41  1  0  0  0  0
 19 20  1  0  0  0  0
 19 42  1  0  0  0  0
 19 43  1  0  0  0  0
 20 21  1  0  0  0  0
 21 22  1  0  0  0  0
 21 44  1  0  0  0  0
 21 45  1  0  0  0  0
 22 46  1  0  0  0  0
 22 47  1  0  0  0  0
M  CHG  1  17   1
M  END
> <s_m_source_file>
AV-unprocessed.smi

> <i_m_source_file_index>
1304

> <i_lp_mmshare_version>
43012

> <i_f3d_flags>
0

> <s_epik_input>
W0NIMl0xW0NIMl1PW0NIMl1bQ0gyXU4xW0NAQF0oW0NIM10pKFtDSDJdW0NIM10pW0NIMl1bTkhdQyg9TylbQ0gyXW4yW2NIXVtjSF1bY0hdW2NIXWMyPU8=

> <s_epik_cmdline>
J2VwaWtfcHl0aG9uJywgJy1waCcsICc3LjAnLCAnLXRuJywgJzgnLCAnLW1hJywgJzIwMCcsICctbWV0YWxfYmluZGluZycsICctaW1hZScsICc8aW5maWxlLm1hZT4nLCAnLW9tYWUnLCAnPG91dGZpbGUubWFlPic=

> <r_lp_tautomer_probability>
1

> <r_epik_Ionization_Penalty>
0.519658

> <r_epik_Ionization_Penalty_Charging>
0.519658

> <r_epik_Ionization_Penalty_Neutral>
8.70177e-08

> <r_epik_State_Penalty>
0.527569

> <r_epik_Charging_Adjusted_Penalty>
1.04723

> <i_epik_Tot_Q>
1

> <i_epik_Tot_abs_Q>
1

> <r_epik_Metal_State_Penalty>
0.527613

> <b_epik_Metal_Only>
0

> <s_lp_Force_Field>
OPLS_2005

> <r_lp_Energy>
38.623

> <b_lp_Chiralities_Consistent>
1

> <s_lp_Variant>
AV-unprocessed.smi:1304-3

> <Gold.Version>
5.8.1

> <Gold.Id.Protein>
6NUR|6NUR_protein|mol2

> <Gold.PLP.Fitness>
50.2802

> <Gold.PLP.PLP>
-39.6220

> <Gold.PLP.part.hbond>
-2.0000

> <Gold.PLP.part.metal>
0.0000

> <Gold.PLP.part.buried>
-3.7788

> <Gold.PLP.part.nonpolar>
-34.9149

> <Gold.PLP.part.repulsive>
0.2350

> <Gold.PLP.ligand.clash>
0.0000

> <Gold.PLP.ligand.torsion>
0.6955

> <Gold.PLP.Chemscore.Hbond>
2.9600

> <Gold.PLP.Chemscore.CHOScore>
1.0000

> <Gold.PLP.Chemscore.Metal>
0.0000

> <Gold.Chemscore.Hbonds>
donor molecule, donor type, donor heavy atom, donor atom, acceptor molecule, acceptor atom, score
      L1  H     6    33       P1  8028  0.94
      L1  H    17    48       P1 10175  2.00
      L1  C    11    36       P1  8028  0.53

> <Gold.PLP.Chemscore.Internal.Correction>
0.1693

> <Gold.Rescore>
     Score         DG    S(hbond)    S(metal)    S(lipo)     H(rot)  DE(clash)    DE(int)     intcor
     15.94     -16.93       1.83        0.00      90.13       2.03       0.11       0.87       ----

> <Gold.Chemscore.Fitness>
15.9433

> <Gold.Chemscore.DG>
-16.9256

> <Gold.Chemscore.ZeroCoef>
-5.4800

> <Gold.Chemscore.Hbond>
1.8253

> <Gold.Chemscore.Metal>
0.0000

> <Gold.Chemscore.Lipo>
90.1297

> <Gold.Chemscore.Internal_Hbond>
0.0000

> <Gold.Chemscore.DEClash>
0.1086

> <Gold.Chemscore.DEInternal>
0.8736

> <Gold.Chemscore.Rot>
2.0298

> <Gold.Chemscore.Internal.Correction>
   9.000000E+99

> <Gold.Chemscore.Hbonds>
donor molecule, donor type, donor heavy atom, donor atom, acceptor molecule, acceptor atom, score
      L1  H     6    33       P1  8028  0.91
      L1  H    17    48       P1 10175  0.87

> <Gold.Chemscore.Hbond.Weighted>
-6.0966

> <Gold.Chemscore.Metal.Weighted>
-0.0000

> <Gold.Chemscore.Lipo.Weighted>
-10.5452

> <Gold.Chemscore.Internal_Hbond.Weighted>
0.0000

> <Gold.Chemscore.DEClash.Weighted>
0.1086

> <Gold.Chemscore.DEInternal.Weighted>
0.8736

> <Gold.Chemscore.Rot.Weighted>
5.1962

> <Gold.Chemscore.Internal.Correction.Weighted>
   9.000000E+99

> <Gold.Protein.RotatedTorsions>
[ 6907 6896 6895 6894 ] final  177.88 input  -60.11 | X-H torsion
[ 7974 7965 7964 7962 ] final  117.19 input  175.53 | X-H torsion
[ 8008 7997 7996 7995 ] final   42.36 input   59.86 | X-H torsion
[ 10167 10162 10161 10158 ] final   32.89 input  -65.29 | X-H torsion
[ 10718 10713 10712 10709 ] final   14.75 input   66.30 | X-H torsion
[ 10763 10752 10751 10750 ] final  -43.38 input  -60.55 | X-H torsion
[ 11005 11000 10999 10996 ] final   15.33 input  -57.11 | X-H torsion

> <Gold.Protein.ActiveResidues>
 VAL166  LYS551  ARG553  GLY616  TRP617  ASP618  TYR619  PRO620  LYS621  CYS622 
 ASP623  PHE694  ASN695  SER759  ASP760  ASP761  ALA762  ILE779  LEU786  VAL792 
 PHE793  MET794  SER795  GLU796  ALA797  LYS798  CYS799  TRP800  GLU811  SER814 

> <Gold.Protein.RotatedAtoms>
  151.6969  133.3311  159.3256 H   0  0  0  0  0  0  0  0  0  0  0  0  # atno 6907 bound_to 6896
  150.7753  134.6650  159.6369 H   0  0  0  0  0  0  0  0  0  0  0  0  # atno 6908 bound_to 6896
  152.3793  134.6618  160.0200 H   0  0  0  0  0  0  0  0  0  0  0  0  # atno 6909 bound_to 6896
  145.1704  139.3105  143.4471 H   0  0  0  0  0  0  0  0  0  0  0  0  # atno 7974 bound_to 7965
  155.2849  140.3375  155.4256 H   0  0  0  0  0  0  0  0  0  0  0  0  # atno 8008 bound_to 7997
  156.2073  140.1756  156.7813 H   0  0  0  0  0  0  0  0  0  0  0  0  # atno 8009 bound_to 7997
  154.5638  140.0682  156.8844 H   0  0  0  0  0  0  0  0  0  0  0  0  # atno 8010 bound_to 7997
  140.4457  144.1122  150.6182 H   0  0  0  0  0  0  0  0  0  0  0  0  # atno 10167 bound_to 10162
  157.0436  130.6241  149.5755 H   0  0  0  0  0  0  0  0  0  0  0  0  # atno 10718 bound_to 10713
  153.9945  135.6701  153.4756 H   0  0  0  0  0  0  0  0  0  0  0  0  # atno 10763 bound_to 10752
  153.0690  135.4985  154.8259 H   0  0  0  0  0  0  0  0  0  0  0  0  # atno 10764 bound_to 10752
  154.7089  135.3093  154.9190 H   0  0  0  0  0  0  0  0  0  0  0  0  # atno 10765 bound_to 10752
  140.4595  134.1142  155.7714 H   0  0  0  0  0  0  0  0  0  0  0  0  # atno 11005 bound_to 11000
  146.3469  140.1847  142.8589 LP  0  0  0  0  0  0  0  0  0  0  0  0  # atno 17320 bound_to 7965
  145.0239  140.8816  143.5150 LP  0  0  0  0  0  0  0  0  0  0  0  0  # atno 17321 bound_to 7965
  140.4266  143.2587  151.9648 LP  0  0  0  0  0  0  0  0  0  0  0  0  # atno 17342 bound_to 10162
  139.4792  144.5782  151.7976 LP  0  0  0  0  0  0  0  0  0  0  0  0  # atno 17343 bound_to 10162
  156.0030  130.5112  150.7731 LP  0  0  0  0  0  0  0  0  0  0  0  0  # atno 17370 bound_to 10713
  157.5085  131.0924  151.0227 LP  0  0  0  0  0  0  0  0  0  0  0  0  # atno 17371 bound_to 10713
  141.1628  133.8761  157.1800 LP  0  0  0  0  0  0  0  0  0  0  0  0  # atno 17394 bound_to 11000
  139.9955  135.0048  157.0072 LP  0  0  0  0  0  0  0  0  0  0  0  0  # atno 17395 bound_to 11000

$$$$
