AV-unprocessed.smi:827|AV-procd|sdf|3857|dock6
  -GOLD-   22720 1303D 1   1.00000     0.00000
 Structure written by MMmdl.
 47 48  0  0  0  0  0  0  0  0  2 V2000
  151.8631  144.8153  160.1319 C   0  0  0  0  0  0  0  0  0  0  0  0
  152.4575  143.5308  159.9799 O   0  0  0  0  0  0  0  0  0  0  0  0
  151.9704  142.6905  158.9967 C   0  0  0  0  0  0  0  0  0  0  0  0
  151.1605  143.2151  158.0430 N   0  0  0  0  0  0  0  0  0  0  0  0
  150.6827  142.3963  157.0838 C   0  0  0  0  0  0  0  0  0  0  0  0
  150.9781  141.0219  157.0275 C   0  0  0  0  0  0  0  0  0  0  0  0
  151.8171  140.4750  158.0157 C   0  0  0  0  0  0  0  0  0  0  0  0
  152.3392  141.3248  159.0214 C   0  0  0  0  0  0  0  0  0  0  0  0
  153.1831  140.8783  160.0764 N   0  0  0  0  0  0  0  0  0  0  0  0
  153.7181  139.6607  160.2685 C   0  0  0  0  0  0  0  0  0  0  0  0
  153.5595  138.6853  159.5347 O   0  0  0  0  0  0  0  0  0  0  0  0
  154.4809  139.6345  161.3706 N   0  0  0  0  0  0  0  0  0  0  0  0
  155.1979  138.4622  161.8597 C   0  0  0  0  0  0  0  0  0  0  0  0
  154.2524  137.4719  162.5676 C   0  0  0  0  0  0  0  0  0  0  0  0
  154.9418  136.2247  162.9839 N   0  3  0  0  0  0  0  0  0  0  0  0
  154.3514  135.6033  164.2025 C   0  0  0  0  0  0  0  0  0  0  0  0
  155.0899  134.3092  164.5907 C   0  0  0  0  0  0  0  0  0  0  0  0
  155.0881  133.3956  163.4445 N   0  0  0  0  0  0  0  0  0  0  0  0
  154.4157  132.2217  163.3739 C   0  0  0  0  0  0  0  0  0  0  0  0
  153.6441  131.7253  164.5986 C   0  0  0  0  0  0  0  0  0  0  0  0
  154.3949  131.5287  162.3569 O   0  0  0  0  0  0  0  0  0  0  0  0
  155.8013  133.9733  162.3023 C   0  0  0  0  0  0  0  0  0  0  0  0
  155.0810  135.2601  161.8594 C   0  0  0  0  0  0  0  0  0  0  0  0
  152.3629  145.3507  160.9387 H   0  0  0  0  0  0  0  0  0  0  0  0
  150.8062  144.7376  160.3911 H   0  0  0  0  0  0  0  0  0  0  0  0
  151.9672  145.4131  159.2251 H   0  0  0  0  0  0  0  0  0  0  0  0
  150.0419  142.8493  156.3420 H   0  0  0  0  0  0  0  0  0  0  0  0
  150.5659  140.4003  156.2463 H   0  0  0  0  0  0  0  0  0  0  0  0
  152.0296  139.4178  157.9883 H   0  0  0  0  0  0  0  0  0  0  0  0
  153.4672  141.5957  160.7277 H   0  0  0  0  0  0  0  0  0  0  0  0
  154.5601  140.4811  161.9153 H   0  0  0  0  0  0  0  0  0  0  0  0
  155.6736  137.9765  161.0073 H   0  0  0  0  0  0  0  0  0  0  0  0
  156.0022  138.7906  162.5185 H   0  0  0  0  0  0  0  0  0  0  0  0
  153.7779  137.9307  163.4363 H   0  0  0  0  0  0  0  0  0  0  0  0
  153.4469  137.2216  161.8752 H   0  0  0  0  0  0  0  0  0  0  0  0
  154.3919  136.2982  165.0403 H   0  0  0  0  0  0  0  0  0  0  0  0
  153.2973  135.3842  164.0233 H   0  0  0  0  0  0  0  0  0  0  0  0
  156.1221  134.5374  164.8607 H   0  0  0  0  0  0  0  0  0  0  0  0
  154.6423  133.8867  165.4891 H   0  0  0  0  0  0  0  0  0  0  0  0
  152.8762  132.4424  164.8903 H   0  0  0  0  0  0  0  0  0  0  0  0
  154.3179  131.5631  165.4404 H   0  0  0  0  0  0  0  0  0  0  0  0
  153.1485  130.7779  164.3826 H   0  0  0  0  0  0  0  0  0  0  0  0
  156.8272  134.1991  162.5971 H   0  0  0  0  0  0  0  0  0  0  0  0
  155.8797  133.2863  161.4586 H   0  0  0  0  0  0  0  0  0  0  0  0
  154.0913  135.0135  161.4710 H   0  0  0  0  0  0  0  0  0  0  0  0
  155.6362  135.7249  161.0436 H   0  0  0  0  0  0  0  0  0  0  0  0
  155.8850  136.4899  163.2289 H   0  0  0  0  0  0  0  0  0  0  0  0
  1  2  1  0  0  0  0
  1 24  1  0  0  0  0
  1 25  1  0  0  0  0
  1 26  1  0  0  0  0
  2  3  1  0  0  0  0
  3  8  1  0  0  0  0
  3  4  2  0  0  0  0
  4  5  1  0  0  0  0
  5  6  2  0  0  0  0
  5 27  1  0  0  0  0
  6  7  1  0  0  0  0
  6 28  1  0  0  0  0
  7  8  2  0  0  0  0
  7 29  1  0  0  0  0
  8  9  1  0  0  0  0
  9 10  1  0  0  0  0
  9 30  1  0  0  0  0
 10 11  2  0  0  0  0
 10 12  1  0  0  0  0
 12 13  1  0  0  0  0
 12 31  1  0  0  0  0
 13 14  1  0  0  0  0
 13 32  1  0  0  0  0
 13 33  1  0  0  0  0
 14 15  1  0  0  0  0
 14 34  1  0  0  0  0
 14 35  1  0  0  0  0
 15 23  1  0  0  0  0
 15 16  1  0  0  0  0
 15 47  1  0  0  0  0
 16 17  1  0  0  0  0
 16 36  1  0  0  0  0
 16 37  1  0  0  0  0
 17 18  1  0  0  0  0
 17 38  1  0  0  0  0
 17 39  1  0  0  0  0
 18 19  1  0  0  0  0
 18 22  1  0  0  0  0
 19 20  1  0  0  0  0
 19 21  2  0  0  0  0
 20 40  1  0  0  0  0
 20 41  1  0  0  0  0
 20 42  1  0  0  0  0
 22 23  1  0  0  0  0
 22 43  1  0  0  0  0
 22 44  1  0  0  0  0
 23 45  1  0  0  0  0
 23 46  1  0  0  0  0
M  CHG  1  15   1
M  END
> <s_m_source_file>
AV-unprocessed.smi

> <i_m_source_file_index>
827

> <i_lp_mmshare_version>
43012

> <i_f3d_flags>
0

> <s_epik_input>
W0NIM11PYzFuW2NIXVtjSF1bY0hdYzFbTkhdQyg9TylbTkhdW0NIMl1bQ0gyXU4yW0NIMl1bQ0gyXU4oQyg9TylbQ0gzXSlbQ0gyXVtDSDJdMg==

> <s_epik_cmdline>
J2VwaWtfcHl0aG9uJywgJy1waCcsICc3LjAnLCAnLXRuJywgJzgnLCAnLW1hJywgJzIwMCcsICctbWV0YWxfYmluZGluZycsICctaW1hZScsICc8aW5maWxlLm1hZT4nLCAnLW9tYWUnLCAnPG91dGZpbGUubWFlPic=

> <r_lp_tautomer_probability>
1

> <r_epik_Ionization_Penalty>
0.63011

> <r_epik_Ionization_Penalty_Charging>
0.630034

> <r_epik_Ionization_Penalty_Neutral>
7.67152e-05

> <r_epik_State_Penalty>
0.646805

> <r_epik_Charging_Adjusted_Penalty>
1.27684

> <i_epik_Tot_Q>
1

> <i_epik_Tot_abs_Q>
1

> <r_epik_Metal_State_Penalty>
0.64681

> <b_epik_Metal_Only>
0

> <s_lp_Force_Field>
OPLS_2005

> <r_lp_Energy>
42.7203

> <b_lp_Chiralities_Consistent>
1

> <s_lp_Variant>
AV-unprocessed.smi:827-2

> <Gold.Version>
5.8.1

> <Gold.Id.Protein>
6NUR|6NUR_protein|mol2

> <Gold.PLP.Fitness>
41.5753

> <Gold.PLP.PLP>
-39.6919

> <Gold.PLP.part.hbond>
0.0000

> <Gold.PLP.part.metal>
0.0000

> <Gold.PLP.part.buried>
-6.4435

> <Gold.PLP.part.nonpolar>
-33.5635

> <Gold.PLP.part.repulsive>
0.1920

> <Gold.PLP.ligand.clash>
0.0000

> <Gold.PLP.ligand.torsion>
0.5864

> <Gold.PLP.Chemscore.Hbond>
0.0000

> <Gold.PLP.Chemscore.CHOScore>
1.0000

> <Gold.PLP.Chemscore.Metal>
0.0000

> <Gold.Chemscore.Hbonds>
donor molecule, donor type, donor heavy atom, donor atom, acceptor molecule, acceptor atom, score
      L1  C     5    27       P1  8028  1.00

> <Gold.PLP.Chemscore.Internal.Correction>
0.0562

> <Gold.Rescore>
     Score         DG    S(hbond)    S(metal)    S(lipo)     H(rot)  DE(clash)    DE(int)     intcor
      9.67     -11.55       0.00        0.00      92.85       1.87       0.02       1.86       ----

> <Gold.Chemscore.Fitness>
9.6683

> <Gold.Chemscore.DG>
-11.5479

> <Gold.Chemscore.ZeroCoef>
-5.4800

> <Gold.Chemscore.Hbond>
0.0000

> <Gold.Chemscore.Metal>
0.0000

> <Gold.Chemscore.Lipo>
92.8492

> <Gold.Chemscore.Internal_Hbond>
0.0000

> <Gold.Chemscore.DEClash>
0.0186

> <Gold.Chemscore.DEInternal>
1.8610

> <Gold.Chemscore.Rot>
1.8732

> <Gold.Chemscore.Internal.Correction>
   9.000000E+99

> <Gold.Chemscore.Hbond.Weighted>
-0.0000

> <Gold.Chemscore.Metal.Weighted>
-0.0000

> <Gold.Chemscore.Lipo.Weighted>
-10.8634

> <Gold.Chemscore.Internal_Hbond.Weighted>
0.0000

> <Gold.Chemscore.DEClash.Weighted>
0.0186

> <Gold.Chemscore.DEInternal.Weighted>
1.8610

> <Gold.Chemscore.Rot.Weighted>
4.7955

> <Gold.Chemscore.Internal.Correction.Weighted>
   9.000000E+99

> <Gold.Protein.RotatedTorsions>
[ 6907 6896 6895 6894 ] final  114.42 input  -60.11 | X-H torsion
[ 7974 7965 7964 7962 ] final  174.38 input  175.53 | X-H torsion
[ 8008 7997 7996 7995 ] final -119.31 input   59.86 | X-H torsion
[ 10167 10162 10161 10158 ] final  110.66 input  -65.29 | X-H torsion
[ 10718 10713 10712 10709 ] final  158.69 input   66.30 | X-H torsion
[ 10763 10752 10751 10750 ] final -137.62 input  -60.55 | X-H torsion
[ 11005 11000 10999 10996 ] final -131.72 input  -57.11 | X-H torsion

> <Gold.Protein.ActiveResidues>
 VAL166  LYS551  ARG553  GLY616  TRP617  ASP618  TYR619  PRO620  LYS621  CYS622 
 ASP623  PHE694  ASN695  SER759  ASP760  ASP761  ALA762  ILE779  LEU786  VAL792 
 PHE793  MET794  SER795  GLU796  ALA797  LYS798  CYS799  TRP800  GLU811  SER814 

> <Gold.Protein.RotatedAtoms>
  152.4803  133.8238  159.7067 H   0  0  0  0  0  0  0  0  0  0  0  0  # atno 6907 bound_to 6896
  150.8848  133.7313  159.2928 H   0  0  0  0  0  0  0  0  0  0  0  0  # atno 6908 bound_to 6896
  151.4805  135.1055  159.9828 H   0  0  0  0  0  0  0  0  0  0  0  0  # atno 6909 bound_to 6896
  144.7223  139.9788  143.6438 H   0  0  0  0  0  0  0  0  0  0  0  0  # atno 7974 bound_to 7965
  155.1136  140.0397  157.2731 H   0  0  0  0  0  0  0  0  0  0  0  0  # atno 8008 bound_to 7997
  154.6666  140.2603  155.7026 H   0  0  0  0  0  0  0  0  0  0  0  0  # atno 8009 bound_to 7997
  156.2641  140.2806  156.1159 H   0  0  0  0  0  0  0  0  0  0  0  0  # atno 8010 bound_to 7997
  139.6671  144.7127  151.1757 H   0  0  0  0  0  0  0  0  0  0  0  0  # atno 10167 bound_to 10162
  157.1745  131.0618  151.2165 H   0  0  0  0  0  0  0  0  0  0  0  0  # atno 10718 bound_to 10713
  154.8657  135.3636  154.5253 H   0  0  0  0  0  0  0  0  0  0  0  0  # atno 10763 bound_to 10752
  153.5881  135.7016  153.5439 H   0  0  0  0  0  0  0  0  0  0  0  0  # atno 10764 bound_to 10752
  153.3398  135.4101  155.1524 H   0  0  0  0  0  0  0  0  0  0  0  0  # atno 10765 bound_to 10752
  140.9234  134.1414  157.4295 H   0  0  0  0  0  0  0  0  0  0  0  0  # atno 11005 bound_to 11000
  146.0504  139.3505  143.0643 LP  0  0  0  0  0  0  0  0  0  0  0  0  # atno 17320 bound_to 7965
  145.8222  140.9673  143.0893 LP  0  0  0  0  0  0  0  0  0  0  0  0  # atno 17321 bound_to 7965
  140.7603  143.5903  150.8803 LP  0  0  0  0  0  0  0  0  0  0  0  0  # atno 17342 bound_to 10162
  139.9565  143.6212  152.3014 LP  0  0  0  0  0  0  0  0  0  0  0  0  # atno 17343 bound_to 10162
  157.4012  130.7334  149.6768 LP  0  0  0  0  0  0  0  0  0  0  0  0  # atno 17370 bound_to 10713
  155.9733  130.4120  150.4011 LP  0  0  0  0  0  0  0  0  0  0  0  0  # atno 17371 bound_to 10713
  139.8780  134.9979  156.5874 LP  0  0  0  0  0  0  0  0  0  0  0  0  # atno 17394 bound_to 11000
  140.7958  133.8545  155.8684 LP  0  0  0  0  0  0  0  0  0  0  0  0  # atno 17395 bound_to 11000

$$$$
