AV-unprocessed.smi:1005|AV-procd|sdf|4369|dock1
  -GOLD-   22720 2273D 1   1.00000     0.00000
 Structure written by MMmdl.
 57 59  0  0  0  0  0  0  0  0  3 V2000
  152.7321  142.7198  160.8945 C   0  0  0  0  0  0  0  0  0  0  0  0
  152.1497  142.2791  159.5632 C   0  0  0  0  0  0  0  0  0  0  0  0
  152.6404  141.1019  158.9548 C   0  0  0  0  0  0  0  0  0  0  0  0
  152.1263  140.6583  157.7169 C   0  0  0  0  0  0  0  0  0  0  0  0
  152.4506  139.5494  156.9542 N   0  0  0  0  0  0  0  0  0  0  0  0
  151.6291  139.6866  155.9180 C   0  0  0  0  0  0  0  0  0  0  0  0
  150.8071  140.7535  155.9197 N   0  0  0  0  0  0  0  0  0  0  0  0
  149.8312  141.1040  154.9034 C   0  0  0  0  0  0  0  0  0  0  0  0
  148.3922  141.1242  155.4529 C   0  0  1  0  0  0  0  0  0  0  0  0
  148.0447  142.4479  155.8114 O   0  0  0  0  0  0  0  0  0  0  0  0
  147.3756  140.6167  154.4115 C   0  0  0  0  0  0  0  0  0  0  0  0
  147.9500  139.5720  153.5212 N   0  3  2  0  0  0  0  0  0  0  0  0
  147.0183  139.0563  152.4862 C   0  0  0  0  0  0  0  0  0  0  0  0
  146.0279  138.0349  153.0771 C   0  0  0  0  0  0  0  0  0  0  0  0
  146.7428  136.9932  153.7311 O   0  0  0  0  0  0  0  0  0  0  0  0
  147.5387  137.4674  154.8130 C   0  0  1  0  0  0  0  0  0  0  0  0
  148.2046  136.2492  155.4811 C   0  0  0  0  0  0  0  0  0  0  0  0
  149.2597  135.6284  154.6387 N   0  3  0  0  0  0  0  0  0  0  0  0
  149.3495  134.1576  154.7929 C   0  0  0  0  0  0  0  0  0  0  0  0
  150.5771  136.2736  154.8355 C   0  0  0  0  0  0  0  0  0  0  0  0
  148.5893  138.4487  154.2500 C   0  0  0  0  0  0  0  0  0  0  0  0
  151.1014  141.4320  157.0978 C   0  0  0  0  0  0  0  0  0  0  0  0
  150.6049  142.6048  157.6933 C   0  0  0  0  0  0  0  0  0  0  0  0
  151.1281  143.0327  158.9314 C   0  0  0  0  0  0  0  0  0  0  0  0
  150.5832  144.2988  159.5681 C   0  0  0  0  0  0  0  0  0  0  0  0
  153.4771  142.0113  161.2577 H   0  0  0  0  0  0  0  0  0  0  0  0
  151.9492  142.7961  161.6493 H   0  0  0  0  0  0  0  0  0  0  0  0
  153.2149  143.6924  160.7957 H   0  0  0  0  0  0  0  0  0  0  0  0
  153.4182  140.5273  159.4361 H   0  0  0  0  0  0  0  0  0  0  0  0
  151.6222  138.9679  155.1113 H   0  0  0  0  0  0  0  0  0  0  0  0
  150.0976  142.0740  154.4813 H   0  0  0  0  0  0  0  0  0  0  0  0
  149.9134  140.3797  154.0919 H   0  0  0  0  0  0  0  0  0  0  0  0
  148.3573  140.5089  156.3516 H   0  0  0  0  0  0  0  0  0  0  0  0
  148.2543  142.5780  156.7245 H   0  0  0  0  0  0  0  0  0  0  0  0
  146.5129  140.2129  154.9443 H   0  0  0  0  0  0  0  0  0  0  0  0
  146.9967  141.4472  153.8158 H   0  0  0  0  0  0  0  0  0  0  0  0
  146.4833  139.8674  151.9936 H   0  0  0  0  0  0  0  0  0  0  0  0
  147.6113  138.5696  151.7106 H   0  0  0  0  0  0  0  0  0  0  0  0
  145.3322  138.5071  153.7716 H   0  0  0  0  0  0  0  0  0  0  0  0
  145.4251  137.5981  152.2807 H   0  0  0  0  0  0  0  0  0  0  0  0
  146.9093  137.9903  155.5333 H   0  0  0  0  0  0  0  0  0  0  0  0
  148.6428  136.5764  156.4253 H   0  0  0  0  0  0  0  0  0  0  0  0
  147.4577  135.4957  155.7354 H   0  0  0  0  0  0  0  0  0  0  0  0
  149.5917  133.8855  155.8210 H   0  0  0  0  0  0  0  0  0  0  0  0
  150.1274  133.7519  154.1449 H   0  0  0  0  0  0  0  0  0  0  0  0
  148.4165  133.6666  154.5196 H   0  0  0  0  0  0  0  0  0  0  0  0
  150.9233  136.1510  155.8629 H   0  0  0  0  0  0  0  0  0  0  0  0
  150.5239  137.3405  154.6167 H   0  0  0  0  0  0  0  0  0  0  0  0
  151.3240  135.8400  154.1695 H   0  0  0  0  0  0  0  0  0  0  0  0
  149.2433  137.9219  153.5536 H   0  0  0  0  0  0  0  0  0  0  0  0
  149.2347  138.8283  155.0433 H   0  0  0  0  0  0  0  0  0  0  0  0
  149.8260  143.1695  157.2029 H   0  0  0  0  0  0  0  0  0  0  0  0
  149.8192  144.7621  158.9430 H   0  0  0  0  0  0  0  0  0  0  0  0
  151.3810  145.0271  159.7161 H   0  0  0  0  0  0  0  0  0  0  0  0
  150.1332  144.0758  160.5358 H   0  0  0  0  0  0  0  0  0  0  0  0
  149.0057  135.8090  153.6775 H   0  0  0  0  0  0  0  0  0  0  0  0
  148.6981  140.0419  153.0299 H   0  0  0  0  0  0  0  0  0  0  0  0
  1  2  1  0  0  0  0
  1 26  1  0  0  0  0
  1 27  1  0  0  0  0
  1 28  1  0  0  0  0
  2 24  1  0  0  0  0
  2  3  2  0  0  0  0
  3  4  1  0  0  0  0
  3 29  1  0  0  0  0
  4 22  2  0  0  0  0
  4  5  1  0  0  0  0
  5  6  2  0  0  0  0
  6  7  1  0  0  0  0
  6 30  1  0  0  0  0
  7  8  1  0  0  0  0
  7 22  1  0  0  0  0
  8  9  1  0  0  0  0
  8 31  1  0  0  0  0
  8 32  1  0  0  0  0
  9 10  1  0  0  0  0
  9 11  1  0  0  0  0
  9 33  1  0  0  0  0
 10 34  1  0  0  0  0
 11 12  1  0  0  0  0
 11 35  1  0  0  0  0
 11 36  1  0  0  0  0
 12 21  1  0  0  0  0
 12 13  1  0  0  0  0
 12 57  1  0  0  0  0
 13 14  1  0  0  0  0
 13 37  1  0  0  0  0
 13 38  1  0  0  0  0
 14 15  1  0  0  0  0
 14 39  1  0  0  0  0
 14 40  1  0  0  0  0
 15 16  1  0  0  0  0
 16 17  1  0  0  0  0
 16 21  1  0  0  0  0
 16 41  1  0  0  0  0
 17 18  1  0  0  0  0
 17 42  1  0  0  0  0
 17 43  1  0  0  0  0
 18 19  1  0  0  0  0
 18 20  1  0  0  0  0
 18 56  1  0  0  0  0
 19 44  1  0  0  0  0
 19 45  1  0  0  0  0
 19 46  1  0  0  0  0
 20 47  1  0  0  0  0
 20 48  1  0  0  0  0
 20 49  1  0  0  0  0
 21 50  1  0  0  0  0
 21 51  1  0  0  0  0
 22 23  1  0  0  0  0
 23 24  2  0  0  0  0
 23 52  1  0  0  0  0
 24 25  1  0  0  0  0
 25 53  1  0  0  0  0
 25 54  1  0  0  0  0
 25 55  1  0  0  0  0
M  CHG  1  12   1
M  CHG  1  18   1
M  END
> <s_m_source_file>
AV-unprocessed.smi

> <i_m_source_file_index>
1005

> <i_lp_mmshare_version>
43012

> <i_f3d_flags>
0

> <s_epik_input>
W0NIM11jKFtjSF0xKWMoW0NIM10pW2NIXWMoYzEyKW4oW2NIXW4yKVtDSDJdW0NASF0oW09IXSlbQ0gyXU4zW0NIMl1bQ0gyXU9bQ0BIXShbQ0gyXTMpW0NIMl1OKFtDSDNdKVtDSDNd

> <s_epik_cmdline>
J2VwaWtfcHl0aG9uJywgJy1waCcsICc3LjAnLCAnLXRuJywgJzgnLCAnLW1hJywgJzIwMCcsICctbWV0YWxfYmluZGluZycsICctaW1hZScsICc8aW5maWxlLm1hZT4nLCAnLW9tYWUnLCAnPG91dGZpbGUubWFlPic=

> <r_epik_Ionization_Penalty>
1.0968

> <r_epik_Ionization_Penalty_Charging>
1.0096

> <r_epik_Ionization_Penalty_Neutral>
0.0871956

> <r_epik_State_Penalty>
1.31185

> <r_epik_Charging_Adjusted_Penalty>
2.32145

> <i_epik_Tot_Q>
2

> <i_epik_Tot_abs_Q>
2

> <r_epik_Metal_State_Penalty>
1.22442

> <b_epik_Metal_Only>
0

> <s_lp_Force_Field>
OPLS_2005

> <r_lp_Energy>
34.9346

> <b_lp_Chiralities_Consistent>
1

> <s_lp_Variant>
AV-unprocessed.smi:1005-8

> <Gold.Version>
5.8.1

> <Gold.Id.Protein>
6NUR|6NUR_protein|mol2

> <Gold.PLP.Fitness>
51.9091

> <Gold.PLP.PLP>
-43.0125

> <Gold.PLP.part.hbond>
-3.5403

> <Gold.PLP.part.metal>
0.0000

> <Gold.PLP.part.buried>
-2.8093

> <Gold.PLP.part.nonpolar>
-37.0221

> <Gold.PLP.part.repulsive>
1.2214

> <Gold.PLP.ligand.clash>
0.0000

> <Gold.PLP.ligand.torsion>
1.2664

> <Gold.PLP.Chemscore.Hbond>
3.7150

> <Gold.PLP.Chemscore.CHOScore>
0.0000

> <Gold.PLP.Chemscore.Metal>
0.0000

> <Gold.Chemscore.Hbonds>
donor molecule, donor type, donor heavy atom, donor atom, acceptor molecule, acceptor atom, score
      L1  H    12    57       P1  7957  0.69
      L1  H    18    56       P1  7948  2.00
      P1  H  7997  8008       L1     5  0.85

> <Gold.PLP.Chemscore.Internal.Correction>
0.2843

> <Gold.Rescore>
     Score         DG    S(hbond)    S(metal)    S(lipo)     H(rot)  DE(clash)    DE(int)     intcor
     18.34     -20.84       2.20        0.00     122.92       2.48       1.27       1.23       ----

> <Gold.Chemscore.Fitness>
18.3364

> <Gold.Chemscore.DG>
-20.8435

> <Gold.Chemscore.ZeroCoef>
-5.4800

> <Gold.Chemscore.Hbond>
2.1960

> <Gold.Chemscore.Metal>
0.0000

> <Gold.Chemscore.Lipo>
122.9175

> <Gold.Chemscore.Internal_Hbond>
0.0000

> <Gold.Chemscore.DEClash>
1.2728

> <Gold.Chemscore.DEInternal>
1.2343

> <Gold.Chemscore.Rot>
2.4814

> <Gold.Chemscore.Internal.Correction>
   9.000000E+99

> <Gold.Chemscore.Hbonds>
donor molecule, donor type, donor heavy atom, donor atom, acceptor molecule, acceptor atom, score
      L1  H    12    57       P1  7957  0.66
      L1  H    18    56       P1  7948  0.91
      P1  H  7997  8008       L1     5  0.11

> <Gold.Chemscore.Hbond.Weighted>
-7.3345

> <Gold.Chemscore.Metal.Weighted>
-0.0000

> <Gold.Chemscore.Lipo.Weighted>
-14.3814

> <Gold.Chemscore.Internal_Hbond.Weighted>
0.0000

> <Gold.Chemscore.DEClash.Weighted>
1.2728

> <Gold.Chemscore.DEInternal.Weighted>
1.2343

> <Gold.Chemscore.Rot.Weighted>
6.3524

> <Gold.Chemscore.Internal.Correction.Weighted>
   9.000000E+99

> <Gold.Protein.RotatedTorsions>
[ 6907 6896 6895 6894 ] final  -91.57 input  -60.11 | X-H torsion
[ 7974 7965 7964 7962 ] final  -48.65 input  175.53 | X-H torsion
[ 8008 7997 7996 7995 ] final  -52.15 input   59.86 | X-H torsion
[ 10167 10162 10161 10158 ] final -133.94 input  -65.29 | X-H torsion
[ 10718 10713 10712 10709 ] final   20.79 input   66.30 | X-H torsion
[ 10763 10752 10751 10750 ] final   10.52 input  -60.55 | X-H torsion
[ 11005 11000 10999 10996 ] final -163.08 input  -57.11 | X-H torsion

> <Gold.Protein.ActiveResidues>
 VAL166  LYS551  ARG553  GLY616  TRP617  ASP618  TYR619  PRO620  LYS621  CYS622 
 ASP623  PHE694  ASN695  SER759  ASP760  ASP761  ALA762  ILE779  LEU786  VAL792 
 PHE793  MET794  SER795  GLU796  ALA797  LYS798  CYS799  TRP800  GLU811  SER814 

> <Gold.Protein.RotatedAtoms>
  150.6894  134.2257  159.4414 H   0  0  0  0  0  0  0  0  0  0  0  0  # atno 6907 bound_to 6896
  152.0211  134.9820  160.0580 H   0  0  0  0  0  0  0  0  0  0  0  0  # atno 6908 bound_to 6896
  152.1397  133.4421  159.4797 H   0  0  0  0  0  0  0  0  0  0  0  0  # atno 6909 bound_to 6896
  145.9489  140.7591  142.9514 H   0  0  0  0  0  0  0  0  0  0  0  0  # atno 7974 bound_to 7965
  154.4100  140.1230  156.4945 H   0  0  0  0  0  0  0  0  0  0  0  0  # atno 8008 bound_to 7997
  155.6956  140.3495  155.4892 H   0  0  0  0  0  0  0  0  0  0  0  0  # atno 8009 bound_to 7997
  155.9430  140.1090  157.1030 H   0  0  0  0  0  0  0  0  0  0  0  0  # atno 8010 bound_to 7997
  139.8931  143.6698  152.2608 H   0  0  0  0  0  0  0  0  0  0  0  0  # atno 10167 bound_to 10162
  157.1294  130.6584  149.5947 H   0  0  0  0  0  0  0  0  0  0  0  0  # atno 10718 bound_to 10713
  153.2023  135.6858  153.8216 H   0  0  0  0  0  0  0  0  0  0  0  0  # atno 10763 bound_to 10752
  153.7478  135.3228  155.3316 H   0  0  0  0  0  0  0  0  0  0  0  0  # atno 10764 bound_to 10752
  154.8178  135.4673  154.0794 H   0  0  0  0  0  0  0  0  0  0  0  0  # atno 10765 bound_to 10752
  140.6020  134.4937  157.5206 H   0  0  0  0  0  0  0  0  0  0  0  0  # atno 11005 bound_to 11000
  144.6792  140.2403  143.7344 LP  0  0  0  0  0  0  0  0  0  0  0  0  # atno 17320 bound_to 7965
  145.8198  139.2039  143.1945 LP  0  0  0  0  0  0  0  0  0  0  0  0  # atno 17321 bound_to 7965
  139.7092  144.7623  151.1141 LP  0  0  0  0  0  0  0  0  0  0  0  0  # atno 17342 bound_to 10162
  140.7722  143.5354  150.9375 LP  0  0  0  0  0  0  0  0  0  0  0  0  # atno 17343 bound_to 10162
  155.9811  130.4816  150.6809 LP  0  0  0  0  0  0  0  0  0  0  0  0  # atno 17370 bound_to 10713
  157.4405  131.0860  151.0948 LP  0  0  0  0  0  0  0  0  0  0  0  0  # atno 17371 bound_to 10713
  139.9228  134.8115  156.1159 LP  0  0  0  0  0  0  0  0  0  0  0  0  # atno 17394 bound_to 11000
  141.0865  133.6732  156.2448 LP  0  0  0  0  0  0  0  0  0  0  0  0  # atno 17395 bound_to 11000

$$$$
