AV-unprocessed.smi:2837|AV-procd|sdf|10924|dock9
  -GOLD-   2272015373D 1   1.00000     0.00000
 Structure written by MMmdl.
 33 35  0  0  0  0  0  0  0  0  2 V2000
  152.8152  143.1004  160.7488 F   0  0  0  0  0  0  0  0  0  0  0  0
  153.2997  141.9966  160.1311 C   0  0  0  0  0  0  0  0  0  0  0  0
  154.1884  141.4146  160.9735 F   0  0  0  0  0  0  0  0  0  0  0  0
  152.2796  141.1420  159.8525 O   0  0  0  0  0  0  0  0  0  0  0  0
  151.5085  141.3505  158.7312 C   0  0  0  0  0  0  0  0  0  0  0  0
  151.2069  140.2423  157.9125 C   0  0  0  0  0  0  0  0  0  0  0  0
  150.4336  140.4179  156.7465 C   0  0  0  0  0  0  0  0  0  0  0  0
  149.9737  141.7121  156.4064 C   0  0  0  0  0  0  0  0  0  0  0  0
  149.2024  142.0088  155.2741 N   0  0  0  0  0  0  0  0  0  0  0  0
  148.8046  140.9696  154.3327 C   0  0  2  0  0  0  0  0  0  0  0  0
  147.7761  141.4510  153.3000 C   0  0  0  0  0  0  0  0  0  0  0  0
  146.6286  140.4543  153.5058 C   0  0  1  0  0  0  0  0  0  0  0  0
  146.9953  139.0394  153.0380 C   0  0  0  0  0  0  0  0  0  0  0  0
  147.9620  138.5891  154.1327 C   0  0  0  0  0  0  0  0  0  0  0  0
  148.0309  139.8352  155.0260 C   0  0  2  0  0  0  0  0  0  0  0  0
  146.6932  140.2928  154.9113 O   0  0  0  0  0  0  0  0  0  0  0  0
  150.2906  142.7497  157.2115 N   0  3  0  0  0  0  0  0  0  0  0  0
  151.0282  142.6226  158.3361 C   0  0  0  0  0  0  0  0  0  0  0  0
  153.8132  142.3203  159.2253 H   0  0  0  0  0  0  0  0  0  0  0  0
  151.5663  139.2591  158.1788 H   0  0  0  0  0  0  0  0  0  0  0  0
  150.2084  139.5591  156.1324 H   0  0  0  0  0  0  0  0  0  0  0  0
  149.0169  142.9718  155.0319 H   0  0  0  0  0  0  0  0  0  0  0  0
  149.6966  140.5633  153.8541 H   0  0  0  0  0  0  0  0  0  0  0  0
  147.4329  142.4646  153.5135 H   0  0  0  0  0  0  0  0  0  0  0  0
  148.1629  141.4334  152.2806 H   0  0  0  0  0  0  0  0  0  0  0  0
  145.6647  140.8074  153.1384 H   0  0  0  0  0  0  0  0  0  0  0  0
  146.1155  138.3953  153.0170 H   0  0  0  0  0  0  0  0  0  0  0  0
  147.4462  139.0355  152.0450 H   0  0  0  0  0  0  0  0  0  0  0  0
  147.5472  137.7433  154.6824 H   0  0  0  0  0  0  0  0  0  0  0  0
  148.9381  138.2969  153.7443 H   0  0  0  0  0  0  0  0  0  0  0  0
  148.3534  139.6223  156.0460 H   0  0  0  0  0  0  0  0  0  0  0  0
  151.2113  143.5425  158.8723 H   0  0  0  0  0  0  0  0  0  0  0  0
  149.9595  143.6806  156.9563 H   0  0  0  0  0  0  0  0  0  0  0  0
  1  2  1  0  0  0  0
  2  3  1  0  0  0  0
  2  4  1  0  0  0  0
  2 19  1  0  0  0  0
  4  5  1  0  0  0  0
  5 18  1  0  0  0  0
  5  6  2  0  0  0  0
  6  7  1  0  0  0  0
  6 20  1  0  0  0  0
  7  8  2  0  0  0  0
  7 21  1  0  0  0  0
  8  9  1  0  0  0  0
  8 17  1  0  0  0  0
  9 10  1  0  0  0  0
  9 22  1  0  0  0  0
 10 15  1  0  0  0  0
 10 11  1  0  0  0  0
 10 23  1  0  0  0  0
 11 12  1  0  0  0  0
 11 24  1  0  0  0  0
 11 25  1  0  0  0  0
 12 16  1  0  0  0  0
 12 13  1  0  0  0  0
 12 26  1  0  0  0  0
 13 14  1  0  0  0  0
 13 27  1  0  0  0  0
 13 28  1  0  0  0  0
 14 15  1  0  0  0  0
 14 29  1  0  0  0  0
 14 30  1  0  0  0  0
 15 16  1  0  0  0  0
 15 31  1  0  0  0  0
 17 18  2  0  0  0  0
 17 33  1  0  0  0  0
 18 32  1  0  0  0  0
M  CHG  1  17   1
M  END
> <s_m_source_file>
AV-unprocessed.smi

> <i_m_source_file_index>
2837

> <i_lp_mmshare_version>
43012

> <i_f3d_flags>
0

> <s_epik_input>
RltDSF0oRilPYzFbY0hdW2NIXWMobltjSF0xKVtOSF1bQ0BIXShbQ0gyXVtDQEBIXTIzKVtDQEBIXShPMylbQ0gyXVtDSDJdMg==

> <s_epik_cmdline>
J2VwaWtfcHl0aG9uJywgJy1waCcsICc3LjAnLCAnLXRuJywgJzgnLCAnLW1hJywgJzIwMCcsICctbWV0YWxfYmluZGluZycsICctaW1hZScsICc8aW5maWxlLm1hZT4nLCAnLW9tYWUnLCAnPG91dGZpbGUubWFlPic=

> <r_lp_tautomer_probability>
0.999429

> <r_epik_Ionization_Penalty>
2.29716

> <r_epik_Ionization_Penalty_Charging>
2.29716

> <r_epik_Ionization_Penalty_Neutral>
1.42285e-06

> <r_epik_State_Penalty>
2.44762

> <r_epik_Charging_Adjusted_Penalty>
4.74478

> <i_epik_Tot_Q>
1

> <i_epik_Tot_abs_Q>
1

> <r_epik_Metal_State_Penalty>
6.53078

> <b_epik_Metal_Only>
0

> <s_lp_Force_Field>
OPLS_2005

> <r_lp_Energy>
46.2914

> <b_lp_Chiralities_Consistent>
1

> <s_lp_Variant>
AV-unprocessed.smi:2837-5

> <Gold.Version>
5.8.1

> <Gold.Id.Protein>
6NUR|6NUR_protein|mol2

> <Gold.PLP.Fitness>
42.2597

> <Gold.PLP.PLP>
-31.6749

> <Gold.PLP.part.hbond>
-2.0000

> <Gold.PLP.part.metal>
0.0000

> <Gold.PLP.part.buried>
-3.4771

> <Gold.PLP.part.nonpolar>
-27.0725

> <Gold.PLP.part.repulsive>
0.2451

> <Gold.PLP.ligand.clash>
0.0000

> <Gold.PLP.ligand.torsion>
0.4549

> <Gold.PLP.Chemscore.Hbond>
3.8240

> <Gold.PLP.Chemscore.CHOScore>
0.0000

> <Gold.PLP.Chemscore.Metal>
0.0000

> <Gold.Chemscore.Hbonds>
donor molecule, donor type, donor heavy atom, donor atom, acceptor molecule, acceptor atom, score
      L1  H     9    22       P1  8028  1.89
      L1  H    17    33       P1  8028  1.86

> <Gold.PLP.Chemscore.Internal.Correction>
0.0226

> <Gold.Rescore>
     Score         DG    S(hbond)    S(metal)    S(lipo)     H(rot)  DE(clash)    DE(int)     intcor
     15.03     -16.00       1.72        0.00      70.18       1.34       0.39       0.58       ----

> <Gold.Chemscore.Fitness>
15.0298

> <Gold.Chemscore.DG>
-15.9989

> <Gold.Chemscore.ZeroCoef>
-5.4800

> <Gold.Chemscore.Hbond>
1.7156

> <Gold.Chemscore.Metal>
0.0000

> <Gold.Chemscore.Lipo>
70.1801

> <Gold.Chemscore.Internal_Hbond>
0.0000

> <Gold.Chemscore.DEClash>
0.3930

> <Gold.Chemscore.DEInternal>
0.5761

> <Gold.Chemscore.Rot>
1.3368

> <Gold.Chemscore.Internal.Correction>
   9.000000E+99

> <Gold.Chemscore.Hbonds>
donor molecule, donor type, donor heavy atom, donor atom, acceptor molecule, acceptor atom, score
      L1  H     9    22       P1  8028  0.91
      L1  H    17    33       P1  8028  0.87

> <Gold.Chemscore.Hbond.Weighted>
-5.7302

> <Gold.Chemscore.Metal.Weighted>
-0.0000

> <Gold.Chemscore.Lipo.Weighted>
-8.2111

> <Gold.Chemscore.Internal_Hbond.Weighted>
0.0000

> <Gold.Chemscore.DEClash.Weighted>
0.3930

> <Gold.Chemscore.DEInternal.Weighted>
0.5761

> <Gold.Chemscore.Rot.Weighted>
3.4223

> <Gold.Chemscore.Internal.Correction.Weighted>
   9.000000E+99

> <Gold.Protein.RotatedTorsions>
[ 6907 6896 6895 6894 ] final -141.64 input  -60.11 | X-H torsion
[ 7974 7965 7964 7962 ] final   75.27 input  175.53 | X-H torsion
[ 8008 7997 7996 7995 ] final  118.87 input   59.86 | X-H torsion
[ 10167 10162 10161 10158 ] final  -77.94 input  -65.29 | X-H torsion
[ 10718 10713 10712 10709 ] final  -79.95 input   66.30 | X-H torsion
[ 10763 10752 10751 10750 ] final  -12.89 input  -60.55 | X-H torsion
[ 11005 11000 10999 10996 ] final -146.72 input  -57.11 | X-H torsion

> <Gold.Protein.ActiveResidues>
 VAL166  LYS551  ARG553  GLY616  TRP617  ASP618  TYR619  PRO620  LYS621  CYS622 
 ASP623  PHE694  ASN695  SER759  ASP760  ASP761  ALA762  ILE779  LEU786  VAL792 
 PHE793  MET794  SER795  GLU796  ALA797  LYS798  CYS799  TRP800  GLU811  SER814 

> <Gold.Protein.RotatedAtoms>
  151.0764  133.5425  159.2623 H   0  0  0  0  0  0  0  0  0  0  0  0  # atno 6907 bound_to 6896
  151.2345  135.0566  159.9010 H   0  0  0  0  0  0  0  0  0  0  0  0  # atno 6908 bound_to 6896
  152.5418  134.0548  159.8180 H   0  0  0  0  0  0  0  0  0  0  0  0  # atno 6909 bound_to 6896
  145.7177  139.2637  143.1614 H   0  0  0  0  0  0  0  0  0  0  0  0  # atno 7974 bound_to 7965
  156.2568  140.2865  156.0902 H   0  0  0  0  0  0  0  0  0  0  0  0  # atno 8008 bound_to 7997
  155.1471  140.0396  157.2830 H   0  0  0  0  0  0  0  0  0  0  0  0  # atno 8009 bound_to 7997
  154.6487  140.2539  155.7245 H   0  0  0  0  0  0  0  0  0  0  0  0  # atno 8010 bound_to 7997
  140.4726  143.2422  151.8181 H   0  0  0  0  0  0  0  0  0  0  0  0  # atno 10167 bound_to 10162
  156.0081  130.4560  150.3726 H   0  0  0  0  0  0  0  0  0  0  0  0  # atno 10718 bound_to 10713
  153.5052  135.7017  153.5810 H   0  0  0  0  0  0  0  0  0  0  0  0  # atno 10763 bound_to 10752
  153.3924  135.3892  155.1932 H   0  0  0  0  0  0  0  0  0  0  0  0  # atno 10764 bound_to 10752
  154.8707  135.3861  154.4527 H   0  0  0  0  0  0  0  0  0  0  0  0  # atno 10765 bound_to 10752
  140.7791  134.3100  157.5051 H   0  0  0  0  0  0  0  0  0  0  0  0  # atno 11005 bound_to 11000
  146.0654  140.7926  142.9714 LP  0  0  0  0  0  0  0  0  0  0  0  0  # atno 17320 bound_to 7965
  144.6925  140.3261  143.7224 LP  0  0  0  0  0  0  0  0  0  0  0  0  # atno 17321 bound_to 7965
  139.4821  144.4873  151.9231 LP  0  0  0  0  0  0  0  0  0  0  0  0  # atno 17342 bound_to 10162
  140.3958  144.2557  150.5896 LP  0  0  0  0  0  0  0  0  0  0  0  0  # atno 17343 bound_to 10162
  157.1810  131.0392  151.2748 LP  0  0  0  0  0  0  0  0  0  0  0  0  # atno 17370 bound_to 10713
  157.4146  130.7404  149.6865 LP  0  0  0  0  0  0  0  0  0  0  0  0  # atno 17371 bound_to 10713
  139.8745  134.9307  156.3510 LP  0  0  0  0  0  0  0  0  0  0  0  0  # atno 17394 bound_to 11000
  140.9500  133.7457  156.0259 LP  0  0  0  0  0  0  0  0  0  0  0  0  # atno 17395 bound_to 11000

$$$$
