AV-unprocessed.smi:3164|AV-procd|sdf|12079|dock5
  -GOLD-   2272017503D 1   1.00000     0.00000
 Structure written by MMmdl.
 40 41  0  0  0  0  0  0  0  0  3 V2000
  148.9947  136.4843  155.0540 C   0  0  0  0  0  0  0  0  0  0  0  0
  148.4867  137.6581  154.3116 N   0  3  1  0  0  0  0  0  0  0  0  0
  147.0099  137.7551  154.3391 C   0  0  0  0  0  0  0  0  0  0  0  0
  146.5409  138.9705  153.5229 C   0  0  0  0  0  0  0  0  0  0  0  0
  147.1586  140.1496  154.0268 O   0  0  0  0  0  0  0  0  0  0  0  0
  148.5784  140.1113  153.9162 C   0  0  1  0  0  0  0  0  0  0  0  0
  149.1324  141.4570  154.4099 C   0  0  0  0  0  0  0  0  0  0  0  0
  148.5658  141.8222  155.7242 N   0  3  0  0  0  0  0  0  0  0  0  0
  149.4901  141.6153  156.8562 C   0  0  0  0  0  0  0  0  0  0  0  0
  150.8741  142.2052  156.5526 C   0  0  0  0  0  0  0  0  0  0  0  0
  151.4568  142.9414  157.7436 C   0  0  0  0  0  0  0  0  0  0  0  0
  151.6053  144.3446  157.7221 C   0  0  0  0  0  0  0  0  0  0  0  0
  152.1566  144.9778  158.8529 C   0  0  0  0  0  0  0  0  0  0  0  0
  152.5372  144.1871  159.9543 C   0  0  0  0  0  0  0  0  0  0  0  0
  152.3488  142.7929  159.8763 C   0  0  0  0  0  0  0  0  0  0  0  0
  151.8218  142.1759  158.7962 N   0  0  0  0  0  0  0  0  0  0  0  0
  149.1061  138.9288  154.7547 C   0  0  0  0  0  0  0  0  0  0  0  0
  148.7457  136.5515  156.1140 H   0  0  0  0  0  0  0  0  0  0  0  0
  150.0786  136.4094  154.9607 H   0  0  0  0  0  0  0  0  0  0  0  0
  148.5628  135.5641  154.6591 H   0  0  0  0  0  0  0  0  0  0  0  0
  146.5721  136.8424  153.9326 H   0  0  0  0  0  0  0  0  0  0  0  0
  146.6669  137.8441  155.3713 H   0  0  0  0  0  0  0  0  0  0  0  0
  146.7758  138.8450  152.4647 H   0  0  0  0  0  0  0  0  0  0  0  0
  145.4588  139.0787  153.5978 H   0  0  0  0  0  0  0  0  0  0  0  0
  148.8613  139.9698  152.8711 H   0  0  0  0  0  0  0  0  0  0  0  0
  150.2207  141.4166  154.4767 H   0  0  0  0  0  0  0  0  0  0  0  0
  148.8837  142.2428  153.6953 H   0  0  0  0  0  0  0  0  0  0  0  0
  148.2991  142.7962  155.7041 H   0  0  0  0  0  0  0  0  0  0  0  0
  149.0718  142.0816  157.7496 H   0  0  0  0  0  0  0  0  0  0  0  0
  149.5777  140.5472  157.0596 H   0  0  0  0  0  0  0  0  0  0  0  0
  151.5604  141.4128  156.2507 H   0  0  0  0  0  0  0  0  0  0  0  0
  150.8117  142.8946  155.7091 H   0  0  0  0  0  0  0  0  0  0  0  0
  151.3050  144.9251  156.8620 H   0  0  0  0  0  0  0  0  0  0  0  0
  152.2857  146.0499  158.8747 H   0  0  0  0  0  0  0  0  0  0  0  0
  152.9630  144.6390  160.8380 H   0  0  0  0  0  0  0  0  0  0  0  0
  152.6294  142.1565  160.7024 H   0  0  0  0  0  0  0  0  0  0  0  0
  148.8885  139.0899  155.8122 H   0  0  0  0  0  0  0  0  0  0  0  0
  150.1904  138.8573  154.6580 H   0  0  0  0  0  0  0  0  0  0  0  0
  147.7389  141.2635  155.8828 H   0  0  0  0  0  0  0  0  0  0  0  0
  148.7511  137.5241  153.3457 H   0  0  0  0  0  0  0  0  0  0  0  0
  1  2  1  0  0  0  0
  1 18  1  0  0  0  0
  1 19  1  0  0  0  0
  1 20  1  0  0  0  0
  2 17  1  0  0  0  0
  2  3  1  0  0  0  0
  2 40  1  0  0  0  0
  3  4  1  0  0  0  0
  3 21  1  0  0  0  0
  3 22  1  0  0  0  0
  4  5  1  0  0  0  0
  4 23  1  0  0  0  0
  4 24  1  0  0  0  0
  5  6  1  0  0  0  0
  6  7  1  0  0  0  0
  6 17  1  0  0  0  0
  6 25  1  0  0  0  0
  7  8  1  0  0  0  0
  7 26  1  0  0  0  0
  7 27  1  0  0  0  0
  8  9  1  0  0  0  0
  8 28  1  0  0  0  0
  8 39  1  0  0  0  0
  9 10  1  0  0  0  0
  9 29  1  0  0  0  0
  9 30  1  0  0  0  0
 10 11  1  0  0  0  0
 10 31  1  0  0  0  0
 10 32  1  0  0  0  0
 11 16  1  0  0  0  0
 11 12  2  0  0  0  0
 12 13  1  0  0  0  0
 12 33  1  0  0  0  0
 13 14  2  0  0  0  0
 13 34  1  0  0  0  0
 14 15  1  0  0  0  0
 14 35  1  0  0  0  0
 15 16  2  0  0  0  0
 15 36  1  0  0  0  0
 17 37  1  0  0  0  0
 17 38  1  0  0  0  0
M  CHG  1   2   1
M  CHG  1   8   1
M  END
> <s_m_source_file>
AV-unprocessed.smi

> <i_m_source_file_index>
3164

> <i_lp_mmshare_version>
43012

> <i_f3d_flags>
0

> <s_epik_input>
W0NIM11OMVtDSDJdW0NIMl1PW0NASF0oW0NIMl0xKVtDSDJdW05IXVtDSDJdW0NIMl1jMltjSF1bY0hdW2NIXVtjSF1uMg==

> <s_epik_cmdline>
J2VwaWtfcHl0aG9uJywgJy1waCcsICc3LjAnLCAnLXRuJywgJzgnLCAnLW1hJywgJzIwMCcsICctbWV0YWxfYmluZGluZycsICctaW1hZScsICc8aW5maWxlLm1hZT4nLCAnLW9tYWUnLCAnPG91dGZpbGUubWFlPic=

> <r_epik_Ionization_Penalty>
0.294944

> <r_epik_Ionization_Penalty_Charging>
0.29381

> <r_epik_Ionization_Penalty_Neutral>
0.00113372

> <r_epik_State_Penalty>
0.271365

> <r_epik_Charging_Adjusted_Penalty>
0.565175

> <i_epik_Tot_Q>
2

> <i_epik_Tot_abs_Q>
2

> <r_epik_Metal_State_Penalty>
0.271365

> <b_epik_Metal_Only>
0

> <s_lp_Force_Field>
OPLS_2005

> <r_lp_Energy>
20.3644

> <b_lp_Chiralities_Consistent>
1

> <s_lp_Variant>
AV-unprocessed.smi:3164-1

> <Gold.Version>
5.8.1

> <Gold.Id.Protein>
6NUR|6NUR_protein|mol2

> <Gold.PLP.Fitness>
44.9012

> <Gold.PLP.PLP>
-34.3888

> <Gold.PLP.part.hbond>
-2.0000

> <Gold.PLP.part.metal>
0.0000

> <Gold.PLP.part.buried>
-1.5975

> <Gold.PLP.part.nonpolar>
-30.8482

> <Gold.PLP.part.repulsive>
0.2236

> <Gold.PLP.ligand.clash>
0.0000

> <Gold.PLP.ligand.torsion>
0.7750

> <Gold.PLP.Chemscore.Hbond>
4.0000

> <Gold.PLP.Chemscore.CHOScore>
0.0000

> <Gold.PLP.Chemscore.Metal>
0.0000

> <Gold.Chemscore.Hbonds>
donor molecule, donor type, donor heavy atom, donor atom, acceptor molecule, acceptor atom, score
      L1  H     2    40       P1  7948  1.89
      L1  H     8    28       P1  8028  1.95

> <Gold.PLP.Chemscore.Internal.Correction>
0.0624

> <Gold.Rescore>
     Score         DG    S(hbond)    S(metal)    S(lipo)     H(rot)  DE(clash)    DE(int)     intcor
     16.93     -18.39       1.59        0.00     100.98       1.65       0.67       0.79       ----

> <Gold.Chemscore.Fitness>
16.9339

> <Gold.Chemscore.DG>
-18.3939

> <Gold.Chemscore.ZeroCoef>
-5.4800

> <Gold.Chemscore.Hbond>
1.5903

> <Gold.Chemscore.Metal>
0.0000

> <Gold.Chemscore.Lipo>
100.9797

> <Gold.Chemscore.Internal_Hbond>
0.0000

> <Gold.Chemscore.DEClash>
0.6700

> <Gold.Chemscore.DEInternal>
0.7899

> <Gold.Chemscore.Rot>
1.6454

> <Gold.Chemscore.Internal.Correction>
   9.000000E+99

> <Gold.Chemscore.Hbonds>
donor molecule, donor type, donor heavy atom, donor atom, acceptor molecule, acceptor atom, score
      L1  H     2    40       P1  7948  0.89
      L1  H     8    28       P1  8028  0.87

> <Gold.Chemscore.Hbond.Weighted>
-5.3115

> <Gold.Chemscore.Metal.Weighted>
-0.0000

> <Gold.Chemscore.Lipo.Weighted>
-11.8146

> <Gold.Chemscore.Internal_Hbond.Weighted>
0.0000

> <Gold.Chemscore.DEClash.Weighted>
0.6700

> <Gold.Chemscore.DEInternal.Weighted>
0.7899

> <Gold.Chemscore.Rot.Weighted>
4.2122

> <Gold.Chemscore.Internal.Correction.Weighted>
   9.000000E+99

> <Gold.Protein.RotatedTorsions>
[ 6907 6896 6895 6894 ] final  125.04 input  -60.11 | X-H torsion
[ 7974 7965 7964 7962 ] final -119.99 input  175.53 | X-H torsion
[ 8008 7997 7996 7995 ] final  128.75 input   59.86 | X-H torsion
[ 10167 10162 10161 10158 ] final -133.11 input  -65.29 | X-H torsion
[ 10718 10713 10712 10709 ] final  114.04 input   66.30 | X-H torsion
[ 10763 10752 10751 10750 ] final   62.34 input  -60.55 | X-H torsion
[ 11005 11000 10999 10996 ] final -173.24 input  -57.11 | X-H torsion

> <Gold.Protein.ActiveResidues>
 VAL166  LYS551  ARG553  GLY616  TRP617  ASP618  TYR619  PRO620  LYS621  CYS622 
 ASP623  PHE694  ASN695  SER759  ASP760  ASP761  ALA762  ILE779  LEU786  VAL792 
 PHE793  MET794  SER795  GLU796  ALA797  LYS798  CYS799  TRP800  GLU811  SER814 

> <Gold.Protein.RotatedAtoms>
  152.4026  133.6840  159.6328 H   0  0  0  0  0  0  0  0  0  0  0  0  # atno 6907 bound_to 6896
  150.7915  133.8765  159.3282 H   0  0  0  0  0  0  0  0  0  0  0  0  # atno 6908 bound_to 6896
  151.6527  135.1001  160.0215 H   0  0  0  0  0  0  0  0  0  0  0  0  # atno 6909 bound_to 6896
  145.0564  140.8257  143.4179 H   0  0  0  0  0  0  0  0  0  0  0  0  # atno 7974 bound_to 7965
  156.2922  140.2637  156.2486 H   0  0  0  0  0  0  0  0  0  0  0  0  # atno 8008 bound_to 7997
  154.9905  140.0388  157.2335 H   0  0  0  0  0  0  0  0  0  0  0  0  # atno 8009 bound_to 7997
  154.7690  140.2774  155.6157 H   0  0  0  0  0  0  0  0  0  0  0  0  # atno 8010 bound_to 7997
  139.9016  143.6601  152.2594 H   0  0  0  0  0  0  0  0  0  0  0  0  # atno 10167 bound_to 10162
  157.6304  131.0992  150.7127 H   0  0  0  0  0  0  0  0  0  0  0  0  # atno 10718 bound_to 10713
  152.9979  135.5468  154.6178 H   0  0  0  0  0  0  0  0  0  0  0  0  # atno 10763 bound_to 10752
  154.5484  135.2825  155.1033 H   0  0  0  0  0  0  0  0  0  0  0  0  # atno 10764 bound_to 10752
  154.2283  135.6438  153.5219 H   0  0  0  0  0  0  0  0  0  0  0  0  # atno 10765 bound_to 10752
  140.4880  134.6012  157.4944 H   0  0  0  0  0  0  0  0  0  0  0  0  # atno 11005 bound_to 11000
  145.1463  139.2541  143.5464 LP  0  0  0  0  0  0  0  0  0  0  0  0  # atno 17320 bound_to 7965
  146.3521  140.1154  142.8602 LP  0  0  0  0  0  0  0  0  0  0  0  0  # atno 17321 bound_to 7965
  139.7020  144.7633  151.1257 LP  0  0  0  0  0  0  0  0  0  0  0  0  # atno 17342 bound_to 10162
  140.7705  143.5445  150.9275 LP  0  0  0  0  0  0  0  0  0  0  0  0  # atno 17343 bound_to 10162
  156.7468  130.4756  149.5465 LP  0  0  0  0  0  0  0  0  0  0  0  0  # atno 17370 bound_to 10713
  156.1504  130.6306  151.0588 LP  0  0  0  0  0  0  0  0  0  0  0  0  # atno 17371 bound_to 10713
  139.9786  134.7174  155.9902 LP  0  0  0  0  0  0  0  0  0  0  0  0  # atno 17394 bound_to 11000
  141.1498  133.6550  156.3979 LP  0  0  0  0  0  0  0  0  0  0  0  0  # atno 17395 bound_to 11000

$$$$
