AV-unprocessed.smi:2849|AV-procd|sdf|10963|dock1
  -GOLD-   2272015413D 1   1.00000     0.00000
 Structure written by MMmdl.
 56 59  0  0  0  0  0  0  0  0  3 V2000
  145.8681  132.8271  151.1908 C   0  0  0  0  0  0  0  0  0  0  0  0
  146.0124  134.2500  151.5813 N   0  3  2  0  0  0  0  0  0  0  0  0
  145.6955  134.5416  153.0006 C   0  0  2  0  0  0  0  0  0  0  0  0
  144.1769  134.4029  153.2791 C   0  0  0  0  0  0  0  0  0  0  0  0
  143.2850  135.1977  152.3060 C   0  0  0  0  0  0  0  0  0  0  0  0
  143.7772  135.1095  150.8488 C   0  0  0  0  0  0  0  0  0  0  0  0
  145.3159  135.2139  150.6950 C   0  0  1  0  0  0  0  0  0  0  0  0
  145.8971  136.6261  150.9376 C   0  0  0  0  0  0  0  0  0  0  0  0
  145.9081  137.0697  152.4234 C   0  0  2  0  0  0  0  0  0  0  0  0
  146.8356  138.1832  152.6142 N   0  0  0  0  0  0  0  0  0  0  0  0
  147.2885  138.6174  153.7998 C   0  0  0  0  0  0  0  0  0  0  0  0
  146.9461  138.1281  154.8759 O   0  0  0  0  0  0  0  0  0  0  0  0
  148.1630  139.6271  153.6482 N   0  0  0  0  0  0  0  0  0  0  0  0
  148.8731  140.3372  154.6538 C   0  0  0  0  0  0  0  0  0  0  0  0
  149.4146  139.5968  155.7256 C   0  0  0  0  0  0  0  0  0  0  0  0
  150.1337  140.2577  156.7424 C   0  0  0  0  0  0  0  0  0  0  0  0
  150.3176  141.6587  156.6730 C   0  0  0  0  0  0  0  0  0  0  0  0
  151.0140  142.3880  157.6551 N   0  0  0  0  0  0  0  0  0  0  0  0
  151.8379  141.7345  158.6580 C   0  0  0  0  0  0  0  0  0  0  0  0
  152.5029  142.8816  159.4183 C   0  0  0  0  0  0  0  0  0  0  0  0
  152.6529  143.9672  158.3517 C   0  0  0  0  0  0  0  0  0  0  0  0
  151.4366  143.7657  157.4404 C   0  0  0  0  0  0  0  0  0  0  0  0
  149.7915  142.3277  155.6195 N   0  3  0  0  0  0  0  0  0  0  0  0
  149.0947  141.7351  154.6258 C   0  0  0  0  0  0  0  0  0  0  0  0
  146.3006  135.9146  153.3758 C   0  0  0  0  0  0  0  0  0  0  0  0
  144.8390  132.4779  151.2681 H   0  0  0  0  0  0  0  0  0  0  0  0
  146.4872  132.1949  151.8278 H   0  0  0  0  0  0  0  0  0  0  0  0
  146.1975  132.6800  150.1620 H   0  0  0  0  0  0  0  0  0  0  0  0
  146.2067  133.7996  153.6158 H   0  0  0  0  0  0  0  0  0  0  0  0
  143.9028  133.3498  153.2140 H   0  0  0  0  0  0  0  0  0  0  0  0
  143.9547  134.6953  154.3060 H   0  0  0  0  0  0  0  0  0  0  0  0
  142.2615  134.8261  152.3662 H   0  0  0  0  0  0  0  0  0  0  0  0
  143.2129  136.2358  152.6190 H   0  0  0  0  0  0  0  0  0  0  0  0
  143.4461  134.1581  150.4317 H   0  0  0  0  0  0  0  0  0  0  0  0
  143.2865  135.8751  150.2467 H   0  0  0  0  0  0  0  0  0  0  0  0
  145.5567  134.9535  149.6633 H   0  0  0  0  0  0  0  0  0  0  0  0
  146.9242  136.6255  150.5687 H   0  0  0  0  0  0  0  0  0  0  0  0
  145.3663  137.3593  150.3291 H   0  0  0  0  0  0  0  0  0  0  0  0
  144.9203  137.4276  152.7031 H   0  0  0  0  0  0  0  0  0  0  0  0
  147.1723  138.6428  151.7806 H   0  0  0  0  0  0  0  0  0  0  0  0
  148.3975  139.8715  152.6972 H   0  0  0  0  0  0  0  0  0  0  0  0
  149.2746  138.5268  155.7776 H   0  0  0  0  0  0  0  0  0  0  0  0
  150.5326  139.6803  157.5631 H   0  0  0  0  0  0  0  0  0  0  0  0
  151.2443  141.1050  159.3218 H   0  0  0  0  0  0  0  0  0  0  0  0
  152.5865  141.1126  158.1653 H   0  0  0  0  0  0  0  0  0  0  0  0
  151.8400  143.2335  160.2099 H   0  0  0  0  0  0  0  0  0  0  0  0
  153.4507  142.5959  159.8752 H   0  0  0  0  0  0  0  0  0  0  0  0
  152.7055  144.9723  158.7713 H   0  0  0  0  0  0  0  0  0  0  0  0
  153.5678  143.7942  157.7836 H   0  0  0  0  0  0  0  0  0  0  0  0
  151.6905  143.9654  156.3987 H   0  0  0  0  0  0  0  0  0  0  0  0
  150.6228  144.4318  157.7289 H   0  0  0  0  0  0  0  0  0  0  0  0
  148.7544  142.4046  153.8503 H   0  0  0  0  0  0  0  0  0  0  0  0
  146.0414  136.1730  154.4034 H   0  0  0  0  0  0  0  0  0  0  0  0
  147.3865  135.8067  153.3633 H   0  0  0  0  0  0  0  0  0  0  0  0
  146.9977  134.4445  151.4744 H   0  0  0  0  0  0  0  0  0  0  0  0
  149.9280  143.3377  155.5726 H   0  0  0  0  0  0  0  0  0  0  0  0
  1  2  1  0  0  0  0
  1 26  1  0  0  0  0
  1 27  1  0  0  0  0
  1 28  1  0  0  0  0
  2  7  1  0  0  0  0
  2  3  1  0  0  0  0
  2 55  1  0  0  0  0
  3 25  1  0  0  0  0
  3  4  1  0  0  0  0
  3 29  1  0  0  0  0
  4  5  1  0  0  0  0
  4 30  1  0  0  0  0
  4 31  1  0  0  0  0
  5  6  1  0  0  0  0
  5 32  1  0  0  0  0
  5 33  1  0  0  0  0
  6  7  1  0  0  0  0
  6 34  1  0  0  0  0
  6 35  1  0  0  0  0
  7  8  1  0  0  0  0
  7 36  1  0  0  0  0
  8  9  1  0  0  0  0
  8 37  1  0  0  0  0
  8 38  1  0  0  0  0
  9 10  1  0  0  0  0
  9 25  1  0  0  0  0
  9 39  1  0  0  0  0
 10 11  1  0  0  0  0
 10 40  1  0  0  0  0
 11 12  2  0  0  0  0
 11 13  1  0  0  0  0
 13 14  1  0  0  0  0
 13 41  1  0  0  0  0
 14 24  1  0  0  0  0
 14 15  2  0  0  0  0
 15 16  1  0  0  0  0
 15 42  1  0  0  0  0
 16 17  2  0  0  0  0
 16 43  1  0  0  0  0
 17 18  1  0  0  0  0
 17 23  1  0  0  0  0
 18 22  1  0  0  0  0
 18 19  1  0  0  0  0
 19 20  1  0  0  0  0
 19 44  1  0  0  0  0
 19 45  1  0  0  0  0
 20 21  1  0  0  0  0
 20 46  1  0  0  0  0
 20 47  1  0  0  0  0
 21 22  1  0  0  0  0
 21 48  1  0  0  0  0
 21 49  1  0  0  0  0
 22 50  1  0  0  0  0
 22 51  1  0  0  0  0
 23 24  2  0  0  0  0
 23 56  1  0  0  0  0
 24 52  1  0  0  0  0
 25 53  1  0  0  0  0
 25 54  1  0  0  0  0
M  CHG  1   2   1
M  CHG  1  23   1
M  END
> <s_m_source_file>
AV-unprocessed.smi

> <i_m_source_file_index>
2849

> <i_lp_mmshare_version>
43012

> <i_f3d_flags>
0

> <s_epik_input>
W0NIMl0xW0NIMl1bQ0gyXVtDQEhdKE4oW0NIM10pW0NIXTEyKVtDSDJdW0NASF0oW0NIMl0yKVtOSF1DKD1PKVtOSF1jM1tjSF1bY0hdYyhuW2NIXTMpTjRbQ0gyXVtDSDJdW0NIMl1bQ0gyXTQ=

> <s_epik_cmdline>
J2VwaWtfcHl0aG9uJywgJy1waCcsICc3LjAnLCAnLXRuJywgJzgnLCAnLW1hJywgJzIwMCcsICctbWV0YWxfYmluZGluZycsICctaW1hZScsICc8aW5maWxlLm1hZT4nLCAnLW9tYWUnLCAnPG91dGZpbGUubWFlPic=

> <r_lp_tautomer_probability>
0.999994

> <r_epik_Ionization_Penalty>
1.2404

> <r_epik_Ionization_Penalty_Charging>
1.24038

> <r_epik_Ionization_Penalty_Neutral>
1.86921e-05

> <r_epik_State_Penalty>
1.30821

> <r_epik_Charging_Adjusted_Penalty>
2.54859

> <i_epik_Tot_Q>
2

> <i_epik_Tot_abs_Q>
2

> <r_epik_Metal_State_Penalty>
1.37823

> <b_epik_Metal_Only>
0

> <s_lp_Force_Field>
OPLS_2005

> <r_lp_Energy>
67.6381

> <b_lp_Chiralities_Consistent>
1

> <s_lp_Variant>
AV-unprocessed.smi:2849-7

> <Gold.Version>
5.8.1

> <Gold.Id.Protein>
6NUR|6NUR_protein|mol2

> <Gold.PLP.Fitness>
46.8465

> <Gold.PLP.PLP>
-40.6774

> <Gold.PLP.part.hbond>
-3.0000

> <Gold.PLP.part.metal>
0.0000

> <Gold.PLP.part.buried>
0.7331

> <Gold.PLP.part.nonpolar>
-39.6320

> <Gold.PLP.part.repulsive>
0.3751

> <Gold.PLP.ligand.clash>
0.0000

> <Gold.PLP.ligand.torsion>
0.6138

> <Gold.PLP.Chemscore.Hbond>
2.4080

> <Gold.PLP.Chemscore.CHOScore>
0.0000

> <Gold.PLP.Chemscore.Metal>
0.0000

> <Gold.Chemscore.Hbonds>
donor molecule, donor type, donor heavy atom, donor atom, acceptor molecule, acceptor atom, score
      L1  H    13    41       P1  7957  1.00
      L1  H    23    56       P1  8028  1.44

> <Gold.PLP.Chemscore.Internal.Correction>
0.1727

> <Gold.Rescore>
     Score         DG    S(hbond)    S(metal)    S(lipo)     H(rot)  DE(clash)    DE(int)     intcor
     17.75     -21.88       1.66        0.00     114.55       1.00       1.08       3.05       ----

> <Gold.Chemscore.Fitness>
17.7461

> <Gold.Chemscore.DG>
-21.8753

> <Gold.Chemscore.ZeroCoef>
-5.4800

> <Gold.Chemscore.Hbond>
1.6625

> <Gold.Chemscore.Metal>
0.0000

> <Gold.Chemscore.Lipo>
114.5511

> <Gold.Chemscore.Internal_Hbond>
0.0000

> <Gold.Chemscore.DEClash>
1.0790

> <Gold.Chemscore.DEInternal>
3.0503

> <Gold.Chemscore.Rot>
1.0000

> <Gold.Chemscore.Internal.Correction>
   9.000000E+99

> <Gold.Chemscore.Hbonds>
donor molecule, donor type, donor heavy atom, donor atom, acceptor molecule, acceptor atom, score
      L1  H    13    41       P1  7957  0.97
      L1  H    23    56       P1  8028  0.72

> <Gold.Chemscore.Hbond.Weighted>
-5.5528

> <Gold.Chemscore.Metal.Weighted>
-0.0000

> <Gold.Chemscore.Lipo.Weighted>
-13.4025

> <Gold.Chemscore.Internal_Hbond.Weighted>
0.0000

> <Gold.Chemscore.DEClash.Weighted>
1.0790

> <Gold.Chemscore.DEInternal.Weighted>
3.0503

> <Gold.Chemscore.Rot.Weighted>
2.5600

> <Gold.Chemscore.Internal.Correction.Weighted>
   9.000000E+99

> <Gold.Protein.RotatedTorsions>
[ 6907 6896 6895 6894 ] final  177.57 input  -60.11 | X-H torsion
[ 7974 7965 7964 7962 ] final  177.51 input  175.53 | X-H torsion
[ 8008 7997 7996 7995 ] final   -8.51 input   59.86 | X-H torsion
[ 10167 10162 10161 10158 ] final  176.51 input  -65.29 | X-H torsion
[ 10718 10713 10712 10709 ] final   57.71 input   66.30 | X-H torsion
[ 10763 10752 10751 10750 ] final  -93.55 input  -60.55 | X-H torsion
[ 11005 11000 10999 10996 ] final   48.97 input  -57.11 | X-H torsion

> <Gold.Protein.ActiveResidues>
 VAL166  LYS551  ARG553  GLY616  TRP617  ASP618  TYR619  PRO620  LYS621  CYS622 
 ASP623  PHE694  ASN695  SER759  ASP760  ASP761  ALA762  ILE779  LEU786  VAL792 
 PHE793  MET794  SER795  GLU796  ALA797  LYS798  CYS799  TRP800  GLU811  SER814 

> <Gold.Protein.RotatedAtoms>
  151.7019  133.3311  159.3268 H   0  0  0  0  0  0  0  0  0  0  0  0  # atno 6907 bound_to 6896
  150.7732  134.6608  159.6348 H   0  0  0  0  0  0  0  0  0  0  0  0  # atno 6908 bound_to 6896
  152.3764  134.6660  160.0210 H   0  0  0  0  0  0  0  0  0  0  0  0  # atno 6909 bound_to 6896
  144.7168  140.0258  143.6439 H   0  0  0  0  0  0  0  0  0  0  0  0  # atno 7974 bound_to 7965
  154.5734  140.2379  155.8158 H   0  0  0  0  0  0  0  0  0  0  0  0  # atno 8008 bound_to 7997
  156.2124  140.3022  155.9721 H   0  0  0  0  0  0  0  0  0  0  0  0  # atno 8009 bound_to 7997
  155.2671  140.0417  157.2994 H   0  0  0  0  0  0  0  0  0  0  0  0  # atno 8010 bound_to 7997
  139.5217  144.2906  152.0466 H   0  0  0  0  0  0  0  0  0  0  0  0  # atno 10167 bound_to 10162
  157.5537  130.8784  149.9002 H   0  0  0  0  0  0  0  0  0  0  0  0  # atno 10718 bound_to 10713
  154.6970  135.5190  153.8472 H   0  0  0  0  0  0  0  0  0  0  0  0  # atno 10763 bound_to 10752
  153.0674  135.6589  154.0332 H   0  0  0  0  0  0  0  0  0  0  0  0  # atno 10764 bound_to 10752
  154.0197  135.2994  155.3362 H   0  0  0  0  0  0  0  0  0  0  0  0  # atno 10765 bound_to 10752
  140.1144  134.4911  155.8650 H   0  0  0  0  0  0  0  0  0  0  0  0  # atno 11005 bound_to 11000
  146.0143  139.3197  143.0851 LP  0  0  0  0  0  0  0  0  0  0  0  0  # atno 17320 bound_to 7965
  145.8644  140.9457  143.0683 LP  0  0  0  0  0  0  0  0  0  0  0  0  # atno 17321 bound_to 7965
  140.2358  144.4321  150.6281 LP  0  0  0  0  0  0  0  0  0  0  0  0  # atno 17342 bound_to 10162
  140.6324  143.2189  151.6466 LP  0  0  0  0  0  0  0  0  0  0  0  0  # atno 17343 bound_to 10162
  156.0599  130.3701  150.1005 LP  0  0  0  0  0  0  0  0  0  0  0  0  # atno 17370 bound_to 10713
  156.9176  130.9672  151.3553 LP  0  0  0  0  0  0  0  0  0  0  0  0  # atno 17371 bound_to 10713
  141.2138  133.6738  156.6768 LP  0  0  0  0  0  0  0  0  0  0  0  0  # atno 17394 bound_to 11000
  140.3047  134.8135  157.4127 LP  0  0  0  0  0  0  0  0  0  0  0  0  # atno 17395 bound_to 11000

$$$$
