AV-unprocessed.smi:311|AV-procd|sdf|2300|dock7
  -GOLD-   2262022203D 1   1.00000     0.00000
 Structure written by MMmdl.
 44 46  0  0  0  0  0  0  0  0  2 V2000
  151.4867  140.1565  155.7592 C   0  0  0  0  0  0  0  0  0  0  0  0
  151.2514  138.7257  155.3674 C   0  0  0  0  0  0  0  0  0  0  0  0
  152.1859  138.0664  154.7037 N   0  0  0  0  0  0  0  0  0  0  0  0
  151.6709  136.7846  154.4878 O   0  0  0  0  0  0  0  0  0  0  0  0
  150.4325  136.7208  155.0389 C   0  0  0  0  0  0  0  0  0  0  0  0
  149.7071  135.4246  154.9036 C   0  0  0  0  0  0  0  0  0  0  0  0
  150.1039  137.9184  155.6134 C   0  0  0  0  0  0  0  0  0  0  0  0
  148.8364  138.3068  156.3315 C   0  0  0  0  0  0  0  0  0  0  0  0
  147.7762  138.7461  155.3215 C   0  0  0  0  0  0  0  0  0  0  0  0
  147.4225  139.9236  155.2720 O   0  0  0  0  0  0  0  0  0  0  0  0
  147.2689  137.7877  154.5297 N   0  0  0  0  0  0  0  0  0  0  0  0
  146.2670  137.9923  153.4862 C   0  0  1  0  0  0  0  0  0  0  0  0
  146.7635  138.9079  152.3509 C   0  0  0  0  0  0  0  0  0  0  0  0
  146.2352  138.2561  151.0688 C   0  0  0  0  0  0  0  0  0  0  0  0
  146.2692  136.8249  151.3910 N   0  3  2  0  0  0  0  0  0  0  0  0
  145.5995  135.8782  150.4762 C   0  0  0  0  0  0  0  0  0  0  0  0
  145.9306  134.4406  150.9328 C   0  0  0  0  0  0  0  0  0  0  0  0
  145.6215  134.2137  152.4303 C   0  0  0  0  0  0  0  0  0  0  0  0
  146.2468  135.3115  153.3184 C   0  0  0  0  0  0  0  0  0  0  0  0
  145.8149  136.6893  152.7858 C   0  0  1  0  0  0  0  0  0  0  0  0
  150.6256  140.7762  155.5079 H   0  0  0  0  0  0  0  0  0  0  0  0
  152.3551  140.5773  155.2508 H   0  0  0  0  0  0  0  0  0  0  0  0
  151.6559  140.2431  156.8325 H   0  0  0  0  0  0  0  0  0  0  0  0
  149.0616  135.2473  155.7639 H   0  0  0  0  0  0  0  0  0  0  0  0
  150.4061  134.5910  154.8313 H   0  0  0  0  0  0  0  0  0  0  0  0
  149.0851  135.4241  154.0085 H   0  0  0  0  0  0  0  0  0  0  0  0
  148.4388  137.4798  156.9207 H   0  0  0  0  0  0  0  0  0  0  0  0
  149.0169  139.1191  157.0369 H   0  0  0  0  0  0  0  0  0  0  0  0
  147.6235  136.8492  154.6450 H   0  0  0  0  0  0  0  0  0  0  0  0
  145.3873  138.4634  153.9297 H   0  0  0  0  0  0  0  0  0  0  0  0
  146.4252  139.9384  152.4640 H   0  0  0  0  0  0  0  0  0  0  0  0
  147.8544  138.9216  152.3238 H   0  0  0  0  0  0  0  0  0  0  0  0
  145.2070  138.5665  150.8753 H   0  0  0  0  0  0  0  0  0  0  0  0
  146.8410  138.4936  150.1937 H   0  0  0  0  0  0  0  0  0  0  0  0
  144.5220  136.0501  150.4782 H   0  0  0  0  0  0  0  0  0  0  0  0
  145.9522  136.0396  149.4568 H   0  0  0  0  0  0  0  0  0  0  0  0
  145.3833  133.7195  150.3248 H   0  0  0  0  0  0  0  0  0  0  0  0
  146.9895  134.2465  150.7571 H   0  0  0  0  0  0  0  0  0  0  0  0
  144.5405  134.2073  152.5754 H   0  0  0  0  0  0  0  0  0  0  0  0
  145.9780  133.2313  152.7416 H   0  0  0  0  0  0  0  0  0  0  0  0
  145.9217  135.1793  154.3508 H   0  0  0  0  0  0  0  0  0  0  0  0
  147.3341  135.2241  153.3123 H   0  0  0  0  0  0  0  0  0  0  0  0
  144.7229  136.7141  152.7769 H   0  0  0  0  0  0  0  0  0  0  0  0
  147.2479  136.5753  151.3925 H   0  0  0  0  0  0  0  0  0  0  0  0
  1  2  1  0  0  0  0
  1 21  1  0  0  0  0
  1 22  1  0  0  0  0
  1 23  1  0  0  0  0
  2  7  1  0  0  0  0
  2  3  2  0  0  0  0
  3  4  1  0  0  0  0
  4  5  1  0  0  0  0
  5  6  1  0  0  0  0
  5  7  2  0  0  0  0
  6 24  1  0  0  0  0
  6 25  1  0  0  0  0
  6 26  1  0  0  0  0
  7  8  1  0  0  0  0
  8  9  1  0  0  0  0
  8 27  1  0  0  0  0
  8 28  1  0  0  0  0
  9 10  2  0  0  0  0
  9 11  1  0  0  0  0
 11 12  1  0  0  0  0
 11 29  1  0  0  0  0
 12 20  1  0  0  0  0
 12 13  1  0  0  0  0
 12 30  1  0  0  0  0
 13 14  1  0  0  0  0
 13 31  1  0  0  0  0
 13 32  1  0  0  0  0
 14 15  1  0  0  0  0
 14 33  1  0  0  0  0
 14 34  1  0  0  0  0
 15 20  1  0  0  0  0
 15 16  1  0  0  0  0
 15 44  1  0  0  0  0
 16 17  1  0  0  0  0
 16 35  1  0  0  0  0
 16 36  1  0  0  0  0
 17 18  1  0  0  0  0
 17 37  1  0  0  0  0
 17 38  1  0  0  0  0
 18 19  1  0  0  0  0
 18 39  1  0  0  0  0
 18 40  1  0  0  0  0
 19 20  1  0  0  0  0
 19 41  1  0  0  0  0
 19 42  1  0  0  0  0
 20 43  1  0  0  0  0
M  CHG  1  15   1
M  END
> <s_m_source_file>
AV-unprocessed.smi

> <i_m_source_file_index>
311

> <i_lp_mmshare_version>
43012

> <i_f3d_flags>
0

> <s_epik_input>
W0NIM11jMW5vYyhbQ0gzXSljMVtDSDJdQyg9TylbTkhdW0NASF0oW0NIMl1bQ0gyXTIpW0NAQEhdKE4yMylbQ0gyXVtDSDJdW0NIMl1bQ0gyXTM=

> <s_epik_cmdline>
J2VwaWtfcHl0aG9uJywgJy1waCcsICc3LjAnLCAnLXRuJywgJzgnLCAnLW1hJywgJzIwMCcsICctbWV0YWxfYmluZGluZycsICctaW1hZScsICc8aW5maWxlLm1hZT4nLCAnLW9tYWUnLCAnPG91dGZpbGUubWFlPic=

> <r_epik_Ionization_Penalty>
0.00173669

> <r_epik_Ionization_Penalty_Charging>
0.0017366

> <r_epik_Ionization_Penalty_Neutral>
9.2145e-08

> <r_epik_State_Penalty>
0.00117499

> <r_epik_Charging_Adjusted_Penalty>
0.00291159

> <i_epik_Tot_Q>
1

> <i_epik_Tot_abs_Q>
1

> <r_epik_Metal_State_Penalty>
-0

> <b_epik_Metal_Only>
0

> <s_lp_Force_Field>
OPLS_2005

> <r_lp_Energy>
35.4626

> <b_lp_Chiralities_Consistent>
1

> <s_lp_Variant>
AV-unprocessed.smi:311-4

> <Gold.Version>
5.8.1

> <Gold.Id.Protein>
6NUR|6NUR_protein|mol2

> <Gold.PLP.Fitness>
34.6020

> <Gold.PLP.PLP>
-26.4556

> <Gold.PLP.part.hbond>
-2.8125

> <Gold.PLP.part.metal>
0.0000

> <Gold.PLP.part.buried>
0.5545

> <Gold.PLP.part.nonpolar>
-25.1262

> <Gold.PLP.part.repulsive>
0.6698

> <Gold.PLP.ligand.clash>
0.0000

> <Gold.PLP.ligand.torsion>
0.4271

> <Gold.PLP.Chemscore.Hbond>
3.0000

> <Gold.PLP.Chemscore.CHOScore>
0.0000

> <Gold.PLP.Chemscore.Metal>
0.0000

> <Gold.Chemscore.Hbonds>
donor molecule, donor type, donor heavy atom, donor atom, acceptor molecule, acceptor atom, score
      L1  H    15    44       P1  7948  2.00
      P1  H 10752 10765       L1     4  1.00

> <Gold.PLP.Chemscore.Internal.Correction>
0.0006

> <Gold.Rescore>
     Score         DG    S(hbond)    S(metal)    S(lipo)     H(rot)  DE(clash)    DE(int)     intcor
     14.95     -17.10       1.99        0.00      72.31       1.36       1.78       0.38       ----

> <Gold.Chemscore.Fitness>
14.9470

> <Gold.Chemscore.DG>
-17.1032

> <Gold.Chemscore.ZeroCoef>
-5.4800

> <Gold.Chemscore.Hbond>
1.9867

> <Gold.Chemscore.Metal>
0.0000

> <Gold.Chemscore.Lipo>
72.3135

> <Gold.Chemscore.Internal_Hbond>
0.0000

> <Gold.Chemscore.DEClash>
1.7766

> <Gold.Chemscore.DEInternal>
0.3796

> <Gold.Chemscore.Rot>
1.3567

> <Gold.Chemscore.Internal.Correction>
   9.000000E+99

> <Gold.Chemscore.Hbonds>
donor molecule, donor type, donor heavy atom, donor atom, acceptor molecule, acceptor atom, score
      L1  H    15    44       P1  7948  1.00
      P1  H 10752 10765       L1     4  0.73

> <Gold.Chemscore.Hbond.Weighted>
-6.6356

> <Gold.Chemscore.Metal.Weighted>
-0.0000

> <Gold.Chemscore.Lipo.Weighted>
-8.4607

> <Gold.Chemscore.Internal_Hbond.Weighted>
0.0000

> <Gold.Chemscore.DEClash.Weighted>
1.7766

> <Gold.Chemscore.DEInternal.Weighted>
0.3796

> <Gold.Chemscore.Rot.Weighted>
3.4731

> <Gold.Chemscore.Internal.Correction.Weighted>
   9.000000E+99

> <Gold.Protein.RotatedTorsions>
[ 6907 6896 6895 6894 ] final -148.11 input  -60.11 | X-H torsion
[ 7974 7965 7964 7962 ] final  -41.51 input  175.53 | X-H torsion
[ 8008 7997 7996 7995 ] final  -88.02 input   59.86 | X-H torsion
[ 10167 10162 10161 10158 ] final  -51.56 input  -65.29 | X-H torsion
[ 10718 10713 10712 10709 ] final  -18.90 input   66.30 | X-H torsion
[ 10763 10752 10751 10750 ] final  179.13 input  -60.55 | X-H torsion
[ 11005 11000 10999 10996 ] final  108.38 input  -57.11 | X-H torsion

> <Gold.Protein.ActiveResidues>
 VAL166  LYS551  ARG553  GLY616  TRP617  ASP618  TYR619  PRO620  LYS621  CYS622 
 ASP623  PHE694  ASN695  SER759  ASP760  ASP761  ALA762  ILE779  LEU786  VAL792 
 PHE793  MET794  SER795  GLU796  ALA797  LYS798  CYS799  TRP800  GLU811  SER814 

> <Gold.Protein.RotatedAtoms>
  151.1652  133.4819  159.2593 H   0  0  0  0  0  0  0  0  0  0  0  0  # atno 6907 bound_to 6896
  151.1413  135.0180  159.8637 H   0  0  0  0  0  0  0  0  0  0  0  0  # atno 6908 bound_to 6896
  152.5462  134.1546  159.8585 H   0  0  0  0  0  0  0  0  0  0  0  0  # atno 6909 bound_to 6896
  146.0204  140.6857  142.9181 H   0  0  0  0  0  0  0  0  0  0  0  0  # atno 7974 bound_to 7965
  154.6700  140.0558  157.0155 H   0  0  0  0  0  0  0  0  0  0  0  0  # atno 8008 bound_to 7997
  155.1102  140.3237  155.4505 H   0  0  0  0  0  0  0  0  0  0  0  0  # atno 8009 bound_to 7997
  156.2653  140.2015  156.6227 H   0  0  0  0  0  0  0  0  0  0  0  0  # atno 8010 bound_to 7997
  140.6582  143.2615  151.4521 H   0  0  0  0  0  0  0  0  0  0  0  0  # atno 10167 bound_to 10162
  156.5531  130.4706  149.6442 H   0  0  0  0  0  0  0  0  0  0  0  0  # atno 10718 bound_to 10713
  154.5167  135.2791  155.1297 H   0  0  0  0  0  0  0  0  0  0  0  0  # atno 10763 bound_to 10752
  154.2871  135.6274  153.5374 H   0  0  0  0  0  0  0  0  0  0  0  0  # atno 10764 bound_to 10752
  152.9929  135.5665  154.5646 H   0  0  0  0  0  0  0  0  0  0  0  0  # atno 10765 bound_to 10752
  139.8843  134.9429  156.5964 H   0  0  0  0  0  0  0  0  0  0  0  0  # atno 11005 bound_to 11000
  144.6987  140.3556  143.7173 LP  0  0  0  0  0  0  0  0  0  0  0  0  # atno 17320 bound_to 7965
  145.7202  139.1708  143.2489 LP  0  0  0  0  0  0  0  0  0  0  0  0  # atno 17321 bound_to 7965
  139.5810  144.1711  152.1967 LP  0  0  0  0  0  0  0  0  0  0  0  0  # atno 17342 bound_to 10162
  140.1036  144.5518  150.6972 LP  0  0  0  0  0  0  0  0  0  0  0  0  # atno 17343 bound_to 10162
  156.2867  130.7101  151.1939 LP  0  0  0  0  0  0  0  0  0  0  0  0  # atno 17370 bound_to 10713
  157.7383  131.0542  150.5299 LP  0  0  0  0  0  0  0  0  0  0  0  0  # atno 17371 bound_to 10713
  140.7917  133.8577  155.8651 LP  0  0  0  0  0  0  0  0  0  0  0  0  # atno 17394 bound_to 11000
  140.9671  134.1579  157.4607 LP  0  0  0  0  0  0  0  0  0  0  0  0  # atno 17395 bound_to 11000

$$$$
