#       Name:                AV-unprocessed.smi:3161
#       Creating user name   scv26
#       Creation time:       Fri Mar 27 17:48:29 2020


#       File generated by GOLD software.
#

@<TRIPOS>MOLECULE
AV-unprocessed.smi:3161
    44    45     1
SMALL
NO_CHARGES


@<TRIPOS>ATOM
      1 ****        -3.3316   2.9231  -2.5027 C.3            1 S1                 0.0000
      2 ****        -3.0552   1.6556  -1.7465 C.2            1 S1                 0.0000
      3 ****        -3.0597   1.4616  -0.3359 C.2            1 S1                 0.0000
      4 ****        -2.7668   0.2195   0.0129 N.2            1 S1                 0.0000
      5 ****        -2.5688  -0.4223  -1.1585 N.pl3          1 S1                 0.0000
      6 ****        -2.2021  -1.8282  -1.1587 C.3            1 S1                 0.0000
      7 ****        -0.6742  -2.0277  -1.1599 C.3            1 S1                 0.0000
      8 ****        -0.3093  -3.5148  -1.2917 C.3            1 S1                 0.0000
      9 ****        -0.0858  -1.4490   0.0688 N.4            1 S1                 1.0000
     10 ****         1.3458  -1.0973  -0.0192 C.3            1 S1                 0.0000
     11 ****         1.7855  -0.3075   1.2210 C.3            1 S1                 0.0000
     12 ****         3.3015  -0.0318   1.2211 C.3            1 S1                 0.0000
     13 ****         3.6904   0.8485   2.4145 C.3            1 S1                 0.0000
     14 ****         2.8208   2.1102   2.4326 C.3            1 S1                 0.0000
     15 ****         1.3327   1.7330   2.3681 C.3            1 S1                 0.0000
     16 ****         1.0871   0.9366   1.2132 O.3            1 S1                 0.0000
     17 ****        -2.7377   0.4203  -2.2367 C.2            1 S1                 0.0000
     18 ****        -3.9875   3.5920  -1.9451 H              1 S1                 0.0000
     19 ****        -3.8141   2.7264  -3.4603 H              1 S1                 0.0000
     20 ****        -2.4140   3.4730  -2.7117 H              1 S1                 0.0000
     21 ****        -3.2630   2.1843   0.4407 H              1 S1                 0.0000
     22 ****        -2.6569  -2.3162  -0.2948 H              1 S1                 0.0000
     23 ****        -2.6423  -2.2893  -2.0439 H              1 S1                 0.0000
     24 ****        -0.2722  -1.4947  -2.0232 H              1 S1                 0.0000
     25 ****        -0.7446  -3.9452  -2.1939 H              1 S1                 0.0000
     26 ****        -0.6758  -4.0898  -0.4406 H              1 S1                 0.0000
     27 ****         0.7692  -3.6606  -1.3529 H              1 S1                 0.0000
     28 ****        -0.5851  -0.5907   0.2590 H              1 S1                 0.0000
     29 ****         1.9334  -2.0112  -0.1090 H              1 S1                 0.0000
     30 ****         1.5283  -0.5053  -0.9170 H              1 S1                 0.0000
     31 ****         1.5187  -0.8698   2.1180 H              1 S1                 0.0000
     32 ****         3.8576  -0.9693   1.2544 H              1 S1                 0.0000
     33 ****         3.5856   0.4672   0.2936 H              1 S1                 0.0000
     34 ****         3.5509   0.2923   3.3423 H              1 S1                 0.0000
     35 ****         4.7466   1.1145   2.3637 H              1 S1                 0.0000
     36 ****         3.0246   2.6972   3.3287 H              1 S1                 0.0000
     37 ****         3.0724   2.7420   1.5799 H              1 S1                 0.0000
     38 ****         1.0269   1.1951   3.2668 H              1 S1                 0.0000
     39 ****         0.7197   2.6328   2.3126 H              1 S1                 0.0000
     40 ****        -2.6143   0.0766  -3.2533 H              1 S1                 0.0000
     41 ****        -0.2363  -2.0803   0.8427 H              1 S1                 0.0000
     42 ****        -2.7058  -0.1590   0.9365 LP             1 S1                 0.0000
     43 ****         0.1063   0.7487   1.1610 LP             1 S1                 0.0000
     44 ****         1.3708   1.4538   0.4058 LP             1 S1                 0.0000
@<TRIPOS>BOND
    1    1    2 1     
    2    1   18 1     
    3    1   19 1     
    4    1   20 1     
    5    2   17 2     
    6    2    3 1     
    7    3    4 2     
    8    3   21 1     
    9    4    5 1     
   10    5    6 1     
   11    5   17 1     
   12    6    7 1     
   13    6   22 1     
   14    6   23 1     
   15    7    8 1     
   16    7    9 1     
   17    7   24 1     
   18    8   25 1     
   19    8   26 1     
   20    8   27 1     
   21    9   10 1     
   22    9   28 1     
   23    9   41 1     
   24   10   11 1     
   25   10   29 1     
   26   10   30 1     
   27   11   16 1     
   28   11   12 1     
   29   11   31 1     
   30   12   13 1     
   31   12   32 1     
   32   12   33 1     
   33   13   14 1     
   34   13   34 1     
   35   13   35 1     
   36   14   15 1     
   37   14   36 1     
   38   14   37 1     
   39   15   16 1     
   40   15   38 1     
   41   15   39 1     
   42   17   40 1     
   43    4   42 1     
   44   16   43 1     
   45   16   44 1     
@<TRIPOS>SUBSTRUCTURE
      1 S1             1
@<TRIPOS>SET
LONE_PAIRS      STATIC     ATOMS    <user>   **** ""
3 42 43 44
DONOR_HYDROGENS      STATIC     ATOMS    <user>   **** ""
2 28 41
ATOM$BLUE        STATIC     ATOMS    COLORGROUP SYSTEM
3 42 43 44
ATOM$RED        STATIC     ATOMS    COLORGROUP SYSTEM
2 28 41
