AV-unprocessed.smi:2572|AV-procd|sdf|10111|dock10
  -GOLD-   2272014133D 1   1.00000     0.00000
 Structure written by MMmdl.
 38 39  0  0  0  0  0  0  0  0  1 V2000
  149.1165  135.3082  155.7301 C   0  0  0  0  0  0  0  0  0  0  0  0
  148.0910  136.1823  155.2628 O   0  0  0  0  0  0  0  0  0  0  0  0
  148.4723  137.4691  154.9249 C   0  0  0  0  0  0  0  0  0  0  0  0
  147.4798  138.3537  154.3525 C   0  0  0  0  0  0  0  0  0  0  0  0
  147.8399  139.6104  154.0140 C   0  0  0  0  0  0  0  0  0  0  0  0
  149.2038  140.1013  154.2103 C   0  0  0  0  0  0  0  0  0  0  0  0
  149.5589  141.2395  153.9055 O   0  0  0  0  0  0  0  0  0  0  0  0
  150.0468  139.1785  154.7620 N   0  0  0  0  0  0  0  0  0  0  0  0
  151.4578  139.4911  155.0170 C   0  0  0  0  0  0  0  0  0  0  0  0
  151.7659  139.5655  156.5288 C   0  0  1  0  0  0  0  0  0  0  0  0
  153.0925  139.1235  156.7415 O   0  0  0  0  0  0  0  0  0  0  0  0
  151.6575  141.0058  157.0639 C   0  0  0  0  0  0  0  0  0  0  0  0
  151.8959  141.1171  158.5792 C   0  0  0  0  0  0  0  0  0  0  0  0
  151.8975  142.5580  159.0532 C   0  0  0  0  0  0  0  0  0  0  0  0
  152.1789  142.8617  160.4019 C   0  0  0  0  0  0  0  0  0  0  0  0
  152.1825  144.2007  160.8393 C   0  0  0  0  0  0  0  0  0  0  0  0
  151.9078  145.2403  159.9296 C   0  0  0  0  0  0  0  0  0  0  0  0
  151.6292  144.9407  158.5820 C   0  0  0  0  0  0  0  0  0  0  0  0
  151.6229  143.6018  158.1445 C   0  0  0  0  0  0  0  0  0  0  0  0
  149.6846  137.8877  155.1099 N   0  0  0  0  0  0  0  0  0  0  0  0
  148.6788  134.3367  155.9590 H   0  0  0  0  0  0  0  0  0  0  0  0
  149.5818  135.6796  156.6450 H   0  0  0  0  0  0  0  0  0  0  0  0
  149.8884  135.1480  154.9751 H   0  0  0  0  0  0  0  0  0  0  0  0
  146.4694  138.0028  154.2023 H   0  0  0  0  0  0  0  0  0  0  0  0
  147.1020  140.2730  153.5862 H   0  0  0  0  0  0  0  0  0  0  0  0
  152.1350  138.8004  154.5108 H   0  0  0  0  0  0  0  0  0  0  0  0
  151.6626  140.4605  154.5586 H   0  0  0  0  0  0  0  0  0  0  0  0
  151.0799  138.9255  157.0857 H   0  0  0  0  0  0  0  0  0  0  0  0
  153.1487  138.2115  156.5011 H   0  0  0  0  0  0  0  0  0  0  0  0
  152.3502  141.6566  156.5279 H   0  0  0  0  0  0  0  0  0  0  0  0
  150.6575  141.3855  156.8493 H   0  0  0  0  0  0  0  0  0  0  0  0
  151.1222  140.5704  159.1198 H   0  0  0  0  0  0  0  0  0  0  0  0
  152.8448  140.6526  158.8500 H   0  0  0  0  0  0  0  0  0  0  0  0
  152.3935  142.0695  161.1043 H   0  0  0  0  0  0  0  0  0  0  0  0
  152.3966  144.4305  161.8725 H   0  0  0  0  0  0  0  0  0  0  0  0
  151.9111  146.2668  160.2655 H   0  0  0  0  0  0  0  0  0  0  0  0
  151.4204  145.7379  157.8837 H   0  0  0  0  0  0  0  0  0  0  0  0
  151.4092  143.3780  157.1094 H   0  0  0  0  0  0  0  0  0  0  0  0
  1  2  1  0  0  0  0
  1 21  1  0  0  0  0
  1 22  1  0  0  0  0
  1 23  1  0  0  0  0
  2  3  1  0  0  0  0
  3 20  2  0  0  0  0
  3  4  1  0  0  0  0
  4  5  2  0  0  0  0
  4 24  1  0  0  0  0
  5  6  1  0  0  0  0
  5 25  1  0  0  0  0
  6  7  2  0  0  0  0
  6  8  1  0  0  0  0
  8  9  1  0  0  0  0
  8 20  1  0  0  0  0
  9 10  1  0  0  0  0
  9 26  1  0  0  0  0
  9 27  1  0  0  0  0
 10 11  1  0  0  0  0
 10 12  1  0  0  0  0
 10 28  1  0  0  0  0
 11 29  1  0  0  0  0
 12 13  1  0  0  0  0
 12 30  1  0  0  0  0
 12 31  1  0  0  0  0
 13 14  1  0  0  0  0
 13 32  1  0  0  0  0
 13 33  1  0  0  0  0
 14 19  1  0  0  0  0
 14 15  2  0  0  0  0
 15 16  1  0  0  0  0
 15 34  1  0  0  0  0
 16 17  2  0  0  0  0
 16 35  1  0  0  0  0
 17 18  1  0  0  0  0
 17 36  1  0  0  0  0
 18 19  2  0  0  0  0
 18 37  1  0  0  0  0
 19 38  1  0  0  0  0
M  END
> <s_m_source_file>
AV-unprocessed.smi

> <i_m_source_file_index>
2572

> <i_lp_mmshare_version>
43012

> <i_f3d_flags>
0

> <s_epik_input>
W0NIM11PYzFbY0hdW2NIXWMoPU8pbihuMSlbQ0gyXVtDQEhdKFtPSF0pW0NIMl1bQ0gyXWMyW2NIXVtjSF1bY0hdW2NIXVtjSF0y

> <s_epik_cmdline>
J2VwaWtfcHl0aG9uJywgJy1waCcsICc3LjAnLCAnLXRuJywgJzgnLCAnLW1hJywgJzIwMCcsICctbWV0YWxfYmluZGluZycsICctaW1hZScsICc8aW5maWxlLm1hZT4nLCAnLW9tYWUnLCAnPG91dGZpbGUubWFlPic=

> <r_lp_tautomer_probability>
1

> <r_epik_Ionization_Penalty>
8.48543e-06

> <r_epik_Ionization_Penalty_Charging>
6.90219e-06

> <r_epik_Ionization_Penalty_Neutral>
1.58323e-06

> <r_epik_State_Penalty>
-0

> <r_epik_Charging_Adjusted_Penalty>
6.90219e-06

> <i_epik_Tot_Q>
0

> <i_epik_Tot_abs_Q>
0

> <r_epik_Metal_State_Penalty>
-0

> <b_epik_Metal_Only>
0

> <s_lp_Force_Field>
OPLS_2005

> <r_lp_Energy>
30.5458

> <b_lp_Chiralities_Consistent>
1

> <s_lp_Variant>
AV-unprocessed.smi:2572-2

> <Gold.Version>
5.8.1

> <Gold.Id.Protein>
6NUR|6NUR_protein|mol2

> <Gold.PLP.Fitness>
45.4509

> <Gold.PLP.PLP>
-40.3639

> <Gold.PLP.part.hbond>
-3.0000

> <Gold.PLP.part.metal>
0.0000

> <Gold.PLP.part.buried>
-3.4689

> <Gold.PLP.part.nonpolar>
-34.6578

> <Gold.PLP.part.repulsive>
1.0948

> <Gold.PLP.ligand.clash>
0.0000

> <Gold.PLP.ligand.torsion>
0.5488

> <Gold.PLP.Chemscore.Hbond>
2.0486

> <Gold.PLP.Chemscore.CHOScore>
0.0000

> <Gold.PLP.Chemscore.Metal>
0.0000

> <Gold.Chemscore.Hbonds>
donor molecule, donor type, donor heavy atom, donor atom, acceptor molecule, acceptor atom, score
      P1  H  7989  7998       L1     7  0.24
      P1  H  7997  8008       L1    11  1.00
      P1  H  8011  8017       L1     7  0.82

> <Gold.PLP.Chemscore.Internal.Correction>
0.0389

> <Gold.Rescore>
     Score         DG    S(hbond)    S(metal)    S(lipo)     H(rot)  DE(clash)    DE(int)     intcor
     16.78     -17.94       1.85        0.00     108.89       2.52       0.66       0.49       ----

> <Gold.Chemscore.Fitness>
16.7830

> <Gold.Chemscore.DG>
-17.9382

> <Gold.Chemscore.ZeroCoef>
-5.4800

> <Gold.Chemscore.Hbond>
1.8481

> <Gold.Chemscore.Metal>
0.0000

> <Gold.Chemscore.Lipo>
108.8878

> <Gold.Chemscore.Internal_Hbond>
0.0000

> <Gold.Chemscore.DEClash>
0.6644

> <Gold.Chemscore.DEInternal>
0.4908

> <Gold.Chemscore.Rot>
2.5212

> <Gold.Chemscore.Internal.Correction>
   9.000000E+99

> <Gold.Chemscore.Hbonds>
donor molecule, donor type, donor heavy atom, donor atom, acceptor molecule, acceptor atom, score
      P1  H  7989  7998       L1     7  0.07
      P1  H  7997  8008       L1    11  0.94
      P1  H  8011  8017       L1     7  0.80

> <Gold.Chemscore.Hbond.Weighted>
-6.1726

> <Gold.Chemscore.Metal.Weighted>
-0.0000

> <Gold.Chemscore.Lipo.Weighted>
-12.7399

> <Gold.Chemscore.Internal_Hbond.Weighted>
0.0000

> <Gold.Chemscore.DEClash.Weighted>
0.6644

> <Gold.Chemscore.DEInternal.Weighted>
0.4908

> <Gold.Chemscore.Rot.Weighted>
6.4543

> <Gold.Chemscore.Internal.Correction.Weighted>
   9.000000E+99

> <Gold.Protein.RotatedTorsions>
[ 6907 6896 6895 6894 ] final   54.32 input  -60.11 | X-H torsion
[ 7974 7965 7964 7962 ] final  150.25 input  175.53 | X-H torsion
[ 8008 7997 7996 7995 ] final  -51.14 input   59.86 | X-H torsion
[ 10167 10162 10161 10158 ] final  -49.48 input  -65.29 | X-H torsion
[ 10718 10713 10712 10709 ] final   35.19 input   66.30 | X-H torsion
[ 10763 10752 10751 10750 ] final   82.81 input  -60.55 | X-H torsion
[ 11005 11000 10999 10996 ] final  152.35 input  -57.11 | X-H torsion

> <Gold.Protein.ActiveResidues>
 VAL166  LYS551  ARG553  GLY616  TRP617  ASP618  TYR619  PRO620  LYS621  CYS622 
 ASP623  PHE694  ASN695  SER759  ASP760  ASP761  ALA762  ILE779  LEU786  VAL792 
 PHE793  MET794  SER795  GLU796  ALA797  LYS798  CYS799  TRP800  GLU811  SER814 

> <Gold.Protein.RotatedAtoms>
  152.3427  134.7113  160.0258 H   0  0  0  0  0  0  0  0  0  0  0  0  # atno 6907 bound_to 6896
  151.7493  133.3321  159.3395 H   0  0  0  0  0  0  0  0  0  0  0  0  # atno 6908 bound_to 6896
  150.7489  134.6140  159.6145 H   0  0  0  0  0  0  0  0  0  0  0  0  # atno 6909 bound_to 6896
  144.8378  139.6385  143.6030 H   0  0  0  0  0  0  0  0  0  0  0  0  # atno 7974 bound_to 7965
  154.4076  140.1255  156.4780 H   0  0  0  0  0  0  0  0  0  0  0  0  # atno 8008 bound_to 7997
  155.7113  140.3494  155.4955 H   0  0  0  0  0  0  0  0  0  0  0  0  # atno 8009 bound_to 7997
  155.9298  140.1067  157.1132 H   0  0  0  0  0  0  0  0  0  0  0  0  # atno 8010 bound_to 7997
  140.6683  143.2696  151.4221 H   0  0  0  0  0  0  0  0  0  0  0  0  # atno 10167 bound_to 10162
  157.3196  130.7441  149.6777 H   0  0  0  0  0  0  0  0  0  0  0  0  # atno 10718 bound_to 10713
  153.1235  135.4714  154.9234 H   0  0  0  0  0  0  0  0  0  0  0  0  # atno 10763 bound_to 10752
  154.7598  135.3128  154.8402 H   0  0  0  0  0  0  0  0  0  0  0  0  # atno 10764 bound_to 10752
  153.8961  135.6880  153.4811 H   0  0  0  0  0  0  0  0  0  0  0  0  # atno 10765 bound_to 10752
  140.1300  134.8808  157.2190 H   0  0  0  0  0  0  0  0  0  0  0  0  # atno 11005 bound_to 11000
  146.2674  139.6553  142.9320 LP  0  0  0  0  0  0  0  0  0  0  0  0  # atno 17320 bound_to 7965
  145.4759  141.0437  143.2673 LP  0  0  0  0  0  0  0  0  0  0  0  0  # atno 17321 bound_to 7965
  139.5941  144.1436  152.2123 LP  0  0  0  0  0  0  0  0  0  0  0  0  # atno 17342 bound_to 10162
  140.0800  144.5709  150.7129 LP  0  0  0  0  0  0  0  0  0  0  0  0  # atno 17343 bound_to 10162
  155.9684  130.4227  150.4528 LP  0  0  0  0  0  0  0  0  0  0  0  0  # atno 17370 bound_to 10713
  157.2541  131.0552  151.2361 LP  0  0  0  0  0  0  0  0  0  0  0  0  # atno 17371 bound_to 10713
  140.2855  134.3301  155.7330 LP  0  0  0  0  0  0  0  0  0  0  0  0  # atno 17394 bound_to 11000
  141.2168  133.7503  156.9426 LP  0  0  0  0  0  0  0  0  0  0  0  0  # atno 17395 bound_to 11000

$$$$
