AV-unprocessed.smi:157|AV-procd|sdf|1317|dock7
  -GOLD-   2262019 13D 1   1.00000     0.00000
 Structure written by MMmdl.
 36 38  0  0  0  0  0  0  0  0  2 V2000
  150.9970  135.9393  158.0312 O   0  0  0  0  0  0  0  0  0  0  0  0
  150.9650  136.0354  156.6231 C   0  0  0  0  0  0  0  0  0  0  0  0
  150.6860  137.4866  156.1942 C   0  0  1  0  0  0  0  0  0  0  0  0
  151.7042  138.3660  156.6642 O   0  0  0  0  0  0  0  0  0  0  0  0
  151.8619  139.4404  155.7837 C   0  0  2  0  0  0  0  0  0  0  0  0
  151.5592  140.7086  156.5144 N   0  0  0  0  0  0  0  0  0  0  0  0
  150.7280  141.6926  156.1095 C   0  0  0  0  0  0  0  0  0  0  0  0
  150.6488  142.7157  156.9437 N   0  3  0  0  0  0  0  0  0  0  0  0
  151.4843  142.4239  158.0007 C   0  0  0  0  0  0  0  0  0  0  0  0
  152.0506  141.1806  157.7095 C   0  0  0  0  0  0  0  0  0  0  0  0
  152.9830  140.4261  158.4375 N   0  0  0  0  0  0  0  0  0  0  0  0
  153.7023  140.9272  159.3886 C   0  0  0  0  0  0  0  0  0  0  0  0
  153.6635  142.1991  159.9362 N   0  0  0  0  0  0  0  0  0  0  0  0
  152.4270  142.8534  160.3265 C   0  0  0  0  0  0  0  0  0  0  0  0
  151.6084  143.3837  159.1418 C   0  0  1  0  0  0  0  0  0  0  0  0
  152.1388  144.6299  158.7425 O   0  0  0  0  0  0  0  0  0  0  0  0
  150.8714  139.2489  154.6308 C   0  0  0  0  0  0  0  0  0  0  0  0
  150.6030  137.7594  154.6856 C   0  0  1  0  0  0  0  0  0  0  0  0
  151.5815  137.0466  153.9528 O   0  0  0  0  0  0  0  0  0  0  0  0
  149.7545  137.8208  156.6552 H   0  0  0  0  0  0  0  0  0  0  0  0
  152.9023  139.5193  155.4666 H   0  0  0  0  0  0  0  0  0  0  0  0
  150.6010  143.5929  159.5033 H   0  0  0  0  0  0  0  0  0  0  0  0
  149.6208  137.5100  154.2829 H   0  0  0  0  0  0  0  0  0  0  0  0
  151.5755  136.6081  158.3652 H   0  0  0  0  0  0  0  0  0  0  0  0
  151.9321  135.7139  156.2361 H   0  0  0  0  0  0  0  0  0  0  0  0
  150.2196  135.3477  156.2230 H   0  0  0  0  0  0  0  0  0  0  0  0
  150.1784  141.6449  155.1864 H   0  0  0  0  0  0  0  0  0  0  0  0
  154.4562  140.2997  159.8663 H   0  0  0  0  0  0  0  0  0  0  0  0
  154.4343  142.4926  160.5198 H   0  0  0  0  0  0  0  0  0  0  0  0
  151.8280  142.1189  160.8672 H   0  0  0  0  0  0  0  0  0  0  0  0
  152.6404  143.6512  161.0390 H   0  0  0  0  0  0  0  0  0  0  0  0
  152.0728  144.6953  157.8018 H   0  0  0  0  0  0  0  0  0  0  0  0
  149.9518  139.7992  154.8375 H   0  0  0  0  0  0  0  0  0  0  0  0
  151.2864  139.5999  153.6851 H   0  0  0  0  0  0  0  0  0  0  0  0
  151.2362  136.8627  153.0922 H   0  0  0  0  0  0  0  0  0  0  0  0
  150.0839  143.5474  156.8264 H   0  0  0  0  0  0  0  0  0  0  0  0
  1  2  1  0  0  0  0
  1 24  1  0  0  0  0
  2  3  1  0  0  0  0
  2 25  1  0  0  0  0
  2 26  1  0  0  0  0
  3 20  1  0  0  0  0
  3 18  1  0  0  0  0
  3  4  1  0  0  0  0
  4  5  1  0  0  0  0
  5 21  1  0  0  0  0
  5  6  1  0  0  0  0
  5 17  1  0  0  0  0
  6 10  1  0  0  0  0
  6  7  1  0  0  0  0
  7  8  2  0  0  0  0
  7 27  1  0  0  0  0
  8  9  1  0  0  0  0
  8 36  1  0  0  0  0
  9 15  1  0  0  0  0
  9 10  2  0  0  0  0
 10 11  1  0  0  0  0
 11 12  2  0  0  0  0
 12 13  1  0  0  0  0
 12 28  1  0  0  0  0
 13 14  1  0  0  0  0
 13 29  1  0  0  0  0
 14 15  1  0  0  0  0
 14 30  1  0  0  0  0
 14 31  1  0  0  0  0
 15 22  1  0  0  0  0
 15 16  1  0  0  0  0
 16 32  1  0  0  0  0
 17 18  1  0  0  0  0
 17 33  1  0  0  0  0
 17 34  1  0  0  0  0
 18 23  1  0  0  0  0
 18 19  1  0  0  0  0
 19 35  1  0  0  0  0
M  CHG  1   8   1
M  END
> <s_m_source_file>
AV-unprocessed.smi

> <i_m_source_file_index>
157

> <i_lp_mmshare_version>
43012

> <i_f3d_flags>
0

> <s_epik_input>
W09IXVtDSDJdW0NASF0xT1tDQEhdKFtDSDJdW0NAQEhdMVtPSF0pbihbY0hdbjIpYyhjMjMpTj1bQ0hdW05IXVtDSDJdW0NASF0zW09IXQ==

> <s_epik_cmdline>
J2VwaWtfcHl0aG9uJywgJy1waCcsICc3LjAnLCAnLXRuJywgJzgnLCAnLW1hJywgJzIwMCcsICctbWV0YWxfYmluZGluZycsICctaW1hZScsICc8aW5maWxlLm1hZT4nLCAnLW9tYWUnLCAnPG91dGZpbGUubWFlPic=

> <r_epik_Ionization_Penalty>
1.68594

> <r_epik_Ionization_Penalty_Charging>
0

> <r_epik_Ionization_Penalty_Neutral>
1.68594

> <r_epik_State_Penalty>
1.79006

> <r_epik_Charging_Adjusted_Penalty>
1.79006

> <i_epik_Tot_Q>
1

> <i_epik_Tot_abs_Q>
1

> <r_epik_Metal_State_Penalty>
5.85324

> <b_epik_Metal_Only>
0

> <s_epik_Chemistry_Notes>
This compound has an imine and may undergo hydrolysis. This compound contains an acetal/aminal-like group ( X-CH(R)-Y where X, Y are N, S, or O) that may be acid/base labile, releasing an aldehyde.

> <s_lp_Force_Field>
OPLS_2005

> <r_lp_Energy>
54.1398

> <b_lp_Chiralities_Consistent>
1

> <s_lp_Variant>
AV-unprocessed.smi:157-27

> <Gold.Version>
5.8.1

> <Gold.Id.Protein>
6NUR|6NUR_protein|mol2

> <Gold.PLP.Fitness>
49.0141

> <Gold.PLP.PLP>
-34.2820

> <Gold.PLP.part.hbond>
-5.0000

> <Gold.PLP.part.metal>
0.0000

> <Gold.PLP.part.buried>
-5.5218

> <Gold.PLP.part.nonpolar>
-22.5828

> <Gold.PLP.part.repulsive>
0.0724

> <Gold.PLP.ligand.clash>
0.0000

> <Gold.PLP.ligand.torsion>
0.1983

> <Gold.PLP.Chemscore.Hbond>
5.0404

> <Gold.PLP.Chemscore.CHOScore>
0.0000

> <Gold.PLP.Chemscore.Metal>
0.0000

> <Gold.Chemscore.Hbonds>
donor molecule, donor type, donor heavy atom, donor atom, acceptor molecule, acceptor atom, score
      L1  H     8    36       P1  8028  1.98
      L1  H    19    35       P1  7949  1.00
      P1  H  6896  6909       L1     1  0.44
      P1  H  7997  8008       L1    11  0.53
      P1  H 10752 10764       L1    19  1.00

> <Gold.PLP.Chemscore.Internal.Correction>
0.0074

> <Gold.Rescore>
     Score         DG    S(hbond)    S(metal)    S(lipo)     H(rot)  DE(clash)    DE(int)     intcor
      9.79     -11.30       2.67        0.00      53.89       3.67       0.25       1.26       ----

> <Gold.Chemscore.Fitness>
9.7919

> <Gold.Chemscore.DG>
-11.3039

> <Gold.Chemscore.ZeroCoef>
-5.4800

> <Gold.Chemscore.Hbond>
2.6656

> <Gold.Chemscore.Metal>
0.0000

> <Gold.Chemscore.Lipo>
53.8938

> <Gold.Chemscore.Internal_Hbond>
0.0000

> <Gold.Chemscore.DEClash>
0.2538

> <Gold.Chemscore.DEInternal>
1.2582

> <Gold.Chemscore.Rot>
3.6659

> <Gold.Chemscore.Internal.Correction>
   9.000000E+99

> <Gold.Chemscore.Hbonds>
donor molecule, donor type, donor heavy atom, donor atom, acceptor molecule, acceptor atom, score
      L1  H     8    36       P1  8028  0.88
      L1  H    19    35       P1  7949  0.59
      P1  H  6896  6909       L1     1  0.10
      P1  H  7997  8008       L1    11  0.05
      P1  H 10752 10764       L1    19  0.25

> <Gold.Chemscore.Hbond.Weighted>
-8.9031

> <Gold.Chemscore.Metal.Weighted>
-0.0000

> <Gold.Chemscore.Lipo.Weighted>
-6.3056

> <Gold.Chemscore.Internal_Hbond.Weighted>
0.0000

> <Gold.Chemscore.DEClash.Weighted>
0.2538

> <Gold.Chemscore.DEInternal.Weighted>
1.2582

> <Gold.Chemscore.Rot.Weighted>
9.3848

> <Gold.Chemscore.Internal.Correction.Weighted>
   9.000000E+99

> <Gold.Protein.RotatedTorsions>
[ 6907 6896 6895 6894 ] final   67.05 input  -60.11 | X-H torsion
[ 7974 7965 7964 7962 ] final -142.24 input  175.53 | X-H torsion
[ 8008 7997 7996 7995 ] final  -77.17 input   59.86 | X-H torsion
[ 10167 10162 10161 10158 ] final  155.68 input  -65.29 | X-H torsion
[ 10718 10713 10712 10709 ] final -107.46 input   66.30 | X-H torsion
[ 10763 10752 10751 10750 ] final  -93.21 input  -60.55 | X-H torsion
[ 11005 11000 10999 10996 ] final -164.57 input  -57.11 | X-H torsion

> <Gold.Protein.ActiveResidues>
 VAL166  LYS551  ARG553  GLY616  TRP617  ASP618  TYR619  PRO620  LYS621  CYS622 
 ASP623  PHE694  ASN695  SER759  ASP760  ASP761  ALA762  ILE779  LEU786  VAL792 
 PHE793  MET794  SER795  GLU796  ALA797  LYS798  CYS799  TRP800  GLU811  SER814 

> <Gold.Protein.RotatedAtoms>
  152.4525  134.5364  159.9825 H   0  0  0  0  0  0  0  0  0  0  0  0  # atno 6907 bound_to 6896
  151.5433  133.3423  159.2947 H   0  0  0  0  0  0  0  0  0  0  0  0  # atno 6908 bound_to 6896
  150.8458  134.7797  159.7032 H   0  0  0  0  0  0  0  0  0  0  0  0  # atno 6909 bound_to 6896
  144.8458  140.5981  143.5422 H   0  0  0  0  0  0  0  0  0  0  0  0  # atno 7974 bound_to 7965
  154.5572  140.0715  156.8762 H   0  0  0  0  0  0  0  0  0  0  0  0  # atno 8008 bound_to 7997
  155.2880  140.3376  155.4236 H   0  0  0  0  0  0  0  0  0  0  0  0  # atno 8009 bound_to 7997
  156.2012  140.1722  156.7881 H   0  0  0  0  0  0  0  0  0  0  0  0  # atno 8010 bound_to 7997
  139.4821  144.5076  151.8073 H   0  0  0  0  0  0  0  0  0  0  0  0  # atno 10167 bound_to 10162
  156.0438  130.5664  150.7825 H   0  0  0  0  0  0  0  0  0  0  0  0  # atno 10718 bound_to 10713
  154.6936  135.5203  153.8427 H   0  0  0  0  0  0  0  0  0  0  0  0  # atno 10763 bound_to 10752
  153.0651  135.6582  154.0383 H   0  0  0  0  0  0  0  0  0  0  0  0  # atno 10764 bound_to 10752
  154.0253  135.2990  155.3355 H   0  0  0  0  0  0  0  0  0  0  0  0  # atno 10765 bound_to 10752
  140.5854  134.5099  157.5185 H   0  0  0  0  0  0  0  0  0  0  0  0  # atno 11005 bound_to 11000
  145.4600  139.1514  143.3871 LP  0  0  0  0  0  0  0  0  0  0  0  0  # atno 17320 bound_to 7965
  146.2743  140.4730  142.8802 LP  0  0  0  0  0  0  0  0  0  0  0  0  # atno 17321 bound_to 7965
  140.4576  144.1767  150.5903 LP  0  0  0  0  0  0  0  0  0  0  0  0  # atno 17342 bound_to 10162
  140.4519  143.2483  151.9337 LP  0  0  0  0  0  0  0  0  0  0  0  0  # atno 17343 bound_to 10162
  157.5288  131.0935  150.9982 LP  0  0  0  0  0  0  0  0  0  0  0  0  # atno 17370 bound_to 10713
  157.0293  130.5705  149.5341 LP  0  0  0  0  0  0  0  0  0  0  0  0  # atno 17371 bound_to 10713
  139.9298  134.7985  156.0963 LP  0  0  0  0  0  0  0  0  0  0  0  0  # atno 17394 bound_to 11000
  141.0969  133.6692  156.2666 LP  0  0  0  0  0  0  0  0  0  0  0  0  # atno 17395 bound_to 11000

$$$$
