AV-unprocessed.smi:838|AV-procd|sdf|3909|dock9
  -GOLD-   22720 1373D 1   1.00000     0.00000
 Structure written by MMmdl.
 46 47  0  0  0  0  0  0  0  0  2 V2000
  143.7797  141.8964  158.9474 C   0  0  0  0  0  0  0  0  0  0  0  0
  143.7598  142.8610  157.7594 C   0  0  0  0  0  0  0  0  0  0  0  0
  142.6722  143.3064  157.3941 O   0  0  0  0  0  0  0  0  0  0  0  0
  144.9253  143.1917  157.1531 N   0  0  0  0  0  0  0  0  0  0  0  0
  145.0563  144.0302  155.9577 C   0  0  0  0  0  0  0  0  0  0  0  0
  145.5664  143.1646  154.7909 C   0  0  0  0  0  0  0  0  0  0  0  0
  146.8391  142.4759  155.1367 N   0  3  0  0  0  0  0  0  0  0  0  0
  147.3507  141.6502  154.0145 C   0  0  0  0  0  0  0  0  0  0  0  0
  148.8646  141.3833  154.1213 C   0  0  0  0  0  0  0  0  0  0  0  0
  149.4799  142.2029  155.1589 N   0  0  0  0  0  0  0  0  0  0  0  0
  150.2289  141.7282  156.1648 C   0  0  0  0  0  0  0  0  0  0  0  0
  150.4783  140.5314  156.3124 O   0  0  0  0  0  0  0  0  0  0  0  0
  150.6610  142.7214  156.9620 N   0  0  0  0  0  0  0  0  0  0  0  0
  151.4724  142.6311  158.1283 C   0  0  0  0  0  0  0  0  0  0  0  0
  152.0735  141.4772  158.5133 N   0  0  0  0  0  0  0  0  0  0  0  0
  152.8258  141.4603  159.6324 C   0  0  0  0  0  0  0  0  0  0  0  0
  153.0277  142.5933  160.4389 C   0  0  0  0  0  0  0  0  0  0  0  0
  152.4133  143.7971  160.0539 C   0  0  0  0  0  0  0  0  0  0  0  0
  151.6237  143.8244  158.8846 C   0  0  0  0  0  0  0  0  0  0  0  0
  150.9586  145.1262  158.4672 C   0  0  0  0  0  0  0  0  0  0  0  0
  146.7571  141.7349  156.4263 C   0  0  0  0  0  0  0  0  0  0  0  0
  146.2181  142.6310  157.5565 C   0  0  0  0  0  0  0  0  0  0  0  0
  144.3719  142.3034  159.7674 H   0  0  0  0  0  0  0  0  0  0  0  0
  144.1925  140.9305  158.6552 H   0  0  0  0  0  0  0  0  0  0  0  0
  142.7692  141.7259  159.3204 H   0  0  0  0  0  0  0  0  0  0  0  0
  144.1324  144.5274  155.6664 H   0  0  0  0  0  0  0  0  0  0  0  0
  145.7663  144.8323  156.1643 H   0  0  0  0  0  0  0  0  0  0  0  0
  144.8136  142.4203  154.5253 H   0  0  0  0  0  0  0  0  0  0  0  0
  145.7167  143.7927  153.9122 H   0  0  0  0  0  0  0  0  0  0  0  0
  146.7873  140.7172  153.9630 H   0  0  0  0  0  0  0  0  0  0  0  0
  147.1669  142.1716  153.0737 H   0  0  0  0  0  0  0  0  0  0  0  0
  149.0411  140.3361  154.3682 H   0  0  0  0  0  0  0  0  0  0  0  0
  149.3718  141.5691  153.1741 H   0  0  0  0  0  0  0  0  0  0  0  0
  149.3200  143.1988  155.1113 H   0  0  0  0  0  0  0  0  0  0  0  0
  150.3778  143.6558  156.7068 H   0  0  0  0  0  0  0  0  0  0  0  0
  153.2791  140.5150  159.8921 H   0  0  0  0  0  0  0  0  0  0  0  0
  153.6374  142.5398  161.3287 H   0  0  0  0  0  0  0  0  0  0  0  0
  152.5478  144.6867  160.6517 H   0  0  0  0  0  0  0  0  0  0  0  0
  151.2041  145.9361  159.1549 H   0  0  0  0  0  0  0  0  0  0  0  0
  149.8741  145.0137  158.4555 H   0  0  0  0  0  0  0  0  0  0  0  0
  151.2887  145.4220  157.4710 H   0  0  0  0  0  0  0  0  0  0  0  0
  146.1072  140.8667  156.3046 H   0  0  0  0  0  0  0  0  0  0  0  0
  147.7386  141.3572  156.7099 H   0  0  0  0  0  0  0  0  0  0  0  0
  146.9152  143.4471  157.7528 H   0  0  0  0  0  0  0  0  0  0  0  0
  146.1628  142.0599  158.4842 H   0  0  0  0  0  0  0  0  0  0  0  0
  147.5152  143.2131  155.2762 H   0  0  0  0  0  0  0  0  0  0  0  0
  1  2  1  0  0  0  0
  1 23  1  0  0  0  0
  1 24  1  0  0  0  0
  1 25  1  0  0  0  0
  2  3  2  0  0  0  0
  2  4  1  0  0  0  0
  4 22  1  0  0  0  0
  4  5  1  0  0  0  0
  5  6  1  0  0  0  0
  5 26  1  0  0  0  0
  5 27  1  0  0  0  0
  6  7  1  0  0  0  0
  6 28  1  0  0  0  0
  6 29  1  0  0  0  0
  7  8  1  0  0  0  0
  7 21  1  0  0  0  0
  7 46  1  0  0  0  0
  8  9  1  0  0  0  0
  8 30  1  0  0  0  0
  8 31  1  0  0  0  0
  9 10  1  0  0  0  0
  9 32  1  0  0  0  0
  9 33  1  0  0  0  0
 10 11  1  0  0  0  0
 10 34  1  0  0  0  0
 11 12  2  0  0  0  0
 11 13  1  0  0  0  0
 13 14  1  0  0  0  0
 13 35  1  0  0  0  0
 14 19  1  0  0  0  0
 14 15  2  0  0  0  0
 15 16  1  0  0  0  0
 16 17  2  0  0  0  0
 16 36  1  0  0  0  0
 17 18  1  0  0  0  0
 17 37  1  0  0  0  0
 18 19  2  0  0  0  0
 18 38  1  0  0  0  0
 19 20  1  0  0  0  0
 20 39  1  0  0  0  0
 20 40  1  0  0  0  0
 20 41  1  0  0  0  0
 21 22  1  0  0  0  0
 21 42  1  0  0  0  0
 21 43  1  0  0  0  0
 22 44  1  0  0  0  0
 22 45  1  0  0  0  0
M  CHG  1   7   1
M  END
> <s_m_source_file>
AV-unprocessed.smi

> <i_m_source_file_index>
838

> <i_lp_mmshare_version>
43012

> <i_f3d_flags>
0

> <s_epik_input>
W0NIM11DKD1PKU4xW0NIMl1bQ0gyXU4oW0NIMl1bQ0gyXTEpW0NIMl1bQ0gyXVtOSF1DKD1PKVtOSF1jMm5bY0hdW2NIXVtjSF1jMltDSDNd

> <s_epik_cmdline>
J2VwaWtfcHl0aG9uJywgJy1waCcsICc3LjAnLCAnLXRuJywgJzgnLCAnLW1hJywgJzIwMCcsICctbWV0YWxfYmluZGluZycsICctaW1hZScsICc8aW5maWxlLm1hZT4nLCAnLW9tYWUnLCAnPG91dGZpbGUubWFlPic=

> <r_epik_Ionization_Penalty>
0.630076

> <r_epik_Ionization_Penalty_Charging>
0.630034

> <r_epik_Ionization_Penalty_Neutral>
4.2229e-05

> <r_epik_State_Penalty>
0.646805

> <r_epik_Charging_Adjusted_Penalty>
1.27684

> <i_epik_Tot_Q>
1

> <i_epik_Tot_abs_Q>
1

> <r_epik_Metal_State_Penalty>
0.64681

> <b_epik_Metal_Only>
0

> <s_lp_Force_Field>
OPLS_2005

> <r_lp_Energy>
41.2384

> <b_lp_Chiralities_Consistent>
1

> <s_lp_Variant>
AV-unprocessed.smi:838-2

> <Gold.Version>
5.8.1

> <Gold.Id.Protein>
6NUR|6NUR_protein|mol2

> <Gold.PLP.Fitness>
49.6491

> <Gold.PLP.PLP>
-39.4019

> <Gold.PLP.part.hbond>
-2.9854

> <Gold.PLP.part.metal>
0.0000

> <Gold.PLP.part.buried>
-5.6438

> <Gold.PLP.part.nonpolar>
-31.2428

> <Gold.PLP.part.repulsive>
0.3483

> <Gold.PLP.ligand.clash>
0.0000

> <Gold.PLP.ligand.torsion>
0.5433

> <Gold.PLP.Chemscore.Hbond>
3.7582

> <Gold.PLP.Chemscore.CHOScore>
0.0000

> <Gold.PLP.Chemscore.Metal>
0.0000

> <Gold.Chemscore.Hbonds>
donor molecule, donor type, donor heavy atom, donor atom, acceptor molecule, acceptor atom, score
      L1  H     7    46       P1  8028  1.98
      L1  H    10    34       P1  8028  1.00
      L1  H    13    35       P1  8028  0.72

> <Gold.PLP.Chemscore.Internal.Correction>
0.0593

> <Gold.Rescore>
     Score         DG    S(hbond)    S(metal)    S(lipo)     H(rot)  DE(clash)    DE(int)     intcor
     16.67     -18.59       2.15        0.00      85.34       1.58       0.04       1.89       ----

> <Gold.Chemscore.Fitness>
16.6665

> <Gold.Chemscore.DG>
-18.5911

> <Gold.Chemscore.ZeroCoef>
-5.4800

> <Gold.Chemscore.Hbond>
2.1461

> <Gold.Chemscore.Metal>
0.0000

> <Gold.Chemscore.Lipo>
85.3403

> <Gold.Chemscore.Internal_Hbond>
0.0000

> <Gold.Chemscore.DEClash>
0.0365

> <Gold.Chemscore.DEInternal>
1.8881

> <Gold.Chemscore.Rot>
1.5788

> <Gold.Chemscore.Internal.Correction>
   9.000000E+99

> <Gold.Chemscore.Hbonds>
donor molecule, donor type, donor heavy atom, donor atom, acceptor molecule, acceptor atom, score
      L1  H     7    46       P1  8028  0.24
      L1  H    10    34       P1  8028  0.99
      L1  H    13    35       P1  8028  0.70

> <Gold.Chemscore.Hbond.Weighted>
-7.1680

> <Gold.Chemscore.Metal.Weighted>
-0.0000

> <Gold.Chemscore.Lipo.Weighted>
-9.9848

> <Gold.Chemscore.Internal_Hbond.Weighted>
0.0000

> <Gold.Chemscore.DEClash.Weighted>
0.0365

> <Gold.Chemscore.DEInternal.Weighted>
1.8881

> <Gold.Chemscore.Rot.Weighted>
4.0416

> <Gold.Chemscore.Internal.Correction.Weighted>
   9.000000E+99

> <Gold.Protein.RotatedTorsions>
[ 6907 6896 6895 6894 ] final    7.21 input  -60.11 | X-H torsion
[ 7974 7965 7964 7962 ] final  140.02 input  175.53 | X-H torsion
[ 8008 7997 7996 7995 ] final  131.63 input   59.86 | X-H torsion
[ 10167 10162 10161 10158 ] final  -97.80 input  -65.29 | X-H torsion
[ 10718 10713 10712 10709 ] final  -76.55 input   66.30 | X-H torsion
[ 10763 10752 10751 10750 ] final  154.08 input  -60.55 | X-H torsion
[ 11005 11000 10999 10996 ] final  -72.60 input  -57.11 | X-H torsion

> <Gold.Protein.ActiveResidues>
 VAL166  LYS551  ARG553  GLY616  TRP617  ASP618  TYR619  PRO620  LYS621  CYS622 
 ASP623  PHE694  ASN695  SER759  ASP760  ASP761  ALA762  ILE779  LEU786  VAL792 
 PHE793  MET794  SER795  GLU796  ALA797  LYS798  CYS799  TRP800  GLU811  SER814 

> <Gold.Protein.RotatedAtoms>
  151.6862  135.0954  160.0224 H   0  0  0  0  0  0  0  0  0  0  0  0  # atno 6907 bound_to 6896
  152.3806  133.6536  159.6166 H   0  0  0  0  0  0  0  0  0  0  0  0  # atno 6908 bound_to 6896
  150.7744  133.9037  159.3390 H   0  0  0  0  0  0  0  0  0  0  0  0  # atno 6909 bound_to 6896
  144.9225  139.5149  143.5656 H   0  0  0  0  0  0  0  0  0  0  0  0  # atno 7974 bound_to 7965
  156.2972  140.2566  156.2957 H   0  0  0  0  0  0  0  0  0  0  0  0  # atno 8008 bound_to 7997
  154.9466  140.0395  157.2142 H   0  0  0  0  0  0  0  0  0  0  0  0  # atno 8009 bound_to 7997
  154.8075  140.2839  155.5881 H   0  0  0  0  0  0  0  0  0  0  0  0  # atno 8010 bound_to 7997
  140.2796  143.3291  152.0454 H   0  0  0  0  0  0  0  0  0  0  0  0  # atno 10167 bound_to 10162
  156.0172  130.4468  150.3210 H   0  0  0  0  0  0  0  0  0  0  0  0  # atno 10718 bound_to 10713
  154.1466  135.2817  155.3147 H   0  0  0  0  0  0  0  0  0  0  0  0  # atno 10763 bound_to 10752
  154.6248  135.5455  153.7618 H   0  0  0  0  0  0  0  0  0  0  0  0  # atno 10764 bound_to 10752
  153.0234  135.6448  154.1611 H   0  0  0  0  0  0  0  0  0  0  0  0  # atno 10765 bound_to 10752
  141.1611  133.6852  156.7084 H   0  0  0  0  0  0  0  0  0  0  0  0  # atno 11005 bound_to 11000
  146.3211  139.8115  142.8945 LP  0  0  0  0  0  0  0  0  0  0  0  0  # atno 17320 bound_to 7965
  145.3273  141.0258  143.3466 LP  0  0  0  0  0  0  0  0  0  0  0  0  # atno 17321 bound_to 7965
  139.4966  144.6601  151.6484 LP  0  0  0  0  0  0  0  0  0  0  0  0  # atno 17342 bound_to 10162
  140.5823  143.9925  150.6275 LP  0  0  0  0  0  0  0  0  0  0  0  0  # atno 17343 bound_to 10162
  157.1310  131.0272  151.2969 LP  0  0  0  0  0  0  0  0  0  0  0  0  # atno 17370 bound_to 10713
  157.4550  130.7620  149.7185 LP  0  0  0  0  0  0  0  0  0  0  0  0  # atno 17371 bound_to 10713
  140.2906  134.8244  157.4013 LP  0  0  0  0  0  0  0  0  0  0  0  0  # atno 17394 bound_to 11000
  140.1350  134.5045  155.8075 LP  0  0  0  0  0  0  0  0  0  0  0  0  # atno 17395 bound_to 11000

$$$$
