AV-unprocessed.smi:582|AV-procd|sdf|2995|dock3
  -GOLD-   2262023503D 1   1.00000     0.00000
 Structure written by MMmdl.
 26 27  0  0  0  0  0  0  0  0  2 V2000
  151.5923  135.8482  156.1141 O   0  0  0  0  0  0  0  0  0  0  0  0
  150.9846  136.3855  157.0669 C   0  0  0  0  0  0  0  0  0  0  0  0
  150.1229  135.7777  157.7401 O   0  5  0  0  0  0  0  0  0  0  0  0
  151.3020  137.8129  157.4142 C   0  0  0  0  0  0  0  0  0  0  0  0
  150.6960  138.4481  158.5210 C   0  0  0  0  0  0  0  0  0  0  0  0
  151.0244  139.7869  158.8090 C   0  0  0  0  0  0  0  0  0  0  0  0
  151.9502  140.4516  157.9795 C   0  0  0  0  0  0  0  0  0  0  0  0
  152.2819  141.7839  158.2628 N   0  0  0  0  0  0  0  0  0  0  0  0
  151.3549  142.7467  157.6815 C   0  0  0  0  0  0  0  0  0  0  0  0
  151.8583  144.1785  157.9325 C   0  0  0  0  0  0  0  0  0  0  0  0
  152.0462  144.3815  159.3304 O   0  0  0  0  0  0  0  0  0  0  0  0
  153.0073  143.4830  159.8779 C   0  0  0  0  0  0  0  0  0  0  0  0
  152.5319  142.0339  159.6770 C   0  0  0  0  0  0  0  0  0  0  0  0
  152.5370  139.8531  156.9161 N   0  0  0  0  0  0  0  0  0  0  0  0
  152.2174  138.5685  156.6463 C   0  0  0  0  0  0  0  0  0  0  0  0
  149.9878  137.9265  159.1481 H   0  0  0  0  0  0  0  0  0  0  0  0
  150.5724  140.2906  159.6508 H   0  0  0  0  0  0  0  0  0  0  0  0
  151.2572  142.5655  156.6103 H   0  0  0  0  0  0  0  0  0  0  0  0
  150.3653  142.6199  158.1227 H   0  0  0  0  0  0  0  0  0  0  0  0
  152.7925  144.3614  157.3990 H   0  0  0  0  0  0  0  0  0  0  0  0
  151.1327  144.9029  157.5624 H   0  0  0  0  0  0  0  0  0  0  0  0
  153.9789  143.6422  159.4076 H   0  0  0  0  0  0  0  0  0  0  0  0
  153.1283  143.6956  160.9401 H   0  0  0  0  0  0  0  0  0  0  0  0
  151.6199  141.8614  160.2505 H   0  0  0  0  0  0  0  0  0  0  0  0
  153.2843  141.3369  160.0479 H   0  0  0  0  0  0  0  0  0  0  0  0
  152.7145  138.1408  155.7879 H   0  0  0  0  0  0  0  0  0  0  0  0
  1  2  2  0  0  0  0
  2  3  1  0  0  0  0
  2  4  1  0  0  0  0
  4 15  1  0  0  0  0
  4  5  2  0  0  0  0
  5  6  1  0  0  0  0
  5 16  1  0  0  0  0
  6  7  2  0  0  0  0
  6 17  1  0  0  0  0
  7  8  1  0  0  0  0
  7 14  1  0  0  0  0
  8 13  1  0  0  0  0
  8  9  1  0  0  0  0
  9 10  1  0  0  0  0
  9 18  1  0  0  0  0
  9 19  1  0  0  0  0
 10 11  1  0  0  0  0
 10 20  1  0  0  0  0
 10 21  1  0  0  0  0
 11 12  1  0  0  0  0
 12 13  1  0  0  0  0
 12 22  1  0  0  0  0
 12 23  1  0  0  0  0
 13 24  1  0  0  0  0
 13 25  1  0  0  0  0
 14 15  2  0  0  0  0
 15 26  1  0  0  0  0
M  CHG  1   3  -1
M  END
> <s_m_source_file>
AV-unprocessed.smi

> <i_m_source_file_index>
582

> <i_lp_mmshare_version>
43012

> <i_f3d_flags>
0

> <s_epik_input>
Tz1DKFtPSF0pYzFbY0hdW2NIXWMobltjSF0xKU4yW0NIMl1bQ0gyXU9bQ0gyXVtDSDJdMg==

> <s_epik_cmdline>
J2VwaWtfcHl0aG9uJywgJy1waCcsICc3LjAnLCAnLXRuJywgJzgnLCAnLW1hJywgJzIwMCcsICctbWV0YWxfYmluZGluZycsICctaW1hZScsICc8aW5maWxlLm1hZT4nLCAnLW9tYWUnLCAnPG91dGZpbGUubWFlPic=

> <r_epik_Ionization_Penalty>
0.00875305

> <r_epik_Ionization_Penalty_Charging>
0.000191694

> <r_epik_Ionization_Penalty_Neutral>
0.00856136

> <r_epik_State_Penalty>
0.00645777

> <r_epik_Charging_Adjusted_Penalty>
0.00664946

> <i_epik_Tot_Q>
-1

> <i_epik_Tot_abs_Q>
1

> <r_epik_Metal_State_Penalty>
6.49305e-06

> <b_epik_Metal_Only>
0

> <s_lp_Force_Field>
OPLS_2005

> <r_lp_Energy>
18.8372

> <b_lp_Chiralities_Consistent>
1

> <s_lp_Variant>
AV-unprocessed.smi:582-1

> <Gold.Version>
5.8.1

> <Gold.Id.Protein>
6NUR|6NUR_protein|mol2

> <Gold.PLP.Fitness>
37.2954

> <Gold.PLP.PLP>
-24.7358

> <Gold.PLP.part.hbond>
-3.0000

> <Gold.PLP.part.metal>
0.0000

> <Gold.PLP.part.buried>
-4.0877

> <Gold.PLP.part.nonpolar>
-17.9809

> <Gold.PLP.part.repulsive>
0.0284

> <Gold.PLP.ligand.clash>
0.0000

> <Gold.PLP.ligand.torsion>
0.5546

> <Gold.PLP.Chemscore.Hbond>
4.5226

> <Gold.PLP.Chemscore.CHOScore>
0.0000

> <Gold.PLP.Chemscore.Metal>
0.0000

> <Gold.Chemscore.Hbonds>
donor molecule, donor type, donor heavy atom, donor atom, acceptor molecule, acceptor atom, score
      P1  H  6896  6907       L1     3  0.83
      P1  H  7997  8008       L1    14  1.00
      P1  H 10752 10765       L1     1  2.00

> <Gold.PLP.Chemscore.Internal.Correction>
0.1011

> <Gold.Rescore>
     Score         DG    S(hbond)    S(metal)    S(lipo)     H(rot)  DE(clash)    DE(int)     intcor
     18.35     -18.87       2.56        0.00      63.07       1.00       0.00       0.52       ----

> <Gold.Chemscore.Fitness>
18.3490

> <Gold.Chemscore.DG>
-18.8659

> <Gold.Chemscore.ZeroCoef>
-5.4800

> <Gold.Chemscore.Hbond>
2.5648

> <Gold.Chemscore.Metal>
0.0000

> <Gold.Chemscore.Lipo>
63.0727

> <Gold.Chemscore.Internal_Hbond>
0.0000

> <Gold.Chemscore.DEClash>
0.0000

> <Gold.Chemscore.DEInternal>
0.5169

> <Gold.Chemscore.Rot>
1.0000

> <Gold.Chemscore.Internal.Correction>
   9.000000E+99

> <Gold.Chemscore.Hbonds>
donor molecule, donor type, donor heavy atom, donor atom, acceptor molecule, acceptor atom, score
      P1  H  6896  6907       L1     3  0.40
      P1  H  7997  8008       L1    14  0.65
      P1  H 10752 10765       L1     1  1.00

> <Gold.Chemscore.Hbond.Weighted>
-8.5664

> <Gold.Chemscore.Metal.Weighted>
-0.0000

> <Gold.Chemscore.Lipo.Weighted>
-7.3795

> <Gold.Chemscore.Internal_Hbond.Weighted>
0.0000

> <Gold.Chemscore.DEClash.Weighted>
0.0000

> <Gold.Chemscore.DEInternal.Weighted>
0.5169

> <Gold.Chemscore.Rot.Weighted>
2.5600

> <Gold.Chemscore.Internal.Correction.Weighted>
   9.000000E+99

> <Gold.Protein.RotatedTorsions>
[ 6907 6896 6895 6894 ] final  -66.98 input  -60.11 | X-H torsion
[ 7974 7965 7964 7962 ] final  113.27 input  175.53 | X-H torsion
[ 8008 7997 7996 7995 ] final  -50.27 input   59.86 | X-H torsion
[ 10167 10162 10161 10158 ] final -178.05 input  -65.29 | X-H torsion
[ 10718 10713 10712 10709 ] final   46.74 input   66.30 | X-H torsion
[ 10763 10752 10751 10750 ] final -161.39 input  -60.55 | X-H torsion
[ 11005 11000 10999 10996 ] final -131.12 input  -57.11 | X-H torsion

> <Gold.Protein.ActiveResidues>
 VAL166  LYS551  ARG553  GLY616  TRP617  ASP618  TYR619  PRO620  LYS621  CYS622 
 ASP623  PHE694  ASN695  SER759  ASP760  ASP761  ALA762  ILE779  LEU786  VAL792 
 PHE793  MET794  SER795  GLU796  ALA797  LYS798  CYS799  TRP800  GLU811  SER814 

> <Gold.Protein.RotatedAtoms>
  150.7435  134.5945  159.6004 H   0  0  0  0  0  0  0  0  0  0  0  0  # atno 6907 bound_to 6896
  152.3324  134.7239  160.0295 H   0  0  0  0  0  0  0  0  0  0  0  0  # atno 6908 bound_to 6896
  151.7719  133.3306  159.3483 H   0  0  0  0  0  0  0  0  0  0  0  0  # atno 6909 bound_to 6896
  145.2191  139.2870  143.4228 H   0  0  0  0  0  0  0  0  0  0  0  0  # atno 7974 bound_to 7965
  154.4059  140.1276  156.4639 H   0  0  0  0  0  0  0  0  0  0  0  0  # atno 8008 bound_to 7997
  155.7246  140.3492  155.5012 H   0  0  0  0  0  0  0  0  0  0  0  0  # atno 8009 bound_to 7997
  155.9183  140.1048  157.1217 H   0  0  0  0  0  0  0  0  0  0  0  0  # atno 8010 bound_to 7997
  139.5451  144.2258  152.0971 H   0  0  0  0  0  0  0  0  0  0  0  0  # atno 10167 bound_to 10162
  157.4512  130.8139  149.7790 H   0  0  0  0  0  0  0  0  0  0  0  0  # atno 10718 bound_to 10713
  154.7307  135.3046  154.8895 H   0  0  0  0  0  0  0  0  0  0  0  0  # atno 10763 bound_to 10752
  153.9739  135.6738  153.4752 H   0  0  0  0  0  0  0  0  0  0  0  0  # atno 10764 bound_to 10752
  153.0916  135.4956  154.8621 H   0  0  0  0  0  0  0  0  0  0  0  0  # atno 10765 bound_to 10752
  140.9286  134.1349  157.4254 H   0  0  0  0  0  0  0  0  0  0  0  0  # atno 11005 bound_to 11000
  146.3380  140.2491  142.8598 LP  0  0  0  0  0  0  0  0  0  0  0  0  # atno 17320 bound_to 7965
  144.9782  140.8434  143.5413 LP  0  0  0  0  0  0  0  0  0  0  0  0  # atno 17321 bound_to 7965
  140.1743  144.4905  150.6562 LP  0  0  0  0  0  0  0  0  0  0  0  0  # atno 17342 bound_to 10162
  140.6696  143.2280  151.5659 LP  0  0  0  0  0  0  0  0  0  0  0  0  # atno 17343 bound_to 10162
  155.9988  130.3892  150.2688 LP  0  0  0  0  0  0  0  0  0  0  0  0  # atno 17370 bound_to 10713
  157.0860  131.0156  151.3139 LP  0  0  0  0  0  0  0  0  0  0  0  0  # atno 17371 bound_to 10713
  139.8791  134.9997  156.5969 LP  0  0  0  0  0  0  0  0  0  0  0  0  # atno 17394 bound_to 11000
  140.7893  133.8596  155.8632 LP  0  0  0  0  0  0  0  0  0  0  0  0  # atno 17395 bound_to 11000

$$$$
