AV-unprocessed.smi:2047|AV-procd|sdf|8319|dock4
  -GOLD-   2272010583D 1   1.00000     0.00000
 Structure written by MMmdl.
 42 44  0  0  0  0  0  0  0  0  3 V2000
  149.7642  135.8908  158.8039 O   0  0  0  0  0  0  0  0  0  0  0  0
  149.4428  136.9679  159.3188 C   0  0  0  0  0  0  0  0  0  0  0  0
  149.8917  138.1261  158.8058 N   0  0  0  0  0  0  0  0  0  0  0  0
  150.7394  138.3371  157.6820 C   0  0  0  0  0  0  0  0  0  0  0  0
  150.8791  137.3675  156.6571 C   0  0  0  0  0  0  0  0  0  0  0  0
  151.7377  137.6179  155.5695 C   0  0  0  0  0  0  0  0  0  0  0  0
  152.4518  138.8285  155.5293 C   0  0  0  0  0  0  0  0  0  0  0  0
  152.3118  139.7219  156.5307 N   0  3  0  0  0  0  0  0  0  0  0  0
  151.5001  139.5355  157.6014 C   0  0  0  0  0  0  0  0  0  0  0  0
  151.4536  140.5279  158.6040 N   0  0  0  0  0  0  0  0  0  0  0  0
  152.6754  140.6423  159.3968 C   0  0  0  0  0  0  0  0  0  0  0  0
  152.8656  142.1321  159.6909 C   0  0  0  0  0  0  0  0  0  0  0  0
  152.1443  142.8103  158.5328 C   0  0  0  0  0  0  0  0  0  0  0  0
  150.9686  141.8686  158.2816 C   0  0  0  0  0  0  0  0  0  0  0  0
  148.6332  137.1685  160.3926 N   0  5  0  0  0  0  0  0  0  0  0  0
  147.4078  136.4142  160.6710 C   0  0  2  0  0  0  0  0  0  0  0  0
  147.2406  136.1811  162.1856 C   0  0  0  0  0  0  0  0  0  0  0  0
  146.1651  135.1070  162.4019 C   0  0  0  0  0  0  0  0  0  0  0  0
  146.2956  133.9752  160.9637 S   0  0  0  0  0  0  0  0  0  0  0  0
  147.0060  132.7506  161.3648 O   0  0  0  0  0  0  0  0  0  0  0  0
  144.9880  133.9007  160.2931 O   0  0  0  0  0  0  0  0  0  0  0  0
  147.4335  135.0370  159.9893 C   0  0  0  0  0  0  0  0  0  0  0  0
  149.4948  138.9582  159.2165 H   0  0  0  0  0  0  0  0  0  0  0  0
  150.3475  136.4288  156.6959 H   0  0  0  0  0  0  0  0  0  0  0  0
  151.8492  136.8881  154.7811 H   0  0  0  0  0  0  0  0  0  0  0  0
  153.1336  139.1039  154.7378 H   0  0  0  0  0  0  0  0  0  0  0  0
  152.6031  140.0652  160.3190 H   0  0  0  0  0  0  0  0  0  0  0  0
  153.5272  140.2621  158.8302 H   0  0  0  0  0  0  0  0  0  0  0  0
  152.3748  142.3893  160.6307 H   0  0  0  0  0  0  0  0  0  0  0  0
  153.9146  142.4187  159.7686 H   0  0  0  0  0  0  0  0  0  0  0  0
  151.8319  143.8297  158.7606 H   0  0  0  0  0  0  0  0  0  0  0  0
  152.7929  142.8402  157.6561 H   0  0  0  0  0  0  0  0  0  0  0  0
  150.5692  141.9806  157.2740 H   0  0  0  0  0  0  0  0  0  0  0  0
  150.1554  142.0997  158.9705 H   0  0  0  0  0  0  0  0  0  0  0  0
  146.5162  136.9416  160.3277 H   0  0  0  0  0  0  0  0  0  0  0  0
  148.1811  135.8192  162.6040 H   0  0  0  0  0  0  0  0  0  0  0  0
  146.9923  137.1033  162.7119 H   0  0  0  0  0  0  0  0  0  0  0  0
  146.3035  134.5532  163.3302 H   0  0  0  0  0  0  0  0  0  0  0  0
  145.1643  135.5417  162.4040 H   0  0  0  0  0  0  0  0  0  0  0  0
  147.1157  135.0743  158.9473 H   0  0  0  0  0  0  0  0  0  0  0  0
  148.4263  134.5883  160.0355 H   0  0  0  0  0  0  0  0  0  0  0  0
  152.8519  140.5857  156.4820 H   0  0  0  0  0  0  0  0  0  0  0  0
  1  2  2  0  0  0  0
  2  3  1  0  0  0  0
  2 15  1  0  0  0  0
  3  4  1  0  0  0  0
  3 23  1  0  0  0  0
  4  9  1  0  0  0  0
  4  5  2  0  0  0  0
  5  6  1  0  0  0  0
  5 24  1  0  0  0  0
  6  7  2  0  0  0  0
  6 25  1  0  0  0  0
  7  8  1  0  0  0  0
  7 26  1  0  0  0  0
  8  9  2  0  0  0  0
  8 42  1  0  0  0  0
  9 10  1  0  0  0  0
 10 14  1  0  0  0  0
 10 11  1  0  0  0  0
 11 12  1  0  0  0  0
 11 27  1  0  0  0  0
 11 28  1  0  0  0  0
 12 13  1  0  0  0  0
 12 29  1  0  0  0  0
 12 30  1  0  0  0  0
 13 14  1  0  0  0  0
 13 31  1  0  0  0  0
 13 32  1  0  0  0  0
 14 33  1  0  0  0  0
 14 34  1  0  0  0  0
 15 16  1  0  0  0  0
 16 22  1  0  0  0  0
 16 17  1  0  0  0  0
 16 35  1  0  0  0  0
 17 18  1  0  0  0  0
 17 36  1  0  0  0  0
 17 37  1  0  0  0  0
 18 19  1  0  0  0  0
 18 38  1  0  0  0  0
 18 39  1  0  0  0  0
 19 20  2  0  0  0  0
 19 21  2  0  0  0  0
 19 22  1  0  0  0  0
 22 40  1  0  0  0  0
 22 41  1  0  0  0  0
M  CHG  1   8   1
M  CHG  1  15  -1
M  END
> <s_m_source_file>
AV-unprocessed.smi

> <i_m_source_file_index>
2047

> <i_lp_mmshare_version>
43012

> <i_f3d_flags>
0

> <s_epik_input>
Tz1TMSg9TylbQ0gyXVtDSDJdW0NASF0oW0NIMl0xKVtOSF1DKD1PKVtOSF1jMltjSF1bY0hdW2NIXW5jMk4zW0NIMl1bQ0gyXVtDSDJdW0NIMl0z

> <s_epik_cmdline>
J2VwaWtfcHl0aG9uJywgJy1waCcsICc3LjAnLCAnLXRuJywgJzgnLCAnLW1hJywgJzIwMCcsICctbWV0YWxfYmluZGluZycsICctaW1hZScsICc8aW5maWxlLm1hZT4nLCAnLW9tYWUnLCAnPG91dGZpbGUubWFlPic=

> <r_lp_tautomer_probability>
0.999994

> <r_epik_Ionization_Penalty>
8.27033

> <r_epik_Ionization_Penalty_Charging>
8.27033

> <r_epik_Ionization_Penalty_Neutral>
3.23223e-06

> <r_epik_State_Penalty>
7.90314

> <r_epik_Charging_Adjusted_Penalty>
16.1735

> <i_epik_Tot_Q>
0

> <i_epik_Tot_abs_Q>
2

> <r_epik_Metal_State_Penalty>
3.89381

> <b_epik_Metal_Only>
1

> <s_lp_Force_Field>
OPLS_2005

> <r_lp_Energy>
38.7939

> <b_lp_Chiralities_Consistent>
1

> <s_lp_Variant>
AV-unprocessed.smi:2047-5

> <Gold.Version>
5.8.1

> <Gold.Id.Protein>
6NUR|6NUR_protein|mol2

> <Gold.PLP.Fitness>
43.2100

> <Gold.PLP.PLP>
-37.3415

> <Gold.PLP.part.hbond>
-2.4100

> <Gold.PLP.part.metal>
0.0000

> <Gold.PLP.part.buried>
-6.9601

> <Gold.PLP.part.nonpolar>
-29.8799

> <Gold.PLP.part.repulsive>
0.3613

> <Gold.PLP.ligand.clash>
0.0000

> <Gold.PLP.ligand.torsion>
0.8513

> <Gold.PLP.Chemscore.Hbond>
2.4640

> <Gold.PLP.Chemscore.CHOScore>
0.0000

> <Gold.PLP.Chemscore.Metal>
0.0000

> <Gold.Chemscore.Hbonds>
donor molecule, donor type, donor heavy atom, donor atom, acceptor molecule, acceptor atom, score
      P1  H  6896  6909       L1     1  1.00
      P1  H  6931  6943       L1    15  1.34
      P1  H  6934  6947       L1    15  0.01

> <Gold.PLP.Chemscore.Internal.Correction>
0.1791

> <Gold.Rescore>
     Score         DG    S(hbond)    S(metal)    S(lipo)     H(rot)  DE(clash)    DE(int)     intcor
     14.42     -18.02       1.82        0.00      82.47       1.25       0.03       3.58       ----

> <Gold.Chemscore.Fitness>
14.4203

> <Gold.Chemscore.DG>
-18.0224

> <Gold.Chemscore.ZeroCoef>
-5.4800

> <Gold.Chemscore.Hbond>
1.8230

> <Gold.Chemscore.Metal>
0.0000

> <Gold.Chemscore.Lipo>
82.4663

> <Gold.Chemscore.Internal_Hbond>
0.0000

> <Gold.Chemscore.DEClash>
0.0262

> <Gold.Chemscore.DEInternal>
3.5759

> <Gold.Chemscore.Rot>
1.2480

> <Gold.Chemscore.Internal.Correction>
   9.000000E+99

> <Gold.Chemscore.Hbonds>
donor molecule, donor type, donor heavy atom, donor atom, acceptor molecule, acceptor atom, score
      P1  H  6896  6909       L1     1  0.96
      P1  H  6931  6943       L1    15  0.50

> <Gold.Chemscore.Hbond.Weighted>
-6.0887

> <Gold.Chemscore.Metal.Weighted>
-0.0000

> <Gold.Chemscore.Lipo.Weighted>
-9.6486

> <Gold.Chemscore.Internal_Hbond.Weighted>
0.0000

> <Gold.Chemscore.DEClash.Weighted>
0.0262

> <Gold.Chemscore.DEInternal.Weighted>
3.5759

> <Gold.Chemscore.Rot.Weighted>
3.1948

> <Gold.Chemscore.Internal.Correction.Weighted>
   9.000000E+99

> <Gold.Protein.RotatedTorsions>
[ 6907 6896 6895 6894 ] final   45.90 input  -60.11 | X-H torsion
[ 7974 7965 7964 7962 ] final -155.35 input  175.53 | X-H torsion
[ 8008 7997 7996 7995 ] final  -64.87 input   59.86 | X-H torsion
[ 10167 10162 10161 10158 ] final    1.50 input  -65.29 | X-H torsion
[ 10718 10713 10712 10709 ] final    6.02 input   66.30 | X-H torsion
[ 10763 10752 10751 10750 ] final   39.12 input  -60.55 | X-H torsion
[ 11005 11000 10999 10996 ] final   83.57 input  -57.11 | X-H torsion

> <Gold.Protein.ActiveResidues>
 VAL166  LYS551  ARG553  GLY616  TRP617  ASP618  TYR619  PRO620  LYS621  CYS622 
 ASP623  PHE694  ASN695  SER759  ASP760  ASP761  ALA762  ILE779  LEU786  VAL792 
 PHE793  MET794  SER795  GLU796  ALA797  LYS798  CYS799  TRP800  GLU811  SER814 

> <Gold.Protein.RotatedAtoms>
  152.2501  134.8141  160.0447 H   0  0  0  0  0  0  0  0  0  0  0  0  # atno 6907 bound_to 6896
  151.8825  133.3493  159.3779 H   0  0  0  0  0  0  0  0  0  0  0  0  # atno 6908 bound_to 6896
  150.7081  134.4931  159.5569 H   0  0  0  0  0  0  0  0  0  0  0  0  # atno 6909 bound_to 6896
  144.7644  140.4261  143.5953 H   0  0  0  0  0  0  0  0  0  0  0  0  # atno 7974 bound_to 7965
  154.4637  140.0945  156.6963 H   0  0  0  0  0  0  0  0  0  0  0  0  # atno 8008 bound_to 7997
  155.4920  140.3471  155.4338 H   0  0  0  0  0  0  0  0  0  0  0  0  # atno 8009 bound_to 7997
  156.0917  140.1399  156.9571 H   0  0  0  0  0  0  0  0  0  0  0  0  # atno 8010 bound_to 7997
  140.6680  143.7127  150.7865 H   0  0  0  0  0  0  0  0  0  0  0  0  # atno 10167 bound_to 10162
  156.9161  130.5774  149.5647 H   0  0  0  0  0  0  0  0  0  0  0  0  # atno 10718 bound_to 10713
  152.9978  135.6230  154.2414 H   0  0  0  0  0  0  0  0  0  0  0  0  # atno 10763 bound_to 10752
  154.2154  135.2798  155.2945 H   0  0  0  0  0  0  0  0  0  0  0  0  # atno 10764 bound_to 10752
  154.5572  135.5716  153.7033 H   0  0  0  0  0  0  0  0  0  0  0  0  # atno 10765 bound_to 10752
  139.9027  134.8154  156.2328 H   0  0  0  0  0  0  0  0  0  0  0  0  # atno 11005 bound_to 11000
  145.6516  139.1566  143.2859 LP  0  0  0  0  0  0  0  0  0  0  0  0  # atno 17320 bound_to 7965
  146.1738  140.6604  142.9221 LP  0  0  0  0  0  0  0  0  0  0  0  0  # atno 17321 bound_to 7965
  140.0808  143.4971  152.2531 LP  0  0  0  0  0  0  0  0  0  0  0  0  # atno 17342 bound_to 10162
  139.5936  144.7559  151.3341 LP  0  0  0  0  0  0  0  0  0  0  0  0  # atno 17343 bound_to 10162
  156.0513  130.5582  150.8995 LP  0  0  0  0  0  0  0  0  0  0  0  0  # atno 17370 bound_to 10713
  157.5937  131.0943  150.9076 LP  0  0  0  0  0  0  0  0  0  0  0  0  # atno 17371 bound_to 10713
  141.0335  133.6976  156.1471 LP  0  0  0  0  0  0  0  0  0  0  0  0  # atno 17394 bound_to 11000
  140.7062  134.4511  157.5584 LP  0  0  0  0  0  0  0  0  0  0  0  0  # atno 17395 bound_to 11000

$$$$
