AV-unprocessed.smi:2095|AV-procd|sdf|8560|dock3
  -GOLD-   2272011283D 1   1.00000     0.00000
 Structure written by MMmdl.
 42 43  0  0  0  0  0  0  0  0  2 V2000
  147.8776  133.7406  154.0711 C   0  0  0  0  0  0  0  0  0  0  0  0
  146.3992  133.7561  153.6435 C   0  0  2  0  0  0  0  0  0  0  0  0
  146.1028  132.7784  152.4905 C   0  0  0  0  0  0  0  0  0  0  0  0
  146.6433  133.3080  151.1537 C   0  0  0  0  0  0  0  0  0  0  0  0
  146.1267  134.7282  150.8761 C   0  0  0  0  0  0  0  0  0  0  0  0
  146.4765  135.6436  151.9961 N   0  3  1  0  0  0  0  0  0  0  0  0
  146.2407  137.0937  151.7359 C   0  0  1  0  0  0  0  0  0  0  0  0
  144.7361  137.3775  151.5665 C   0  0  0  0  0  0  0  0  0  0  0  0
  146.9048  138.0181  152.7877 C   0  0  0  0  0  0  0  0  0  0  0  0
  148.3613  137.9549  152.7382 N   0  0  0  0  0  0  0  0  0  0  0  0
  149.1876  138.7344  153.4536 C   0  0  0  0  0  0  0  0  0  0  0  0
  148.7921  139.5912  154.2436 O   0  0  0  0  0  0  0  0  0  0  0  0
  150.6875  138.5072  153.2591 C   0  0  0  0  0  0  0  0  0  0  0  0
  151.3839  138.4604  154.5314 N   0  0  0  0  0  0  0  0  0  0  0  0
  151.2043  137.6842  155.6022 C   0  0  0  0  0  0  0  0  0  0  0  0
  152.0581  137.9822  156.5697 N   0  0  0  0  0  0  0  0  0  0  0  0
  152.8022  139.0160  156.0264 N   0  0  0  0  0  0  0  0  0  0  0  0
  152.4071  139.3041  154.8168 N   0  0  0  0  0  0  0  0  0  0  0  0
  145.9087  135.1756  153.2897 C   0  0  0  0  0  0  0  0  0  0  0  0
  148.5369  134.0876  153.2754 H   0  0  0  0  0  0  0  0  0  0  0  0
  148.1941  132.7346  154.3479 H   0  0  0  0  0  0  0  0  0  0  0  0
  148.0410  134.3832  154.9366 H   0  0  0  0  0  0  0  0  0  0  0  0
  145.8271  133.4196  154.5092 H   0  0  0  0  0  0  0  0  0  0  0  0
  146.5199  131.7938  152.7053 H   0  0  0  0  0  0  0  0  0  0  0  0
  145.0239  132.6402  152.4071 H   0  0  0  0  0  0  0  0  0  0  0  0
  147.7338  133.3070  151.1635 H   0  0  0  0  0  0  0  0  0  0  0  0
  146.3453  132.6406  150.3447 H   0  0  0  0  0  0  0  0  0  0  0  0
  146.5564  135.0865  149.9412 H   0  0  0  0  0  0  0  0  0  0  0  0
  145.0447  134.7002  150.7401 H   0  0  0  0  0  0  0  0  0  0  0  0
  146.6905  137.3110  150.7662 H   0  0  0  0  0  0  0  0  0  0  0  0
  144.5639  138.3882  151.1958 H   0  0  0  0  0  0  0  0  0  0  0  0
  144.1941  137.2806  152.5070 H   0  0  0  0  0  0  0  0  0  0  0  0
  144.2855  136.6917  150.8485 H   0  0  0  0  0  0  0  0  0  0  0  0
  146.6256  139.0573  152.6134 H   0  0  0  0  0  0  0  0  0  0  0  0
  146.5676  137.7739  153.7958 H   0  0  0  0  0  0  0  0  0  0  0  0
  148.7709  137.2773  152.1105 H   0  0  0  0  0  0  0  0  0  0  0  0
  150.8586  137.5670  152.7329 H   0  0  0  0  0  0  0  0  0  0  0  0
  151.1076  139.3036  152.6431 H   0  0  0  0  0  0  0  0  0  0  0  0
  150.4528  136.9117  155.6736 H   0  0  0  0  0  0  0  0  0  0  0  0
  144.8197  135.1814  153.2300 H   0  0  0  0  0  0  0  0  0  0  0  0
  146.1788  135.8625  154.0929 H   0  0  0  0  0  0  0  0  0  0  0  0
  147.4769  135.5636  152.1110 H   0  0  0  0  0  0  0  0  0  0  0  0
  1  2  1  0  0  0  0
  1 20  1  0  0  0  0
  1 21  1  0  0  0  0
  1 22  1  0  0  0  0
  2 19  1  0  0  0  0
  2  3  1  0  0  0  0
  2 23  1  0  0  0  0
  3  4  1  0  0  0  0
  3 24  1  0  0  0  0
  3 25  1  0  0  0  0
  4  5  1  0  0  0  0
  4 26  1  0  0  0  0
  4 27  1  0  0  0  0
  5  6  1  0  0  0  0
  5 28  1  0  0  0  0
  5 29  1  0  0  0  0
  6  7  1  0  0  0  0
  6 19  1  0  0  0  0
  6 42  1  0  0  0  0
  7  8  1  0  0  0  0
  7  9  1  0  0  0  0
  7 30  1  0  0  0  0
  8 31  1  0  0  0  0
  8 32  1  0  0  0  0
  8 33  1  0  0  0  0
  9 10  1  0  0  0  0
  9 34  1  0  0  0  0
  9 35  1  0  0  0  0
 10 11  1  0  0  0  0
 10 36  1  0  0  0  0
 11 12  2  0  0  0  0
 11 13  1  0  0  0  0
 13 14  1  0  0  0  0
 13 37  1  0  0  0  0
 13 38  1  0  0  0  0
 14 18  1  0  0  0  0
 14 15  1  0  0  0  0
 15 16  2  0  0  0  0
 15 39  1  0  0  0  0
 16 17  1  0  0  0  0
 17 18  2  0  0  0  0
 19 40  1  0  0  0  0
 19 41  1  0  0  0  0
M  CHG  1   6   1
M  END
> <s_m_source_file>
AV-unprocessed.smi

> <i_m_source_file_index>
2095

> <i_lp_mmshare_version>
43012

> <i_f3d_flags>
0

> <s_epik_input>
W0NIM11bQ0BASF0xW0NIMl1bQ0gyXVtDSDJdTihbQ0gyXTEpW0NASF0oW0NIM10pW0NIMl1bTkhdQyg9TylbQ0gyXW4yW2NIXW5ubjI=

> <s_epik_cmdline>
J2VwaWtfcHl0aG9uJywgJy1waCcsICc3LjAnLCAnLXRuJywgJzgnLCAnLW1hJywgJzIwMCcsICctbWV0YWxfYmluZGluZycsICctaW1hZScsICc8aW5maWxlLm1hZT4nLCAnLW9tYWUnLCAnPG91dGZpbGUubWFlPic=

> <r_lp_tautomer_probability>
1

> <r_epik_Ionization_Penalty>
0.00268321

> <r_epik_Ionization_Penalty_Charging>
0.00267875

> <r_epik_Ionization_Penalty_Neutral>
4.46125e-06

> <r_epik_State_Penalty>
0.00186642

> <r_epik_Charging_Adjusted_Penalty>
0.00454517

> <i_epik_Tot_Q>
1

> <i_epik_Tot_abs_Q>
1

> <r_epik_Metal_State_Penalty>
-0

> <b_epik_Metal_Only>
0

> <s_lp_Force_Field>
OPLS_2005

> <r_lp_Energy>
24.9707

> <b_lp_Chiralities_Consistent>
1

> <s_lp_Variant>
AV-unprocessed.smi:2095-7

> <Gold.Version>
5.8.1

> <Gold.Id.Protein>
6NUR|6NUR_protein|mol2

> <Gold.PLP.Fitness>
40.1143

> <Gold.PLP.PLP>
-25.7780

> <Gold.PLP.part.hbond>
-4.0000

> <Gold.PLP.part.metal>
0.0000

> <Gold.PLP.part.buried>
-2.8155

> <Gold.PLP.part.nonpolar>
-19.8800

> <Gold.PLP.part.repulsive>
0.1234

> <Gold.PLP.ligand.clash>
0.0000

> <Gold.PLP.ligand.torsion>
0.3137

> <Gold.PLP.Chemscore.Hbond>
4.9440

> <Gold.PLP.Chemscore.CHOScore>
0.0000

> <Gold.PLP.Chemscore.Metal>
0.0000

> <Gold.Chemscore.Hbonds>
donor molecule, donor type, donor heavy atom, donor atom, acceptor molecule, acceptor atom, score
      L1  H     6    42       P1  7948  1.89
      P1  H  7989  7998       L1    18  0.34
      P1  H  7997  8008       L1    17  1.00

> <Gold.PLP.Chemscore.Internal.Correction>
0.1317

> <Gold.Rescore>
     Score         DG    S(hbond)    S(metal)    S(lipo)     H(rot)  DE(clash)    DE(int)     intcor
     14.13     -15.61       3.36        0.00      48.49       2.64       1.04       0.44       ----

> <Gold.Chemscore.Fitness>
14.1340

> <Gold.Chemscore.DG>
-15.6075

> <Gold.Chemscore.ZeroCoef>
-5.4800

> <Gold.Chemscore.Hbond>
3.3599

> <Gold.Chemscore.Metal>
0.0000

> <Gold.Chemscore.Lipo>
48.4950

> <Gold.Chemscore.Internal_Hbond>
0.0000

> <Gold.Chemscore.DEClash>
1.0365

> <Gold.Chemscore.DEInternal>
0.4369

> <Gold.Chemscore.Rot>
2.6439

> <Gold.Chemscore.Internal.Correction>
   9.000000E+99

> <Gold.Chemscore.Hbonds>
donor molecule, donor type, donor heavy atom, donor atom, acceptor molecule, acceptor atom, score
      L1  H     6    42       P1  7948  0.91
      L1  H    10    36       P1  7948  0.01
      P1  H  7989  7998       L1    18  0.04
      P1  H  7997  8008       L1    17  0.60

> <Gold.Chemscore.Hbond.Weighted>
-11.2221

> <Gold.Chemscore.Metal.Weighted>
-0.0000

> <Gold.Chemscore.Lipo.Weighted>
-5.6739

> <Gold.Chemscore.Internal_Hbond.Weighted>
0.0000

> <Gold.Chemscore.DEClash.Weighted>
1.0365

> <Gold.Chemscore.DEInternal.Weighted>
0.4369

> <Gold.Chemscore.Rot.Weighted>
6.7685

> <Gold.Chemscore.Internal.Correction.Weighted>
   9.000000E+99

> <Gold.Protein.RotatedTorsions>
[ 6907 6896 6895 6894 ] final  -35.95 input  -60.11 | X-H torsion
[ 7974 7965 7964 7962 ] final  -35.73 input  175.53 | X-H torsion
[ 8008 7997 7996 7995 ] final  -46.42 input   59.86 | X-H torsion
[ 10167 10162 10161 10158 ] final   69.95 input  -65.29 | X-H torsion
[ 10718 10713 10712 10709 ] final   59.30 input   66.30 | X-H torsion
[ 10763 10752 10751 10750 ] final  -28.70 input  -60.55 | X-H torsion
[ 11005 11000 10999 10996 ] final    4.95 input  -57.11 | X-H torsion

> <Gold.Protein.ActiveResidues>
 VAL166  LYS551  ARG553  GLY616  TRP617  ASP618  TYR619  PRO620  LYS621  CYS622 
 ASP623  PHE694  ASN695  SER759  ASP760  ASP761  ALA762  ILE779  LEU786  VAL792 
 PHE793  MET794  SER795  GLU796  ALA797  LYS798  CYS799  TRP800  GLU811  SER814 

> <Gold.Protein.RotatedAtoms>
  151.0333  134.9555  159.8122 H   0  0  0  0  0  0  0  0  0  0  0  0  # atno 6907 bound_to 6896
  152.5350  134.2752  159.8996 H   0  0  0  0  0  0  0  0  0  0  0  0  # atno 6908 bound_to 6896
  151.2762  133.4189  159.2658 H   0  0  0  0  0  0  0  0  0  0  0  0  # atno 6909 bound_to 6896
  146.0721  140.6194  142.8947 H   0  0  0  0  0  0  0  0  0  0  0  0  # atno 7974 bound_to 7965
  154.4007  140.1372  156.4008 H   0  0  0  0  0  0  0  0  0  0  0  0  # atno 8008 bound_to 7997
  155.7826  140.3481  155.5285 H   0  0  0  0  0  0  0  0  0  0  0  0  # atno 8009 bound_to 7997
  155.8658  140.0964  157.1573 H   0  0  0  0  0  0  0  0  0  0  0  0  # atno 8010 bound_to 7997
  140.0622  144.5223  150.7286 H   0  0  0  0  0  0  0  0  0  0  0  0  # atno 10167 bound_to 10162
  157.5665  130.8875  149.9195 H   0  0  0  0  0  0  0  0  0  0  0  0  # atno 10718 bound_to 10713
  153.7526  135.6925  153.4942 H   0  0  0  0  0  0  0  0  0  0  0  0  # atno 10763 bound_to 10752
  153.1993  135.4442  155.0245 H   0  0  0  0  0  0  0  0  0  0  0  0  # atno 10764 bound_to 10752
  154.8182  135.3409  154.7046 H   0  0  0  0  0  0  0  0  0  0  0  0  # atno 10765 bound_to 10752
  140.5762  134.0056  155.8028 H   0  0  0  0  0  0  0  0  0  0  0  0  # atno 11005 bound_to 11000
  144.7238  140.4461  143.6988 LP  0  0  0  0  0  0  0  0  0  0  0  0  # atno 17320 bound_to 7965
  145.6372  139.1544  143.2936 LP  0  0  0  0  0  0  0  0  0  0  0  0  # atno 17321 bound_to 7965
  140.7166  143.2550  151.4414 LP  0  0  0  0  0  0  0  0  0  0  0  0  # atno 17342 bound_to 10162
  139.5886  144.1548  152.2061 LP  0  0  0  0  0  0  0  0  0  0  0  0  # atno 17343 bound_to 10162
  156.0713  130.3685  150.0771 LP  0  0  0  0  0  0  0  0  0  0  0  0  # atno 17370 bound_to 10713
  156.8929  130.9594  151.3586 LP  0  0  0  0  0  0  0  0  0  0  0  0  # atno 17371 bound_to 10713
  141.1025  133.9745  157.3054 LP  0  0  0  0  0  0  0  0  0  0  0  0  # atno 17394 bound_to 11000
  139.9338  135.0198  156.8490 LP  0  0  0  0  0  0  0  0  0  0  0  0  # atno 17395 bound_to 11000

$$$$
