AV-unprocessed.smi:1433|AV-procd|sdf|5842|dock5
  -GOLD-   22720 5503D 1   1.00000     0.00000
 Structure written by MMmdl.
 45 46  0  0  0  0  0  0  0  0  2 V2000
  147.5974  130.8338  153.9546 C   0  0  0  0  0  0  0  0  0  0  0  0
  146.8594  132.0482  153.3813 C   0  0  1  0  0  0  0  0  0  0  0  0
  147.8293  133.1887  153.0057 C   0  0  0  0  0  0  0  0  0  0  0  0
  147.1054  134.3330  152.3865 N   0  3  2  0  0  0  0  0  0  0  0  0
  146.2963  135.1812  153.3293 C   0  0  2  0  0  0  0  0  0  0  0  0
  145.5685  136.3272  152.5852 C   0  0  0  0  0  0  0  0  0  0  0  0
  147.1631  135.7615  154.4833 C   0  0  0  0  0  0  0  0  0  0  0  0
  148.0083  136.8768  154.0661 N   0  0  0  0  0  0  0  0  0  0  0  0
  147.9533  138.1165  154.5788 C   0  0  0  0  0  0  0  0  0  0  0  0
  147.1682  138.4448  155.4682 O   0  0  0  0  0  0  0  0  0  0  0  0
  148.9194  139.1461  153.9901 C   0  0  0  0  0  0  0  0  0  0  0  0
  150.2669  138.9629  154.4992 N   0  0  0  0  0  0  0  0  0  0  0  0
  151.0551  137.8316  154.4535 C   0  0  0  0  0  0  0  0  0  0  0  0
  152.2405  138.1369  155.0587 C   0  0  0  0  0  0  0  0  0  0  0  0
  152.0813  139.4964  155.4473 C   0  0  0  0  0  0  0  0  0  0  0  0
  150.8991  139.9876  155.1123 N   0  0  0  0  0  0  0  0  0  0  0  0
  146.3701  133.8139  151.2002 C   0  0  0  0  0  0  0  0  0  0  0  0
  145.4129  132.6682  151.5938 C   0  0  1  0  0  0  0  0  0  0  0  0
  144.6950  132.0757  150.3765 C   0  0  0  0  0  0  0  0  0  0  0  0
  146.1667  131.6277  152.2095 O   0  0  0  0  0  0  0  0  0  0  0  0
  148.1382  131.0973  154.8639 H   0  0  0  0  0  0  0  0  0  0  0  0
  148.3177  130.4350  153.2397 H   0  0  0  0  0  0  0  0  0  0  0  0
  146.8987  130.0349  154.2041 H   0  0  0  0  0  0  0  0  0  0  0  0
  146.1381  132.3897  154.1247 H   0  0  0  0  0  0  0  0  0  0  0  0
  148.4402  133.4852  153.8545 H   0  0  0  0  0  0  0  0  0  0  0  0
  148.5457  132.8129  152.2735 H   0  0  0  0  0  0  0  0  0  0  0  0
  145.5270  134.5538  153.7778 H   0  0  0  0  0  0  0  0  0  0  0  0
  145.0547  137.0018  153.2693 H   0  0  0  0  0  0  0  0  0  0  0  0
  144.7915  135.9576  151.9177 H   0  0  0  0  0  0  0  0  0  0  0  0
  146.2664  136.9259  151.9991 H   0  0  0  0  0  0  0  0  0  0  0  0
  146.5551  136.1302  155.3077 H   0  0  0  0  0  0  0  0  0  0  0  0
  147.8069  134.9832  154.8945 H   0  0  0  0  0  0  0  0  0  0  0  0
  148.6866  136.6928  153.3409 H   0  0  0  0  0  0  0  0  0  0  0  0
  148.9364  139.0582  152.9029 H   0  0  0  0  0  0  0  0  0  0  0  0
  148.5811  140.1569  154.2233 H   0  0  0  0  0  0  0  0  0  0  0  0
  150.7116  136.9138  153.9990 H   0  0  0  0  0  0  0  0  0  0  0  0
  153.0923  137.4887  155.2016 H   0  0  0  0  0  0  0  0  0  0  0  0
  152.7846  140.1366  155.9593 H   0  0  0  0  0  0  0  0  0  0  0  0
  145.8493  134.5980  150.6550 H   0  0  0  0  0  0  0  0  0  0  0  0
  147.1061  133.4304  150.4918 H   0  0  0  0  0  0  0  0  0  0  0  0
  144.6565  133.0271  152.2928 H   0  0  0  0  0  0  0  0  0  0  0  0
  144.0871  132.8288  149.8746 H   0  0  0  0  0  0  0  0  0  0  0  0
  144.0347  131.2601  150.6724 H   0  0  0  0  0  0  0  0  0  0  0  0
  145.4068  131.6809  149.6507 H   0  0  0  0  0  0  0  0  0  0  0  0
  147.8173  134.9509  152.0237 H   0  0  0  0  0  0  0  0  0  0  0  0
  1  2  1  0  0  0  0
  1 21  1  0  0  0  0
  1 22  1  0  0  0  0
  1 23  1  0  0  0  0
  2 20  1  0  0  0  0
  2  3  1  0  0  0  0
  2 24  1  0  0  0  0
  3  4  1  0  0  0  0
  3 25  1  0  0  0  0
  3 26  1  0  0  0  0
  4  5  1  0  0  0  0
  4 17  1  0  0  0  0
  4 45  1  0  0  0  0
  5  6  1  0  0  0  0
  5  7  1  0  0  0  0
  5 27  1  0  0  0  0
  6 28  1  0  0  0  0
  6 29  1  0  0  0  0
  6 30  1  0  0  0  0
  7  8  1  0  0  0  0
  7 31  1  0  0  0  0
  7 32  1  0  0  0  0
  8  9  1  0  0  0  0
  8 33  1  0  0  0  0
  9 10  2  0  0  0  0
  9 11  1  0  0  0  0
 11 12  1  0  0  0  0
 11 34  1  0  0  0  0
 11 35  1  0  0  0  0
 12 16  1  0  0  0  0
 12 13  1  0  0  0  0
 13 14  2  0  0  0  0
 13 36  1  0  0  0  0
 14 15  1  0  0  0  0
 14 37  1  0  0  0  0
 15 16  2  0  0  0  0
 15 38  1  0  0  0  0
 17 18  1  0  0  0  0
 17 39  1  0  0  0  0
 17 40  1  0  0  0  0
 18 19  1  0  0  0  0
 18 20  1  0  0  0  0
 18 41  1  0  0  0  0
 19 42  1  0  0  0  0
 19 43  1  0  0  0  0
 19 44  1  0  0  0  0
M  CHG  1   4   1
M  END
> <s_m_source_file>
AV-unprocessed.smi

> <i_m_source_file_index>
1433

> <i_lp_mmshare_version>
43012

> <i_f3d_flags>
0

> <s_epik_input>
W0NIM11bQ0BASF0xW0NIMl1OKFtDSDJdW0NASF0oTzEpW0NIM10pW0NASF0oW0NIM10pW0NIMl1bTkhdQyg9TylbQ0gyXW4yW2NIXVtjSF1bY0hdbjI=

> <s_epik_cmdline>
J2VwaWtfcHl0aG9uJywgJy1waCcsICc3LjAnLCAnLXRuJywgJzgnLCAnLW1hJywgJzIwMCcsICctbWV0YWxfYmluZGluZycsICctaW1hZScsICc8aW5maWxlLm1hZT4nLCAnLW9tYWUnLCAnPG91dGZpbGUubWFlPic=

> <r_lp_tautomer_probability>
1

> <r_epik_Ionization_Penalty>
0.748405

> <r_epik_Ionization_Penalty_Charging>
0.748396

> <r_epik_Ionization_Penalty_Neutral>
8.54426e-06

> <r_epik_State_Penalty>
0.775162

> <r_epik_Charging_Adjusted_Penalty>
1.52356

> <i_epik_Tot_Q>
1

> <i_epik_Tot_abs_Q>
1

> <r_epik_Metal_State_Penalty>
0.775167

> <b_epik_Metal_Only>
0

> <s_lp_Force_Field>
OPLS_2005

> <r_lp_Energy>
22.2422

> <b_lp_Chiralities_Consistent>
1

> <s_lp_Variant>
AV-unprocessed.smi:1433-8

> <Gold.Version>
5.8.1

> <Gold.Id.Protein>
6NUR|6NUR_protein|mol2

> <Gold.PLP.Fitness>
46.3752

> <Gold.PLP.PLP>
-33.5264

> <Gold.PLP.part.hbond>
-2.7650

> <Gold.PLP.part.metal>
0.0000

> <Gold.PLP.part.buried>
-2.8528

> <Gold.PLP.part.nonpolar>
-28.6338

> <Gold.PLP.part.repulsive>
0.2219

> <Gold.PLP.ligand.clash>
0.0000

> <Gold.PLP.ligand.torsion>
0.3522

> <Gold.PLP.Chemscore.Hbond>
3.4413

> <Gold.PLP.Chemscore.CHOScore>
1.0528

> <Gold.PLP.Chemscore.Metal>
0.0000

> <Gold.Chemscore.Hbonds>
donor molecule, donor type, donor heavy atom, donor atom, acceptor molecule, acceptor atom, score
      L1  H     4    45       P1  7948  2.00
      L1  H     8    33       P1  7948  0.98
      P1  H  7989  7998       L1    16  0.54
      L1  C    13    36       P1  7948  0.19
      L1  C    13    36       P1  7949  0.41

> <Gold.PLP.Chemscore.Internal.Correction>
0.0711

> <Gold.Rescore>
     Score         DG    S(hbond)    S(metal)    S(lipo)     H(rot)  DE(clash)    DE(int)     intcor
     15.70     -16.06       1.93        0.00      76.14       1.87       0.00       0.36       ----

> <Gold.Chemscore.Fitness>
15.7040

> <Gold.Chemscore.DG>
-16.0598

> <Gold.Chemscore.ZeroCoef>
-5.4800

> <Gold.Chemscore.Hbond>
1.9303

> <Gold.Chemscore.Metal>
0.0000

> <Gold.Chemscore.Lipo>
76.1424

> <Gold.Chemscore.Internal_Hbond>
0.0000

> <Gold.Chemscore.DEClash>
0.0000

> <Gold.Chemscore.DEInternal>
0.3558

> <Gold.Chemscore.Rot>
1.8657

> <Gold.Chemscore.Internal.Correction>
   9.000000E+99

> <Gold.Chemscore.Hbonds>
donor molecule, donor type, donor heavy atom, donor atom, acceptor molecule, acceptor atom, score
      L1  H     4    45       P1  7948  0.70
      L1  H     8    33       P1  7948  0.90
      P1  H  7989  7998       L1    16  0.01

> <Gold.Chemscore.Hbond.Weighted>
-6.4473

> <Gold.Chemscore.Metal.Weighted>
-0.0000

> <Gold.Chemscore.Lipo.Weighted>
-8.9087

> <Gold.Chemscore.Internal_Hbond.Weighted>
0.0000

> <Gold.Chemscore.DEClash.Weighted>
0.0000

> <Gold.Chemscore.DEInternal.Weighted>
0.3558

> <Gold.Chemscore.Rot.Weighted>
4.7761

> <Gold.Chemscore.Internal.Correction.Weighted>
   9.000000E+99

> <Gold.Protein.RotatedTorsions>
[ 6907 6896 6895 6894 ] final    6.46 input  -60.11 | X-H torsion
[ 7974 7965 7964 7962 ] final  107.38 input  175.53 | X-H torsion
[ 8008 7997 7996 7995 ] final  125.26 input   59.86 | X-H torsion
[ 10167 10162 10161 10158 ] final -128.87 input  -65.29 | X-H torsion
[ 10718 10713 10712 10709 ] final  -28.43 input   66.30 | X-H torsion
[ 10763 10752 10751 10750 ] final  -15.18 input  -60.55 | X-H torsion
[ 11005 11000 10999 10996 ] final  -10.68 input  -57.11 | X-H torsion

> <Gold.Protein.ActiveResidues>
 VAL166  LYS551  ARG553  GLY616  TRP617  ASP618  TYR619  PRO620  LYS621  CYS622 
 ASP623  PHE694  ASN695  SER759  ASP760  ASP761  ALA762  ILE779  LEU786  VAL792 
 PHE793  MET794  SER795  GLU796  ALA797  LYS798  CYS799  TRP800  GLU811  SER814 

> <Gold.Protein.RotatedAtoms>
  151.6741  135.0972  160.0203 H   0  0  0  0  0  0  0  0  0  0  0  0  # atno 6907 bound_to 6896
  152.3874  133.6627  159.6218 H   0  0  0  0  0  0  0  0  0  0  0  0  # atno 6908 bound_to 6896
  150.7797  133.8928  159.3359 H   0  0  0  0  0  0  0  0  0  0  0  0  # atno 6909 bound_to 6896
  145.2944  139.2590  143.3847 H   0  0  0  0  0  0  0  0  0  0  0  0  # atno 7974 bound_to 7965
  156.2828  140.2720  156.1921 H   0  0  0  0  0  0  0  0  0  0  0  0  # atno 8008 bound_to 7997
  155.0448  140.0386  157.2540 H   0  0  0  0  0  0  0  0  0  0  0  0  # atno 8009 bound_to 7997
  154.7244  140.2694  155.6517 H   0  0  0  0  0  0  0  0  0  0  0  0  # atno 8010 bound_to 7997
  139.9457  143.6112  152.2490 H   0  0  0  0  0  0  0  0  0  0  0  0  # atno 10167 bound_to 10162
  156.4254  130.4434  149.7154 H   0  0  0  0  0  0  0  0  0  0  0  0  # atno 10718 bound_to 10713
  153.5395  135.7013  153.5643 H   0  0  0  0  0  0  0  0  0  0  0  0  # atno 10763 bound_to 10752
  153.3615  135.3968  155.1722 H   0  0  0  0  0  0  0  0  0  0  0  0  # atno 10764 bound_to 10752
  154.8675  135.3790  154.4898 H   0  0  0  0  0  0  0  0  0  0  0  0  # atno 10765 bound_to 10752
  140.7473  133.8621  155.9016 H   0  0  0  0  0  0  0  0  0  0  0  0  # atno 11005 bound_to 11000
  146.3174  140.3443  142.8650 LP  0  0  0  0  0  0  0  0  0  0  0  0  # atno 17320 bound_to 7965
  144.9146  140.7797  143.5786 LP  0  0  0  0  0  0  0  0  0  0  0  0  # atno 17321 bound_to 7965
  139.6668  144.7662  151.1857 LP  0  0  0  0  0  0  0  0  0  0  0  0  # atno 17342 bound_to 10162
  140.7598  143.5925  150.8782 LP  0  0  0  0  0  0  0  0  0  0  0  0  # atno 17343 bound_to 10162
  156.4079  130.7707  151.2719 LP  0  0  0  0  0  0  0  0  0  0  0  0  # atno 17370 bound_to 10713
  157.7508  131.0220  150.3775 LP  0  0  0  0  0  0  0  0  0  0  0  0  # atno 17371 bound_to 10713
  140.9782  134.1440  157.4517 LP  0  0  0  0  0  0  0  0  0  0  0  0  # atno 17394 bound_to 11000
  139.8794  135.0002  156.5996 LP  0  0  0  0  0  0  0  0  0  0  0  0  # atno 17395 bound_to 11000

$$$$
