#       Name:                AV-unprocessed.smi:1207
#       Creating user name   scv26
#       Creation time:       Fri Mar 27 04:09:05 2020


#       File generated by GOLD software.
#

@<TRIPOS>MOLECULE
AV-unprocessed.smi:1207
    58    60     1
SMALL
NO_CHARGES


@<TRIPOS>ATOM
      1 ****        -2.0083   3.6572   5.3481 C.3            1 S1                 0.0000
      2 ****        -2.0282   3.1776   3.9065 C.ar           1 S1                 0.0000
      3 ****        -3.2791   2.9645   3.2838 C.ar           1 S1                 0.0000
      4 ****        -3.2644   2.5198   1.9671 C.ar           1 S1                 0.0000
      5 ****        -4.3088   2.2167   1.0905 N.pl3          1 S1                 1.0000
      6 ****        -3.7960   1.8128  -0.1049 C.2            1 S1                 0.0000
      7 ****        -2.4399   1.8558  -0.0039 N.pl3          1 S1                 0.0000
      8 ****        -1.4075   1.5198  -0.9927 C.3            1 S1                 0.0000
      9 ****        -0.8177   0.1117  -0.7843 C.3            1 S1                 0.0000
     10 ****        -1.8559  -0.8425  -0.8938 O.3            1 S1                 0.0000
     11 ****         0.2597  -0.2114  -1.8386 C.3            1 S1                 0.0000
     12 ****         0.9924  -1.4635  -1.6325 N.3            1 S1                 0.0000
     13 ****         1.8547  -1.3995  -0.4517 C.3            1 S1                 0.0000
     14 ****         1.7663  -1.8051  -2.8270 C.3            1 S1                 0.0000
     15 ****         2.3292  -3.2030  -2.7843 C.2            1 S1                 0.0000
     16 ****         3.6963  -3.5989  -2.7352 C.2            1 S1                 0.0000
     17 ****         4.9191  -2.7277  -2.7109 C.3            1 S1                 0.0000
     18 ****         3.8291  -4.9145  -2.7056 N.2            1 S1                 0.0000
     19 ****         2.5299  -5.4313  -2.7321 O.3            1 S1                 0.0000
     20 ****         1.6562  -4.3938  -2.7793 C.2            1 S1                 0.0000
     21 ****         0.2062  -4.7406  -2.8089 C.3            1 S1                 0.0000
     22 ****        -2.0624   2.2907   1.2702 C.ar           1 S1                 0.0000
     23 ****        -0.8215   2.4984   1.8667 C.ar           1 S1                 0.0000
     24 ****        -0.8153   2.9475   3.2067 C.ar           1 S1                 0.0000
     25 ****         0.5236   3.1785   3.8861 C.3            1 S1                 0.0000
     26 ****        -3.0172   3.8153   5.7302 H              1 S1                 0.0000
     27 ****        -1.4695   4.6012   5.4327 H              1 S1                 0.0000
     28 ****        -1.5213   2.9211   5.9881 H              1 S1                 0.0000
     29 ****        -4.2064   3.1371   3.8102 H              1 S1                 0.0000
     30 ****        -4.3615   1.5089  -0.9741 H              1 S1                 0.0000
     31 ****        -1.8621   1.5996  -1.9813 H              1 S1                 0.0000
     32 ****        -0.6280   2.2813  -0.9481 H              1 S1                 0.0000
     33 ****        -0.4051   0.0558   0.2215 H              1 S1                 0.0000
     34 ****        -1.4781  -1.7034  -0.7940 H              1 S1                 0.0000
     35 ****        -0.2298  -0.2333  -2.8136 H              1 S1                 0.0000
     36 ****         0.9732   0.6126  -1.8872 H              1 S1                 0.0000
     37 ****         2.4008  -2.3322  -0.3094 H              1 S1                 0.0000
     38 ****         1.2786  -1.2394   0.4580 H              1 S1                 0.0000
     39 ****         2.5847  -0.5941  -0.5404 H              1 S1                 0.0000
     40 ****         1.1261  -1.7139  -3.7054 H              1 S1                 0.0000
     41 ****         2.5578  -1.0686  -2.9715 H              1 S1                 0.0000
     42 ****         4.8075  -1.9200  -1.9873 H              1 S1                 0.0000
     43 ****         5.0947  -2.2770  -3.6878 H              1 S1                 0.0000
     44 ****         5.8125  -3.2917  -2.4391 H              1 S1                 0.0000
     45 ****        -0.3800  -3.9277  -3.2378 H              1 S1                 0.0000
     46 ****        -0.1638  -4.9284  -1.8011 H              1 S1                 0.0000
     47 ****         0.0310  -5.6344  -3.4077 H              1 S1                 0.0000
     48 ****         0.1008   2.3222   1.3330 H              1 S1                 0.0000
     49 ****         1.3550   2.9430   3.2209 H              1 S1                 0.0000
     50 ****         0.6176   2.5496   4.7718 H              1 S1                 0.0000
     51 ****         0.6239   4.2212   4.1882 H              1 S1                 0.0000
     52 ****        -5.2989   2.2777   1.2906 H              1 S1                 0.0000
     53 ****        -2.2924  -0.7664  -1.7903 LP             1 S1                 0.0000
     54 ****        -2.5360  -0.6863  -0.1775 LP             1 S1                 0.0000
     55 ****         0.3207  -2.1863  -1.4695 LP             1 S1                 0.0000
     56 ****         4.6833  -5.4333  -2.6713 LP             1 S1                 0.0000
     57 ****         2.3655  -5.9739  -1.9083 LP             1 S1                 0.0000
     58 ****         2.4126  -6.0085  -3.5402 LP             1 S1                 0.0000
@<TRIPOS>BOND
    1    1    2 1     
    2    1   26 1     
    3    1   27 1     
    4    1   28 1     
    5    2   24 ar    
    6    2    3 ar    
    7    3    4 ar    
    8    3   29 1     
    9    4   22 ar    
   10    4    5 1     
   11    5    6 2     
   12    5   52 1     
   13    6    7 1     
   14    6   30 1     
   15    7    8 1     
   16    7   22 1     
   17    8    9 1     
   18    8   31 1     
   19    8   32 1     
   20    9   10 1     
   21    9   11 1     
   22    9   33 1     
   23   10   34 1     
   24   11   12 1     
   25   11   35 1     
   26   11   36 1     
   27   12   13 1     
   28   12   14 1     
   29   13   37 1     
   30   13   38 1     
   31   13   39 1     
   32   14   15 1     
   33   14   40 1     
   34   14   41 1     
   35   15   20 2     
   36   15   16 1     
   37   16   17 1     
   38   16   18 2     
   39   17   42 1     
   40   17   43 1     
   41   17   44 1     
   42   18   19 1     
   43   19   20 1     
   44   20   21 1     
   45   21   45 1     
   46   21   46 1     
   47   21   47 1     
   48   22   23 ar    
   49   23   24 ar    
   50   23   48 1     
   51   24   25 1     
   52   25   49 1     
   53   25   50 1     
   54   25   51 1     
   55   10   53 1     
   56   10   54 1     
   57   12   55 1     
   58   18   56 1     
   59   19   57 1     
   60   19   58 1     
@<TRIPOS>SUBSTRUCTURE
      1 S1             1
@<TRIPOS>SET
LONE_PAIRS      STATIC     ATOMS    <user>   **** ""
6 53 54 55 56 57 58
DONOR_HYDROGENS      STATIC     ATOMS    <user>   **** ""
2 52 34
ATOM$BLUE        STATIC     ATOMS    COLORGROUP SYSTEM
6 53 54 55 56 57 58
ATOM$RED        STATIC     ATOMS    COLORGROUP SYSTEM
2 52 34
