AV-unprocessed.smi:3019|AV-procd|sdf|11489|dock9
  -GOLD-   2272016433D 1   1.00000     0.00000
 Structure written by MMmdl.
 30 31  0  0  0  0  0  0  0  0  1 V2000
  152.5015  144.7894  158.3552 C   0  0  0  0  0  0  0  0  0  0  0  0
  151.7993  143.5714  158.9735 C   0  0  0  0  0  0  0  0  0  0  0  0
  152.5922  142.9862  160.1513 C   0  0  0  0  0  0  0  0  0  0  0  0
  151.4920  142.5280  157.9435 C   0  0  0  0  0  0  0  0  0  0  0  0
  150.7108  142.7737  156.8891 N   0  0  0  0  0  0  0  0  0  0  0  0
  150.5997  141.6547  156.1427 N   0  0  0  0  0  0  0  0  0  0  0  0
  151.3607  140.7933  156.8170 C   0  0  0  0  0  0  0  0  0  0  0  0
  151.4992  139.3726  156.3657 C   0  0  2  0  0  0  0  0  0  0  0  0
  152.2949  139.2581  155.0504 C   0  0  0  0  0  0  0  0  0  0  0  0
  152.3168  137.8705  154.5902 N   0  0  0  0  0  0  0  0  0  0  0  0
  150.9613  137.3371  154.4624 C   0  0  0  0  0  0  0  0  0  0  0  0
  150.1948  137.4984  155.7878 C   0  0  0  0  0  0  0  0  0  0  0  0
  150.1793  138.8704  156.1666 O   0  0  0  0  0  0  0  0  0  0  0  0
  151.9323  141.2740  157.9638 N   0  0  0  0  0  0  0  0  0  0  0  0
  151.8959  145.2311  157.5631 H   0  0  0  0  0  0  0  0  0  0  0  0
  153.4649  144.5152  157.9236 H   0  0  0  0  0  0  0  0  0  0  0  0
  152.6809  145.5617  159.1035 H   0  0  0  0  0  0  0  0  0  0  0  0
  150.8466  143.9222  159.3733 H   0  0  0  0  0  0  0  0  0  0  0  0
  152.0519  142.1607  160.6158 H   0  0  0  0  0  0  0  0  0  0  0  0
  152.7683  143.7395  160.9194 H   0  0  0  0  0  0  0  0  0  0  0  0
  153.5628  142.6084  159.8275 H   0  0  0  0  0  0  0  0  0  0  0  0
  151.9895  138.7992  157.1553 H   0  0  0  0  0  0  0  0  0  0  0  0
  151.8392  139.8912  154.2878 H   0  0  0  0  0  0  0  0  0  0  0  0
  153.3128  139.6219  155.1929 H   0  0  0  0  0  0  0  0  0  0  0  0
  150.4302  137.8608  153.6667 H   0  0  0  0  0  0  0  0  0  0  0  0
  150.9980  136.2860  154.1760 H   0  0  0  0  0  0  0  0  0  0  0  0
  149.1671  137.1542  155.6711 H   0  0  0  0  0  0  0  0  0  0  0  0
  150.6452  136.8936  156.5766 H   0  0  0  0  0  0  0  0  0  0  0  0
  152.7887  137.8173  153.6932 H   0  0  0  0  0  0  0  0  0  0  0  0
  150.2490  143.6409  156.6552 H   0  0  0  0  0  0  0  0  0  0  0  0
  1  2  1  0  0  0  0
  1 15  1  0  0  0  0
  1 16  1  0  0  0  0
  1 17  1  0  0  0  0
  2  3  1  0  0  0  0
  2  4  1  0  0  0  0
  2 18  1  0  0  0  0
  3 19  1  0  0  0  0
  3 20  1  0  0  0  0
  3 21  1  0  0  0  0
  4 14  2  0  0  0  0
  4  5  1  0  0  0  0
  5  6  1  0  0  0  0
  5 30  1  0  0  0  0
  6  7  2  0  0  0  0
  7  8  1  0  0  0  0
  7 14  1  0  0  0  0
  8 13  1  0  0  0  0
  8  9  1  0  0  0  0
  8 22  1  0  0  0  0
  9 10  1  0  0  0  0
  9 23  1  0  0  0  0
  9 24  1  0  0  0  0
 10 11  1  0  0  0  0
 10 29  1  0  0  0  0
 11 12  1  0  0  0  0
 11 25  1  0  0  0  0
 11 26  1  0  0  0  0
 12 13  1  0  0  0  0
 12 27  1  0  0  0  0
 12 28  1  0  0  0  0
M  END
> <s_m_source_file>
AV-unprocessed.smi

> <i_m_source_file_index>
3019

> <i_lp_mmshare_version>
43012

> <i_f3d_flags>
0

> <s_epik_input>
W0NIM11bQ0hdKFtDSDNdKWMxbltuSF1jKG4xKVtDQEBIXTJbQ0gyXVtOSF1bQ0gyXVtDSDJdTzI=

> <s_epik_cmdline>
J2VwaWtfcHl0aG9uJywgJy1waCcsICc3LjAnLCAnLXRuJywgJzgnLCAnLW1hJywgJzIwMCcsICctbWV0YWxfYmluZGluZycsICctaW1hZScsICc8aW5maWxlLm1hZT4nLCAnLW9tYWUnLCAnPG91dGZpbGUubWFlPic=

> <r_lp_tautomer_probability>
0.948284

> <r_epik_Ionization_Penalty>
1.10045

> <r_epik_Ionization_Penalty_Charging>
0

> <r_epik_Ionization_Penalty_Neutral>
1.10045

> <r_epik_State_Penalty>
1.2625

> <r_epik_Charging_Adjusted_Penalty>
1.2625

> <i_epik_Tot_Q>
0

> <i_epik_Tot_abs_Q>
0

> <r_epik_Metal_State_Penalty>
1.57133

> <b_epik_Metal_Only>
0

> <s_lp_Force_Field>
OPLS_2005

> <r_lp_Energy>
11.1222

> <b_lp_Chiralities_Consistent>
1

> <s_lp_Variant>
AV-unprocessed.smi:3019-5

> <Gold.Version>
5.8.1

> <Gold.Id.Protein>
6NUR|6NUR_protein|mol2

> <Gold.PLP.Fitness>
31.3396

> <Gold.PLP.PLP>
-28.5782

> <Gold.PLP.part.hbond>
-1.8849

> <Gold.PLP.part.metal>
0.0000

> <Gold.PLP.part.buried>
-3.4019

> <Gold.PLP.part.nonpolar>
-23.9663

> <Gold.PLP.part.repulsive>
0.1127

> <Gold.PLP.ligand.clash>
0.0000

> <Gold.PLP.ligand.torsion>
0.1463

> <Gold.PLP.Chemscore.Hbond>
1.0000

> <Gold.PLP.Chemscore.CHOScore>
0.0000

> <Gold.PLP.Chemscore.Metal>
0.0000

> <Gold.Chemscore.Hbonds>
donor molecule, donor type, donor heavy atom, donor atom, acceptor molecule, acceptor atom, score
      L1  H     5    30       P1  8028  1.00

> <Gold.PLP.Chemscore.Internal.Correction>
0.0539

> <Gold.Rescore>
     Score         DG    S(hbond)    S(metal)    S(lipo)     H(rot)  DE(clash)    DE(int)     intcor
     12.89     -12.97       1.00        0.00      63.19       1.26       0.03       0.05       ----

> <Gold.Chemscore.Fitness>
12.8912

> <Gold.Chemscore.DG>
-12.9731

> <Gold.Chemscore.ZeroCoef>
-5.4800

> <Gold.Chemscore.Hbond>
0.9957

> <Gold.Chemscore.Metal>
0.0000

> <Gold.Chemscore.Lipo>
63.1860

> <Gold.Chemscore.Internal_Hbond>
0.0000

> <Gold.Chemscore.DEClash>
0.0310

> <Gold.Chemscore.DEInternal>
0.0510

> <Gold.Chemscore.Rot>
1.2598

> <Gold.Chemscore.Internal.Correction>
   9.000000E+99

> <Gold.Chemscore.Hbonds>
donor molecule, donor type, donor heavy atom, donor atom, acceptor molecule, acceptor atom, score
      L1  H     5    30       P1  8028  0.94

> <Gold.Chemscore.Hbond.Weighted>
-3.3255

> <Gold.Chemscore.Metal.Weighted>
-0.0000

> <Gold.Chemscore.Lipo.Weighted>
-7.3928

> <Gold.Chemscore.Internal_Hbond.Weighted>
0.0000

> <Gold.Chemscore.DEClash.Weighted>
0.0310

> <Gold.Chemscore.DEInternal.Weighted>
0.0510

> <Gold.Chemscore.Rot.Weighted>
3.2251

> <Gold.Chemscore.Internal.Correction.Weighted>
   9.000000E+99

> <Gold.Protein.RotatedTorsions>
[ 6907 6896 6895 6894 ] final -169.09 input  -60.11 | X-H torsion
[ 7974 7965 7964 7962 ] final    7.12 input  175.53 | X-H torsion
[ 8008 7997 7996 7995 ] final    9.36 input   59.86 | X-H torsion
[ 10167 10162 10161 10158 ] final  106.97 input  -65.29 | X-H torsion
[ 10718 10713 10712 10709 ] final   37.55 input   66.30 | X-H torsion
[ 10763 10752 10751 10750 ] final  160.20 input  -60.55 | X-H torsion
[ 11005 11000 10999 10996 ] final -162.11 input  -57.11 | X-H torsion

> <Gold.Protein.ActiveResidues>
 VAL166  LYS551  ARG553  GLY616  TRP617  ASP618  TYR619  PRO620  LYS621  CYS622 
 ASP623  PHE694  ASN695  SER759  ASP760  ASP761  ALA762  ILE779  LEU786  VAL792 
 PHE793  MET794  SER795  GLU796  ALA797  LYS798  CYS799  TRP800  GLU811  SER814 

> <Gold.Protein.RotatedAtoms>
  151.4861  133.3535  159.2845 H   0  0  0  0  0  0  0  0  0  0  0  0  # atno 6907 bound_to 6896
  150.8865  134.8266  159.7274 H   0  0  0  0  0  0  0  0  0  0  0  0  # atno 6908 bound_to 6896
  152.4796  134.4765  159.9704 H   0  0  0  0  0  0  0  0  0  0  0  0  # atno 6909 bound_to 6896
  146.2429  140.0131  142.8405 H   0  0  0  0  0  0  0  0  0  0  0  0  # atno 7974 bound_to 7965
  154.7791  140.2815  155.6078 H   0  0  0  0  0  0  0  0  0  0  0  0  # atno 8008 bound_to 7997
  156.2947  140.2626  156.2540 H   0  0  0  0  0  0  0  0  0  0  0  0  # atno 8009 bound_to 7997
  154.9806  140.0375  157.2266 H   0  0  0  0  0  0  0  0  0  0  0  0  # atno 8010 bound_to 7997
  139.6965  144.7100  151.1258 H   0  0  0  0  0  0  0  0  0  0  0  0  # atno 10167 bound_to 10162
  157.3483  130.7585  149.6960 H   0  0  0  0  0  0  0  0  0  0  0  0  # atno 10718 bound_to 10713
  154.2436  135.2774  155.2844 H   0  0  0  0  0  0  0  0  0  0  0  0  # atno 10763 bound_to 10752
  154.5524  135.5671  153.6937 H   0  0  0  0  0  0  0  0  0  0  0  0  # atno 10764 bound_to 10752
  152.9994  135.6277  154.2581 H   0  0  0  0  0  0  0  0  0  0  0  0  # atno 10765 bound_to 10752
  140.6129  134.4830  157.5217 H   0  0  0  0  0  0  0  0  0  0  0  0  # atno 11005 bound_to 11000
  145.1309  140.9517  143.4545 LP  0  0  0  0  0  0  0  0  0  0  0  0  # atno 17320 bound_to 7965
  145.0388  139.3277  143.5987 LP  0  0  0  0  0  0  0  0  0  0  0  0  # atno 17321 bound_to 7965
  140.7698  143.5484  150.9232 LP  0  0  0  0  0  0  0  0  0  0  0  0  # atno 17342 bound_to 10162
  139.9164  143.6658  152.3105 LP  0  0  0  0  0  0  0  0  0  0  0  0  # atno 17343 bound_to 10162
  155.9717  130.4148  150.4149 LP  0  0  0  0  0  0  0  0  0  0  0  0  # atno 17370 bound_to 10713
  157.2208  131.0482  151.2548 LP  0  0  0  0  0  0  0  0  0  0  0  0  # atno 17371 bound_to 10713
  139.9185  134.8198  156.1289 LP  0  0  0  0  0  0  0  0  0  0  0  0  # atno 17394 bound_to 11000
  141.0795  133.6760  156.2307 LP  0  0  0  0  0  0  0  0  0  0  0  0  # atno 17395 bound_to 11000

$$$$
