AV-unprocessed.smi:1831|AV-procd|sdf|7462|dock10
  -GOLD-   22720 9153D 1   1.00000     0.00000
 Structure written by MMmdl.
 40 41  0  0  0  0  0  0  0  0  3 V2000
  147.1046  134.4983  162.6788 C   0  0  0  0  0  0  0  0  0  0  0  0
  147.3828  135.4405  161.5583 C   0  0  0  0  0  0  0  0  0  0  0  0
  147.0160  136.7238  161.5878 N   0  0  0  0  0  0  0  0  0  0  0  0
  147.3872  137.4001  160.4348 N   0  0  0  0  0  0  0  0  0  0  0  0
  148.0199  136.6195  159.5477 C   0  0  0  0  0  0  0  0  0  0  0  0
  148.4625  137.0830  158.3671 N   0  5  0  0  0  0  0  0  0  0  0  0
  147.6896  137.9175  157.6371 C   0  0  0  0  0  0  0  0  0  0  0  0
  146.5120  138.2060  157.8622 O   0  0  0  0  0  0  0  0  0  0  0  0
  148.3161  138.4391  156.5723 N   0  0  0  0  0  0  0  0  0  0  0  0
  147.7349  139.3470  155.5875 C   0  0  0  0  0  0  0  0  0  0  0  0
  147.6990  138.7187  154.1816 C   0  0  2  0  0  0  0  0  0  0  0  0
  147.0730  139.6170  153.1173 C   0  0  0  0  0  0  0  0  0  0  0  0
  146.5648  138.6521  152.0372 C   0  0  0  0  0  0  0  0  0  0  0  0
  146.6121  137.2845  152.6131 N   0  3  2  0  0  0  0  0  0  0  0  0
  145.4668  136.4019  152.2527 C   0  0  0  0  0  0  0  0  0  0  0  0
  145.5089  135.9901  150.7683 C   0  0  0  0  0  0  0  0  0  0  0  0
  144.1219  137.0870  152.5594 C   0  0  0  0  0  0  0  0  0  0  0  0
  146.8618  137.4454  154.0606 C   0  0  0  0  0  0  0  0  0  0  0  0
  148.2243  134.9558  160.0954 S   0  0  0  0  0  0  0  0  0  0  0  0
  147.7532  134.7240  163.5253 H   0  0  0  0  0  0  0  0  0  0  0  0
  147.2842  133.4703  162.3637 H   0  0  0  0  0  0  0  0  0  0  0  0
  146.0660  134.5886  162.9974 H   0  0  0  0  0  0  0  0  0  0  0  0
  149.2817  138.1778  156.4349 H   0  0  0  0  0  0  0  0  0  0  0  0
  146.7380  139.6667  155.8955 H   0  0  0  0  0  0  0  0  0  0  0  0
  148.3489  140.2476  155.5675 H   0  0  0  0  0  0  0  0  0  0  0  0
  148.7195  138.4864  153.8716 H   0  0  0  0  0  0  0  0  0  0  0  0
  146.2290  140.1650  153.5388 H   0  0  0  0  0  0  0  0  0  0  0  0
  147.7784  140.3499  152.7248 H   0  0  0  0  0  0  0  0  0  0  0  0
  145.5533  138.9340  151.7404 H   0  0  0  0  0  0  0  0  0  0  0  0
  147.1940  138.6858  151.1471 H   0  0  0  0  0  0  0  0  0  0  0  0
  145.5353  135.4950  152.8558 H   0  0  0  0  0  0  0  0  0  0  0  0
  144.6385  135.3882  150.5051 H   0  0  0  0  0  0  0  0  0  0  0  0
  146.3876  135.3886  150.5350 H   0  0  0  0  0  0  0  0  0  0  0  0
  145.5161  136.8627  150.1141 H   0  0  0  0  0  0  0  0  0  0  0  0
  143.2851  136.4468  152.2786 H   0  0  0  0  0  0  0  0  0  0  0  0
  144.0205  138.0227  152.0082 H   0  0  0  0  0  0  0  0  0  0  0  0
  144.0064  137.3111  153.6198 H   0  0  0  0  0  0  0  0  0  0  0  0
  147.3725  136.5777  154.4793 H   0  0  0  0  0  0  0  0  0  0  0  0
  145.9118  137.5701  154.5836 H   0  0  0  0  0  0  0  0  0  0  0  0
  147.4468  136.8543  152.2410 H   0  0  0  0  0  0  0  0  0  0  0  0
  1  2  1  0  0  0  0
  1 20  1  0  0  0  0
  1 21  1  0  0  0  0
  1 22  1  0  0  0  0
  2 19  1  0  0  0  0
  2  3  2  0  0  0  0
  3  4  1  0  0  0  0
  4  5  2  0  0  0  0
  5  6  1  0  0  0  0
  5 19  1  0  0  0  0
  6  7  1  0  0  0  0
  7  8  2  0  0  0  0
  7  9  1  0  0  0  0
  9 10  1  0  0  0  0
  9 23  1  0  0  0  0
 10 11  1  0  0  0  0
 10 24  1  0  0  0  0
 10 25  1  0  0  0  0
 11 18  1  0  0  0  0
 11 12  1  0  0  0  0
 11 26  1  0  0  0  0
 12 13  1  0  0  0  0
 12 27  1  0  0  0  0
 12 28  1  0  0  0  0
 13 14  1  0  0  0  0
 13 29  1  0  0  0  0
 13 30  1  0  0  0  0
 14 15  1  0  0  0  0
 14 18  1  0  0  0  0
 14 40  1  0  0  0  0
 15 16  1  0  0  0  0
 15 17  1  0  0  0  0
 15 31  1  0  0  0  0
 16 32  1  0  0  0  0
 16 33  1  0  0  0  0
 16 34  1  0  0  0  0
 17 35  1  0  0  0  0
 17 36  1  0  0  0  0
 17 37  1  0  0  0  0
 18 38  1  0  0  0  0
 18 39  1  0  0  0  0
M  CHG  1   6  -1
M  CHG  1  14   1
M  END
> <s_m_source_file>
AV-unprocessed.smi

> <i_m_source_file_index>
1831

> <i_lp_mmshare_version>
43012

> <i_f3d_flags>
0

> <s_epik_input>
W0NIM11jMW5uYyhzMSlbTkhdQyg9TylbTkhdW0NIMl1bQ0BASF0yW0NIMl1bQ0gyXU4oW0NIMl0yKVtDSF0oW0NIM10pW0NIM10=

> <s_epik_cmdline>
J2VwaWtfcHl0aG9uJywgJy1waCcsICc3LjAnLCAnLXRuJywgJzgnLCAnLW1hJywgJzIwMCcsICctbWV0YWxfYmluZGluZycsICctaW1hZScsICc8aW5maWxlLm1hZT4nLCAnLW9tYWUnLCAnPG91dGZpbGUubWFlPic=

> <r_lp_tautomer_probability>
1

> <r_epik_Ionization_Penalty>
4.24531

> <r_epik_Ionization_Penalty_Charging>
4.11954

> <r_epik_Ionization_Penalty_Neutral>
0.125766

> <r_epik_State_Penalty>
4.11879

> <r_epik_Charging_Adjusted_Penalty>
8.23833

> <i_epik_Tot_Q>
0

> <i_epik_Tot_abs_Q>
2

> <r_epik_Metal_State_Penalty>
0.659341

> <b_epik_Metal_Only>
1

> <s_lp_Force_Field>
OPLS_2005

> <r_lp_Energy>
22.0207

> <b_lp_Chiralities_Consistent>
1

> <s_lp_Variant>
AV-unprocessed.smi:1831-7

> <Gold.Version>
5.8.1

> <Gold.Id.Protein>
6NUR|6NUR_protein|mol2

> <Gold.PLP.Fitness>
36.5768

> <Gold.PLP.PLP>
-28.4758

> <Gold.PLP.part.hbond>
-3.3664

> <Gold.PLP.part.metal>
0.0000

> <Gold.PLP.part.buried>
-1.9024

> <Gold.PLP.part.nonpolar>
-23.0906

> <Gold.PLP.part.repulsive>
0.0544

> <Gold.PLP.ligand.clash>
0.0000

> <Gold.PLP.ligand.torsion>
0.4935

> <Gold.PLP.Chemscore.Hbond>
3.0125

> <Gold.PLP.Chemscore.CHOScore>
0.0000

> <Gold.PLP.Chemscore.Metal>
0.0000

> <Gold.Chemscore.Hbonds>
donor molecule, donor type, donor heavy atom, donor atom, acceptor molecule, acceptor atom, score
      L1  H    14    40       P1  7948  2.00
      P1  H  6931  6943       L1     4  0.01
      P1  H  6934  6947       L1     4  1.00

> <Gold.PLP.Chemscore.Internal.Correction>
0.0505

> <Gold.Rescore>
     Score         DG    S(hbond)    S(metal)    S(lipo)     H(rot)  DE(clash)    DE(int)     intcor
     13.38     -15.29       1.97        0.00      60.79       1.51       0.07       1.85       ----

> <Gold.Chemscore.Fitness>
13.3820

> <Gold.Chemscore.DG>
-15.2943

> <Gold.Chemscore.ZeroCoef>
-5.4800

> <Gold.Chemscore.Hbond>
1.9687

> <Gold.Chemscore.Metal>
0.0000

> <Gold.Chemscore.Lipo>
60.7875

> <Gold.Chemscore.Internal_Hbond>
0.0000

> <Gold.Chemscore.DEClash>
0.0664

> <Gold.Chemscore.DEInternal>
1.8459

> <Gold.Chemscore.Rot>
1.5131

> <Gold.Chemscore.Internal.Correction>
   9.000000E+99

> <Gold.Chemscore.Hbonds>
donor molecule, donor type, donor heavy atom, donor atom, acceptor molecule, acceptor atom, score
      L1  H    14    40       P1  7948  1.00
      P1  H  6934  6947       L1     4  0.34

> <Gold.Chemscore.Hbond.Weighted>
-6.5756

> <Gold.Chemscore.Metal.Weighted>
-0.0000

> <Gold.Chemscore.Lipo.Weighted>
-7.1121

> <Gold.Chemscore.Internal_Hbond.Weighted>
0.0000

> <Gold.Chemscore.DEClash.Weighted>
0.0664

> <Gold.Chemscore.DEInternal.Weighted>
1.8459

> <Gold.Chemscore.Rot.Weighted>
3.8735

> <Gold.Chemscore.Internal.Correction.Weighted>
   9.000000E+99

> <Gold.Protein.RotatedTorsions>
[ 6907 6896 6895 6894 ] final   61.70 input  -60.11 | X-H torsion
[ 7974 7965 7964 7962 ] final  162.94 input  175.53 | X-H torsion
[ 8008 7997 7996 7995 ] final   99.30 input   59.86 | X-H torsion
[ 10167 10162 10161 10158 ] final -125.77 input  -65.29 | X-H torsion
[ 10718 10713 10712 10709 ] final   76.07 input   66.30 | X-H torsion
[ 10763 10752 10751 10750 ] final   81.52 input  -60.55 | X-H torsion
[ 11005 11000 10999 10996 ] final -169.57 input  -57.11 | X-H torsion

> <Gold.Protein.ActiveResidues>
 VAL166  LYS551  ARG553  GLY616  TRP617  ASP618  TYR619  PRO620  LYS621  CYS622 
 ASP623  PHE694  ASN695  SER759  ASP760  ASP761  ALA762  ILE779  LEU786  VAL792 
 PHE793  MET794  SER795  GLU796  ALA797  LYS798  CYS799  TRP800  GLU811  SER814 

> <Gold.Protein.RotatedAtoms>
  152.4111  134.6123  160.0028 H   0  0  0  0  0  0  0  0  0  0  0  0  # atno 6907 bound_to 6896
  151.6300  133.3327  159.3115 H   0  0  0  0  0  0  0  0  0  0  0  0  # atno 6908 bound_to 6896
  150.8002  134.7130  159.6659 H   0  0  0  0  0  0  0  0  0  0  0  0  # atno 6909 bound_to 6896
  144.7613  139.8111  143.6331 H   0  0  0  0  0  0  0  0  0  0  0  0  # atno 7974 bound_to 7965
  156.1091  140.3231  155.8048 H   0  0  0  0  0  0  0  0  0  0  0  0  # atno 8008 bound_to 7997
  155.4704  140.0546  157.2997 H   0  0  0  0  0  0  0  0  0  0  0  0  # atno 8009 bound_to 7997
  154.4748  140.2027  155.9920 H   0  0  0  0  0  0  0  0  0  0  0  0  # atno 8010 bound_to 7997
  139.9785  143.5768  152.2387 H   0  0  0  0  0  0  0  0  0  0  0  0  # atno 10167 bound_to 10162
  157.6659  130.9757  150.1444 H   0  0  0  0  0  0  0  0  0  0  0  0  # atno 10718 bound_to 10713
  153.1124  135.4762  154.9057 H   0  0  0  0  0  0  0  0  0  0  0  0  # atno 10763 bound_to 10752
  154.7494  135.3102  154.8588 H   0  0  0  0  0  0  0  0  0  0  0  0  # atno 10764 bound_to 10752
  153.9173  135.6858  153.4802 H   0  0  0  0  0  0  0  0  0  0  0  0  # atno 10765 bound_to 10752
  140.5293  134.5632  157.5070 H   0  0  0  0  0  0  0  0  0  0  0  0  # atno 11005 bound_to 11000
  146.1678  139.4817  142.9947 LP  0  0  0  0  0  0  0  0  0  0  0  0  # atno 17320 bound_to 7965
  145.6611  141.0240  143.1708 LP  0  0  0  0  0  0  0  0  0  0  0  0  # atno 17321 bound_to 7965
  139.6427  144.7656  151.2306 LP  0  0  0  0  0  0  0  0  0  0  0  0  # atno 17342 bound_to 10162
  140.7497  143.6290  150.8441 LP  0  0  0  0  0  0  0  0  0  0  0  0  # atno 17343 bound_to 10162
  156.2259  130.3678  149.8502 LP  0  0  0  0  0  0  0  0  0  0  0  0  # atno 17370 bound_to 10713
  156.6342  130.8678  151.3501 LP  0  0  0  0  0  0  0  0  0  0  0  0  # atno 17371 bound_to 10713
  139.9563  134.7529  156.0334 LP  0  0  0  0  0  0  0  0  0  0  0  0  # atno 17394 bound_to 11000
  141.1291  133.6591  156.3415 LP  0  0  0  0  0  0  0  0  0  0  0  0  # atno 17395 bound_to 11000

$$$$
