AV-unprocessed.smi:1741|AV-procd|sdf|7019|dock10
  -GOLD-   22720 8233D 1   1.00000     0.00000
 Structure written by MMmdl.
 38 39  0  0  0  0  0  0  0  0  1 V2000
  145.4409  133.1216  150.8373 C   0  0  0  0  0  0  0  0  0  0  0  0
  144.2528  133.8673  151.4561 C   0  0  0  0  0  0  0  0  0  0  0  0
  144.6054  135.2255  151.8204 N   0  0  0  0  0  0  0  0  0  0  0  0
  145.8161  135.8677  151.6522 C   0  0  0  0  0  0  0  0  0  0  0  0
  145.6403  137.1261  152.1438 C   0  0  0  0  0  0  0  0  0  0  0  0
  146.6370  138.1334  152.1639 N   0  0  0  0  0  0  0  0  0  0  0  0
  146.9181  138.9783  153.1688 C   0  0  0  0  0  0  0  0  0  0  0  0
  146.3608  138.9818  154.2662 O   0  0  0  0  0  0  0  0  0  0  0  0
  147.8947  139.8302  152.8256 N   0  0  0  0  0  0  0  0  0  0  0  0
  148.4364  140.8933  153.6700 C   0  0  1  0  0  0  0  0  0  0  0  0
  147.2885  141.7866  154.1643 C   0  0  0  0  0  0  0  0  0  0  0  0
  149.2373  140.2788  154.8344 C   0  0  1  0  0  0  0  0  0  0  0  0
  150.3253  139.2908  154.4050 C   0  0  0  0  0  0  0  0  0  0  0  0
  151.2890  139.3686  155.5658 C   0  0  0  0  0  0  0  0  0  0  0  0
  151.2435  140.8551  155.9023 C   0  0  0  0  0  0  0  0  0  0  0  0
  149.9321  141.2940  155.5571 O   0  0  0  0  0  0  0  0  0  0  0  0
  144.2915  137.1822  152.5959 C   0  0  0  0  0  0  0  0  0  0  0  0
  143.6750  136.0273  152.3945 N   0  0  0  0  0  0  0  0  0  0  0  0
  145.1636  132.1007  150.5744 H   0  0  0  0  0  0  0  0  0  0  0  0
  146.2793  133.0709  151.5328 H   0  0  0  0  0  0  0  0  0  0  0  0
  145.7875  133.6162  149.9293 H   0  0  0  0  0  0  0  0  0  0  0  0
  143.4157  133.8952  150.7569 H   0  0  0  0  0  0  0  0  0  0  0  0
  143.9032  133.3466  152.3482 H   0  0  0  0  0  0  0  0  0  0  0  0
  146.6730  135.3846  151.2061 H   0  0  0  0  0  0  0  0  0  0  0  0
  147.1825  138.2309  151.3203 H   0  0  0  0  0  0  0  0  0  0  0  0
  148.2919  139.7447  151.9017 H   0  0  0  0  0  0  0  0  0  0  0  0
  149.1219  141.5131  153.0889 H   0  0  0  0  0  0  0  0  0  0  0  0
  147.6636  142.6048  154.7797 H   0  0  0  0  0  0  0  0  0  0  0  0
  146.5739  141.2209  154.7631 H   0  0  0  0  0  0  0  0  0  0  0  0
  146.7468  142.2290  153.3277 H   0  0  0  0  0  0  0  0  0  0  0  0
  148.5641  139.7793  155.5337 H   0  0  0  0  0  0  0  0  0  0  0  0
  149.9440  138.2839  154.2335 H   0  0  0  0  0  0  0  0  0  0  0  0
  150.8156  139.6306  153.4912 H   0  0  0  0  0  0  0  0  0  0  0  0
  150.9142  138.7799  156.4042 H   0  0  0  0  0  0  0  0  0  0  0  0
  152.2909  139.0167  155.3191 H   0  0  0  0  0  0  0  0  0  0  0  0
  151.4674  141.0511  156.9512 H   0  0  0  0  0  0  0  0  0  0  0  0
  151.9628  141.4049  155.2942 H   0  0  0  0  0  0  0  0  0  0  0  0
  143.7435  137.9945  153.0497 H   0  0  0  0  0  0  0  0  0  0  0  0
  1  2  1  0  0  0  0
  1 19  1  0  0  0  0
  1 20  1  0  0  0  0
  1 21  1  0  0  0  0
  2  3  1  0  0  0  0
  2 22  1  0  0  0  0
  2 23  1  0  0  0  0
  3 18  1  0  0  0  0
  3  4  1  0  0  0  0
  4  5  2  0  0  0  0
  4 24  1  0  0  0  0
  5  6  1  0  0  0  0
  5 17  1  0  0  0  0
  6  7  1  0  0  0  0
  6 25  1  0  0  0  0
  7  8  2  0  0  0  0
  7  9  1  0  0  0  0
  9 10  1  0  0  0  0
  9 26  1  0  0  0  0
 10 11  1  0  0  0  0
 10 12  1  0  0  0  0
 10 27  1  0  0  0  0
 11 28  1  0  0  0  0
 11 29  1  0  0  0  0
 11 30  1  0  0  0  0
 12 16  1  0  0  0  0
 12 13  1  0  0  0  0
 12 31  1  0  0  0  0
 13 14  1  0  0  0  0
 13 32  1  0  0  0  0
 13 33  1  0  0  0  0
 14 15  1  0  0  0  0
 14 34  1  0  0  0  0
 14 35  1  0  0  0  0
 15 16  1  0  0  0  0
 15 36  1  0  0  0  0
 15 37  1  0  0  0  0
 17 18  2  0  0  0  0
 17 38  1  0  0  0  0
M  END
> <s_m_source_file>
AV-unprocessed.smi

> <i_m_source_file_index>
1741

> <i_lp_mmshare_version>
43012

> <i_f3d_flags>
0

> <s_epik_input>
W0NIM11bQ0gyXW4xW2NIXWMoW2NIXW4xKVtOSF1DKD1PKVtOSF1bQ0BIXShbQ0gzXSlbQ0BASF0yW0NIMl1bQ0gyXVtDSDJdTzI=

> <s_epik_cmdline>
J2VwaWtfcHl0aG9uJywgJy1waCcsICc3LjAnLCAnLXRuJywgJzgnLCAnLW1hJywgJzIwMCcsICctbWV0YWxfYmluZGluZycsICctaW1hZScsICc8aW5maWxlLm1hZT4nLCAnLW9tYWUnLCAnPG91dGZpbGUubWFlPic=

> <r_lp_tautomer_probability>
1

> <r_epik_Ionization_Penalty>
0.000179292

> <r_epik_Ionization_Penalty_Charging>
0

> <r_epik_Ionization_Penalty_Neutral>
0.000179292

> <r_epik_State_Penalty>
-0

> <r_epik_Charging_Adjusted_Penalty>
0

> <i_epik_Tot_Q>
0

> <i_epik_Tot_abs_Q>
0

> <r_epik_Metal_State_Penalty>
-0

> <b_epik_Metal_Only>
0

> <s_lp_Force_Field>
OPLS_2005

> <r_lp_Energy>
21.0752

> <b_lp_Chiralities_Consistent>
1

> <s_lp_Variant>
AV-unprocessed.smi:1741-4

> <Gold.Version>
5.8.1

> <Gold.Id.Protein>
6NUR|6NUR_protein|mol2

> <Gold.PLP.Fitness>
39.8896

> <Gold.PLP.PLP>
-32.9726

> <Gold.PLP.part.hbond>
-1.6034

> <Gold.PLP.part.metal>
0.0000

> <Gold.PLP.part.buried>
-1.4762

> <Gold.PLP.part.nonpolar>
-29.8584

> <Gold.PLP.part.repulsive>
0.5392

> <Gold.PLP.ligand.clash>
0.0000

> <Gold.PLP.ligand.torsion>
0.4590

> <Gold.PLP.Chemscore.Hbond>
0.8480

> <Gold.PLP.Chemscore.CHOScore>
1.7590

> <Gold.PLP.Chemscore.Metal>
0.0000

> <Gold.Chemscore.Hbonds>
donor molecule, donor type, donor heavy atom, donor atom, acceptor molecule, acceptor atom, score
      L1  H     9    26       P1  7957  0.80
      L1  C     4    24       P1  7948  0.78
      L1  C    17    38       P1 10175  1.00

> <Gold.PLP.Chemscore.Internal.Correction>
0.0140

> <Gold.Rescore>
     Score         DG    S(hbond)    S(metal)    S(lipo)     H(rot)  DE(clash)    DE(int)     intcor
     11.61     -13.26       0.88        0.00      71.56       1.38       0.10       1.55       ----

> <Gold.Chemscore.Fitness>
11.6060

> <Gold.Chemscore.DG>
-13.2610

> <Gold.Chemscore.ZeroCoef>
-5.4800

> <Gold.Chemscore.Hbond>
0.8800

> <Gold.Chemscore.Metal>
0.0000

> <Gold.Chemscore.Lipo>
71.5551

> <Gold.Chemscore.Internal_Hbond>
0.0000

> <Gold.Chemscore.DEClash>
0.1018

> <Gold.Chemscore.DEInternal>
1.5532

> <Gold.Chemscore.Rot>
1.3790

> <Gold.Chemscore.Internal.Correction>
   9.000000E+99

> <Gold.Chemscore.Hbonds>
donor molecule, donor type, donor heavy atom, donor atom, acceptor molecule, acceptor atom, score
      L1  H     9    26       P1  7957  0.74

> <Gold.Chemscore.Hbond.Weighted>
-2.9392

> <Gold.Chemscore.Metal.Weighted>
-0.0000

> <Gold.Chemscore.Lipo.Weighted>
-8.3719

> <Gold.Chemscore.Internal_Hbond.Weighted>
0.0000

> <Gold.Chemscore.DEClash.Weighted>
0.1018

> <Gold.Chemscore.DEInternal.Weighted>
1.5532

> <Gold.Chemscore.Rot.Weighted>
3.5302

> <Gold.Chemscore.Internal.Correction.Weighted>
   9.000000E+99

> <Gold.Protein.RotatedTorsions>
[ 6907 6896 6895 6894 ] final  -89.42 input  -60.11 | X-H torsion
[ 7974 7965 7964 7962 ] final   63.35 input  175.53 | X-H torsion
[ 8008 7997 7996 7995 ] final  -34.21 input   59.86 | X-H torsion
[ 10167 10162 10161 10158 ] final  -96.40 input  -65.29 | X-H torsion
[ 10718 10713 10712 10709 ] final  -61.72 input   66.30 | X-H torsion
[ 10763 10752 10751 10750 ] final   51.15 input  -60.55 | X-H torsion
[ 11005 11000 10999 10996 ] final  177.84 input  -57.11 | X-H torsion

> <Gold.Protein.ActiveResidues>
 VAL166  LYS551  ARG553  GLY616  TRP617  ASP618  TYR619  PRO620  LYS621  CYS622 
 ASP623  PHE694  ASN695  SER759  ASP760  ASP761  ALA762  ILE779  LEU786  VAL792 
 PHE793  MET794  SER795  GLU796  ALA797  LYS798  CYS799  TRP800  GLU811  SER814 

> <Gold.Protein.RotatedAtoms>
  150.6874  134.2590  159.4541 H   0  0  0  0  0  0  0  0  0  0  0  0  # atno 6907 bound_to 6896
  152.0522  134.9644  160.0584 H   0  0  0  0  0  0  0  0  0  0  0  0  # atno 6908 bound_to 6896
  152.1104  133.4263  159.4665 H   0  0  0  0  0  0  0  0  0  0  0  0  # atno 6909 bound_to 6896
  145.8628  139.3326  143.0809 H   0  0  0  0  0  0  0  0  0  0  0  0  # atno 7974 bound_to 7965
  154.4127  140.1690  156.2013 H   0  0  0  0  0  0  0  0  0  0  0  0  # atno 8008 bound_to 7997
  155.9521  140.3400  155.6393 H   0  0  0  0  0  0  0  0  0  0  0  0  # atno 8009 bound_to 7997
  155.6856  140.0728  157.2458 H   0  0  0  0  0  0  0  0  0  0  0  0  # atno 8010 bound_to 7997
  140.2942  143.3202  152.0315 H   0  0  0  0  0  0  0  0  0  0  0  0  # atno 10167 bound_to 10162
  156.0903  130.4201  150.1033 H   0  0  0  0  0  0  0  0  0  0  0  0  # atno 10718 bound_to 10713
  152.9785  135.5855  154.4368 H   0  0  0  0  0  0  0  0  0  0  0  0  # atno 10763 bound_to 10752
  154.3974  135.2768  155.2119 H   0  0  0  0  0  0  0  0  0  0  0  0  # atno 10764 bound_to 10752
  154.3965  135.6113  153.5927 H   0  0  0  0  0  0  0  0  0  0  0  0  # atno 10765 bound_to 10752
  140.3885  134.6883  157.4493 H   0  0  0  0  0  0  0  0  0  0  0  0  # atno 11005 bound_to 11000
  145.9228  140.9103  143.0396 LP  0  0  0  0  0  0  0  0  0  0  0  0  # atno 17320 bound_to 7965
  144.6726  140.1312  143.7443 LP  0  0  0  0  0  0  0  0  0  0  0  0  # atno 17321 bound_to 7965
  139.4930  144.6503  151.6690 LP  0  0  0  0  0  0  0  0  0  0  0  0  # atno 17342 bound_to 10162
  140.5706  144.0115  150.6215 LP  0  0  0  0  0  0  0  0  0  0  0  0  # atno 17343 bound_to 10162
  156.9045  130.9631  151.3572 LP  0  0  0  0  0  0  0  0  0  0  0  0  # atno 17370 bound_to 10713
  157.6050  130.8540  149.8861 LP  0  0  0  0  0  0  0  0  0  0  0  0  # atno 17371 bound_to 10713
  140.0424  134.6248  155.8963 LP  0  0  0  0  0  0  0  0  0  0  0  0  # atno 17394 bound_to 11000
  141.1899  133.6567  156.5388 LP  0  0  0  0  0  0  0  0  0  0  0  0  # atno 17395 bound_to 11000

$$$$
