AV-unprocessed.smi:158|AV-procd|sdf|1324|dock7
  -GOLD-   2262019 23D 1   1.00000     0.00000
 Structure written by MMmdl.
 31 33  0  0  0  0  0  0  0  0  1 V2000
  151.3893  145.9345  160.4382 N   0  0  0  0  0  0  0  0  0  0  0  0
  150.4725  145.0539  160.0127 C   0  0  0  0  0  0  0  0  0  0  0  0
  149.2669  145.0314  160.6272 N   0  0  0  0  0  0  0  0  0  0  0  0
  148.3235  144.1675  160.2326 C   0  0  0  0  0  0  0  0  0  0  0  0
  146.8254  144.2240  161.0840 Cl  0  0  0  0  0  0  0  0  0  0  0  0
  148.4104  143.2653  159.2496 N   0  0  0  0  0  0  0  0  0  0  0  0
  149.6243  143.2839  158.6272 C   0  0  0  0  0  0  0  0  0  0  0  0
  150.7057  144.1466  158.9504 C   0  0  0  0  0  0  0  0  0  0  0  0
  151.7833  143.8888  158.1145 N   0  0  0  0  0  0  0  0  0  0  0  0
  151.3570  142.9254  157.3419 C   0  0  0  0  0  0  0  0  0  0  0  0
  150.0659  142.5049  157.5764 N   0  0  0  0  0  0  0  0  0  0  0  0
  149.3178  141.4230  156.8646 C   0  0  1  0  0  0  0  0  0  0  0  0
  148.1002  141.9376  156.4148 O   0  0  0  0  0  0  0  0  0  0  0  0
  148.0031  141.8361  154.9945 C   0  0  2  0  0  0  0  0  0  0  0  0
  146.5491  141.5443  154.5915 C   0  0  0  0  0  0  0  0  0  0  0  0
  146.4978  141.0707  153.2628 O   0  0  0  0  0  0  0  0  0  0  0  0
  148.9681  140.6987  154.6460 C   0  0  1  0  0  0  0  0  0  0  0  0
  149.4443  140.8076  153.3197 O   0  0  0  0  0  0  0  0  0  0  0  0
  150.0886  140.9128  155.6444 C   0  0  2  0  0  0  0  0  0  0  0  0
  150.7134  139.7729  155.9411 F   0  0  0  0  0  0  0  0  0  0  0  0
  149.1346  140.6542  157.6167 H   0  0  0  0  0  0  0  0  0  0  0  0
  148.3539  142.7652  154.5425 H   0  0  0  0  0  0  0  0  0  0  0  0
  148.4947  139.7288  154.8067 H   0  0  0  0  0  0  0  0  0  0  0  0
  150.8179  141.6476  155.3009 H   0  0  0  0  0  0  0  0  0  0  0  0
  152.2960  145.9700  159.9946 H   0  0  0  0  0  0  0  0  0  0  0  0
  151.1733  146.5588  161.2019 H   0  0  0  0  0  0  0  0  0  0  0  0
  151.9782  142.4934  156.5707 H   0  0  0  0  0  0  0  0  0  0  0  0
  146.1322  140.7654  155.2307 H   0  0  0  0  0  0  0  0  0  0  0  0
  145.9205  142.4277  154.7060 H   0  0  0  0  0  0  0  0  0  0  0  0
  145.6266  140.7470  153.0923 H   0  0  0  0  0  0  0  0  0  0  0  0
  149.1153  140.0751  152.8210 H   0  0  0  0  0  0  0  0  0  0  0  0
  1  2  1  0  0  0  0
  1 25  1  0  0  0  0
  1 26  1  0  0  0  0
  2  8  1  0  0  0  0
  2  3  2  0  0  0  0
  3  4  1  0  0  0  0
  4  5  1  0  0  0  0
  4  6  2  0  0  0  0
  6  7  1  0  0  0  0
  7 11  1  0  0  0  0
  7  8  2  0  0  0  0
  8  9  1  0  0  0  0
  9 10  2  0  0  0  0
 10 11  1  0  0  0  0
 10 27  1  0  0  0  0
 11 12  1  0  0  0  0
 12 21  1  0  0  0  0
 12 19  1  0  0  0  0
 12 13  1  0  0  0  0
 13 14  1  0  0  0  0
 14 22  1  0  0  0  0
 14 15  1  0  0  0  0
 14 17  1  0  0  0  0
 15 16  1  0  0  0  0
 15 28  1  0  0  0  0
 15 29  1  0  0  0  0
 16 30  1  0  0  0  0
 17 23  1  0  0  0  0
 17 18  1  0  0  0  0
 17 19  1  0  0  0  0
 18 31  1  0  0  0  0
 19 24  1  0  0  0  0
 19 20  1  0  0  0  0
M  END
> <s_m_source_file>
AV-unprocessed.smi

> <i_m_source_file_index>
158

> <i_lp_mmshare_version>
43012

> <i_f3d_flags>
0

> <s_epik_input>
Q2xjKG4xKW5jKFtOSDJdKWMoYzEyKW5bY0hdbjJbQ0BASF0zT1tDQEhdKFtDSDJdW09IXSlbQ0BASF0oW09IXSlbQ0BASF0zRg==

> <s_epik_cmdline>
J2VwaWtfcHl0aG9uJywgJy1waCcsICc3LjAnLCAnLXRuJywgJzgnLCAnLW1hJywgJzIwMCcsICctbWV0YWxfYmluZGluZycsICctaW1hZScsICc8aW5maWxlLm1hZT4nLCAnLW9tYWUnLCAnPG91dGZpbGUubWFlPic=

> <r_lp_tautomer_probability>
1

> <r_epik_Ionization_Penalty>
6.51543e-05

> <r_epik_Ionization_Penalty_Charging>
0

> <r_epik_Ionization_Penalty_Neutral>
6.51543e-05

> <r_epik_State_Penalty>
-0

> <r_epik_Charging_Adjusted_Penalty>
0

> <i_epik_Tot_Q>
0

> <i_epik_Tot_abs_Q>
0

> <r_epik_Metal_State_Penalty>
-0

> <b_epik_Metal_Only>
0

> <s_epik_Chemistry_Notes>
This compound contains an acetal/aminal-like group ( X-CH(R)-Y where X, Y are N, S, or O) that may be acid/base labile, releasing an aldehyde.

> <s_lp_Force_Field>
OPLS_2005

> <r_lp_Energy>
33.0982

> <b_lp_Chiralities_Consistent>
1

> <s_lp_Variant>
AV-unprocessed.smi:158-2

> <Gold.Version>
5.8.1

> <Gold.Id.Protein>
6NUR|6NUR_protein|mol2

> <Gold.PLP.Fitness>
39.7670

> <Gold.PLP.PLP>
-32.9100

> <Gold.PLP.part.hbond>
-4.6133

> <Gold.PLP.part.metal>
0.0000

> <Gold.PLP.part.buried>
-6.3756

> <Gold.PLP.part.nonpolar>
-24.6878

> <Gold.PLP.part.repulsive>
2.2773

> <Gold.PLP.ligand.clash>
0.0000

> <Gold.PLP.ligand.torsion>
0.2000

> <Gold.PLP.Chemscore.Hbond>
2.4161

> <Gold.PLP.Chemscore.CHOScore>
0.0000

> <Gold.PLP.Chemscore.Metal>
0.0000

> <Gold.Chemscore.Hbonds>
donor molecule, donor type, donor heavy atom, donor atom, acceptor molecule, acceptor atom, score
      L1  H    16    30       P1 10175  0.96
      L1  H    18    31       P1  7957  0.30
      P1  H  7989  7998       L1    18  0.19
      P1  H  8011  8017       L1    18  1.00

> <Gold.PLP.Chemscore.Internal.Correction>
0.0087

> <Gold.Rescore>
     Score         DG    S(hbond)    S(metal)    S(lipo)     H(rot)  DE(clash)    DE(int)     intcor
      8.13      -8.81       2.02        0.00      38.98       3.12       0.35       0.33       ----

> <Gold.Chemscore.Fitness>
8.1327

> <Gold.Chemscore.DG>
-8.8080

> <Gold.Chemscore.ZeroCoef>
-5.4800

> <Gold.Chemscore.Hbond>
2.0245

> <Gold.Chemscore.Metal>
0.0000

> <Gold.Chemscore.Lipo>
38.9849

> <Gold.Chemscore.Internal_Hbond>
0.0000

> <Gold.Chemscore.DEClash>
0.3453

> <Gold.Chemscore.DEInternal>
0.3301

> <Gold.Chemscore.Rot>
3.1230

> <Gold.Chemscore.Internal.Correction>
   9.000000E+99

> <Gold.Chemscore.Hbonds>
donor molecule, donor type, donor heavy atom, donor atom, acceptor molecule, acceptor atom, score
      L1  H    16    30       P1 10175  0.59
      L1  H    18    31       P1  7957  0.30
      P1  H  7989  7998       L1    18  0.10
      P1  H  8011  8017       L1    18  0.92

> <Gold.Chemscore.Hbond.Weighted>
-6.7618

> <Gold.Chemscore.Metal.Weighted>
-0.0000

> <Gold.Chemscore.Lipo.Weighted>
-4.5612

> <Gold.Chemscore.Internal_Hbond.Weighted>
0.0000

> <Gold.Chemscore.DEClash.Weighted>
0.3453

> <Gold.Chemscore.DEInternal.Weighted>
0.3301

> <Gold.Chemscore.Rot.Weighted>
7.9950

> <Gold.Chemscore.Internal.Correction.Weighted>
   9.000000E+99

> <Gold.Protein.RotatedTorsions>
[ 6907 6896 6895 6894 ] final   89.54 input  -60.11 | X-H torsion
[ 7974 7965 7964 7962 ] final  144.57 input  175.53 | X-H torsion
[ 8008 7997 7996 7995 ] final -103.02 input   59.86 | X-H torsion
[ 10167 10162 10161 10158 ] final   99.39 input  -65.29 | X-H torsion
[ 10718 10713 10712 10709 ] final  -43.03 input   66.30 | X-H torsion
[ 10763 10752 10751 10750 ] final   -6.57 input  -60.55 | X-H torsion
[ 11005 11000 10999 10996 ] final   96.12 input  -57.11 | X-H torsion

> <Gold.Protein.ActiveResidues>
 VAL166  LYS551  ARG553  GLY616  TRP617  ASP618  TYR619  PRO620  LYS621  CYS622 
 ASP623  PHE694  ASN695  SER759  ASP760  ASP761  ALA762  ILE779  LEU786  VAL792 
 PHE793  MET794  SER795  GLU796  ALA797  LYS798  CYS799  TRP800  GLU811  SER814 

> <Gold.Protein.RotatedAtoms>
  152.5437  134.1951  159.8689 H   0  0  0  0  0  0  0  0  0  0  0  0  # atno 6907 bound_to 6896
  151.1944  133.4641  159.2603 H   0  0  0  0  0  0  0  0  0  0  0  0  # atno 6908 bound_to 6896
  151.1051  135.0007  159.8523 H   0  0  0  0  0  0  0  0  0  0  0  0  # atno 6909 bound_to 6896
  144.8825  139.5678  143.5836 H   0  0  0  0  0  0  0  0  0  0  0  0  # atno 7974 bound_to 7965
  154.8650  140.0425  157.1689 H   0  0  0  0  0  0  0  0  0  0  0  0  # atno 8008 bound_to 7997
  154.8799  140.2971  155.5410 H   0  0  0  0  0  0  0  0  0  0  0  0  # atno 8009 bound_to 7997
  156.2999  140.2413  156.3800 H   0  0  0  0  0  0  0  0  0  0  0  0  # atno 8010 bound_to 7997
  139.7622  144.6950  151.0276 H   0  0  0  0  0  0  0  0  0  0  0  0  # atno 10167 bound_to 10162
  156.2533  130.4190  149.8625 H   0  0  0  0  0  0  0  0  0  0  0  0  # atno 10718 bound_to 10713
  153.4142  135.7008  153.6338 H   0  0  0  0  0  0  0  0  0  0  0  0  # atno 10763 bound_to 10752
  153.4819  135.3692  155.2447 H   0  0  0  0  0  0  0  0  0  0  0  0  # atno 10764 bound_to 10752
  154.8719  135.4068  154.3500 H   0  0  0  0  0  0  0  0  0  0  0  0  # atno 10765 bound_to 10752
  139.8784  134.8934  156.4112 H   0  0  0  0  0  0  0  0  0  0  0  0  # atno 11005 bound_to 11000
  146.3003  139.7406  142.9096 LP  0  0  0  0  0  0  0  0  0  0  0  0  # atno 17320 bound_to 7965
  145.3929  141.0375  143.3114 LP  0  0  0  0  0  0  0  0  0  0  0  0  # atno 17321 bound_to 7965
  140.7808  143.4684  151.0180 LP  0  0  0  0  0  0  0  0  0  0  0  0  # atno 17342 bound_to 10162
  139.8370  143.7615  152.3180 LP  0  0  0  0  0  0  0  0  0  0  0  0  # atno 17343 bound_to 10162
  156.6166  130.8609  151.3466 LP  0  0  0  0  0  0  0  0  0  0  0  0  # atno 17370 bound_to 10713
  157.7223  130.9575  150.1488 LP  0  0  0  0  0  0  0  0  0  0  0  0  # atno 17371 bound_to 10713
  140.9199  133.7652  155.9894 LP  0  0  0  0  0  0  0  0  0  0  0  0  # atno 17394 bound_to 11000
  140.8451  134.3020  157.5298 LP  0  0  0  0  0  0  0  0  0  0  0  0  # atno 17395 bound_to 11000

$$$$
