AV-unprocessed.smi:1163|AV-procd|sdf|4924|dock4
  -GOLD-   22720 3503D 1   1.00000     0.00000
 Structure written by MMmdl.
 40 41  0  0  0  0  0  0  0  0  2 V2000
  152.0746  141.3501  157.8658 C   0  0  0  0  0  0  0  0  0  0  0  0
  151.6402  141.2871  156.5118 O   0  0  0  0  0  0  0  0  0  0  0  0
  151.1735  140.0816  156.0291 C   0  0  0  0  0  0  0  0  0  0  0  0
  150.8366  139.0711  156.9509 C   0  0  0  0  0  0  0  0  0  0  0  0
  150.3582  137.8382  156.4679 C   0  0  0  0  0  0  0  0  0  0  0  0
  150.2352  137.6510  155.0695 C   0  0  0  0  0  0  0  0  0  0  0  0
  149.7575  136.4660  154.4437 N   0  0  0  0  0  0  0  0  0  0  0  0
  149.6545  135.2206  154.9396 C   0  0  0  0  0  0  0  0  0  0  0  0
  149.9887  134.8665  156.0691 O   0  0  0  0  0  0  0  0  0  0  0  0
  149.1380  134.3804  154.0319 N   0  0  0  0  0  0  0  0  0  0  0  0
  148.8856  132.9624  154.2637 C   0  0  2  0  0  0  0  0  0  0  0  0
  150.1371  132.0966  154.3632 C   0  0  0  0  0  0  0  0  0  0  0  0
  149.5782  130.6948  154.1028 C   0  0  0  0  0  0  0  0  0  0  0  0
  148.4156  130.8630  153.1934 N   0  3  1  0  0  0  0  0  0  0  0  0
  147.2295  130.0375  153.5349 C   0  0  0  0  0  0  0  0  0  0  0  0
  146.6097  129.3468  152.3065 C   0  0  0  0  0  0  0  0  0  0  0  0
  145.7073  128.4578  152.7188 F   0  0  0  0  0  0  0  0  0  0  0  0
  146.0005  130.2471  151.5352 F   0  0  0  0  0  0  0  0  0  0  0  0
  147.5333  128.7076  151.5895 F   0  0  0  0  0  0  0  0  0  0  0  0
  148.1370  132.3155  153.0986 C   0  0  0  0  0  0  0  0  0  0  0  0
  150.5940  138.7289  154.2333 C   0  0  0  0  0  0  0  0  0  0  0  0
  151.0527  139.9132  154.6895 N   0  0  0  0  0  0  0  0  0  0  0  0
  152.4100  142.3626  158.0898 H   0  0  0  0  0  0  0  0  0  0  0  0
  152.9130  140.6759  158.0469 H   0  0  0  0  0  0  0  0  0  0  0  0
  151.2652  141.1094  158.5567 H   0  0  0  0  0  0  0  0  0  0  0  0
  150.9401  139.2399  158.0128 H   0  0  0  0  0  0  0  0  0  0  0  0
  150.0920  137.0766  157.1829 H   0  0  0  0  0  0  0  0  0  0  0  0
  149.4737  136.5802  153.4818 H   0  0  0  0  0  0  0  0  0  0  0  0
  148.8940  134.7498  153.1244 H   0  0  0  0  0  0  0  0  0  0  0  0
  148.2915  132.8433  155.1725 H   0  0  0  0  0  0  0  0  0  0  0  0
  150.8520  132.3672  153.5845 H   0  0  0  0  0  0  0  0  0  0  0  0
  150.6379  132.1780  155.3283 H   0  0  0  0  0  0  0  0  0  0  0  0
  150.3247  130.0266  153.6724 H   0  0  0  0  0  0  0  0  0  0  0  0
  149.2563  130.2639  155.0522 H   0  0  0  0  0  0  0  0  0  0  0  0
  147.4862  129.3082  154.3048 H   0  0  0  0  0  0  0  0  0  0  0  0
  146.4706  130.6903  153.9687 H   0  0  0  0  0  0  0  0  0  0  0  0
  147.0728  132.5552  153.1139 H   0  0  0  0  0  0  0  0  0  0  0  0
  148.5372  132.6683  152.1467 H   0  0  0  0  0  0  0  0  0  0  0  0
  150.5116  138.6397  153.1599 H   0  0  0  0  0  0  0  0  0  0  0  0
  148.7092  130.5750  152.2707 H   0  0  0  0  0  0  0  0  0  0  0  0
  1  2  1  0  0  0  0
  1 23  1  0  0  0  0
  1 24  1  0  0  0  0
  1 25  1  0  0  0  0
  2  3  1  0  0  0  0
  3 22  1  0  0  0  0
  3  4  2  0  0  0  0
  4  5  1  0  0  0  0
  4 26  1  0  0  0  0
  5  6  2  0  0  0  0
  5 27  1  0  0  0  0
  6  7  1  0  0  0  0
  6 21  1  0  0  0  0
  7  8  1  0  0  0  0
  7 28  1  0  0  0  0
  8  9  2  0  0  0  0
  8 10  1  0  0  0  0
 10 11  1  0  0  0  0
 10 29  1  0  0  0  0
 11 20  1  0  0  0  0
 11 12  1  0  0  0  0
 11 30  1  0  0  0  0
 12 13  1  0  0  0  0
 12 31  1  0  0  0  0
 12 32  1  0  0  0  0
 13 14  1  0  0  0  0
 13 33  1  0  0  0  0
 13 34  1  0  0  0  0
 14 15  1  0  0  0  0
 14 20  1  0  0  0  0
 14 40  1  0  0  0  0
 15 16  1  0  0  0  0
 15 35  1  0  0  0  0
 15 36  1  0  0  0  0
 16 17  1  0  0  0  0
 16 18  1  0  0  0  0
 16 19  1  0  0  0  0
 20 37  1  0  0  0  0
 20 38  1  0  0  0  0
 21 22  2  0  0  0  0
 21 39  1  0  0  0  0
M  CHG  1  14   1
M  END
> <s_m_source_file>
AV-unprocessed.smi

> <i_m_source_file_index>
1163

> <i_lp_mmshare_version>
43012

> <i_f3d_flags>
0

> <s_epik_input>
W0NIM11PYzFbY0hdW2NIXWMoW2NIXW4xKVtOSF1DKD1PKVtOSF1bQ0BASF0yW0NIMl1bQ0gyXU4oW0NIMl0yKVtDSDJdQyhGKShGKUY=

> <s_epik_cmdline>
J2VwaWtfcHl0aG9uJywgJy1waCcsICc3LjAnLCAnLXRuJywgJzgnLCAnLW1hJywgJzIwMCcsICctbWV0YWxfYmluZGluZycsICctaW1hZScsICc8aW5maWxlLm1hZT4nLCAnLW9tYWUnLCAnPG91dGZpbGUubWFlPic=

> <r_lp_tautomer_probability>
1

> <r_epik_Ionization_Penalty>
1.12054

> <r_epik_Ionization_Penalty_Charging>
1.12047

> <r_epik_Ionization_Penalty_Neutral>
7.20346e-05

> <r_epik_State_Penalty>
1.17927

> <r_epik_Charging_Adjusted_Penalty>
2.29974

> <i_epik_Tot_Q>
1

> <i_epik_Tot_abs_Q>
1

> <r_epik_Metal_State_Penalty>
1.17928

> <b_epik_Metal_Only>
0

> <s_lp_Force_Field>
OPLS_2005

> <r_lp_Energy>
31.4883

> <b_lp_Chiralities_Consistent>
1

> <s_lp_Variant>
AV-unprocessed.smi:1163-5

> <Gold.Version>
5.8.1

> <Gold.Id.Protein>
6NUR|6NUR_protein|mol2

> <Gold.PLP.Fitness>
49.8082

> <Gold.PLP.PLP>
-36.5149

> <Gold.PLP.part.hbond>
-4.0000

> <Gold.PLP.part.metal>
0.0000

> <Gold.PLP.part.buried>
-2.0925

> <Gold.PLP.part.nonpolar>
-29.8559

> <Gold.PLP.part.repulsive>
0.1653

> <Gold.PLP.ligand.clash>
0.0000

> <Gold.PLP.ligand.torsion>
1.0414

> <Gold.PLP.Chemscore.Hbond>
3.9600

> <Gold.PLP.Chemscore.CHOScore>
1.0000

> <Gold.PLP.Chemscore.Metal>
0.0000

> <Gold.Chemscore.Hbonds>
donor molecule, donor type, donor heavy atom, donor atom, acceptor molecule, acceptor atom, score
      L1  H     7    28       P1  7948  1.00
      L1  H    10    29       P1  7948  0.83
      L1  H    14    40       P1 10747  1.00
      P1  H  7989  7998       L1    22  1.00
      L1  C    21    39       P1  7957  0.87

> <Gold.PLP.Chemscore.Internal.Correction>
0.4961

> <Gold.Rescore>
     Score         DG    S(hbond)    S(metal)    S(lipo)     H(rot)  DE(clash)    DE(int)     intcor
     18.24     -19.48       3.33        0.00      61.38       1.68       0.33       0.90       ----

> <Gold.Chemscore.Fitness>
18.2410

> <Gold.Chemscore.DG>
-19.4761

> <Gold.Chemscore.ZeroCoef>
-5.4800

> <Gold.Chemscore.Hbond>
3.3263

> <Gold.Chemscore.Metal>
0.0000

> <Gold.Chemscore.Lipo>
61.3793

> <Gold.Chemscore.Internal_Hbond>
0.0000

> <Gold.Chemscore.DEClash>
0.3319

> <Gold.Chemscore.DEInternal>
0.9032

> <Gold.Chemscore.Rot>
1.6778

> <Gold.Chemscore.Internal.Correction>
   9.000000E+99

> <Gold.Chemscore.Hbonds>
donor molecule, donor type, donor heavy atom, donor atom, acceptor molecule, acceptor atom, score
      L1  H     7    28       P1  7948  0.78
      L1  H    10    29       P1  7948  0.14
      L1  H    14    40       P1 10747  0.57
      P1  H  7989  7998       L1    22  0.85

> <Gold.Chemscore.Hbond.Weighted>
-11.1098

> <Gold.Chemscore.Metal.Weighted>
-0.0000

> <Gold.Chemscore.Lipo.Weighted>
-7.1814

> <Gold.Chemscore.Internal_Hbond.Weighted>
0.0000

> <Gold.Chemscore.DEClash.Weighted>
0.3319

> <Gold.Chemscore.DEInternal.Weighted>
0.9032

> <Gold.Chemscore.Rot.Weighted>
4.2951

> <Gold.Chemscore.Internal.Correction.Weighted>
   9.000000E+99

> <Gold.Protein.RotatedTorsions>
[ 6907 6896 6895 6894 ] final  114.73 input  -60.11 | X-H torsion
[ 7974 7965 7964 7962 ] final   74.03 input  175.53 | X-H torsion
[ 8008 7997 7996 7995 ] final  -81.97 input   59.86 | X-H torsion
[ 10167 10162 10161 10158 ] final -160.99 input  -65.29 | X-H torsion
[ 10718 10713 10712 10709 ] final  -72.07 input   66.30 | X-H torsion
[ 10763 10752 10751 10750 ] final  100.10 input  -60.55 | X-H torsion
[ 11005 11000 10999 10996 ] final  175.56 input  -57.11 | X-H torsion

> <Gold.Protein.ActiveResidues>
 VAL166  LYS551  ARG553  GLY616  TRP617  ASP618  TYR619  PRO620  LYS621  CYS622 
 ASP623  PHE694  ASN695  SER759  ASP760  ASP761  ALA762  ILE779  LEU786  VAL792 
 PHE793  MET794  SER795  GLU796  ALA797  LYS798  CYS799  TRP800  GLU811  SER814 

> <Gold.Protein.RotatedAtoms>
  152.4785  133.8196  159.7046 H   0  0  0  0  0  0  0  0  0  0  0  0  # atno 6907 bound_to 6896
  150.8818  133.7353  159.2936 H   0  0  0  0  0  0  0  0  0  0  0  0  # atno 6908 bound_to 6896
  151.4854  135.1058  159.9841 H   0  0  0  0  0  0  0  0  0  0  0  0  # atno 6909 bound_to 6896
  145.7334  139.2692  143.1528 H   0  0  0  0  0  0  0  0  0  0  0  0  # atno 7974 bound_to 7965
  154.6038  140.0640  156.9404 H   0  0  0  0  0  0  0  0  0  0  0  0  # atno 8008 bound_to 7997
  155.2087  140.3321  155.4314 H   0  0  0  0  0  0  0  0  0  0  0  0  # atno 8009 bound_to 7997
  156.2335  140.1852  156.7165 H   0  0  0  0  0  0  0  0  0  0  0  0  # atno 8010 bound_to 7997
  139.6498  144.0104  152.2153 H   0  0  0  0  0  0  0  0  0  0  0  0  # atno 10167 bound_to 10162
  156.0336  130.4364  150.2538 H   0  0  0  0  0  0  0  0  0  0  0  0  # atno 10718 bound_to 10713
  153.3097  135.4090  155.1325 H   0  0  0  0  0  0  0  0  0  0  0  0  # atno 10763 bound_to 10752
  154.8572  135.3561  154.5740 H   0  0  0  0  0  0  0  0  0  0  0  0  # atno 10764 bound_to 10752
  153.6169  135.7066  153.5384 H   0  0  0  0  0  0  0  0  0  0  0  0  # atno 10765 bound_to 10752
  140.3635  134.7092  157.4346 H   0  0  0  0  0  0  0  0  0  0  0  0  # atno 11005 bound_to 11000
  146.0516  140.8063  142.9779 LP  0  0  0  0  0  0  0  0  0  0  0  0  # atno 17320 bound_to 7965
  144.6887  140.3061  143.7255 LP  0  0  0  0  0  0  0  0  0  0  0  0  # atno 17321 bound_to 7965
  139.9816  144.6424  150.7896 LP  0  0  0  0  0  0  0  0  0  0  0  0  # atno 17342 bound_to 10162
  140.7532  143.3004  151.3094 LP  0  0  0  0  0  0  0  0  0  0  0  0  # atno 17343 bound_to 10162
  157.0639  131.0097  151.3213 LP  0  0  0  0  0  0  0  0  0  0  0  0  # atno 17370 bound_to 10713
  157.5050  130.7903  149.7644 LP  0  0  0  0  0  0  0  0  0  0  0  0  # atno 17371 bound_to 10713
  140.0608  134.5999  155.8751 LP  0  0  0  0  0  0  0  0  0  0  0  0  # atno 17394 bound_to 11000
  141.1977  133.6597  156.5753 LP  0  0  0  0  0  0  0  0  0  0  0  0  # atno 17395 bound_to 11000

$$$$
