AV-unprocessed.smi:345|AV-procd|sdf|2391|dock6
  -GOLD-   2262022323D 1   1.00000     0.00000
 Structure written by MMmdl.
 34 36  0  0  0  0  0  0  0  0  1 V2000
  144.3192  143.7949  162.0741 C   0  0  0  0  0  0  0  0  0  0  0  0
  145.5359  143.7376  161.2155 C   0  0  0  0  0  0  0  0  0  0  0  0
  145.7287  143.4602  159.8912 C   0  0  0  0  0  0  0  0  0  0  0  0
  147.1342  143.5943  159.7376 C   0  0  0  0  0  0  0  0  0  0  0  0
  147.7506  143.3926  158.4763 N   0  0  0  0  0  0  0  0  0  0  0  0
  147.8744  142.2378  157.8002 C   0  0  0  0  0  0  0  0  0  0  0  0
  147.4320  141.1499  158.1701 O   0  0  0  0  0  0  0  0  0  0  0  0
  148.5508  142.4157  156.6556 N   0  0  0  0  0  0  0  0  0  0  0  0
  148.8859  141.3709  155.6933 C   0  0  0  0  0  0  0  0  0  0  0  0
  150.3799  141.0945  155.6290 C   0  0  0  0  0  0  0  0  0  0  0  0
  150.9115  139.7091  155.3449 C   0  0  0  0  0  0  0  0  0  0  0  0
  151.0890  140.3202  156.7155 C   0  0  0  0  0  0  0  0  0  0  0  0
  148.3544  141.7002  154.3097 C   0  0  0  0  0  0  0  0  0  0  0  0
  146.8828  141.9443  154.0759 C   0  0  0  0  0  0  0  0  0  0  0  0
  147.5417  140.7028  153.5181 C   0  0  0  0  0  0  0  0  0  0  0  0
  147.7451  143.9175  160.8670 N   0  0  0  0  0  0  0  0  0  0  0  0
  146.7239  144.0111  161.8199 O   0  0  0  0  0  0  0  0  0  0  0  0
  143.4337  143.4887  161.5168 H   0  0  0  0  0  0  0  0  0  0  0  0
  144.1533  144.8081  162.4402 H   0  0  0  0  0  0  0  0  0  0  0  0
  144.4218  143.1357  162.9362 H   0  0  0  0  0  0  0  0  0  0  0  0
  144.9820  143.2071  159.1533 H   0  0  0  0  0  0  0  0  0  0  0  0
  148.1567  144.2129  158.0515 H   0  0  0  0  0  0  0  0  0  0  0  0
  148.8688  143.3479  156.4345 H   0  0  0  0  0  0  0  0  0  0  0  0
  148.3931  140.4491  156.0103 H   0  0  0  0  0  0  0  0  0  0  0  0
  150.9492  141.9099  155.1860 H   0  0  0  0  0  0  0  0  0  0  0  0
  150.1959  138.8950  155.2531 H   0  0  0  0  0  0  0  0  0  0  0  0
  151.7920  139.6298  154.7108 H   0  0  0  0  0  0  0  0  0  0  0  0
  152.0871  140.6502  156.9954 H   0  0  0  0  0  0  0  0  0  0  0  0
  150.4897  139.9097  157.5256 H   0  0  0  0  0  0  0  0  0  0  0  0
  149.0315  142.3198  153.7240 H   0  0  0  0  0  0  0  0  0  0  0  0
  146.2062  141.8167  154.9186 H   0  0  0  0  0  0  0  0  0  0  0  0
  146.6090  142.7274  153.3720 H   0  0  0  0  0  0  0  0  0  0  0  0
  147.7099  140.6601  152.4440 H   0  0  0  0  0  0  0  0  0  0  0  0
  147.2936  139.7541  153.9892 H   0  0  0  0  0  0  0  0  0  0  0  0
  1  2  1  0  0  0  0
  1 18  1  0  0  0  0
  1 19  1  0  0  0  0
  1 20  1  0  0  0  0
  2 17  1  0  0  0  0
  2  3  2  0  0  0  0
  3  4  1  0  0  0  0
  3 21  1  0  0  0  0
  4  5  1  0  0  0  0
  4 16  2  0  0  0  0
  5  6  1  0  0  0  0
  5 22  1  0  0  0  0
  6  7  2  0  0  0  0
  6  8  1  0  0  0  0
  8  9  1  0  0  0  0
  8 23  1  0  0  0  0
  9 10  1  0  0  0  0
  9 13  1  0  0  0  0
  9 24  1  0  0  0  0
 10 12  1  0  0  0  0
 10 11  1  0  0  0  0
 10 25  1  0  0  0  0
 11 12  1  0  0  0  0
 11 26  1  0  0  0  0
 11 27  1  0  0  0  0
 12 28  1  0  0  0  0
 12 29  1  0  0  0  0
 13 15  1  0  0  0  0
 13 14  1  0  0  0  0
 13 30  1  0  0  0  0
 14 15  1  0  0  0  0
 14 31  1  0  0  0  0
 14 32  1  0  0  0  0
 15 33  1  0  0  0  0
 15 34  1  0  0  0  0
 16 17  1  0  0  0  0
M  END
> <s_m_source_file>
AV-unprocessed.smi

> <i_m_source_file_index>
345

> <i_lp_mmshare_version>
43012

> <i_f3d_flags>
0

> <s_epik_input>
W0NIM11jMVtjSF1jKG5vMSlbTkhdQyg9TylbTkhdW0NIXShbQ0hdMltDSDJdW0NIMl0yKVtDSF0zW0NIMl1bQ0gyXTM=

> <s_epik_cmdline>
J2VwaWtfcHl0aG9uJywgJy1waCcsICc3LjAnLCAnLXRuJywgJzgnLCAnLW1hJywgJzIwMCcsICctbWV0YWxfYmluZGluZycsICctaW1hZScsICc8aW5maWxlLm1hZT4nLCAnLW9tYWUnLCAnPG91dGZpbGUubWFlPic=

> <r_lp_tautomer_probability>
1

> <r_epik_Ionization_Penalty>
2.39082e-05

> <r_epik_Ionization_Penalty_Charging>
0

> <r_epik_Ionization_Penalty_Neutral>
2.39082e-05

> <r_epik_State_Penalty>
-0

> <r_epik_Charging_Adjusted_Penalty>
0

> <i_epik_Tot_Q>
0

> <i_epik_Tot_abs_Q>
0

> <r_epik_Metal_State_Penalty>
-0

> <b_epik_Metal_Only>
0

> <s_lp_Force_Field>
OPLS_2005

> <r_lp_Energy>
21.3823

> <b_lp_Chiralities_Consistent>
1

> <s_lp_Variant>
AV-unprocessed.smi:345-1

> <Gold.Version>
5.8.1

> <Gold.Id.Protein>
6NUR|6NUR_protein|mol2

> <Gold.PLP.Fitness>
40.2629

> <Gold.PLP.PLP>
-32.9448

> <Gold.PLP.part.hbond>
-4.0847

> <Gold.PLP.part.metal>
0.0000

> <Gold.PLP.part.buried>
-4.1042

> <Gold.PLP.part.nonpolar>
-25.6606

> <Gold.PLP.part.repulsive>
0.3137

> <Gold.PLP.ligand.clash>
0.0000

> <Gold.PLP.ligand.torsion>
1.8963

> <Gold.PLP.Chemscore.Hbond>
3.0000

> <Gold.PLP.Chemscore.CHOScore>
0.0000

> <Gold.PLP.Chemscore.Metal>
0.0000

> <Gold.Chemscore.Hbonds>
donor molecule, donor type, donor heavy atom, donor atom, acceptor molecule, acceptor atom, score
      L1  H     5    22       P1  8029  0.86
      L1  H     8    23       P1  8028  1.00
      P1  H  6933  6944       L1    16  0.90

> <Gold.PLP.Chemscore.Internal.Correction>
2.1107

> <Gold.Rescore>
     Score         DG    S(hbond)    S(metal)    S(lipo)     H(rot)  DE(clash)    DE(int)     intcor
     14.08     -16.13       2.03        0.00      63.95       1.42       0.20       1.85       ----

> <Gold.Chemscore.Fitness>
14.0755

> <Gold.Chemscore.DG>
-16.1252

> <Gold.Chemscore.ZeroCoef>
-5.4800

> <Gold.Chemscore.Hbond>
2.0340

> <Gold.Chemscore.Metal>
0.0000

> <Gold.Chemscore.Lipo>
63.9524

> <Gold.Chemscore.Internal_Hbond>
0.0000

> <Gold.Chemscore.DEClash>
0.1996

> <Gold.Chemscore.DEInternal>
1.8502

> <Gold.Chemscore.Rot>
1.4183

> <Gold.Chemscore.Internal.Correction>
   9.000000E+99

> <Gold.Chemscore.Hbonds>
donor molecule, donor type, donor heavy atom, donor atom, acceptor molecule, acceptor atom, score
      L1  H     5    22       P1  8029  0.16
      L1  H     8    23       P1  8028  0.91
      P1  H  6933  6944       L1    16  0.09

> <Gold.Chemscore.Hbond.Weighted>
-6.7936

> <Gold.Chemscore.Metal.Weighted>
-0.0000

> <Gold.Chemscore.Lipo.Weighted>
-7.4824

> <Gold.Chemscore.Internal_Hbond.Weighted>
0.0000

> <Gold.Chemscore.DEClash.Weighted>
0.1996

> <Gold.Chemscore.DEInternal.Weighted>
1.8502

> <Gold.Chemscore.Rot.Weighted>
3.6308

> <Gold.Chemscore.Internal.Correction.Weighted>
   9.000000E+99

> <Gold.Protein.RotatedTorsions>
[ 6907 6896 6895 6894 ] final   46.81 input  -60.11 | X-H torsion
[ 7974 7965 7964 7962 ] final   -7.75 input  175.53 | X-H torsion
[ 8008 7997 7996 7995 ] final -163.81 input   59.86 | X-H torsion
[ 10167 10162 10161 10158 ] final  -98.74 input  -65.29 | X-H torsion
[ 10718 10713 10712 10709 ] final  108.35 input   66.30 | X-H torsion
[ 10763 10752 10751 10750 ] final   -3.30 input  -60.55 | X-H torsion
[ 11005 11000 10999 10996 ] final   11.72 input  -57.11 | X-H torsion

> <Gold.Protein.ActiveResidues>
 VAL166  LYS551  ARG553  GLY616  TRP617  ASP618  TYR619  PRO620  LYS621  CYS622 
 ASP623  PHE694  ASN695  SER759  ASP760  ASP761  ALA762  ILE779  LEU786  VAL792 
 PHE793  MET794  SER795  GLU796  ALA797  LYS798  CYS799  TRP800  GLU811  SER814 

> <Gold.Protein.RotatedAtoms>
  152.2608  134.8036  160.0430 H   0  0  0  0  0  0  0  0  0  0  0  0  # atno 6907 bound_to 6896
  151.8683  133.3465  159.3734 H   0  0  0  0  0  0  0  0  0  0  0  0  # atno 6908 bound_to 6896
  150.7116  134.5065  159.5631 H   0  0  0  0  0  0  0  0  0  0  0  0  # atno 6909 bound_to 6896
  146.2299  140.2366  142.8342 H   0  0  0  0  0  0  0  0  0  0  0  0  # atno 7974 bound_to 7965
  155.8266  140.0927  157.1817 H   0  0  0  0  0  0  0  0  0  0  0  0  # atno 8008 bound_to 7997
  154.3979  140.1427  156.3624 H   0  0  0  0  0  0  0  0  0  0  0  0  # atno 8009 bound_to 7997
  155.8210  140.3446  155.5517 H   0  0  0  0  0  0  0  0  0  0  0  0  # atno 8010 bound_to 7997
  140.2698  143.3352  152.0546 H   0  0  0  0  0  0  0  0  0  0  0  0  # atno 10167 bound_to 10162
  157.6590  131.0892  150.6293 H   0  0  0  0  0  0  0  0  0  0  0  0  # atno 10718 bound_to 10713
  153.3695  135.6994  153.6649 H   0  0  0  0  0  0  0  0  0  0  0  0  # atno 10763 bound_to 10752
  153.5305  135.3593  155.2674 H   0  0  0  0  0  0  0  0  0  0  0  0  # atno 10764 bound_to 10752
  154.8679  135.4179  154.2969 H   0  0  0  0  0  0  0  0  0  0  0  0  # atno 10765 bound_to 10752
  140.5000  134.0755  155.7791 H   0  0  0  0  0  0  0  0  0  0  0  0  # atno 11005 bound_to 11000
  144.9517  140.8185  143.5568 LP  0  0  0  0  0  0  0  0  0  0  0  0  # atno 17320 bound_to 7965
  145.2327  139.2107  143.5034 LP  0  0  0  0  0  0  0  0  0  0  0  0  # atno 17321 bound_to 7965
  139.4992  144.6664  151.6346 LP  0  0  0  0  0  0  0  0  0  0  0  0  # atno 17342 bound_to 10162
  140.5899  143.9798  150.6318 LP  0  0  0  0  0  0  0  0  0  0  0  0  # atno 17343 bound_to 10162
  156.6597  130.4508  149.5692 LP  0  0  0  0  0  0  0  0  0  0  0  0  # atno 17370 bound_to 10713
  156.2076  130.6659  151.1235 LP  0  0  0  0  0  0  0  0  0  0  0  0  # atno 17371 bound_to 10713
  141.1440  133.9088  157.2259 LP  0  0  0  0  0  0  0  0  0  0  0  0  # atno 17394 bound_to 11000
  139.9719  135.0126  156.9533 LP  0  0  0  0  0  0  0  0  0  0  0  0  # atno 17395 bound_to 11000

$$$$
