#       Name:                AV-unprocessed.smi:2973
#       Creating user name   scv26
#       Creation time:       Fri Mar 27 16:25:24 2020


#       File generated by GOLD software.
#

@<TRIPOS>MOLECULE
AV-unprocessed.smi:2973
    56    58     1
SMALL
NO_CHARGES


@<TRIPOS>ATOM
      1 ****        -0.3341   2.9065   0.8950 C.3            1 S1                 0.0000
      2 ****        -1.8201   3.1247   1.2518 C.3            1 S1                 0.0000
      3 ****        -1.9804   3.4300   2.7570 C.3            1 S1                 0.0000
      4 ****        -3.4398   3.7447   3.1206 C.3            1 S1                 0.0000
      5 ****        -4.3809   2.6054   2.7054 C.3            1 S1                 0.0000
      6 ****        -4.2389   2.2840   1.2069 C.3            1 S1                 0.0000
      7 ****        -2.7787   1.9830   0.7848 C.3            1 S1                 0.0000
      8 ****        -2.7142   1.8032  -0.6553 N.am           1 S1                 0.0000
      9 ****        -2.3198   0.5767  -1.0180 C.2            1 S1                 0.0000
     10 ****        -2.1744   0.1919  -2.1773 O.2            1 S1                 0.0000
     11 ****        -2.1035  -0.1437   0.0962 N.am           1 S1                 0.0000
     12 ****        -1.6098  -1.5265   0.0970 C.3            1 S1                 0.0000
     13 ****        -0.0811  -1.6137  -0.0129 C.2            1 S1                 0.0000
     14 ****         0.6343  -0.6805   0.3550 O.2            1 S1                 0.0000
     15 ****         0.4087  -2.7556  -0.5180 N.am           1 S1                 0.0000
     16 ****         1.8248  -3.0407  -0.7168 C.3            1 S1                 0.0000
     17 ****         2.3853  -2.3088  -1.9490 C.3            1 S1                 0.0000
     18 ****         3.8536  -2.6093  -2.1763 C.ar           1 S1                 0.0000
     19 ****         4.8736  -1.7404  -1.7319 C.ar           1 S1                 0.0000
     20 ****         6.2214  -2.0829  -1.9678 C.ar           1 S1                 0.0000
     21 ****         6.5202  -3.2855  -2.6413 C.ar           1 S1                 0.0000
     22 ****         5.4622  -4.1171  -3.0615 C.ar           1 S1                 0.0000
     23 ****         4.1837  -3.7546  -2.8162 N.pl3          1 S1                 1.0000
     24 ****        -2.3364   0.5783   1.2010 C.2            1 S1                 0.0000
     25 ****        -2.2086   0.2009   2.3659 O.2            1 S1                 0.0000
     26 ****         0.0866   2.0471   1.4175 H              1 S1                 0.0000
     27 ****         0.2623   3.7765   1.1707 H              1 S1                 0.0000
     28 ****        -0.1944   2.7478  -0.1744 H              1 S1                 0.0000
     29 ****        -2.1261   4.0256   0.7175 H              1 S1                 0.0000
     30 ****        -1.6248   2.5909   3.3554 H              1 S1                 0.0000
     31 ****        -1.3540   4.2801   3.0298 H              1 S1                 0.0000
     32 ****        -3.5249   3.9236   4.1927 H              1 S1                 0.0000
     33 ****        -3.7472   4.6682   2.6285 H              1 S1                 0.0000
     34 ****        -4.1716   1.7190   3.3041 H              1 S1                 0.0000
     35 ****        -5.4125   2.8812   2.9256 H              1 S1                 0.0000
     36 ****        -4.8895   1.4444   0.9565 H              1 S1                 0.0000
     37 ****        -4.6122   3.1307   0.6290 H              1 S1                 0.0000
     38 ****        -2.9362   2.5423  -1.3064 H              1 S1                 0.0000
     39 ****        -1.9217  -2.0426   1.0064 H              1 S1                 0.0000
     40 ****        -2.0656  -2.0772  -0.7280 H              1 S1                 0.0000
     41 ****        -0.2468  -3.4754  -0.7863 H              1 S1                 0.0000
     42 ****         2.3868  -2.7680   0.1782 H              1 S1                 0.0000
     43 ****         1.9377  -4.1183  -0.8381 H              1 S1                 0.0000
     44 ****         1.8231  -2.5911  -2.8403 H              1 S1                 0.0000
     45 ****         2.2627  -1.2304  -1.8392 H              1 S1                 0.0000
     46 ****         4.6285  -0.8239  -1.2145 H              1 S1                 0.0000
     47 ****         7.0163  -1.4311  -1.6354 H              1 S1                 0.0000
     48 ****         7.5460  -3.5659  -2.8319 H              1 S1                 0.0000
     49 ****         5.5985  -5.0537  -3.5824 H              1 S1                 0.0000
     50 ****         3.4340  -4.3720  -3.1293 H              1 S1                 0.0000
     51 ****        -2.3555   0.8158  -2.9376 LP             1 S1                 0.0000
     52 ****        -1.8752  -0.7447  -2.3594 LP             1 S1                 0.0000
     53 ****         0.2205   0.1485   0.7314 LP             1 S1                 0.0000
     54 ****         1.6287  -0.7519   0.2772 LP             1 S1                 0.0000
     55 ****        -2.3989   0.8305   3.1192 LP             1 S1                 0.0000
     56 ****        -1.9146  -0.7352   2.5588 LP             1 S1                 0.0000
@<TRIPOS>BOND
    1    1    2 1     
    2    1   26 1     
    3    1   27 1     
    4    1   28 1     
    5    2    7 1     
    6    2    3 1     
    7    2   29 1     
    8    3    4 1     
    9    3   30 1     
   10    3   31 1     
   11    4    5 1     
   12    4   32 1     
   13    4   33 1     
   14    5    6 1     
   15    5   34 1     
   16    5   35 1     
   17    6    7 1     
   18    6   36 1     
   19    6   37 1     
   20    7   24 1     
   21    7    8 1     
   22    8    9 am    
   23    8   38 1     
   24    9   10 2     
   25    9   11 am    
   26   11   12 1     
   27   11   24 am    
   28   12   13 1     
   29   12   39 1     
   30   12   40 1     
   31   13   14 2     
   32   13   15 am    
   33   15   16 1     
   34   15   41 1     
   35   16   17 1     
   36   16   42 1     
   37   16   43 1     
   38   17   18 1     
   39   17   44 1     
   40   17   45 1     
   41   18   23 ar    
   42   18   19 ar    
   43   19   20 ar    
   44   19   46 1     
   45   20   21 ar    
   46   20   47 1     
   47   21   22 ar    
   48   21   48 1     
   49   22   23 ar    
   50   22   49 1     
   51   23   50 1     
   52   24   25 2     
   53   10   51 1     
   54   10   52 1     
   55   14   53 1     
   56   14   54 1     
   57   25   55 1     
   58   25   56 1     
@<TRIPOS>SUBSTRUCTURE
      1 S1             1
@<TRIPOS>SET
LONE_PAIRS      STATIC     ATOMS    <user>   **** ""
6 51 52 53 54 55 56
DONOR_HYDROGENS      STATIC     ATOMS    <user>   **** ""
3 38 41 50
ATOM$BLUE        STATIC     ATOMS    COLORGROUP SYSTEM
6 51 52 53 54 55 56
ATOM$RED        STATIC     ATOMS    COLORGROUP SYSTEM
3 38 41 50
