AV-unprocessed.smi:1824|AV-procd|sdf|7408|dock4
  -GOLD-   22720 9 83D 1   1.00000     0.00000
 Structure written by MMmdl.
 45 47  0  0  0  0  0  0  0  0  2 V2000
  148.7592  135.8395  159.6250 C   0  0  0  0  0  0  0  0  0  0  0  0
  149.1151  135.7047  158.1408 C   0  0  1  0  0  0  0  0  0  0  0  0
  150.1943  136.7148  157.7059 C   0  0  0  0  0  0  0  0  0  0  0  0
  150.5852  136.5292  156.3097 N   0  0  0  0  0  0  0  0  0  0  0  0
  151.6242  137.4669  155.8808 C   0  0  0  0  0  0  0  0  0  0  0  0
  151.2194  138.9544  155.8876 C   0  0  2  0  0  0  0  0  0  0  0  0
  151.4185  139.4751  154.5883 O   0  0  0  0  0  0  0  0  0  0  0  0
  152.0550  139.7616  156.9002 C   0  0  0  0  0  0  0  0  0  0  0  0
  151.5418  141.1234  157.1100 N   0  0  0  0  0  0  0  0  0  0  0  0
  150.7516  141.8856  156.3062 C   0  0  0  0  0  0  0  0  0  0  0  0
  150.5466  143.0746  156.9376 N   0  3  0  0  0  0  0  0  0  0  0  0
  151.2167  143.0736  158.1629 C   0  0  0  0  0  0  0  0  0  0  0  0
  151.3081  144.0476  159.1518 C   0  0  0  0  0  0  0  0  0  0  0  0
  152.0811  143.7289  160.2874 C   0  0  0  0  0  0  0  0  0  0  0  0
  152.2037  144.6416  161.2800 F   0  0  0  0  0  0  0  0  0  0  0  0
  152.7284  142.4808  160.4080 C   0  0  0  0  0  0  0  0  0  0  0  0
  153.4630  142.2161  161.5142 F   0  0  0  0  0  0  0  0  0  0  0  0
  152.6271  141.5008  159.3989 C   0  0  0  0  0  0  0  0  0  0  0  0
  151.8597  141.8233  158.2802 C   0  0  0  0  0  0  0  0  0  0  0  0
  151.0234  135.1501  156.1255 C   0  0  0  0  0  0  0  0  0  0  0  0
  149.9450  134.1373  156.5543 C   0  0  1  0  0  0  0  0  0  0  0  0
  150.4303  132.6888  156.4349 C   0  0  0  0  0  0  0  0  0  0  0  0
  149.5940  134.3824  157.9133 O   0  0  0  0  0  0  0  0  0  0  0  0
  148.3733  136.8347  159.8464 H   0  0  0  0  0  0  0  0  0  0  0  0
  149.6311  135.6690  160.2572 H   0  0  0  0  0  0  0  0  0  0  0  0
  147.9946  135.1161  159.9088 H   0  0  0  0  0  0  0  0  0  0  0  0
  148.2114  135.8594  157.5488 H   0  0  0  0  0  0  0  0  0  0  0  0
  149.8078  137.7207  157.8629 H   0  0  0  0  0  0  0  0  0  0  0  0
  151.0687  136.6110  158.3504 H   0  0  0  0  0  0  0  0  0  0  0  0
  152.5051  137.3319  156.5104 H   0  0  0  0  0  0  0  0  0  0  0  0
  151.9442  137.2114  154.8694 H   0  0  0  0  0  0  0  0  0  0  0  0
  150.1675  139.0688  156.1461 H   0  0  0  0  0  0  0  0  0  0  0  0
  151.5664  138.7504  153.9990 H   0  0  0  0  0  0  0  0  0  0  0  0
  152.0397  139.2635  157.8705 H   0  0  0  0  0  0  0  0  0  0  0  0
  153.1025  139.8119  156.6013 H   0  0  0  0  0  0  0  0  0  0  0  0
  150.3577  141.5988  155.3418 H   0  0  0  0  0  0  0  0  0  0  0  0
  150.8161  145.0048  159.0629 H   0  0  0  0  0  0  0  0  0  0  0  0
  153.1325  140.5520  159.4994 H   0  0  0  0  0  0  0  0  0  0  0  0
  151.2767  134.9813  155.0780 H   0  0  0  0  0  0  0  0  0  0  0  0
  151.9353  134.9738  156.6985 H   0  0  0  0  0  0  0  0  0  0  0  0
  149.0577  134.2627  155.9312 H   0  0  0  0  0  0  0  0  0  0  0  0
  150.7053  132.4504  155.4073 H   0  0  0  0  0  0  0  0  0  0  0  0
  149.6506  131.9908  156.7402 H   0  0  0  0  0  0  0  0  0  0  0  0
  151.3022  132.5113  157.0652 H   0  0  0  0  0  0  0  0  0  0  0  0
  149.9908  143.8299  156.5567 H   0  0  0  0  0  0  0  0  0  0  0  0
  1  2  1  0  0  0  0
  1 24  1  0  0  0  0
  1 25  1  0  0  0  0
  1 26  1  0  0  0  0
  2 23  1  0  0  0  0
  2  3  1  0  0  0  0
  2 27  1  0  0  0  0
  3  4  1  0  0  0  0
  3 28  1  0  0  0  0
  3 29  1  0  0  0  0
  4  5  1  0  0  0  0
  4 20  1  0  0  0  0
  5  6  1  0  0  0  0
  5 30  1  0  0  0  0
  5 31  1  0  0  0  0
  6  7  1  0  0  0  0
  6  8  1  0  0  0  0
  6 32  1  0  0  0  0
  7 33  1  0  0  0  0
  8  9  1  0  0  0  0
  8 34  1  0  0  0  0
  8 35  1  0  0  0  0
  9 19  1  0  0  0  0
  9 10  1  0  0  0  0
 10 11  2  0  0  0  0
 10 36  1  0  0  0  0
 11 12  1  0  0  0  0
 11 45  1  0  0  0  0
 12 19  2  0  0  0  0
 12 13  1  0  0  0  0
 13 14  2  0  0  0  0
 13 37  1  0  0  0  0
 14 15  1  0  0  0  0
 14 16  1  0  0  0  0
 16 17  1  0  0  0  0
 16 18  2  0  0  0  0
 18 19  1  0  0  0  0
 18 38  1  0  0  0  0
 20 21  1  0  0  0  0
 20 39  1  0  0  0  0
 20 40  1  0  0  0  0
 21 22  1  0  0  0  0
 21 23  1  0  0  0  0
 21 41  1  0  0  0  0
 22 42  1  0  0  0  0
 22 43  1  0  0  0  0
 22 44  1  0  0  0  0
M  CHG  1  11   1
M  END
> <s_m_source_file>
AV-unprocessed.smi

> <i_m_source_file_index>
1824

> <i_lp_mmshare_version>
43012

> <i_f3d_flags>
0

> <s_epik_input>
W0NIM11bQ0BASF0xW0NIMl1OKFtDSDJdW0NASF0oTzEpW0NIM10pW0NIMl1bQ0BIXShbT0hdKVtDSDJdbihbY0hdbjIpYyhjMjMpW2NIXWMoRiljKEYpW2NIXTM=

> <s_epik_cmdline>
J2VwaWtfcHl0aG9uJywgJy1waCcsICc3LjAnLCAnLXRuJywgJzgnLCAnLW1hJywgJzIwMCcsICctbWV0YWxfYmluZGluZycsICctaW1hZScsICc8aW5maWxlLm1hZT4nLCAnLW9tYWUnLCAnPG91dGZpbGUubWFlPic=

> <r_epik_Ionization_Penalty>
2.58709

> <r_epik_Ionization_Penalty_Charging>
2.37273

> <r_epik_Ionization_Penalty_Neutral>
0.214359

> <r_epik_State_Penalty>
2.71799

> <r_epik_Charging_Adjusted_Penalty>
5.09071

> <i_epik_Tot_Q>
1

> <i_epik_Tot_abs_Q>
1

> <r_epik_Metal_State_Penalty>
6.80217

> <b_epik_Metal_Only>
0

> <s_lp_Force_Field>
OPLS_2005

> <r_lp_Energy>
32.0118

> <b_lp_Chiralities_Consistent>
1

> <s_lp_Variant>
AV-unprocessed.smi:1824-16

> <Gold.Version>
5.8.1

> <Gold.Id.Protein>
6NUR|6NUR_protein|mol2

> <Gold.PLP.Fitness>
53.4303

> <Gold.PLP.PLP>
-43.6534

> <Gold.PLP.part.hbond>
-3.0000

> <Gold.PLP.part.metal>
0.0000

> <Gold.PLP.part.buried>
-5.9188

> <Gold.PLP.part.nonpolar>
-33.8634

> <Gold.PLP.part.repulsive>
0.0548

> <Gold.PLP.ligand.clash>
0.0000

> <Gold.PLP.ligand.torsion>
1.1238

> <Gold.PLP.Chemscore.Hbond>
4.0000

> <Gold.PLP.Chemscore.CHOScore>
0.0000

> <Gold.PLP.Chemscore.Metal>
0.0000

> <Gold.Chemscore.Hbonds>
donor molecule, donor type, donor heavy atom, donor atom, acceptor molecule, acceptor atom, score
      L1  H    11    45       P1  8028  2.00
      P1  H  6896  6909       L1    23  1.00
      P1  H  7989  7998       L1     7  1.00

> <Gold.PLP.Chemscore.Internal.Correction>
0.0246

> <Gold.Rescore>
     Score         DG    S(hbond)    S(metal)    S(lipo)     H(rot)  DE(clash)    DE(int)     intcor
     18.82     -20.27       2.63        0.00     101.95       2.32       0.23       1.22       ----

> <Gold.Chemscore.Fitness>
18.8176

> <Gold.Chemscore.DG>
-20.2652

> <Gold.Chemscore.ZeroCoef>
-5.4800

> <Gold.Chemscore.Hbond>
2.6343

> <Gold.Chemscore.Metal>
0.0000

> <Gold.Chemscore.Lipo>
101.9517

> <Gold.Chemscore.Internal_Hbond>
0.0000

> <Gold.Chemscore.DEClash>
0.2296

> <Gold.Chemscore.DEInternal>
1.2180

> <Gold.Chemscore.Rot>
2.3210

> <Gold.Chemscore.Internal.Correction>
   9.000000E+99

> <Gold.Chemscore.Hbonds>
donor molecule, donor type, donor heavy atom, donor atom, acceptor molecule, acceptor atom, score
      L1  H    11    45       P1  8028  1.00
      P1  H  6896  6909       L1    23  0.63
      P1  H  7989  7998       L1     7  0.30

> <Gold.Chemscore.Hbond.Weighted>
-8.7985

> <Gold.Chemscore.Metal.Weighted>
-0.0000

> <Gold.Chemscore.Lipo.Weighted>
-11.9283

> <Gold.Chemscore.Internal_Hbond.Weighted>
0.0000

> <Gold.Chemscore.DEClash.Weighted>
0.2296

> <Gold.Chemscore.DEInternal.Weighted>
1.2180

> <Gold.Chemscore.Rot.Weighted>
5.9416

> <Gold.Chemscore.Internal.Correction.Weighted>
   9.000000E+99

> <Gold.Protein.RotatedTorsions>
[ 6907 6896 6895 6894 ] final    9.50 input  -60.11 | X-H torsion
[ 7974 7965 7964 7962 ] final   25.58 input  175.53 | X-H torsion
[ 8008 7997 7996 7995 ] final  -71.99 input   59.86 | X-H torsion
[ 10167 10162 10161 10158 ] final -175.31 input  -65.29 | X-H torsion
[ 10718 10713 10712 10709 ] final -129.54 input   66.30 | X-H torsion
[ 10763 10752 10751 10750 ] final -126.45 input  -60.55 | X-H torsion
[ 11005 11000 10999 10996 ] final  149.08 input  -57.11 | X-H torsion

> <Gold.Protein.ActiveResidues>
 VAL166  LYS551  ARG553  GLY616  TRP617  ASP618  TYR619  PRO620  LYS621  CYS622 
 ASP623  PHE694  ASN695  SER759  ASP760  ASP761  ALA762  ILE779  LEU786  VAL792 
 PHE793  MET794  SER795  GLU796  ALA797  LYS798  CYS799  TRP800  GLU811  SER814 

> <Gold.Protein.RotatedAtoms>
  151.7231  135.0890  160.0287 H   0  0  0  0  0  0  0  0  0  0  0  0  # atno 6907 bound_to 6896
  152.3589  133.6267  159.6008 H   0  0  0  0  0  0  0  0  0  0  0  0  # atno 6908 bound_to 6896
  150.7590  133.9372  159.3486 H   0  0  0  0  0  0  0  0  0  0  0  0  # atno 6909 bound_to 6896
  146.1881  139.7446  142.8852 H   0  0  0  0  0  0  0  0  0  0  0  0  # atno 7974 bound_to 7965
  154.5131  140.0805  156.8029 H   0  0  0  0  0  0  0  0  0  0  0  0  # atno 8008 bound_to 7997
  155.3740  140.3424  155.4226 H   0  0  0  0  0  0  0  0  0  0  0  0  # atno 8009 bound_to 7997
  156.1596  140.1584  156.8621 H   0  0  0  0  0  0  0  0  0  0  0  0  # atno 8010 bound_to 7997
  139.5588  144.1922  152.1204 H   0  0  0  0  0  0  0  0  0  0  0  0  # atno 10167 bound_to 10162
  156.2057  130.6886  151.0591 H   0  0  0  0  0  0  0  0  0  0  0  0  # atno 10718 bound_to 10713
  154.8745  135.3995  154.3432 H   0  0  0  0  0  0  0  0  0  0  0  0  # atno 10763 bound_to 10752
  153.4229  135.7023  153.6287 H   0  0  0  0  0  0  0  0  0  0  0  0  # atno 10764 bound_to 10752
  153.4942  135.3741  155.2477 H   0  0  0  0  0  0  0  0  0  0  0  0  # atno 10765 bound_to 10752
  140.1015  134.8980  157.1802 H   0  0  0  0  0  0  0  0  0  0  0  0  # atno 11005 bound_to 11000
  145.3877  141.0368  143.3142 LP  0  0  0  0  0  0  0  0  0  0  0  0  # atno 17320 bound_to 7965
  144.8435  139.5434  143.6889 LP  0  0  0  0  0  0  0  0  0  0  0  0  # atno 17321 bound_to 7965
  140.1432  144.5183  150.6731 LP  0  0  0  0  0  0  0  0  0  0  0  0  # atno 17342 bound_to 10162
  140.6864  143.2352  151.5248 LP  0  0  0  0  0  0  0  0  0  0  0  0  # atno 17343 bound_to 10162
  157.7011  131.0775  150.6818 LP  0  0  0  0  0  0  0  0  0  0  0  0  # atno 17370 bound_to 10713
  156.6876  130.4585  149.5609 LP  0  0  0  0  0  0  0  0  0  0  0  0  # atno 17371 bound_to 10713
  140.3214  134.2912  155.7245 LP  0  0  0  0  0  0  0  0  0  0  0  0  # atno 17394 bound_to 11000
  141.2107  133.7712  156.9916 LP  0  0  0  0  0  0  0  0  0  0  0  0  # atno 17395 bound_to 11000

$$$$
