AV-unprocessed.smi:2559|AV-procd|sdf|10036|dock3
  -GOLD-   2272014 83D 1   1.00000     0.00000
 Structure written by MMmdl.
 43 45  0  0  0  0  0  0  0  0  2 V2000
  153.8058  137.6356  159.1906 C   0  0  0  0  0  0  0  0  0  0  0  0
  153.0536  138.1186  158.0287 N   0  0  0  0  0  0  0  0  0  0  0  0
  152.6980  137.2684  157.0156 C   0  0  0  0  0  0  0  0  0  0  0  0
  153.0239  136.0840  157.1038 O   0  0  0  0  0  0  0  0  0  0  0  0
  151.9910  137.7493  155.9354 N   0  5  0  0  0  0  0  0  0  0  0  0
  151.5769  139.0430  155.7534 C   0  0  0  0  0  0  0  0  0  0  0  0
  150.9330  139.4748  154.8004 O   0  0  0  0  0  0  0  0  0  0  0  0
  151.9869  139.9258  156.8711 C   0  0  0  0  0  0  0  0  0  0  0  0
  152.6802  139.4882  157.9573 C   0  0  0  0  0  0  0  0  0  0  0  0
  152.8930  140.5135  158.8646 N   0  0  0  0  0  0  0  0  0  0  0  0
  152.3285  141.5648  158.2688 C   0  0  0  0  0  0  0  0  0  0  0  0
  152.2934  142.8354  158.8482 N   0  0  0  0  0  0  0  0  0  0  0  0
  152.2874  144.1109  158.1307 C   0  0  0  0  0  0  0  0  0  0  0  0
  151.1778  145.0463  158.6434 C   0  0  0  0  0  0  0  0  0  0  0  0
  151.3467  145.3026  160.1469 C   0  0  0  0  0  0  0  0  0  0  0  0
  151.4706  143.9690  160.8976 C   0  0  0  0  0  0  0  0  0  0  0  0
  152.5590  143.0824  160.2648 C   0  0  0  0  0  0  0  0  0  0  0  0
  151.7444  141.2918  157.0692 N   0  0  0  0  0  0  0  0  0  0  0  0
  150.9856  142.2072  156.2145 C   0  0  0  0  0  0  0  0  0  0  0  0
  149.5977  141.6495  155.8422 C   0  0  2  0  0  0  0  0  0  0  0  0
  149.0289  142.4536  154.8270 O   0  0  0  0  0  0  0  0  0  0  0  0
  148.6470  141.6323  157.0510 C   0  0  0  0  0  0  0  0  0  0  0  0
  148.5362  142.9255  157.6074 O   0  0  0  0  0  0  0  0  0  0  0  0
  154.7172  137.1248  158.8766 H   0  0  0  0  0  0  0  0  0  0  0  0
  153.2025  136.9334  159.7666 H   0  0  0  0  0  0  0  0  0  0  0  0
  154.1051  138.4400  159.8619 H   0  0  0  0  0  0  0  0  0  0  0  0
  153.2589  144.5888  158.2640 H   0  0  0  0  0  0  0  0  0  0  0  0
  152.1914  143.9456  157.0585 H   0  0  0  0  0  0  0  0  0  0  0  0
  151.2014  145.9908  158.0993 H   0  0  0  0  0  0  0  0  0  0  0  0
  150.2000  144.6039  158.4538 H   0  0  0  0  0  0  0  0  0  0  0  0
  152.2430  145.9006  160.3162 H   0  0  0  0  0  0  0  0  0  0  0  0
  150.5063  145.8807  160.5318 H   0  0  0  0  0  0  0  0  0  0  0  0
  151.7008  144.1520  161.9475 H   0  0  0  0  0  0  0  0  0  0  0  0
  150.5143  143.4450  160.8767 H   0  0  0  0  0  0  0  0  0  0  0  0
  152.6068  142.1320  160.7976 H   0  0  0  0  0  0  0  0  0  0  0  0
  153.5394  143.5481  160.3725 H   0  0  0  0  0  0  0  0  0  0  0  0
  150.8773  143.1615  156.7212 H   0  0  0  0  0  0  0  0  0  0  0  0
  151.5535  142.4502  155.3202 H   0  0  0  0  0  0  0  0  0  0  0  0
  149.7168  140.6368  155.4560 H   0  0  0  0  0  0  0  0  0  0  0  0
  149.2463  143.3566  155.0015 H   0  0  0  0  0  0  0  0  0  0  0  0
  147.6469  141.3288  156.7402 H   0  0  0  0  0  0  0  0  0  0  0  0
  148.9765  140.9201  157.8088 H   0  0  0  0  0  0  0  0  0  0  0  0
  148.7509  143.5579  156.9394 H   0  0  0  0  0  0  0  0  0  0  0  0
  1  2  1  0  0  0  0
  1 24  1  0  0  0  0
  1 25  1  0  0  0  0
  1 26  1  0  0  0  0
  2  9  1  0  0  0  0
  2  3  1  0  0  0  0
  3  4  2  0  0  0  0
  3  5  1  0  0  0  0
  5  6  1  0  0  0  0
  6  7  2  0  0  0  0
  6  8  1  0  0  0  0
  8 18  1  0  0  0  0
  8  9  2  0  0  0  0
  9 10  1  0  0  0  0
 10 11  2  0  0  0  0
 11 12  1  0  0  0  0
 11 18  1  0  0  0  0
 12 17  1  0  0  0  0
 12 13  1  0  0  0  0
 13 14  1  0  0  0  0
 13 27  1  0  0  0  0
 13 28  1  0  0  0  0
 14 15  1  0  0  0  0
 14 29  1  0  0  0  0
 14 30  1  0  0  0  0
 15 16  1  0  0  0  0
 15 31  1  0  0  0  0
 15 32  1  0  0  0  0
 16 17  1  0  0  0  0
 16 33  1  0  0  0  0
 16 34  1  0  0  0  0
 17 35  1  0  0  0  0
 17 36  1  0  0  0  0
 18 19  1  0  0  0  0
 19 20  1  0  0  0  0
 19 37  1  0  0  0  0
 19 38  1  0  0  0  0
 20 21  1  0  0  0  0
 20 22  1  0  0  0  0
 20 39  1  0  0  0  0
 21 40  1  0  0  0  0
 22 23  1  0  0  0  0
 22 41  1  0  0  0  0
 22 42  1  0  0  0  0
 23 43  1  0  0  0  0
M  CHG  1   5  -1
M  END
> <s_m_source_file>
AV-unprocessed.smi

> <i_m_source_file_index>
2559

> <i_lp_mmshare_version>
43012

> <i_f3d_flags>
0

> <s_epik_input>
Tz1jMVtuSF1jKD1PKW4oW0NIM10pYyhjMTIpbmMobjJbQ0gyXVtDQEhdKFtPSF0pW0NIMl1bT0hdKU4zW0NIMl1bQ0gyXVtDSDJdW0NIMl1bQ0gyXTM=

> <s_epik_cmdline>
J2VwaWtfcHl0aG9uJywgJy1waCcsICc3LjAnLCAnLXRuJywgJzgnLCAnLW1hJywgJzIwMCcsICctbWV0YWxfYmluZGluZycsICctaW1hZScsICc8aW5maWxlLm1hZT4nLCAnLW9tYWUnLCAnPG91dGZpbGUubWFlPic=

> <r_lp_tautomer_probability>
1

> <r_epik_Ionization_Penalty>
5.90509

> <r_epik_Ionization_Penalty_Charging>
0.0759636

> <r_epik_Ionization_Penalty_Neutral>
5.82913

> <r_epik_State_Penalty>
5.18635

> <r_epik_Charging_Adjusted_Penalty>
5.26231

> <i_epik_Tot_Q>
-1

> <i_epik_Tot_abs_Q>
1

> <r_epik_Metal_State_Penalty>
1.25614

> <b_epik_Metal_Only>
1

> <s_lp_Force_Field>
OPLS_2005

> <r_lp_Energy>
44.2417

> <b_lp_Chiralities_Consistent>
1

> <s_lp_Variant>
AV-unprocessed.smi:2559-3

> <Gold.Version>
5.8.1

> <Gold.Id.Protein>
6NUR|6NUR_protein|mol2

> <Gold.PLP.Fitness>
53.5682

> <Gold.PLP.PLP>
-41.7613

> <Gold.PLP.part.hbond>
-5.3287

> <Gold.PLP.part.metal>
0.0000

> <Gold.PLP.part.buried>
-4.8861

> <Gold.PLP.part.nonpolar>
-30.5430

> <Gold.PLP.part.repulsive>
0.0768

> <Gold.PLP.ligand.clash>
0.0520

> <Gold.PLP.ligand.torsion>
0.3996

> <Gold.PLP.Chemscore.Hbond>
4.0000

> <Gold.PLP.Chemscore.CHOScore>
0.0000

> <Gold.PLP.Chemscore.Metal>
0.0000

> <Gold.Chemscore.Hbonds>
donor molecule, donor type, donor heavy atom, donor atom, acceptor molecule, acceptor atom, score
      L1  H    21    40       P1  8028  0.99
      L1  H    23    43       P1  8028  1.00
      P1  H  7989  7998       L1     7  1.00
      P1  H 10752 10764       L1     4  1.00

> <Gold.PLP.Chemscore.Internal.Correction>
0.6581

> <Gold.Rescore>
     Score         DG    S(hbond)    S(metal)    S(lipo)     H(rot)  DE(clash)    DE(int)     intcor
     17.01     -19.55       3.37        0.00      88.22       2.93       0.44       2.10       ----

> <Gold.Chemscore.Fitness>
17.0093

> <Gold.Chemscore.DG>
-19.5525

> <Gold.Chemscore.ZeroCoef>
-5.4800

> <Gold.Chemscore.Hbond>
3.3709

> <Gold.Chemscore.Metal>
0.0000

> <Gold.Chemscore.Lipo>
88.2235

> <Gold.Chemscore.Internal_Hbond>
0.0000

> <Gold.Chemscore.DEClash>
0.4430

> <Gold.Chemscore.DEInternal>
2.1002

> <Gold.Chemscore.Rot>
2.9330

> <Gold.Chemscore.Internal.Correction>
   9.000000E+99

> <Gold.Chemscore.Hbonds>
donor molecule, donor type, donor heavy atom, donor atom, acceptor molecule, acceptor atom, score
      L1  H    21    40       P1  8028  0.89
      L1  H    23    43       P1  8028  0.35
      P1  H  7989  7998       L1     7  0.93
      P1  H 10752 10764       L1     4  0.83

> <Gold.Chemscore.Hbond.Weighted>
-11.2587

> <Gold.Chemscore.Metal.Weighted>
-0.0000

> <Gold.Chemscore.Lipo.Weighted>
-10.3221

> <Gold.Chemscore.Internal_Hbond.Weighted>
0.0000

> <Gold.Chemscore.DEClash.Weighted>
0.4430

> <Gold.Chemscore.DEInternal.Weighted>
2.1002

> <Gold.Chemscore.Rot.Weighted>
7.5084

> <Gold.Chemscore.Internal.Correction.Weighted>
   9.000000E+99

> <Gold.Protein.RotatedTorsions>
[ 6907 6896 6895 6894 ] final    8.80 input  -60.11 | X-H torsion
[ 7974 7965 7964 7962 ] final  -69.76 input  175.53 | X-H torsion
[ 8008 7997 7996 7995 ] final  130.98 input   59.86 | X-H torsion
[ 10167 10162 10161 10158 ] final   -5.80 input  -65.29 | X-H torsion
[ 10718 10713 10712 10709 ] final  163.12 input   66.30 | X-H torsion
[ 10763 10752 10751 10750 ] final    9.72 input  -60.55 | X-H torsion
[ 11005 11000 10999 10996 ] final  128.58 input  -57.11 | X-H torsion

> <Gold.Protein.ActiveResidues>
 VAL166  LYS551  ARG553  GLY616  TRP617  ASP618  TYR619  PRO620  LYS621  CYS622 
 ASP623  PHE694  ASN695  SER759  ASP760  ASP761  ALA762  ILE779  LEU786  VAL792 
 PHE793  MET794  SER795  GLU796  ALA797  LYS798  CYS799  TRP800  GLU811  SER814 

> <Gold.Protein.RotatedAtoms>
  151.7119  135.0911  160.0268 H   0  0  0  0  0  0  0  0  0  0  0  0  # atno 6907 bound_to 6896
  152.3656  133.6348  159.6056 H   0  0  0  0  0  0  0  0  0  0  0  0  # atno 6908 bound_to 6896
  150.7635  133.9270  159.3456 H   0  0  0  0  0  0  0  0  0  0  0  0  # atno 6909 bound_to 6896
  145.6996  140.9121  143.0738 H   0  0  0  0  0  0  0  0  0  0  0  0  # atno 7974 bound_to 7965
  156.2963  140.2582  156.2851 H   0  0  0  0  0  0  0  0  0  0  0  0  # atno 8008 bound_to 7997
  154.9564  140.0393  157.2188 H   0  0  0  0  0  0  0  0  0  0  0  0  # atno 8009 bound_to 7997
  154.7987  140.2824  155.5942 H   0  0  0  0  0  0  0  0  0  0  0  0  # atno 8010 bound_to 7997
  140.6975  143.6267  150.8561 H   0  0  0  0  0  0  0  0  0  0  0  0  # atno 10167 bound_to 10162
  157.1129  131.0472  151.2449 H   0  0  0  0  0  0  0  0  0  0  0  0  # atno 10718 bound_to 10713
  153.2109  135.6869  153.8115 H   0  0  0  0  0  0  0  0  0  0  0  0  # atno 10763 bound_to 10752
  153.7348  135.3247  155.3294 H   0  0  0  0  0  0  0  0  0  0  0  0  # atno 10764 bound_to 10752
  154.8221  135.4644  154.0916 H   0  0  0  0  0  0  0  0  0  0  0  0  # atno 10765 bound_to 10752
  139.9568  134.9611  156.9022 H   0  0  0  0  0  0  0  0  0  0  0  0  # atno 11005 bound_to 11000
  144.6972  139.8930  143.7454 LP  0  0  0  0  0  0  0  0  0  0  0  0  # atno 17320 bound_to 7965
  146.0809  139.3797  143.0465 LP  0  0  0  0  0  0  0  0  0  0  0  0  # atno 17321 bound_to 7965
  139.9987  143.5768  152.2884 LP  0  0  0  0  0  0  0  0  0  0  0  0  # atno 17342 bound_to 10162
  139.6449  144.7657  151.2263 LP  0  0  0  0  0  0  0  0  0  0  0  0  # atno 17343 bound_to 10162
  157.4543  130.7616  149.7179 LP  0  0  0  0  0  0  0  0  0  0  0  0  # atno 17370 bound_to 10713
  155.9846  130.3990  150.3303 LP  0  0  0  0  0  0  0  0  0  0  0  0  # atno 17371 bound_to 10713
  140.5591  134.0553  155.7393 LP  0  0  0  0  0  0  0  0  0  0  0  0  # atno 17394 bound_to 11000
  141.1241  133.9413  157.2672 LP  0  0  0  0  0  0  0  0  0  0  0  0  # atno 17395 bound_to 11000

$$$$
