#       Name:                AV-unprocessed.smi:2061
#       Creating user name   scv26
#       Creation time:       Fri Mar 27 11:07:50 2020


#       File generated by GOLD software.
#

@<TRIPOS>MOLECULE
AV-unprocessed.smi:2061
    53    54     1
SMALL
NO_CHARGES


@<TRIPOS>ATOM
      1 ****        -4.2186   4.8249  -2.0254 C.3            1 S1                 0.0000
      2 ****        -3.6097   3.4923  -1.7501 C.2            1 S1                 0.0000
      3 ****        -2.7655   2.6933  -2.4682 C.2            1 S1                 0.0000
      4 ****        -2.5886   1.5682  -1.6197 C.2            1 S1                 0.0000
      5 ****        -1.7478   0.4925  -2.0088 N.am           1 S1                 0.0000
      6 ****        -1.4802  -0.6456  -1.3444 C.2            1 S1                 0.0000
      7 ****        -2.0798  -0.9121  -0.2962 O.2            1 S1                 0.0000
      8 ****        -0.5161  -1.3872  -1.9561 N.pl3          1 S1                -1.0000
      9 ****         0.0350  -2.6410  -1.4326 C.3            1 S1                 0.0000
     10 ****         1.4145  -2.4170  -0.7550 C.3            1 S1                 0.0000
     11 ****         2.5614  -2.0927  -1.7454 C.3            1 S1                 0.0000
     12 ****         1.3086  -1.4716   0.4046 N.4            1 S1                 1.0000
     13 ****         1.8494  -2.0160   1.6726 C.3            1 S1                 0.0000
     14 ****         1.4859  -1.0909   2.8479 C.3            1 S1                 0.0000
     15 ****         2.0988  -1.5717   4.1677 C.3            1 S1                 0.0000
     16 ****         1.9736   0.2241   2.5926 O.3            1 S1                 0.0000
     17 ****         1.4912   0.8191   1.3879 C.3            1 S1                 0.0000
     18 ****         0.0111   1.2273   1.4877 C.3            1 S1                 0.0000
     19 ****         1.8117  -0.0879   0.1846 C.3            1 S1                 0.0000
     20 ****        -3.2588   1.6754  -0.4817 N.2            1 S1                 0.0000
     21 ****        -3.9189   2.9071  -0.5610 O.3            1 S1                 0.0000
     22 ****        -3.4456   5.5823  -2.1554 H              1 S1                 0.0000
     23 ****        -4.8648   5.1400  -1.2057 H              1 S1                 0.0000
     24 ****        -4.8187   4.7938  -2.9349 H              1 S1                 0.0000
     25 ****        -2.3439   2.8843  -3.4438 H              1 S1                 0.0000
     26 ****        -1.2539   0.6183  -2.8800 H              1 S1                 0.0000
     27 ****        -0.6317  -3.1155  -0.7111 H              1 S1                 0.0000
     28 ****         0.1523  -3.3757  -2.2292 H              1 S1                 0.0000
     29 ****         1.6720  -3.3952  -0.3463 H              1 S1                 0.0000
     30 ****         2.6774  -2.8741  -2.4987 H              1 S1                 0.0000
     31 ****         3.5162  -2.0250  -1.2232 H              1 S1                 0.0000
     32 ****         2.4092  -1.1527  -2.2783 H              1 S1                 0.0000
     33 ****         1.4345  -3.0078   1.8579 H              1 S1                 0.0000
     34 ****         2.9316  -2.1280   1.5886 H              1 S1                 0.0000
     35 ****         0.4028  -1.0654   2.9697 H              1 S1                 0.0000
     36 ****         1.7498  -2.5728   4.4215 H              1 S1                 0.0000
     37 ****         1.8253  -0.9079   4.9883 H              1 S1                 0.0000
     38 ****         3.1874  -1.6001   4.1110 H              1 S1                 0.0000
     39 ****         2.0586   1.7416   1.2612 H              1 S1                 0.0000
     40 ****        -0.3018   1.7674   0.5938 H              1 S1                 0.0000
     41 ****        -0.1542   1.8835   2.3423 H              1 S1                 0.0000
     42 ****        -0.6506   0.3692   1.5949 H              1 S1                 0.0000
     43 ****         2.8930  -0.1114   0.0450 H              1 S1                 0.0000
     44 ****         1.3827   0.3405  -0.7215 H              1 S1                 0.0000
     45 ****         0.3132  -1.3776   0.5547 H              1 S1                 0.0000
     46 ****        -2.7673  -0.2800   0.0611 LP             1 S1                 0.0000
     47 ****        -1.8771  -1.7598   0.1941 LP             1 S1                 0.0000
     48 ****        -0.1571  -1.0519  -2.8272 LP             1 S1                 0.0000
     49 ****         2.9713   0.1809   2.5402 LP             1 S1                 0.0000
     50 ****         1.7050   0.8093   3.3576 LP             1 S1                 0.0000
     51 ****        -3.2869   1.0180   0.2713 LP             1 S1                 0.0000
     52 ****        -4.9068   2.7636  -0.5035 LP             1 S1                 0.0000
     53 ****        -3.6232   3.4963   0.1909 LP             1 S1                 0.0000
@<TRIPOS>BOND
    1    1    2 1     
    2    1   22 1     
    3    1   23 1     
    4    1   24 1     
    5    2   21 1     
    6    2    3 2     
    7    3    4 1     
    8    3   25 1     
    9    4    5 1     
   10    4   20 2     
   11    5    6 am    
   12    5   26 1     
   13    6    7 2     
   14    6    8 1     
   15    8    9 1     
   16    9   10 1     
   17    9   27 1     
   18    9   28 1     
   19   10   11 1     
   20   10   12 1     
   21   10   29 1     
   22   11   30 1     
   23   11   31 1     
   24   11   32 1     
   25   12   19 1     
   26   12   13 1     
   27   12   45 1     
   28   13   14 1     
   29   13   33 1     
   30   13   34 1     
   31   14   15 1     
   32   14   16 1     
   33   14   35 1     
   34   15   36 1     
   35   15   37 1     
   36   15   38 1     
   37   16   17 1     
   38   17   18 1     
   39   17   19 1     
   40   17   39 1     
   41   18   40 1     
   42   18   41 1     
   43   18   42 1     
   44   19   43 1     
   45   19   44 1     
   46   20   21 1     
   47    7   46 1     
   48    7   47 1     
   49    8   48 1     
   50   16   49 1     
   51   16   50 1     
   52   20   51 1     
   53   21   52 1     
   54   21   53 1     
@<TRIPOS>SUBSTRUCTURE
      1 S1             1
@<TRIPOS>SET
LONE_PAIRS      STATIC     ATOMS    <user>   **** ""
8 46 47 48 49 50 51 52 53
DONOR_HYDROGENS      STATIC     ATOMS    <user>   **** ""
2 26 45
ATOM$BLUE        STATIC     ATOMS    COLORGROUP SYSTEM
8 46 47 48 49 50 51 52 53
ATOM$RED        STATIC     ATOMS    COLORGROUP SYSTEM
2 26 45
