AV-unprocessed.smi:2691|AV-procd|sdf|10391|dock9
  -GOLD-   2272014423D 1   1.00000     0.00000
 Structure written by MMmdl.
 49 51  0  0  0  0  0  0  0  0  1 V2000
  153.6358  142.1995  162.3202 C   0  0  0  0  0  0  0  0  0  0  0  0
  153.0386  142.1112  160.9269 C   0  0  0  0  0  0  0  0  0  0  0  0
  153.1816  140.9121  160.1927 C   0  0  0  0  0  0  0  0  0  0  0  0
  152.6399  140.7887  158.8946 C   0  0  0  0  0  0  0  0  0  0  0  0
  152.6603  139.7246  158.0089 N   0  0  0  0  0  0  0  0  0  0  0  0
  151.9895  140.2241  156.9748 C   0  0  0  0  0  0  0  0  0  0  0  0
  151.5361  141.4874  157.0865 N   0  0  0  0  0  0  0  0  0  0  0  0
  150.7788  142.2411  156.1038 C   0  0  0  0  0  0  0  0  0  0  0  0
  149.5719  141.4529  155.5591 C   0  0  1  0  0  0  0  0  0  0  0  0
  150.0494  140.4679  154.6627 O   0  0  0  0  0  0  0  0  0  0  0  0
  148.7875  140.7549  156.6911 C   0  0  0  0  0  0  0  0  0  0  0  0
  148.1090  141.7201  157.5706 N   0  0  0  0  0  0  0  0  0  0  0  0
  148.9077  142.3529  158.5416 C   0  0  0  0  0  0  0  0  0  0  0  0
  148.4191  143.2292  159.3602 N   0  0  0  0  0  0  0  0  0  0  0  0
  147.0603  143.5629  159.2939 C   0  0  0  0  0  0  0  0  0  0  0  0
  146.5343  144.5956  160.2827 C   0  0  0  0  0  0  0  0  0  0  0  0
  147.6814  145.2321  161.0819 C   0  0  0  0  0  0  0  0  0  0  0  0
  145.4588  144.0068  161.2105 C   0  0  0  0  0  0  0  0  0  0  0  0
  146.2482  142.9654  158.3895 C   0  0  0  0  0  0  0  0  0  0  0  0
  146.7723  141.9710  157.4532 C   0  0  0  0  0  0  0  0  0  0  0  0
  146.0628  141.4026  156.6226 O   0  0  0  0  0  0  0  0  0  0  0  0
  151.9440  141.9060  158.3478 C   0  0  0  0  0  0  0  0  0  0  0  0
  151.7946  143.1044  159.0679 C   0  0  0  0  0  0  0  0  0  0  0  0
  152.3449  143.2119  160.3623 C   0  0  0  0  0  0  0  0  0  0  0  0
  152.1817  144.5115  161.1305 C   0  0  0  0  0  0  0  0  0  0  0  0
  154.0837  141.2522  162.6219 H   0  0  0  0  0  0  0  0  0  0  0  0
  152.8676  142.4527  163.0512 H   0  0  0  0  0  0  0  0  0  0  0  0
  154.4129  142.9633  162.3542 H   0  0  0  0  0  0  0  0  0  0  0  0
  153.7105  140.0739  160.6218 H   0  0  0  0  0  0  0  0  0  0  0  0
  151.8182  139.6382  156.0836 H   0  0  0  0  0  0  0  0  0  0  0  0
  150.4544  143.1816  156.5520 H   0  0  0  0  0  0  0  0  0  0  0  0
  151.4565  142.5006  155.2895 H   0  0  0  0  0  0  0  0  0  0  0  0
  148.9227  142.1370  155.0107 H   0  0  0  0  0  0  0  0  0  0  0  0
  150.0275  139.6290  155.0970 H   0  0  0  0  0  0  0  0  0  0  0  0
  148.0992  140.0118  156.2832 H   0  0  0  0  0  0  0  0  0  0  0  0
  149.4769  140.1695  157.3025 H   0  0  0  0  0  0  0  0  0  0  0  0
  149.9567  142.0521  158.5548 H   0  0  0  0  0  0  0  0  0  0  0  0
  146.0592  145.3915  159.7074 H   0  0  0  0  0  0  0  0  0  0  0  0
  148.4263  145.6709  160.4175 H   0  0  0  0  0  0  0  0  0  0  0  0
  148.1868  144.4971  161.7093 H   0  0  0  0  0  0  0  0  0  0  0  0
  147.3123  146.0255  161.7322 H   0  0  0  0  0  0  0  0  0  0  0  0
  144.6430  143.5676  160.6355 H   0  0  0  0  0  0  0  0  0  0  0  0
  145.0312  144.7785  161.8513 H   0  0  0  0  0  0  0  0  0  0  0  0
  145.8663  143.2302  161.8589 H   0  0  0  0  0  0  0  0  0  0  0  0
  145.1995  143.2219  158.3489 H   0  0  0  0  0  0  0  0  0  0  0  0
  151.2629  143.9342  158.6254 H   0  0  0  0  0  0  0  0  0  0  0  0
  151.6905  145.2729  160.5239 H   0  0  0  0  0  0  0  0  0  0  0  0
  153.1530  144.9030  161.4337 H   0  0  0  0  0  0  0  0  0  0  0  0
  151.5776  144.3519  162.0239 H   0  0  0  0  0  0  0  0  0  0  0  0
  1  2  1  0  0  0  0
  1 26  1  0  0  0  0
  1 27  1  0  0  0  0
  1 28  1  0  0  0  0
  2 24  1  0  0  0  0
  2  3  2  0  0  0  0
  3  4  1  0  0  0  0
  3 29  1  0  0  0  0
  4 22  2  0  0  0  0
  4  5  1  0  0  0  0
  5  6  2  0  0  0  0
  6  7  1  0  0  0  0
  6 30  1  0  0  0  0
  7  8  1  0  0  0  0
  7 22  1  0  0  0  0
  8  9  1  0  0  0  0
  8 31  1  0  0  0  0
  8 32  1  0  0  0  0
  9 10  1  0  0  0  0
  9 11  1  0  0  0  0
  9 33  1  0  0  0  0
 10 34  1  0  0  0  0
 11 12  1  0  0  0  0
 11 35  1  0  0  0  0
 11 36  1  0  0  0  0
 12 20  1  0  0  0  0
 12 13  1  0  0  0  0
 13 14  2  0  0  0  0
 13 37  1  0  0  0  0
 14 15  1  0  0  0  0
 15 16  1  0  0  0  0
 15 19  2  0  0  0  0
 16 17  1  0  0  0  0
 16 18  1  0  0  0  0
 16 38  1  0  0  0  0
 17 39  1  0  0  0  0
 17 40  1  0  0  0  0
 17 41  1  0  0  0  0
 18 42  1  0  0  0  0
 18 43  1  0  0  0  0
 18 44  1  0  0  0  0
 19 20  1  0  0  0  0
 19 45  1  0  0  0  0
 20 21  2  0  0  0  0
 22 23  1  0  0  0  0
 23 24  2  0  0  0  0
 23 46  1  0  0  0  0
 24 25  1  0  0  0  0
 25 47  1  0  0  0  0
 25 48  1  0  0  0  0
 25 49  1  0  0  0  0
M  END
> <s_m_source_file>
AV-unprocessed.smi

> <i_m_source_file_index>
2691

> <i_lp_mmshare_version>
43012

> <i_f3d_flags>
0

> <s_epik_input>
W0NIM11jKFtjSF0xKWMoW0NIM10pW2NIXWMoYzEyKW4oW2NIXW4yKVtDSDJdW0NASF0oW09IXSlbQ0gyXW4zW2NIXW5jKFtDSF0oW0NIM10pW0NIM10pW2NIXWMzPU8=

> <s_epik_cmdline>
J2VwaWtfcHl0aG9uJywgJy1waCcsICc3LjAnLCAnLXRuJywgJzgnLCAnLW1hJywgJzIwMCcsICctbWV0YWxfYmluZGluZycsICctaW1hZScsICc8aW5maWxlLm1hZT4nLCAnLW9tYWUnLCAnPG91dGZpbGUubWFlPic=

> <r_lp_tautomer_probability>
1

> <r_epik_Ionization_Penalty>
0.113357

> <r_epik_Ionization_Penalty_Charging>
3.84185e-08

> <r_epik_Ionization_Penalty_Neutral>
0.113357

> <r_epik_State_Penalty>
0.103025

> <r_epik_Charging_Adjusted_Penalty>
0.103025

> <i_epik_Tot_Q>
0

> <i_epik_Tot_abs_Q>
0

> <r_epik_Metal_State_Penalty>
0.0863451

> <b_epik_Metal_Only>
0

> <s_lp_Force_Field>
OPLS_2005

> <r_lp_Energy>
17.2292

> <b_lp_Chiralities_Consistent>
1

> <s_lp_Variant>
AV-unprocessed.smi:2691-2

> <Gold.Version>
5.8.1

> <Gold.Id.Protein>
6NUR|6NUR_protein|mol2

> <Gold.PLP.Fitness>
52.9660

> <Gold.PLP.PLP>
-48.3451

> <Gold.PLP.part.hbond>
-3.0000

> <Gold.PLP.part.metal>
0.0000

> <Gold.PLP.part.buried>
-6.7910

> <Gold.PLP.part.nonpolar>
-38.1684

> <Gold.PLP.part.repulsive>
0.1395

> <Gold.PLP.ligand.clash>
0.0000

> <Gold.PLP.ligand.torsion>
0.5503

> <Gold.PLP.Chemscore.Hbond>
1.8821

> <Gold.PLP.Chemscore.CHOScore>
0.0000

> <Gold.PLP.Chemscore.Metal>
0.0000

> <Gold.Chemscore.Hbonds>
donor molecule, donor type, donor heavy atom, donor atom, acceptor molecule, acceptor atom, score
      P1  H  6933  6944       L1    14  0.27
      P1  H  7989  7998       L1    10  0.93
      P1  H  7997  8008       L1     5  0.29

> <Gold.PLP.Chemscore.Internal.Correction>
0.0752

> <Gold.Rescore>
     Score         DG    S(hbond)    S(metal)    S(lipo)     H(rot)  DE(clash)    DE(int)     intcor
     15.75     -17.16       1.24        0.00     118.18       2.45       0.05       1.36       ----

> <Gold.Chemscore.Fitness>
15.7483

> <Gold.Chemscore.DG>
-17.1576

> <Gold.Chemscore.ZeroCoef>
-5.4800

> <Gold.Chemscore.Hbond>
1.2370

> <Gold.Chemscore.Metal>
0.0000

> <Gold.Chemscore.Lipo>
118.1816

> <Gold.Chemscore.Internal_Hbond>
0.0000

> <Gold.Chemscore.DEClash>
0.0510

> <Gold.Chemscore.DEInternal>
1.3582

> <Gold.Chemscore.Rot>
2.4536

> <Gold.Chemscore.Internal.Correction>
   9.000000E+99

> <Gold.Chemscore.Hbonds>
donor molecule, donor type, donor heavy atom, donor atom, acceptor molecule, acceptor atom, score
      P1  H  6933  6944       L1    14  0.05
      P1  H  7989  7998       L1    10  0.80
      P1  H  7997  8008       L1     5  0.01

> <Gold.Chemscore.Hbond.Weighted>
-4.1316

> <Gold.Chemscore.Metal.Weighted>
-0.0000

> <Gold.Chemscore.Lipo.Weighted>
-13.8272

> <Gold.Chemscore.Internal_Hbond.Weighted>
0.0000

> <Gold.Chemscore.DEClash.Weighted>
0.0510

> <Gold.Chemscore.DEInternal.Weighted>
1.3582

> <Gold.Chemscore.Rot.Weighted>
6.2812

> <Gold.Chemscore.Internal.Correction.Weighted>
   9.000000E+99

> <Gold.Protein.RotatedTorsions>
[ 6907 6896 6895 6894 ] final  -44.57 input  -60.11 | X-H torsion
[ 7974 7965 7964 7962 ] final  -70.99 input  175.53 | X-H torsion
[ 8008 7997 7996 7995 ] final  -98.47 input   59.86 | X-H torsion
[ 10167 10162 10161 10158 ] final -160.09 input  -65.29 | X-H torsion
[ 10718 10713 10712 10709 ] final  -53.21 input   66.30 | X-H torsion
[ 10763 10752 10751 10750 ] final  119.37 input  -60.55 | X-H torsion
[ 11005 11000 10999 10996 ] final  169.40 input  -57.11 | X-H torsion

> <Gold.Protein.ActiveResidues>
 VAL166  LYS551  ARG553  GLY616  TRP617  ASP618  TYR619  PRO620  LYS621  CYS622 
 ASP623  PHE694  ASN695  SER759  ASP760  ASP761  ALA762  ILE779  LEU786  VAL792 
 PHE793  MET794  SER795  GLU796  ALA797  LYS798  CYS799  TRP800  GLU811  SER814 

> <Gold.Protein.RotatedAtoms>
  150.9314  134.8729  159.7553 H   0  0  0  0  0  0  0  0  0  0  0  0  # atno 6907 bound_to 6896
  152.5039  134.4074  159.9447 H   0  0  0  0  0  0  0  0  0  0  0  0  # atno 6908 bound_to 6896
  151.4100  133.3690  159.2778 H   0  0  0  0  0  0  0  0  0  0  0  0  # atno 6909 bound_to 6896
  145.6839  140.9178  143.0817 H   0  0  0  0  0  0  0  0  0  0  0  0  # atno 7974 bound_to 7965
  154.8017  140.0455  157.1277 H   0  0  0  0  0  0  0  0  0  0  0  0  # atno 8008 bound_to 7997
  154.9471  140.3060  155.5073 H   0  0  0  0  0  0  0  0  0  0  0  0  # atno 8009 bound_to 7997
  156.2962  140.2295  156.4546 H   0  0  0  0  0  0  0  0  0  0  0  0  # atno 8010 bound_to 7997
  139.6565  143.9989  152.2197 H   0  0  0  0  0  0  0  0  0  0  0  0  # atno 10167 bound_to 10162
  156.1555  130.4150  149.9876 H   0  0  0  0  0  0  0  0  0  0  0  0  # atno 10718 bound_to 10713
  153.5819  135.3482  155.2878 H   0  0  0  0  0  0  0  0  0  0  0  0  # atno 10763 bound_to 10752
  154.8666  135.4184  154.2610 H   0  0  0  0  0  0  0  0  0  0  0  0  # atno 10764 bound_to 10752
  153.3399  135.7049  153.6946 H   0  0  0  0  0  0  0  0  0  0  0  0  # atno 10765 bound_to 10752
  140.2974  134.7623  157.3888 H   0  0  0  0  0  0  0  0  0  0  0  0  # atno 11005 bound_to 11000
  144.7017  139.8732  143.7442 LP  0  0  0  0  0  0  0  0  0  0  0  0  # atno 17320 bound_to 7965
  146.0940  139.3932  143.0388 LP  0  0  0  0  0  0  0  0  0  0  0  0  # atno 17321 bound_to 7965
  139.9717  144.6489  150.7983 LP  0  0  0  0  0  0  0  0  0  0  0  0  # atno 17342 bound_to 10162
  140.7561  143.3060  151.2961 LP  0  0  0  0  0  0  0  0  0  0  0  0  # atno 17343 bound_to 10162
  156.7721  130.9190  151.3644 LP  0  0  0  0  0  0  0  0  0  0  0  0  # atno 17370 bound_to 10713
  157.6691  130.9035  150.0000 LP  0  0  0  0  0  0  0  0  0  0  0  0  # atno 17371 bound_to 10713
  140.1140  134.5308  155.8241 LP  0  0  0  0  0  0  0  0  0  0  0  0  # atno 17394 bound_to 11000
  141.2135  133.6734  156.6742 LP  0  0  0  0  0  0  0  0  0  0  0  0  # atno 17395 bound_to 11000

$$$$
