#       Name:                AV-unprocessed.smi:598
#       Creating user name   scv26
#       Creation time:       Thu Mar 26 23:53:55 2020


#       File generated by GOLD software.
#

@<TRIPOS>MOLECULE
AV-unprocessed.smi:598
    49    50     1
SMALL
NO_CHARGES


@<TRIPOS>ATOM
      1 ****        -3.9566  -0.5259   1.6840 C.3            1 S1                 0.0000
      2 ****        -3.2322   0.3180   0.6222 C.3            1 S1                 0.0000
      3 ****        -3.7154  -0.0175  -0.8033 C.3            1 S1                 0.0000
      4 ****        -3.0645   0.9024  -1.8483 C.3            1 S1                 0.0000
      5 ****        -1.5319   0.8734  -1.7522 C.3            1 S1                 0.0000
      6 ****        -1.0545   1.2070  -0.3231 C.3            1 S1                 0.0000
      7 ****         0.4020   1.1730  -0.2428 N.am           1 S1                 0.0000
      8 ****         1.2434   2.1600  -0.5935 C.2            1 S1                 0.0000
      9 ****         0.8581   3.2370  -1.0461 O.2            1 S1                 0.0000
     10 ****         2.7531   1.9167  -0.4188 C.3            1 S1                 0.0000
     11 ****         3.1008   0.6199   0.1921 N.am           1 S1                 0.0000
     12 ****         3.3449  -0.4535  -0.6873 C.2            1 S1                 0.0000
     13 ****         3.6446  -1.6896  -0.2428 C.2            1 S1                 0.0000
     14 ****         3.8788  -2.7829  -1.1603 N.pl3          1 S1                 1.0000
     15 ****         4.1001  -3.8989  -0.7013 O.2            1 S1                 0.0000
     16 ****         3.8491  -2.5638  -2.3677 O.2            1 S1                -1.0000
     17 ****         3.7151  -1.8912   1.1915 C.2            1 S1                 0.0000
     18 ****         3.4797  -0.8696   2.0380 C.2            1 S1                 0.0000
     19 ****         3.1463   0.4731   1.5520 C.2            1 S1                 0.0000
     20 ****         2.9117   1.4056   2.3201 O.2            1 S1                 0.0000
     21 ****        -1.6849   0.2571   0.7291 C.3            1 S1                 0.0000
     22 ****        -1.1164  -1.1816   0.6724 C.3            1 S1                 0.0000
     23 ****        -3.8228  -1.5943   1.5146 H              1 S1                 0.0000
     24 ****        -5.0288  -0.3285   1.6705 H              1 S1                 0.0000
     25 ****        -3.5938  -0.2947   2.6858 H              1 S1                 0.0000
     26 ****        -3.5184   1.3531   0.8166 H              1 S1                 0.0000
     27 ****        -3.4953  -1.0587  -1.0410 H              1 S1                 0.0000
     28 ****        -4.7996   0.0840  -0.8613 H              1 S1                 0.0000
     29 ****        -3.3801   0.6096  -2.8500 H              1 S1                 0.0000
     30 ****        -3.4167   1.9241  -1.7011 H              1 S1                 0.0000
     31 ****        -1.1642  -0.1078  -2.0537 H              1 S1                 0.0000
     32 ****        -1.1141   1.5864  -2.4639 H              1 S1                 0.0000
     33 ****        -1.3820   2.2213  -0.0858 H              1 S1                 0.0000
     34 ****         0.8077   0.3217   0.1176 H              1 S1                 0.0000
     35 ****         3.2237   2.0041  -1.3992 H              1 S1                 0.0000
     36 ****         3.1706   2.7391   0.1647 H              1 S1                 0.0000
     37 ****         3.2587  -0.2016  -1.7347 H              1 S1                 0.0000
     38 ****         3.9574  -2.8624   1.5971 H              1 S1                 0.0000
     39 ****         3.5371  -1.0422   3.1028 H              1 S1                 0.0000
     40 ****        -1.4170   0.6503   1.7112 H              1 S1                 0.0000
     41 ****        -1.3403  -1.6742  -0.2731 H              1 S1                 0.0000
     42 ****        -1.5209  -1.8026   1.4708 H              1 S1                 0.0000
     43 ****        -0.0337  -1.1936   0.7988 H              1 S1                 0.0000
     44 ****        -0.1198   3.4074  -1.1669 LP             1 S1                 0.0000
     45 ****         1.5228   3.9420  -1.2932 LP             1 S1                 0.0000
     46 ****         4.1159  -4.0382   0.2888 LP             1 S1                 0.0000
     47 ****         4.2648  -4.6693  -1.3173 LP             1 S1                 0.0000
     48 ****         2.6785   2.3071   1.9555 LP             1 S1                 0.0000
     49 ****         2.9543   1.2618   3.3088 LP             1 S1                 0.0000
@<TRIPOS>BOND
    1    1    2 1     
    2    1   23 1     
    3    1   24 1     
    4    1   25 1     
    5    2   21 1     
    6    2    3 1     
    7    2   26 1     
    8    3    4 1     
    9    3   27 1     
   10    3   28 1     
   11    4    5 1     
   12    4   29 1     
   13    4   30 1     
   14    5    6 1     
   15    5   31 1     
   16    5   32 1     
   17    6    7 1     
   18    6   21 1     
   19    6   33 1     
   20    7    8 am    
   21    7   34 1     
   22    8    9 2     
   23    8   10 1     
   24   10   11 1     
   25   10   35 1     
   26   10   36 1     
   27   11   19 am    
   28   11   12 1     
   29   12   13 2     
   30   12   37 1     
   31   13   14 1     
   32   13   17 1     
   33   14   15 2     
   34   14   16 1     
   35   17   18 2     
   36   17   38 1     
   37   18   19 1     
   38   18   39 1     
   39   19   20 2     
   40   21   22 1     
   41   21   40 1     
   42   22   41 1     
   43   22   42 1     
   44   22   43 1     
   45    9   44 1     
   46    9   45 1     
   47   15   46 1     
   48   15   47 1     
   49   20   48 1     
   50   20   49 1     
@<TRIPOS>SUBSTRUCTURE
      1 S1             1
@<TRIPOS>SET
LONE_PAIRS      STATIC     ATOMS    <user>   **** ""
7 44 45 46 47 16 48 49
DONOR_HYDROGENS      STATIC     ATOMS    <user>   **** ""
1 34
ATOM$BLUE        STATIC     ATOMS    COLORGROUP SYSTEM
7 44 45 46 47 16 48 49
ATOM$RED        STATIC     ATOMS    COLORGROUP SYSTEM
1 34
