AV-unprocessed.smi:693|AV-procd|sdf|3373|dock2
  -GOLD-   22720 0353D 1   1.00000     0.00000
 Structure written by MMmdl.
 46 47  0  0  0  0  0  0  0  0  1 V2000
  153.7072  142.6652  163.3497 C   0  0  0  0  0  0  0  0  0  0  0  0
  153.0716  142.8808  161.9921 C   0  0  0  0  0  0  0  0  0  0  0  0
  153.0985  141.8584  161.0210 C   0  0  0  0  0  0  0  0  0  0  0  0
  152.4960  142.1033  159.7718 C   0  0  0  0  0  0  0  0  0  0  0  0
  151.8929  143.3570  159.5427 C   0  0  0  0  0  0  0  0  0  0  0  0
  151.2252  143.6726  158.2190 C   0  0  0  0  0  0  0  0  0  0  0  0
  151.3114  142.4953  157.2347 C   0  0  0  0  0  0  0  0  0  0  0  0
  150.0650  142.3196  156.4984 N   0  0  0  0  0  0  0  0  0  0  0  0
  149.8689  141.4283  155.5116 C   0  0  0  0  0  0  0  0  0  0  0  0
  150.7527  140.6496  155.1498 O   0  0  0  0  0  0  0  0  0  0  0  0
  148.6211  141.4352  154.9770 N   0  0  0  0  0  0  0  0  0  0  0  0
  148.1828  140.6992  153.7802 C   0  0  0  0  0  0  0  0  0  0  0  0
  147.3521  139.4867  154.2319 C   0  0  0  0  0  0  0  0  0  0  0  0
  146.1654  139.9243  155.1120 C   0  0  0  0  0  0  0  0  0  0  0  0
  146.6007  140.8686  156.2616 C   0  0  2  0  0  0  0  0  0  0  0  0
  145.4150  141.4439  157.0694 C   0  0  0  0  0  0  0  0  0  0  0  0
  145.8332  142.1727  158.3507 C   0  0  0  0  0  0  0  0  0  0  0  0
  146.4968  143.3225  158.2073 N   0  0  0  0  0  0  0  0  0  0  0  0
  145.5427  141.7184  159.4552 O   0  0  0  0  0  0  0  0  0  0  0  0
  147.4747  142.0093  155.6932 C   0  0  0  0  0  0  0  0  0  0  0  0
  151.9206  144.3116  160.5811 C   0  0  0  0  0  0  0  0  0  0  0  0
  152.4959  144.0853  161.7816 N   0  0  0  0  0  0  0  0  0  0  0  0
  153.3310  141.7474  163.8023 H   0  0  0  0  0  0  0  0  0  0  0  0
  153.4915  143.4912  164.0288 H   0  0  0  0  0  0  0  0  0  0  0  0
  154.7892  142.5804  163.2489 H   0  0  0  0  0  0  0  0  0  0  0  0
  153.5689  140.9084  161.2283 H   0  0  0  0  0  0  0  0  0  0  0  0
  152.4958  141.3413  159.0061 H   0  0  0  0  0  0  0  0  0  0  0  0
  150.1835  143.9349  158.4075 H   0  0  0  0  0  0  0  0  0  0  0  0
  151.6916  144.5582  157.7857 H   0  0  0  0  0  0  0  0  0  0  0  0
  152.1104  142.6708  156.5140 H   0  0  0  0  0  0  0  0  0  0  0  0
  151.5656  141.5737  157.7612 H   0  0  0  0  0  0  0  0  0  0  0  0
  149.2945  142.9204  156.7530 H   0  0  0  0  0  0  0  0  0  0  0  0
  147.5734  141.3561  153.1576 H   0  0  0  0  0  0  0  0  0  0  0  0
  148.9988  140.3700  153.1371 H   0  0  0  0  0  0  0  0  0  0  0  0
  146.9882  138.9363  153.3641 H   0  0  0  0  0  0  0  0  0  0  0  0
  147.9873  138.7985  154.7914 H   0  0  0  0  0  0  0  0  0  0  0  0
  145.4310  140.4341  154.4871 H   0  0  0  0  0  0  0  0  0  0  0  0
  145.6712  139.0360  155.5051 H   0  0  0  0  0  0  0  0  0  0  0  0
  147.2237  140.2929  156.9489 H   0  0  0  0  0  0  0  0  0  0  0  0
  144.8479  142.1362  156.4450 H   0  0  0  0  0  0  0  0  0  0  0  0
  144.7222  140.6442  157.3345 H   0  0  0  0  0  0  0  0  0  0  0  0
  146.7913  143.8412  159.0219 H   0  0  0  0  0  0  0  0  0  0  0  0
  146.6996  143.6713  157.2817 H   0  0  0  0  0  0  0  0  0  0  0  0
  147.7856  142.6830  156.4929 H   0  0  0  0  0  0  0  0  0  0  0  0
  146.8911  142.6249  155.0068 H   0  0  0  0  0  0  0  0  0  0  0  0
  151.4658  145.2822  160.4472 H   0  0  0  0  0  0  0  0  0  0  0  0
  1  2  1  0  0  0  0
  1 23  1  0  0  0  0
  1 24  1  0  0  0  0
  1 25  1  0  0  0  0
  2 22  1  0  0  0  0
  2  3  2  0  0  0  0
  3  4  1  0  0  0  0
  3 26  1  0  0  0  0
  4  5  2  0  0  0  0
  4 27  1  0  0  0  0
  5  6  1  0  0  0  0
  5 21  1  0  0  0  0
  6  7  1  0  0  0  0
  6 28  1  0  0  0  0
  6 29  1  0  0  0  0
  7  8  1  0  0  0  0
  7 30  1  0  0  0  0
  7 31  1  0  0  0  0
  8  9  1  0  0  0  0
  8 32  1  0  0  0  0
  9 10  2  0  0  0  0
  9 11  1  0  0  0  0
 11 20  1  0  0  0  0
 11 12  1  0  0  0  0
 12 13  1  0  0  0  0
 12 33  1  0  0  0  0
 12 34  1  0  0  0  0
 13 14  1  0  0  0  0
 13 35  1  0  0  0  0
 13 36  1  0  0  0  0
 14 15  1  0  0  0  0
 14 37  1  0  0  0  0
 14 38  1  0  0  0  0
 15 16  1  0  0  0  0
 15 20  1  0  0  0  0
 15 39  1  0  0  0  0
 16 17  1  0  0  0  0
 16 40  1  0  0  0  0
 16 41  1  0  0  0  0
 17 18  1  0  0  0  0
 17 19  2  0  0  0  0
 18 42  1  0  0  0  0
 18 43  1  0  0  0  0
 20 44  1  0  0  0  0
 20 45  1  0  0  0  0
 21 22  2  0  0  0  0
 21 46  1  0  0  0  0
M  END
> <s_m_source_file>
AV-unprocessed.smi

> <i_m_source_file_index>
693

> <i_lp_mmshare_version>
43012

> <i_f3d_flags>
0

> <s_epik_input>
W0NIM11jMVtjSF1bY0hdYyhbY0hdbjEpW0NIMl1bQ0gyXVtOSF1DKD1PKU4yW0NIMl1bQ0gyXVtDSDJdW0NASF0oW0NIMl0yKVtDSDJdQyg9TylbTkgyXQ==

> <s_epik_cmdline>
J2VwaWtfcHl0aG9uJywgJy1waCcsICc3LjAnLCAnLXRuJywgJzgnLCAnLW1hJywgJzIwMCcsICctbWV0YWxfYmluZGluZycsICctaW1hZScsICc8aW5maWxlLm1hZT4nLCAnLW9tYWUnLCAnPG91dGZpbGUubWFlPic=

> <r_epik_Ionization_Penalty>
0.056948

> <r_epik_Ionization_Penalty_Charging>
0

> <r_epik_Ionization_Penalty_Neutral>
0.056948

> <r_epik_State_Penalty>
0.0490937

> <r_epik_Charging_Adjusted_Penalty>
0.0490937

> <i_epik_Tot_Q>
0

> <i_epik_Tot_abs_Q>
0

> <r_epik_Metal_State_Penalty>
0.0447689

> <b_epik_Metal_Only>
0

> <s_lp_Force_Field>
OPLS_2005

> <r_lp_Energy>
26.3335

> <b_lp_Chiralities_Consistent>
1

> <s_lp_Variant>
AV-unprocessed.smi:693-2

> <Gold.Version>
5.8.1

> <Gold.Id.Protein>
6NUR|6NUR_protein|mol2

> <Gold.PLP.Fitness>
47.0638

> <Gold.PLP.PLP>
-42.0236

> <Gold.PLP.part.hbond>
-3.7363

> <Gold.PLP.part.metal>
0.0000

> <Gold.PLP.part.buried>
-2.2984

> <Gold.PLP.part.nonpolar>
-35.2640

> <Gold.PLP.part.repulsive>
0.3333

> <Gold.PLP.ligand.clash>
0.7153

> <Gold.PLP.ligand.torsion>
0.5058

> <Gold.PLP.Chemscore.Hbond>
2.2297

> <Gold.PLP.Chemscore.CHOScore>
0.0000

> <Gold.PLP.Chemscore.Metal>
0.0000

> <Gold.Chemscore.Hbonds>
donor molecule, donor type, donor heavy atom, donor atom, acceptor molecule, acceptor atom, score
      L1  H     8    32       P1  8028  0.31
      P1  H  6934  6946       L1    19  0.98
      P1  H  7989  7998       L1    10  0.93

> <Gold.PLP.Chemscore.Internal.Correction>
0.0780

> <Gold.Rescore>
     Score         DG    S(hbond)    S(metal)    S(lipo)     H(rot)  DE(clash)    DE(int)     intcor
     18.93     -19.61       2.29        0.00     104.76       2.25       0.03       0.64       ----

> <Gold.Chemscore.Fitness>
18.9313

> <Gold.Chemscore.DG>
-19.6058

> <Gold.Chemscore.ZeroCoef>
-5.4800

> <Gold.Chemscore.Hbond>
2.2851

> <Gold.Chemscore.Metal>
0.0000

> <Gold.Chemscore.Lipo>
104.7586

> <Gold.Chemscore.Internal_Hbond>
0.0000

> <Gold.Chemscore.DEClash>
0.0348

> <Gold.Chemscore.DEInternal>
0.6396

> <Gold.Chemscore.Rot>
2.2512

> <Gold.Chemscore.Internal.Correction>
   9.000000E+99

> <Gold.Chemscore.Hbonds>
donor molecule, donor type, donor heavy atom, donor atom, acceptor molecule, acceptor atom, score
      L1  H     8    32       P1  8028  0.31
      P1  H  6934  6946       L1    19  0.90
      P1  H  7989  7998       L1    10  0.88

> <Gold.Chemscore.Hbond.Weighted>
-7.6321

> <Gold.Chemscore.Metal.Weighted>
-0.0000

> <Gold.Chemscore.Lipo.Weighted>
-12.2568

> <Gold.Chemscore.Internal_Hbond.Weighted>
0.0000

> <Gold.Chemscore.DEClash.Weighted>
0.0348

> <Gold.Chemscore.DEInternal.Weighted>
0.6396

> <Gold.Chemscore.Rot.Weighted>
5.7631

> <Gold.Chemscore.Internal.Correction.Weighted>
   9.000000E+99

> <Gold.Protein.RotatedTorsions>
[ 6907 6896 6895 6894 ] final -144.90 input  -60.11 | X-H torsion
[ 7974 7965 7964 7962 ] final  -91.58 input  175.53 | X-H torsion
[ 8008 7997 7996 7995 ] final -144.29 input   59.86 | X-H torsion
[ 10167 10162 10161 10158 ] final   69.37 input  -65.29 | X-H torsion
[ 10718 10713 10712 10709 ] final    8.67 input   66.30 | X-H torsion
[ 10763 10752 10751 10750 ] final  179.11 input  -60.55 | X-H torsion
[ 11005 11000 10999 10996 ] final  -57.27 input  -57.11 | X-H torsion

> <Gold.Protein.ActiveResidues>
 VAL166  LYS551  ARG553  GLY616  TRP617  ASP618  TYR619  PRO620  LYS621  CYS622 
 ASP623  PHE694  ASN695  SER759  ASP760  ASP761  ALA762  ILE779  LEU786  VAL792 
 PHE793  MET794  SER795  GLU796  ALA797  LYS798  CYS799  TRP800  GLU811  SER814 

> <Gold.Protein.RotatedAtoms>
  151.1204  133.5108  159.2602 H   0  0  0  0  0  0  0  0  0  0  0  0  # atno 6907 bound_to 6896
  151.1868  135.0384  159.8825 H   0  0  0  0  0  0  0  0  0  0  0  0  # atno 6908 bound_to 6896
  152.5455  134.1049  159.8387 H   0  0  0  0  0  0  0  0  0  0  0  0  # atno 6909 bound_to 6896
  145.4113  140.9545  143.2232 H   0  0  0  0  0  0  0  0  0  0  0  0  # atno 7974 bound_to 7965
  155.5245  140.0594  157.2900 H   0  0  0  0  0  0  0  0  0  0  0  0  # atno 8008 bound_to 7997
  154.4506  140.1946  156.0477 H   0  0  0  0  0  0  0  0  0  0  0  0  # atno 8009 bound_to 7997
  156.0695  140.3262  155.7563 H   0  0  0  0  0  0  0  0  0  0  0  0  # atno 8010 bound_to 7997
  140.0685  144.5172  150.7244 H   0  0  0  0  0  0  0  0  0  0  0  0  # atno 10167 bound_to 10162
  156.9551  130.5911  149.5659 H   0  0  0  0  0  0  0  0  0  0  0  0  # atno 10718 bound_to 10713
  154.5165  135.2791  155.1299 H   0  0  0  0  0  0  0  0  0  0  0  0  # atno 10763 bound_to 10752
  154.2874  135.6273  153.5375 H   0  0  0  0  0  0  0  0  0  0  0  0  # atno 10764 bound_to 10752
  152.9928  135.5665  154.5643 H   0  0  0  0  0  0  0  0  0  0  0  0  # atno 10765 bound_to 10752
  141.1157  133.6610  156.4744 H   0  0  0  0  0  0  0  0  0  0  0  0  # atno 11005 bound_to 11000
  144.8307  139.5633  143.6945 LP  0  0  0  0  0  0  0  0  0  0  0  0  # atno 17320 bound_to 7965
  146.2703  139.6620  142.9300 LP  0  0  0  0  0  0  0  0  0  0  0  0  # atno 17321 bound_to 7965
  140.7137  143.2526  151.4501 LP  0  0  0  0  0  0  0  0  0  0  0  0  # atno 17342 bound_to 10162
  139.5850  144.1624  152.2017 LP  0  0  0  0  0  0  0  0  0  0  0  0  # atno 17343 bound_to 10162
  156.0346  130.5434  150.8621 LP  0  0  0  0  0  0  0  0  0  0  0  0  # atno 17370 bound_to 10713
  157.5696  131.0946  150.9438 LP  0  0  0  0  0  0  0  0  0  0  0  0  # atno 17371 bound_to 10713
  140.4652  134.6804  157.5104 LP  0  0  0  0  0  0  0  0  0  0  0  0  # atno 17394 bound_to 11000
  140.0078  134.6737  155.9428 LP  0  0  0  0  0  0  0  0  0  0  0  0  # atno 17395 bound_to 11000

$$$$
