AV-unprocessed.smi:580|AV-procd|sdf|2989|dock6
  -GOLD-   2262023493D 1   1.00000     0.00000
 Structure written by MMmdl.
 36 37  0  0  0  0  0  0  0  0  1 V2000
  158.0892  136.0995  157.8666 C   0  0  0  0  0  0  0  0  0  0  0  0
  157.7035  137.0223  158.9715 C   0  0  0  0  0  0  0  0  0  0  0  0
  156.7592  138.0046  159.0769 C   0  0  0  0  0  0  0  0  0  0  0  0
  156.9374  138.4783  160.4040 C   0  0  0  0  0  0  0  0  0  0  0  0
  156.1298  139.5247  160.9184 N   0  0  0  0  0  0  0  0  0  0  0  0
  155.0786  140.1144  160.3238 C   0  0  0  0  0  0  0  0  0  0  0  0
  154.6446  139.8302  159.2069 O   0  0  0  0  0  0  0  0  0  0  0  0
  154.5519  141.0717  161.1016 N   0  0  0  0  0  0  0  0  0  0  0  0
  153.4141  141.9141  160.7445 C   0  0  2  0  0  0  0  0  0  0  0  0
  153.7144  142.7150  159.4621 C   0  0  0  0  0  0  0  0  0  0  0  0
  152.5581  143.6637  159.1074 C   0  0  0  0  0  0  0  0  0  0  0  0
  152.2220  144.6129  160.2734 C   0  0  1  0  0  0  0  0  0  0  0  0
  151.0602  145.5508  159.9160 C   0  0  0  0  0  0  0  0  0  0  0  0
  151.9232  143.8068  161.5522 C   0  0  0  0  0  0  0  0  0  0  0  0
  153.0826  142.8629  161.9105 C   0  0  0  0  0  0  0  0  0  0  0  0
  157.9043  137.8440  161.0494 N   0  0  0  0  0  0  0  0  0  0  0  0
  158.4005  136.9079  160.1345 O   0  0  0  0  0  0  0  0  0  0  0  0
  157.3470  136.1155  157.0685 H   0  0  0  0  0  0  0  0  0  0  0  0
  158.1730  135.0747  158.2289 H   0  0  0  0  0  0  0  0  0  0  0  0
  159.0505  136.3880  157.4411 H   0  0  0  0  0  0  0  0  0  0  0  0
  156.0553  138.3284  158.3248 H   0  0  0  0  0  0  0  0  0  0  0  0
  156.3838  139.8650  161.8342 H   0  0  0  0  0  0  0  0  0  0  0  0
  154.9726  141.2370  162.0043 H   0  0  0  0  0  0  0  0  0  0  0  0
  152.5428  141.2799  160.5685 H   0  0  0  0  0  0  0  0  0  0  0  0
  154.6295  143.2941  159.5933 H   0  0  0  0  0  0  0  0  0  0  0  0
  153.8964  142.0363  158.6279 H   0  0  0  0  0  0  0  0  0  0  0  0
  152.8210  144.2411  158.2204 H   0  0  0  0  0  0  0  0  0  0  0  0
  151.6773  143.0768  158.8430 H   0  0  0  0  0  0  0  0  0  0  0  0
  153.0983  145.2340  160.4649 H   0  0  0  0  0  0  0  0  0  0  0  0
  150.1478  144.9907  159.7087 H   0  0  0  0  0  0  0  0  0  0  0  0
  151.2937  146.1456  159.0325 H   0  0  0  0  0  0  0  0  0  0  0  0
  150.8485  146.2423  160.7322 H   0  0  0  0  0  0  0  0  0  0  0  0
  151.7343  144.4848  162.3853 H   0  0  0  0  0  0  0  0  0  0  0  0
  151.0110  143.2241  161.4163 H   0  0  0  0  0  0  0  0  0  0  0  0
  152.8238  142.2862  162.7993 H   0  0  0  0  0  0  0  0  0  0  0  0
  153.9622  143.4541  162.1706 H   0  0  0  0  0  0  0  0  0  0  0  0
  1  2  1  0  0  0  0
  1 18  1  0  0  0  0
  1 19  1  0  0  0  0
  1 20  1  0  0  0  0
  2 17  1  0  0  0  0
  2  3  2  0  0  0  0
  3  4  1  0  0  0  0
  3 21  1  0  0  0  0
  4  5  1  0  0  0  0
  4 16  2  0  0  0  0
  5  6  1  0  0  0  0
  5 22  1  0  0  0  0
  6  7  2  0  0  0  0
  6  8  1  0  0  0  0
  8  9  1  0  0  0  0
  8 23  1  0  0  0  0
  9 15  1  0  0  0  0
  9 10  1  0  0  0  0
  9 24  1  0  0  0  0
 10 11  1  0  0  0  0
 10 25  1  0  0  0  0
 10 26  1  0  0  0  0
 11 12  1  0  0  0  0
 11 27  1  0  0  0  0
 11 28  1  0  0  0  0
 12 13  1  0  0  0  0
 12 14  1  0  0  0  0
 12 29  1  0  0  0  0
 13 30  1  0  0  0  0
 13 31  1  0  0  0  0
 13 32  1  0  0  0  0
 14 15  1  0  0  0  0
 14 33  1  0  0  0  0
 14 34  1  0  0  0  0
 15 35  1  0  0  0  0
 15 36  1  0  0  0  0
 16 17  1  0  0  0  0
M  END
> <s_m_source_file>
AV-unprocessed.smi

> <i_m_source_file_index>
580

> <i_lp_mmshare_version>
43012

> <i_f3d_flags>
0

> <s_epik_input>
W0NIM11jMVtjSF1jKG5vMSlbTkhdQyg9TylbTkhdW0NAQEhdMltDSDJdW0NIMl1bQ0BASF0oW0NIM10pW0NIMl1bQ0gyXTI=

> <s_epik_cmdline>
J2VwaWtfcHl0aG9uJywgJy1waCcsICc3LjAnLCAnLXRuJywgJzgnLCAnLW1hJywgJzIwMCcsICctbWV0YWxfYmluZGluZycsICctaW1hZScsICc8aW5maWxlLm1hZT4nLCAnLW9tYWUnLCAnPG91dGZpbGUubWFlPic=

> <r_lp_tautomer_probability>
1

> <r_epik_Ionization_Penalty>
2.357e-05

> <r_epik_Ionization_Penalty_Charging>
0

> <r_epik_Ionization_Penalty_Neutral>
2.357e-05

> <r_epik_State_Penalty>
-0

> <r_epik_Charging_Adjusted_Penalty>
0

> <i_epik_Tot_Q>
0

> <i_epik_Tot_abs_Q>
0

> <r_epik_Metal_State_Penalty>
-0

> <b_epik_Metal_Only>
0

> <s_lp_Force_Field>
OPLS_2005

> <r_lp_Energy>
6.68451

> <b_lp_Chiralities_Consistent>
1

> <s_lp_Variant>
AV-unprocessed.smi:580-1

> <Gold.Version>
5.8.1

> <Gold.Id.Protein>
6NUR|6NUR_protein|mol2

> <Gold.PLP.Fitness>
35.5771

> <Gold.PLP.PLP>
-32.5917

> <Gold.PLP.part.hbond>
-1.5607

> <Gold.PLP.part.metal>
0.0000

> <Gold.PLP.part.buried>
-4.2175

> <Gold.PLP.part.nonpolar>
-26.5633

> <Gold.PLP.part.repulsive>
0.1403

> <Gold.PLP.ligand.clash>
0.0000

> <Gold.PLP.ligand.torsion>
0.0087

> <Gold.PLP.Chemscore.Hbond>
1.0000

> <Gold.PLP.Chemscore.CHOScore>
0.0000

> <Gold.PLP.Chemscore.Metal>
0.0000

> <Gold.Chemscore.Hbonds>
donor molecule, donor type, donor heavy atom, donor atom, acceptor molecule, acceptor atom, score
      P1  H  7997  8010       L1     7  1.00

> <Gold.PLP.Chemscore.Internal.Correction>
0.0029

> <Gold.Rescore>
     Score         DG    S(hbond)    S(metal)    S(lipo)     H(rot)  DE(clash)    DE(int)     intcor
     15.28     -16.76       0.98        0.00      90.40       1.00       0.05       1.42       ----

> <Gold.Chemscore.Fitness>
15.2841

> <Gold.Chemscore.DG>
-16.7574

> <Gold.Chemscore.ZeroCoef>
-5.4800

> <Gold.Chemscore.Hbond>
0.9761

> <Gold.Chemscore.Metal>
0.0000

> <Gold.Chemscore.Lipo>
90.4037

> <Gold.Chemscore.Internal_Hbond>
0.0000

> <Gold.Chemscore.DEClash>
0.0491

> <Gold.Chemscore.DEInternal>
1.4242

> <Gold.Chemscore.Rot>
1.0000

> <Gold.Chemscore.Internal.Correction>
   9.000000E+99

> <Gold.Chemscore.Hbonds>
donor molecule, donor type, donor heavy atom, donor atom, acceptor molecule, acceptor atom, score
      P1  H  7997  8010       L1     7  0.98

> <Gold.Chemscore.Hbond.Weighted>
-3.2602

> <Gold.Chemscore.Metal.Weighted>
-0.0000

> <Gold.Chemscore.Lipo.Weighted>
-10.5772

> <Gold.Chemscore.Internal_Hbond.Weighted>
0.0000

> <Gold.Chemscore.DEClash.Weighted>
0.0491

> <Gold.Chemscore.DEInternal.Weighted>
1.4242

> <Gold.Chemscore.Rot.Weighted>
2.5600

> <Gold.Chemscore.Internal.Correction.Weighted>
   9.000000E+99

> <Gold.Protein.RotatedTorsions>
[ 6907 6896 6895 6894 ] final    7.60 input  -60.11 | X-H torsion
[ 7974 7965 7964 7962 ] final  -30.88 input  175.53 | X-H torsion
[ 8008 7997 7996 7995 ] final   -5.63 input   59.86 | X-H torsion
[ 10167 10162 10161 10158 ] final  -34.86 input  -65.29 | X-H torsion
[ 10718 10713 10712 10709 ] final  -37.35 input   66.30 | X-H torsion
[ 10763 10752 10751 10750 ] final  163.05 input  -60.55 | X-H torsion
[ 11005 11000 10999 10996 ] final -114.84 input  -57.11 | X-H torsion

> <Gold.Protein.ActiveResidues>
 VAL166  LYS551  ARG553  GLY616  TRP617  ASP618  TYR619  PRO620  LYS621  CYS622 
 ASP623  PHE694  ASN695  SER759  ASP760  ASP761  ALA762  ILE779  LEU786  VAL792 
 PHE793  MET794  SER795  GLU796  ALA797  LYS798  CYS799  TRP800  GLU811  SER814 

> <Gold.Protein.RotatedAtoms>
  151.6925  135.0944  160.0236 H   0  0  0  0  0  0  0  0  0  0  0  0  # atno 6907 bound_to 6896
  152.3770  133.6490  159.6139 H   0  0  0  0  0  0  0  0  0  0  0  0  # atno 6908 bound_to 6896
  150.7716  133.9094  159.3406 H   0  0  0  0  0  0  0  0  0  0  0  0  # atno 6909 bound_to 6896
  146.1109  140.5597  142.8778 H   0  0  0  0  0  0  0  0  0  0  0  0  # atno 7974 bound_to 7965
  154.6019  140.2453  155.7781 H   0  0  0  0  0  0  0  0  0  0  0  0  # atno 8008 bound_to 7997
  156.2316  140.2964  156.0156 H   0  0  0  0  0  0  0  0  0  0  0  0  # atno 8009 bound_to 7997
  155.2197  140.0400  157.2937 H   0  0  0  0  0  0  0  0  0  0  0  0  # atno 8010 bound_to 7997
  140.7177  143.3518  151.2141 H   0  0  0  0  0  0  0  0  0  0  0  0  # atno 10167 bound_to 10162
  156.3162  130.4259  149.8003 H   0  0  0  0  0  0  0  0  0  0  0  0  # atno 10718 bound_to 10713
  154.2878  135.2761  155.2668 H   0  0  0  0  0  0  0  0  0  0  0  0  # atno 10763 bound_to 10752
  154.5161  135.5769  153.6646 H   0  0  0  0  0  0  0  0  0  0  0  0  # atno 10764 bound_to 10752
  152.9919  135.6193  154.3041 H   0  0  0  0  0  0  0  0  0  0  0  0  # atno 10765 bound_to 10752
  141.0526  133.9663  157.2810 H   0  0  0  0  0  0  0  0  0  0  0  0  # atno 11005 bound_to 11000
  144.7511  140.5193  143.6801 LP  0  0  0  0  0  0  0  0  0  0  0  0  # atno 17320 bound_to 7965
  145.5665  139.1481  143.3312 LP  0  0  0  0  0  0  0  0  0  0  0  0  # atno 17321 bound_to 7965
  139.7050  143.9470  152.2923 LP  0  0  0  0  0  0  0  0  0  0  0  0  # atno 17342 bound_to 10162
  139.9176  144.6819  150.8496 LP  0  0  0  0  0  0  0  0  0  0  0  0  # atno 17343 bound_to 10162
  156.5328  130.8265  151.3243 LP  0  0  0  0  0  0  0  0  0  0  0  0  # atno 17370 bound_to 10713
  157.7402  130.9846  150.2362 LP  0  0  0  0  0  0  0  0  0  0  0  0  # atno 17371 bound_to 10713
  139.9363  135.0196  156.8566 LP  0  0  0  0  0  0  0  0  0  0  0  0  # atno 17394 bound_to 11000
  140.6026  134.0158  155.7543 LP  0  0  0  0  0  0  0  0  0  0  0  0  # atno 17395 bound_to 11000

$$$$
