#       Name:                AV-unprocessed.smi:1388
#       Creating user name   scv26
#       Creation time:       Fri Mar 27 05:26:00 2020


#       File generated by GOLD software.
#

@<TRIPOS>MOLECULE
AV-unprocessed.smi:1388
    51    52     1
SMALL
NO_CHARGES


@<TRIPOS>ATOM
      1 ****        -6.6128   3.7472  -1.7410 C.3            1 S1                 0.0000
      2 ****        -6.0331   2.4746  -1.3385 N.am           1 S1                 0.0000
      3 ****        -4.7395   2.1558  -1.4835 C.2            1 S1                 0.0000
      4 ****        -3.9093   2.9157  -1.9838 O.2            1 S1                 0.0000
      5 ****        -4.3298   0.7592  -1.0039 C.3            1 S1                 0.0000
      6 ****        -2.8652   0.6179  -0.7968 N.4            1 S1                 1.0000
      7 ****        -2.4147  -0.7937  -0.8970 C.3            1 S1                 0.0000
      8 ****        -0.8826  -0.8958  -0.8186 C.3            1 S1                 0.0000
      9 ****        -0.3482  -0.2474   0.4719 C.3            1 S1                 0.0000
     10 ****         1.1113  -0.2681   0.5058 N.am           1 S1                 0.0000
     11 ****         1.8574  -1.3332   0.8345 C.2            1 S1                 0.0000
     12 ****         1.3775  -2.4260   1.1379 O.2            1 S1                 0.0000
     13 ****         3.1696  -1.0426   0.7881 N.am           1 S1                 0.0000
     14 ****         4.2757  -1.9022   1.0420 C.ar           1 S1                 0.0000
     15 ****         4.1260  -3.2158   1.3466 N.ar           1 S1                 0.0000
     16 ****         5.2174  -3.9755   1.5714 C.ar           1 S1                 0.0000
     17 ****         6.5285  -3.4738   1.5061 C.ar           1 S1                 0.0000
     18 ****         6.7016  -2.1151   1.1918 C.ar           1 S1                 0.0000
     19 ****         5.5653  -1.3124   0.9551 C.ar           1 S1                 0.0000
     20 ****         5.7508   0.1576   0.6156 C.3            1 S1                 0.0000
     21 ****        -0.8556   1.2004   0.5643 C.3            1 S1                 0.0000
     22 ****        -2.3888   1.2561   0.4602 C.3            1 S1                 0.0000
     23 ****        -7.6838   3.7489  -1.5376 H              1 S1                 0.0000
     24 ****        -6.4685   3.9205  -2.8085 H              1 S1                 0.0000
     25 ****        -6.1595   4.5723  -1.1896 H              1 S1                 0.0000
     26 ****        -6.6561   1.7949  -0.9263 H              1 S1                 0.0000
     27 ****        -4.8640   0.4968  -0.0892 H              1 S1                 0.0000
     28 ****        -4.6609   0.0587  -1.7717 H              1 S1                 0.0000
     29 ****        -2.8728  -1.3810  -0.0995 H              1 S1                 0.0000
     30 ****        -2.7518  -1.2227  -1.8413 H              1 S1                 0.0000
     31 ****        -0.5856  -1.9440  -0.8681 H              1 S1                 0.0000
     32 ****        -0.4414  -0.4086  -1.6896 H              1 S1                 0.0000
     33 ****        -0.7295  -0.7994   1.3335 H              1 S1                 0.0000
     34 ****         1.5864   0.5910   0.2701 H              1 S1                 0.0000
     35 ****         3.4102  -0.0952   0.5375 H              1 S1                 0.0000
     36 ****         5.0393  -5.0136   1.8103 H              1 S1                 0.0000
     37 ****         7.3778  -4.1143   1.6924 H              1 S1                 0.0000
     38 ****         7.6961  -1.6975   1.1340 H              1 S1                 0.0000
     39 ****         6.8062   0.4310   0.5969 H              1 S1                 0.0000
     40 ****         5.2554   0.7859   1.3565 H              1 S1                 0.0000
     41 ****         5.3298   0.3789  -0.3656 H              1 S1                 0.0000
     42 ****        -0.5343   1.6506   1.5043 H              1 S1                 0.0000
     43 ****        -0.4164   1.8019  -0.2334 H              1 S1                 0.0000
     44 ****        -2.7106   2.2970   0.5003 H              1 S1                 0.0000
     45 ****        -2.8399   0.7546   1.3179 H              1 S1                 0.0000
     46 ****        -2.4261   1.1105  -1.5620 H              1 S1                 0.0000
     47 ****        -4.1893   3.8203  -2.3052 LP             1 S1                 0.0000
     48 ****        -2.9553   2.6281  -2.0685 LP             1 S1                 0.0000
     49 ****         0.3854  -2.5512   1.1472 LP             1 S1                 0.0000
     50 ****         1.9799  -3.1882   1.3750 LP             1 S1                 0.0000
     51 ****         3.2123  -3.6181   1.4041 LP             1 S1                 0.0000
@<TRIPOS>BOND
    1    1    2 1     
    2    1   23 1     
    3    1   24 1     
    4    1   25 1     
    5    2    3 am    
    6    2   26 1     
    7    3    4 2     
    8    3    5 1     
    9    5    6 1     
   10    5   27 1     
   11    5   28 1     
   12    6   22 1     
   13    6    7 1     
   14    6   46 1     
   15    7    8 1     
   16    7   29 1     
   17    7   30 1     
   18    8    9 1     
   19    8   31 1     
   20    8   32 1     
   21    9   10 1     
   22    9   21 1     
   23    9   33 1     
   24   10   11 am    
   25   10   34 1     
   26   11   12 2     
   27   11   13 am    
   28   13   14 1     
   29   13   35 1     
   30   14   19 ar    
   31   14   15 ar    
   32   15   16 ar    
   33   16   17 ar    
   34   16   36 1     
   35   17   18 ar    
   36   17   37 1     
   37   18   19 ar    
   38   18   38 1     
   39   19   20 1     
   40   20   39 1     
   41   20   40 1     
   42   20   41 1     
   43   21   22 1     
   44   21   42 1     
   45   21   43 1     
   46   22   44 1     
   47   22   45 1     
   48    4   47 1     
   49    4   48 1     
   50   12   49 1     
   51   12   50 1     
   52   15   51 1     
@<TRIPOS>SUBSTRUCTURE
      1 S1             1
@<TRIPOS>SET
LONE_PAIRS      STATIC     ATOMS    <user>   **** ""
5 47 48 49 50 51
DONOR_HYDROGENS      STATIC     ATOMS    <user>   **** ""
4 26 46 34 35
ATOM$BLUE        STATIC     ATOMS    COLORGROUP SYSTEM
5 47 48 49 50 51
ATOM$RED        STATIC     ATOMS    COLORGROUP SYSTEM
4 26 46 34 35
