AV-unprocessed.smi:3283|AV-procd|sdf|12570|dock3
  -GOLD-   2272018493D 1   1.00000     0.00000
 Structure written by MMmdl.
 44 45  0  0  0  0  0  0  0  0  2 V2000
  151.4590  139.4152  157.9356 C   0  0  0  0  0  0  0  0  0  0  0  0
  151.9810  140.6635  158.6272 C   0  0  0  0  0  0  0  0  0  0  0  0
  152.6284  140.5539  159.8031 C   0  0  0  0  0  0  0  0  0  0  0  0
  153.2561  141.7133  160.5413 C   0  0  0  0  0  0  0  0  0  0  0  0
  153.5168  142.8888  159.5968 C   0  0  0  0  0  0  0  0  0  0  0  0
  152.2677  143.2313  158.7685 C   0  0  1  0  0  0  0  0  0  0  0  0
  152.5531  144.4750  157.9038 C   0  0  0  0  0  0  0  0  0  0  0  0
  151.7647  142.0196  157.9239 C   0  0  2  0  0  0  0  0  0  0  0  0
  150.2902  142.2454  157.4958 C   0  0  0  0  0  0  0  0  0  0  0  0
  150.0900  142.1137  156.0385 N   0  3  0  0  0  0  0  0  0  0  0  0
  149.2658  140.9555  155.6405 C   0  0  0  0  0  0  0  0  0  0  0  0
  149.9355  140.1391  154.5246 C   0  0  0  0  0  0  0  0  0  0  0  0
  150.0199  138.6724  154.8203 C   0  0  0  0  0  0  0  0  0  0  0  0
  149.0156  137.7717  155.0413 C   0  0  0  0  0  0  0  0  0  0  0  0
  149.6923  136.5385  155.2476 C   0  0  0  0  0  0  0  0  0  0  0  0
  151.0049  136.6615  155.1598 N   0  0  0  0  0  0  0  0  0  0  0  0
  151.2118  137.9707  154.9041 N   0  0  0  0  0  0  0  0  0  0  0  0
  152.5745  138.4463  154.7514 C   0  0  0  0  0  0  0  0  0  0  0  0
  151.8037  139.3800  156.9024 H   0  0  0  0  0  0  0  0  0  0  0  0
  150.3699  139.3859  157.9497 H   0  0  0  0  0  0  0  0  0  0  0  0
  151.8136  138.5107  158.4307 H   0  0  0  0  0  0  0  0  0  0  0  0
  152.7381  139.5862  160.2710 H   0  0  0  0  0  0  0  0  0  0  0  0
  152.5949  142.0079  161.3568 H   0  0  0  0  0  0  0  0  0  0  0  0
  154.1946  141.3865  160.9901 H   0  0  0  0  0  0  0  0  0  0  0  0
  153.8397  143.7538  160.1773 H   0  0  0  0  0  0  0  0  0  0  0  0
  154.3422  142.6412  158.9274 H   0  0  0  0  0  0  0  0  0  0  0  0
  151.4829  143.4960  159.4793 H   0  0  0  0  0  0  0  0  0  0  0  0
  153.3269  144.2711  157.1630 H   0  0  0  0  0  0  0  0  0  0  0  0
  152.9010  145.3053  158.5191 H   0  0  0  0  0  0  0  0  0  0  0  0
  151.6706  144.8259  157.3716 H   0  0  0  0  0  0  0  0  0  0  0  0
  152.3797  141.9792  157.0233 H   0  0  0  0  0  0  0  0  0  0  0  0
  149.6420  141.5423  158.0211 H   0  0  0  0  0  0  0  0  0  0  0  0
  149.9483  143.2413  157.7728 H   0  0  0  0  0  0  0  0  0  0  0  0
  149.6465  142.9555  155.6988 H   0  0  0  0  0  0  0  0  0  0  0  0
  149.1051  140.3195  156.5120 H   0  0  0  0  0  0  0  0  0  0  0  0
  148.2852  141.3024  155.3114 H   0  0  0  0  0  0  0  0  0  0  0  0
  149.4148  140.3101  153.5824 H   0  0  0  0  0  0  0  0  0  0  0  0
  150.9449  140.5222  154.3701 H   0  0  0  0  0  0  0  0  0  0  0  0
  147.9530  137.9648  155.0517 H   0  0  0  0  0  0  0  0  0  0  0  0
  149.2719  135.5652  155.4540 H   0  0  0  0  0  0  0  0  0  0  0  0
  152.7184  139.3629  155.3233 H   0  0  0  0  0  0  0  0  0  0  0  0
  152.7797  138.6403  153.6994 H   0  0  0  0  0  0  0  0  0  0  0  0
  153.2833  137.7002  155.1139 H   0  0  0  0  0  0  0  0  0  0  0  0
  150.9958  142.0270  155.6002 H   0  0  0  0  0  0  0  0  0  0  0  0
  1  2  1  0  0  0  0
  1 19  1  0  0  0  0
  1 20  1  0  0  0  0
  1 21  1  0  0  0  0
  2  8  1  0  0  0  0
  2  3  2  0  0  0  0
  3  4  1  0  0  0  0
  3 22  1  0  0  0  0
  4  5  1  0  0  0  0
  4 23  1  0  0  0  0
  4 24  1  0  0  0  0
  5  6  1  0  0  0  0
  5 25  1  0  0  0  0
  5 26  1  0  0  0  0
  6  7  1  0  0  0  0
  6  8  1  0  0  0  0
  6 27  1  0  0  0  0
  7 28  1  0  0  0  0
  7 29  1  0  0  0  0
  7 30  1  0  0  0  0
  8  9  1  0  0  0  0
  8 31  1  0  0  0  0
  9 10  1  0  0  0  0
  9 32  1  0  0  0  0
  9 33  1  0  0  0  0
 10 11  1  0  0  0  0
 10 34  1  0  0  0  0
 10 44  1  0  0  0  0
 11 12  1  0  0  0  0
 11 35  1  0  0  0  0
 11 36  1  0  0  0  0
 12 13  1  0  0  0  0
 12 37  1  0  0  0  0
 12 38  1  0  0  0  0
 13 17  1  0  0  0  0
 13 14  2  0  0  0  0
 14 15  1  0  0  0  0
 14 39  1  0  0  0  0
 15 16  2  0  0  0  0
 15 40  1  0  0  0  0
 16 17  1  0  0  0  0
 17 18  1  0  0  0  0
 18 41  1  0  0  0  0
 18 42  1  0  0  0  0
 18 43  1  0  0  0  0
M  CHG  1  10   1
M  END
> <s_m_source_file>
AV-unprocessed.smi

> <i_m_source_file_index>
3283

> <i_lp_mmshare_version>
43012

> <i_f3d_flags>
0

> <s_epik_input>
W0NIM11DMT1bQ0hdW0NIMl1bQ0gyXVtDQEBIXShbQ0gzXSlbQ0BIXTFbQ0gyXVtOSF1bQ0gyXVtDSDJdYzJbY0hdW2NIXW5uMltDSDNd

> <s_epik_cmdline>
J2VwaWtfcHl0aG9uJywgJy1waCcsICc3LjAnLCAnLXRuJywgJzgnLCAnLW1hJywgJzIwMCcsICctbWV0YWxfYmluZGluZycsICctaW1hZScsICc8aW5maWxlLm1hZT4nLCAnLW9tYWUnLCAnPG91dGZpbGUubWFlPic=

> <r_lp_tautomer_probability>
1

> <r_epik_Ionization_Penalty>
0.000866911

> <r_epik_Ionization_Penalty_Charging>
0.000836385

> <r_epik_Ionization_Penalty_Neutral>
3.05258e-05

> <r_epik_State_Penalty>
-0

> <r_epik_Charging_Adjusted_Penalty>
0.000836385

> <i_epik_Tot_Q>
1

> <i_epik_Tot_abs_Q>
1

> <r_epik_Metal_State_Penalty>
-0

> <b_epik_Metal_Only>
0

> <s_lp_Force_Field>
OPLS_2005

> <r_lp_Energy>
14.6104

> <b_lp_Chiralities_Consistent>
1

> <s_lp_Variant>
AV-unprocessed.smi:3283-3

> <Gold.Version>
5.8.1

> <Gold.Id.Protein>
6NUR|6NUR_protein|mol2

> <Gold.PLP.Fitness>
48.4343

> <Gold.PLP.PLP>
-42.8975

> <Gold.PLP.part.hbond>
-2.0000

> <Gold.PLP.part.metal>
0.0000

> <Gold.PLP.part.buried>
-3.8077

> <Gold.PLP.part.nonpolar>
-37.6849

> <Gold.PLP.part.repulsive>
0.2196

> <Gold.PLP.ligand.clash>
0.0000

> <Gold.PLP.ligand.torsion>
1.7580

> <Gold.PLP.Chemscore.Hbond>
3.0000

> <Gold.PLP.Chemscore.CHOScore>
0.0000

> <Gold.PLP.Chemscore.Metal>
0.0000

> <Gold.Chemscore.Hbonds>
donor molecule, donor type, donor heavy atom, donor atom, acceptor molecule, acceptor atom, score
      L1  H    10    34       P1  8028  2.00
      P1  H 10752 10765       L1    16  0.28

> <Gold.PLP.Chemscore.Internal.Correction>
0.0527

> <Gold.Rescore>
     Score         DG    S(hbond)    S(metal)    S(lipo)     H(rot)  DE(clash)    DE(int)     intcor
     20.51     -22.44       1.96        0.00     121.46       1.48       0.19       1.73       ----

> <Gold.Chemscore.Fitness>
20.5128

> <Gold.Chemscore.DG>
-22.4361

> <Gold.Chemscore.ZeroCoef>
-5.4800

> <Gold.Chemscore.Hbond>
1.9598

> <Gold.Chemscore.Metal>
0.0000

> <Gold.Chemscore.Lipo>
121.4628

> <Gold.Chemscore.Internal_Hbond>
0.0000

> <Gold.Chemscore.DEClash>
0.1889

> <Gold.Chemscore.DEInternal>
1.7344

> <Gold.Chemscore.Rot>
1.4847

> <Gold.Chemscore.Internal.Correction>
   9.000000E+99

> <Gold.Chemscore.Hbonds>
donor molecule, donor type, donor heavy atom, donor atom, acceptor molecule, acceptor atom, score
      L1  H    10    34       P1  8028  0.99
      P1  H 10752 10765       L1    16  0.17

> <Gold.Chemscore.Hbond.Weighted>
-6.5458

> <Gold.Chemscore.Metal.Weighted>
-0.0000

> <Gold.Chemscore.Lipo.Weighted>
-14.2112

> <Gold.Chemscore.Internal_Hbond.Weighted>
0.0000

> <Gold.Chemscore.DEClash.Weighted>
0.1889

> <Gold.Chemscore.DEInternal.Weighted>
1.7344

> <Gold.Chemscore.Rot.Weighted>
3.8008

> <Gold.Chemscore.Internal.Correction.Weighted>
   9.000000E+99

> <Gold.Protein.RotatedTorsions>
[ 6907 6896 6895 6894 ] final   27.37 input  -60.11 | X-H torsion
[ 7974 7965 7964 7962 ] final  118.08 input  175.53 | X-H torsion
[ 8008 7997 7996 7995 ] final -175.98 input   59.86 | X-H torsion
[ 10167 10162 10161 10158 ] final  -69.61 input  -65.29 | X-H torsion
[ 10718 10713 10712 10709 ] final  -34.99 input   66.30 | X-H torsion
[ 10763 10752 10751 10750 ] final -164.17 input  -60.55 | X-H torsion
[ 11005 11000 10999 10996 ] final   67.22 input  -57.11 | X-H torsion

> <Gold.Protein.ActiveResidues>
 VAL166  LYS551  ARG553  GLY616  TRP617  ASP618  TYR619  PRO620  LYS621  CYS622 
 ASP623  PHE694  ASN695  SER759  ASP760  ASP761  ALA762  ILE779  LEU786  VAL792 
 PHE793  MET794  SER795  GLU796  ALA797  LYS798  CYS799  TRP800  GLU811  SER814 

> <Gold.Protein.RotatedAtoms>
  152.0013  134.9927  160.0564 H   0  0  0  0  0  0  0  0  0  0  0  0  # atno 6907 bound_to 6896
  152.1516  133.4521  159.4825 H   0  0  0  0  0  0  0  0  0  0  0  0  # atno 6908 bound_to 6896
  150.6876  134.2099  159.4398 H   0  0  0  0  0  0  0  0  0  0  0  0  # atno 6909 bound_to 6896
  145.1595  139.3163  143.4524 H   0  0  0  0  0  0  0  0  0  0  0  0  # atno 7974 bound_to 7965
  155.9892  140.1197  157.0654 H   0  0  0  0  0  0  0  0  0  0  0  0  # atno 8008 bound_to 7997
  154.4206  140.1129  156.5610 H   0  0  0  0  0  0  0  0  0  0  0  0  # atno 8009 bound_to 7997
  155.6366  140.3473  155.4703 H   0  0  0  0  0  0  0  0  0  0  0  0  # atno 8010 bound_to 7997
  140.5417  143.2314  151.7076 H   0  0  0  0  0  0  0  0  0  0  0  0  # atno 10167 bound_to 10162
  156.3439  130.4298  149.7763 H   0  0  0  0  0  0  0  0  0  0  0  0  # atno 10718 bound_to 10713
  154.7053  135.2996  154.9279 H   0  0  0  0  0  0  0  0  0  0  0  0  # atno 10763 bound_to 10752
  154.0198  135.6684  153.4775 H   0  0  0  0  0  0  0  0  0  0  0  0  # atno 10764 bound_to 10752
  153.0713  135.5059  154.8221 H   0  0  0  0  0  0  0  0  0  0  0  0  # atno 10765 bound_to 10752
  139.9784  134.6784  156.0309 H   0  0  0  0  0  0  0  0  0  0  0  0  # atno 11005 bound_to 11000
  146.3484  140.1700  142.8590 LP  0  0  0  0  0  0  0  0  0  0  0  0  # atno 17320 bound_to 7965
  145.0346  140.8897  143.5089 LP  0  0  0  0  0  0  0  0  0  0  0  0  # atno 17321 bound_to 7965
  139.4991  144.3958  152.0233 LP  0  0  0  0  0  0  0  0  0  0  0  0  # atno 17342 bound_to 10162
  140.3067  144.3584  150.6045 LP  0  0  0  0  0  0  0  0  0  0  0  0  # atno 17343 bound_to 10162
  156.4988  130.8119  151.3124 LP  0  0  0  0  0  0  0  0  0  0  0  0  # atno 17370 bound_to 10713
  157.7451  130.9951  150.2732 LP  0  0  0  0  0  0  0  0  0  0  0  0  # atno 17371 bound_to 10713
  141.1459  133.6556  156.3866 LP  0  0  0  0  0  0  0  0  0  0  0  0  # atno 17394 bound_to 11000
  140.5147  134.6362  157.5297 LP  0  0  0  0  0  0  0  0  0  0  0  0  # atno 17395 bound_to 11000

$$$$
