AV-unprocessed.smi:1763|AV-procd|sdf|7131|dock6
  -GOLD-   22720 8363D 1   1.00000     0.00000
 Structure written by MMmdl.
 42 43  0  0  0  0  0  0  0  0  3 V2000
  148.3620  133.8515  157.2138 C   0  0  0  0  0  0  0  0  0  0  0  0
  149.7225  134.2258  157.5824 N   0  5  0  0  0  0  0  0  0  0  0  0
  150.5301  134.9897  156.7958 C   0  0  0  0  0  0  0  0  0  0  0  0
  151.5035  135.6933  157.0834 O   0  0  0  0  0  0  0  0  0  0  0  0
  150.0977  134.9161  155.3260 C   0  0  0  0  0  0  0  0  0  0  0  0
  149.9190  136.2771  154.7578 N   0  3  2  0  0  0  0  0  0  0  0  0
  151.2075  136.9929  154.5840 C   0  0  0  0  0  0  0  0  0  0  0  0
  151.0073  138.3315  153.8502 C   0  0  0  0  0  0  0  0  0  0  0  0
  149.9711  139.2281  154.5502 C   0  0  2  0  0  0  0  0  0  0  0  0
  150.5133  139.7610  155.8001 N   0  0  0  0  0  0  0  0  0  0  0  0
  150.5200  141.0555  156.1517 C   0  0  0  0  0  0  0  0  0  0  0  0
  150.0543  141.9511  155.4467 O   0  0  0  0  0  0  0  0  0  0  0  0
  151.0924  141.2307  157.3560 N   0  0  0  0  0  0  0  0  0  0  0  0
  151.2827  142.4449  158.0686 C   0  0  0  0  0  0  0  0  0  0  0  0
  152.4349  142.4852  158.8863 C   0  0  0  0  0  0  0  0  0  0  0  0
  152.7129  143.6457  159.6344 C   0  0  0  0  0  0  0  0  0  0  0  0
  151.8308  144.7373  159.5455 C   0  0  0  0  0  0  0  0  0  0  0  0
  150.7064  144.6148  158.7084 C   0  0  0  0  0  0  0  0  0  0  0  0
  150.4379  143.5036  157.9908 N   0  0  0  0  0  0  0  0  0  0  0  0
  148.6690  138.4357  154.7822 C   0  0  0  0  0  0  0  0  0  0  0  0
  148.9270  137.0996  155.5000 C   0  0  0  0  0  0  0  0  0  0  0  0
  147.8786  133.2641  157.9942 H   0  0  0  0  0  0  0  0  0  0  0  0
  148.3299  133.2457  156.3078 H   0  0  0  0  0  0  0  0  0  0  0  0
  147.7235  134.7179  157.0382 H   0  0  0  0  0  0  0  0  0  0  0  0
  150.8219  134.3506  154.7372 H   0  0  0  0  0  0  0  0  0  0  0  0
  149.1598  134.3596  155.2825 H   0  0  0  0  0  0  0  0  0  0  0  0
  151.6683  137.1560  155.5593 H   0  0  0  0  0  0  0  0  0  0  0  0
  151.8961  136.3729  154.0086 H   0  0  0  0  0  0  0  0  0  0  0  0
  151.9599  138.8546  153.7565 H   0  0  0  0  0  0  0  0  0  0  0  0
  150.6725  138.1290  152.8318 H   0  0  0  0  0  0  0  0  0  0  0  0
  149.7564  140.0708  153.8905 H   0  0  0  0  0  0  0  0  0  0  0  0
  150.9217  139.0950  156.4395 H   0  0  0  0  0  0  0  0  0  0  0  0
  151.4317  140.4001  157.8175 H   0  0  0  0  0  0  0  0  0  0  0  0
  153.1027  141.6377  158.9431 H   0  0  0  0  0  0  0  0  0  0  0  0
  153.5881  143.6964  160.2652 H   0  0  0  0  0  0  0  0  0  0  0  0
  152.0103  145.6439  160.1043 H   0  0  0  0  0  0  0  0  0  0  0  0
  150.0040  145.4296  158.6120 H   0  0  0  0  0  0  0  0  0  0  0  0
  147.9505  139.0313  155.3465 H   0  0  0  0  0  0  0  0  0  0  0  0
  148.1989  138.2333  153.8188 H   0  0  0  0  0  0  0  0  0  0  0  0
  147.9840  136.5597  155.5914 H   0  0  0  0  0  0  0  0  0  0  0  0
  149.2850  137.2773  156.5152 H   0  0  0  0  0  0  0  0  0  0  0  0
  149.5457  136.1290  153.8302 H   0  0  0  0  0  0  0  0  0  0  0  0
  1  2  1  0  0  0  0
  1 22  1  0  0  0  0
  1 23  1  0  0  0  0
  1 24  1  0  0  0  0
  2  3  1  0  0  0  0
  3  4  2  0  0  0  0
  3  5  1  0  0  0  0
  5  6  1  0  0  0  0
  5 25  1  0  0  0  0
  5 26  1  0  0  0  0
  6 21  1  0  0  0  0
  6  7  1  0  0  0  0
  6 42  1  0  0  0  0
  7  8  1  0  0  0  0
  7 27  1  0  0  0  0
  7 28  1  0  0  0  0
  8  9  1  0  0  0  0
  8 29  1  0  0  0  0
  8 30  1  0  0  0  0
  9 10  1  0  0  0  0
  9 20  1  0  0  0  0
  9 31  1  0  0  0  0
 10 11  1  0  0  0  0
 10 32  1  0  0  0  0
 11 12  2  0  0  0  0
 11 13  1  0  0  0  0
 13 14  1  0  0  0  0
 13 33  1  0  0  0  0
 14 19  1  0  0  0  0
 14 15  2  0  0  0  0
 15 16  1  0  0  0  0
 15 34  1  0  0  0  0
 16 17  2  0  0  0  0
 16 35  1  0  0  0  0
 17 18  1  0  0  0  0
 17 36  1  0  0  0  0
 18 19  2  0  0  0  0
 18 37  1  0  0  0  0
 20 21  1  0  0  0  0
 20 38  1  0  0  0  0
 20 39  1  0  0  0  0
 21 40  1  0  0  0  0
 21 41  1  0  0  0  0
M  CHG  1   2  -1
M  CHG  1   6   1
M  END
> <s_m_source_file>
AV-unprocessed.smi

> <i_m_source_file_index>
1763

> <i_lp_mmshare_version>
43012

> <i_f3d_flags>
0

> <s_epik_input>
W0NIM11bTkhdQyg9TylbQ0gyXU4xW0NIMl1bQ0gyXVtDSF0oW0NIMl1bQ0gyXTEpW05IXUMoPU8pW05IXWMyW2NIXVtjSF1bY0hdW2NIXW4y

> <s_epik_cmdline>
J2VwaWtfcHl0aG9uJywgJy1waCcsICc3LjAnLCAnLXRuJywgJzgnLCAnLW1hJywgJzIwMCcsICctbWV0YWxfYmluZGluZycsICctaW1hZScsICc8aW5maWxlLm1hZT4nLCAnLW9tYWUnLCAnPG91dGZpbGUubWFlPic=

> <r_epik_Ionization_Penalty>
6.1395

> <r_epik_Ionization_Penalty_Charging>
6.13946

> <r_epik_Ionization_Penalty_Neutral>
3.77655e-05

> <r_epik_State_Penalty>
6.9595

> <r_epik_Charging_Adjusted_Penalty>
13.099

> <i_epik_Tot_Q>
0

> <i_epik_Tot_abs_Q>
2

> <r_epik_Metal_State_Penalty>
2.8914

> <b_epik_Metal_Only>
1

> <s_lp_Force_Field>
OPLS_2005

> <r_lp_Energy>
12.7162

> <b_lp_Chiralities_Consistent>
1

> <s_lp_Variant>
AV-unprocessed.smi:1763-5

> <Gold.Version>
5.8.1

> <Gold.Id.Protein>
6NUR|6NUR_protein|mol2

> <Gold.PLP.Fitness>
45.4627

> <Gold.PLP.PLP>
-31.9635

> <Gold.PLP.part.hbond>
-2.4729

> <Gold.PLP.part.metal>
0.0000

> <Gold.PLP.part.buried>
-4.6103

> <Gold.PLP.part.nonpolar>
-27.0771

> <Gold.PLP.part.repulsive>
1.8043

> <Gold.PLP.ligand.clash>
0.0000

> <Gold.PLP.ligand.torsion>
0.4998

> <Gold.PLP.Chemscore.Hbond>
3.8240

> <Gold.PLP.Chemscore.CHOScore>
0.9910

> <Gold.PLP.Chemscore.Metal>
0.0000

> <Gold.Chemscore.Hbonds>
donor molecule, donor type, donor heavy atom, donor atom, acceptor molecule, acceptor atom, score
      L1  H     6    42       P1  7948  2.00
      P1  H  6896  6909       L1     2  1.75
      L1  C    18    37       P1  8029  0.99

> <Gold.PLP.Chemscore.Internal.Correction>
0.0538

> <Gold.Rescore>
     Score         DG    S(hbond)    S(metal)    S(lipo)     H(rot)  DE(clash)    DE(int)     intcor
     12.54     -16.36       1.63        0.00      83.00       1.67       1.15       2.67       ----

> <Gold.Chemscore.Fitness>
12.5421

> <Gold.Chemscore.DG>
-16.3600

> <Gold.Chemscore.ZeroCoef>
-5.4800

> <Gold.Chemscore.Hbond>
1.6323

> <Gold.Chemscore.Metal>
0.0000

> <Gold.Chemscore.Lipo>
83.0019

> <Gold.Chemscore.Internal_Hbond>
0.0000

> <Gold.Chemscore.DEClash>
1.1459

> <Gold.Chemscore.DEInternal>
2.6720

> <Gold.Chemscore.Rot>
1.6730

> <Gold.Chemscore.Internal.Correction>
   9.000000E+99

> <Gold.Chemscore.Hbonds>
donor molecule, donor type, donor heavy atom, donor atom, acceptor molecule, acceptor atom, score
      L1  H     6    42       P1  7948  0.52
      P1  H  6896  6909       L1     2  0.44

> <Gold.Chemscore.Hbond.Weighted>
-5.4518

> <Gold.Chemscore.Metal.Weighted>
-0.0000

> <Gold.Chemscore.Lipo.Weighted>
-9.7112

> <Gold.Chemscore.Internal_Hbond.Weighted>
0.0000

> <Gold.Chemscore.DEClash.Weighted>
1.1459

> <Gold.Chemscore.DEInternal.Weighted>
2.6720

> <Gold.Chemscore.Rot.Weighted>
4.2830

> <Gold.Chemscore.Internal.Correction.Weighted>
   9.000000E+99

> <Gold.Protein.RotatedTorsions>
[ 6907 6896 6895 6894 ] final   -3.30 input  -60.11 | X-H torsion
[ 7974 7965 7964 7962 ] final   51.94 input  175.53 | X-H torsion
[ 8008 7997 7996 7995 ] final   29.45 input   59.86 | X-H torsion
[ 10167 10162 10161 10158 ] final  159.92 input  -65.29 | X-H torsion
[ 10718 10713 10712 10709 ] final -157.55 input   66.30 | X-H torsion
[ 10763 10752 10751 10750 ] final   28.94 input  -60.55 | X-H torsion
[ 11005 11000 10999 10996 ] final  147.94 input  -57.11 | X-H torsion

> <Gold.Protein.ActiveResidues>
 VAL166  LYS551  ARG553  GLY616  TRP617  ASP618  TYR619  PRO620  LYS621  CYS622 
 ASP623  PHE694  ASN695  SER759  ASP760  ASP761  ALA762  ILE779  LEU786  VAL792 
 PHE793  MET794  SER795  GLU796  ALA797  LYS798  CYS799  TRP800  GLU811  SER814 

> <Gold.Protein.RotatedAtoms>
  151.5160  135.1066  159.9865 H   0  0  0  0  0  0  0  0  0  0  0  0  # atno 6907 bound_to 6896
  152.4641  133.7881  159.6897 H   0  0  0  0  0  0  0  0  0  0  0  0  # atno 6908 bound_to 6896
  150.8616  133.7571  159.3016 H   0  0  0  0  0  0  0  0  0  0  0  0  # atno 6909 bound_to 6896
  145.9863  139.4293  143.0101 H   0  0  0  0  0  0  0  0  0  0  0  0  # atno 7974 bound_to 7965
  155.0747  140.3204  155.4620 H   0  0  0  0  0  0  0  0  0  0  0  0  # atno 8008 bound_to 7997
  156.2782  140.2105  156.5820 H   0  0  0  0  0  0  0  0  0  0  0  0  # atno 8009 bound_to 7997
  154.7027  140.0505  157.0461 H   0  0  0  0  0  0  0  0  0  0  0  0  # atno 8010 bound_to 7997
  139.4836  144.4684  151.8610 H   0  0  0  0  0  0  0  0  0  0  0  0  # atno 10167 bound_to 10162
  156.5418  130.8566  151.2751 H   0  0  0  0  0  0  0  0  0  0  0  0  # atno 10718 bound_to 10713
  153.0460  135.6501  154.0815 H   0  0  0  0  0  0  0  0  0  0  0  0  # atno 10763 bound_to 10752
  154.0512  135.2895  155.3341 H   0  0  0  0  0  0  0  0  0  0  0  0  # atno 10764 bound_to 10752
  154.6718  135.5353  153.8214 H   0  0  0  0  0  0  0  0  0  0  0  0  # atno 10765 bound_to 10752
  140.0918  134.9036  157.1662 H   0  0  0  0  0  0  0  0  0  0  0  0  # atno 11005 bound_to 11000
  145.7696  140.9902  143.1157 LP  0  0  0  0  0  0  0  0  0  0  0  0  # atno 17320 bound_to 7965
  144.6876  139.9430  143.7475 LP  0  0  0  0  0  0  0  0  0  0  0  0  # atno 17321 bound_to 7965
  140.4151  144.2318  150.5888 LP  0  0  0  0  0  0  0  0  0  0  0  0  # atno 17342 bound_to 10162
  140.4928  143.2342  151.8793 LP  0  0  0  0  0  0  0  0  0  0  0  0  # atno 17343 bound_to 10162
  157.7404  130.9849  150.2374 LP  0  0  0  0  0  0  0  0  0  0  0  0  # atno 17370 bound_to 10713
  156.2965  130.3752  149.7791 LP  0  0  0  0  0  0  0  0  0  0  0  0  # atno 17371 bound_to 10713
  140.3342  134.2776  155.7223 LP  0  0  0  0  0  0  0  0  0  0  0  0  # atno 17394 bound_to 11000
  141.2080  133.7790  157.0085 LP  0  0  0  0  0  0  0  0  0  0  0  0  # atno 17395 bound_to 11000

$$$$
