#       Name:                AV-unprocessed.smi:189
#       Creating user name   scv26
#       Creation time:       Thu Mar 26 19:29:54 2020


#       File generated by GOLD software.
#

@<TRIPOS>MOLECULE
AV-unprocessed.smi:189
    61    65     1
SMALL
NO_CHARGES


@<TRIPOS>ATOM
      1 ****        -2.9888   0.8455   2.1931 C.3            1 S1                 0.0000
      2 ****        -2.6298  -0.0265   0.9813 C.3            1 S1                 0.0000
      3 ****        -3.8043  -0.8948   0.4682 C.3            1 S1                 0.0000
      4 ****        -3.9607  -0.4637  -0.9899 C.3            1 S1                 0.0000
      5 ****        -4.4458  -1.4899  -2.0208 C.3            1 S1                 0.0000
      6 ****        -4.4283  -0.8419  -3.4223 C.3            1 S1                 0.0000
      7 ****        -3.0551  -0.2208  -3.7711 C.3            1 S1                 0.0000
      8 ****        -2.5457   0.7402  -2.6760 C.3            1 S1                 0.0000
      9 ****        -2.5563   0.0047  -1.3275 C.3            1 S1                 0.0000
     10 ****        -2.1821   0.7795  -0.1583 N.3            1 S1                 0.0000
     11 ****        -0.8971   1.1966  -0.1158 C.ar           1 S1                 0.0000
     12 ****        -0.6936   2.5361  -0.0871 N.ar           1 S1                 0.0000
     13 ****         0.5505   3.0223  -0.0490 C.ar           1 S1                 0.0000
     14 ****         1.7073   2.3569  -0.0330 N.ar           1 S1                 0.0000
     15 ****         1.5049   1.0082  -0.0583 C.ar           1 S1                 0.0000
     16 ****         0.2457   0.3463  -0.1036 C.ar           1 S1                 0.0000
     17 ****         0.4362  -1.0305  -0.1260 N.2            1 S1                 0.0000
     18 ****         1.7326  -1.1737  -0.0930 C.2            1 S1                 0.0000
     19 ****         2.4519  -0.0009  -0.0428 N.pl3          1 S1                 0.0000
     20 ****         3.8994   0.1331   0.0064 C.3            1 S1                 0.0000
     21 ****         4.4653   0.1651   1.4456 C.3            1 S1                 0.0000
     22 ****         3.9649   1.3090   2.1157 O.3            1 S1                 0.0000
     23 ****         4.1250  -1.0688   2.2776 C.3            1 S1                 0.0000
     24 ****         5.3449  -1.2227   3.1749 C.3            1 S1                 0.0000
     25 ****         6.4108  -0.8941   2.3011 O.3            1 S1                 0.0000
     26 ****         6.0060   0.2065   1.4936 C.3            1 S1                 0.0000
     27 ****        -3.3305   0.2322   3.0269 H              1 S1                 0.0000
     28 ****        -3.7827   1.5521   1.9495 H              1 S1                 0.0000
     29 ****        -2.1265   1.4177   2.5367 H              1 S1                 0.0000
     30 ****        -1.8278  -0.6998   1.2853 H              1 S1                 0.0000
     31 ****        -3.5399  -1.9509   0.5338 H              1 S1                 0.0000
     32 ****        -4.7258  -0.7465   1.0321 H              1 S1                 0.0000
     33 ****        -4.6344   0.3957  -1.0105 H              1 S1                 0.0000
     34 ****        -3.8010  -2.3696  -2.0088 H              1 S1                 0.0000
     35 ****        -5.4517  -1.8305  -1.7742 H              1 S1                 0.0000
     36 ****        -4.7041  -1.5798  -4.1760 H              1 S1                 0.0000
     37 ****        -5.1910  -0.0634  -3.4647 H              1 S1                 0.0000
     38 ****        -2.3272  -1.0213  -3.9089 H              1 S1                 0.0000
     39 ****        -3.1163   0.3033  -4.7252 H              1 S1                 0.0000
     40 ****        -1.5403   1.0854  -2.9189 H              1 S1                 0.0000
     41 ****        -3.1811   1.6257  -2.6290 H              1 S1                 0.0000
     42 ****        -1.9004  -0.8643  -1.4004 H              1 S1                 0.0000
     43 ****         0.6306   4.0990  -0.0279 H              1 S1                 0.0000
     44 ****         2.2025  -2.1463  -0.1003 H              1 S1                 0.0000
     45 ****         4.3337  -0.6997  -0.5483 H              1 S1                 0.0000
     46 ****         4.1822   1.0386  -0.5321 H              1 S1                 0.0000
     47 ****         4.3319   1.3318   2.9861 H              1 S1                 0.0000
     48 ****         3.1894  -0.9834   2.8322 H              1 S1                 0.0000
     49 ****         4.0516  -1.9478   1.6364 H              1 S1                 0.0000
     50 ****         5.3153  -0.5162   4.0060 H              1 S1                 0.0000
     51 ****         5.4489  -2.2303   3.5781 H              1 S1                 0.0000
     52 ****         6.4570   0.1105   0.5054 H              1 S1                 0.0000
     53 ****         6.3781   1.1343   1.9316 H              1 S1                 0.0000
     54 ****        -2.6293   1.6740  -0.1622 LP             1 S1                 0.0000
     55 ****        -1.4745   3.1608  -0.0944 LP             1 S1                 0.0000
     56 ****         2.6075   2.7916  -0.0059 LP             1 S1                 0.0000
     57 ****        -0.2606  -1.7469  -0.1596 LP             1 S1                 0.0000
     58 ****         2.9678   1.2578   2.1715 LP             1 S1                 0.0000
     59 ****         4.2289   2.1345   1.6168 LP             1 S1                 0.0000
     60 ****         6.6252  -1.6789   1.7197 LP             1 S1                 0.0000
     61 ****         7.2192  -0.6431   2.8337 LP             1 S1                 0.0000
@<TRIPOS>BOND
    1    1    2 1     
    2    1   27 1     
    3    1   28 1     
    4    1   29 1     
    5    2   10 1     
    6    2    3 1     
    7    2   30 1     
    8    3    4 1     
    9    3   31 1     
   10    3   32 1     
   11    4    9 1     
   12    4    5 1     
   13    4   33 1     
   14    5    6 1     
   15    5   34 1     
   16    5   35 1     
   17    6    7 1     
   18    6   36 1     
   19    6   37 1     
   20    7    8 1     
   21    7   38 1     
   22    7   39 1     
   23    8    9 1     
   24    8   40 1     
   25    8   41 1     
   26    9   10 1     
   27    9   42 1     
   28   10   11 1     
   29   11   16 ar    
   30   11   12 ar    
   31   12   13 ar    
   32   13   14 ar    
   33   13   43 1     
   34   14   15 ar    
   35   15   19 1     
   36   15   16 ar    
   37   16   17 1     
   38   17   18 2     
   39   18   19 1     
   40   18   44 1     
   41   19   20 1     
   42   20   21 1     
   43   20   45 1     
   44   20   46 1     
   45   21   26 1     
   46   21   22 1     
   47   21   23 1     
   48   22   47 1     
   49   23   24 1     
   50   23   48 1     
   51   23   49 1     
   52   24   25 1     
   53   24   50 1     
   54   24   51 1     
   55   25   26 1     
   56   26   52 1     
   57   26   53 1     
   58   10   54 1     
   59   12   55 1     
   60   14   56 1     
   61   17   57 1     
   62   22   58 1     
   63   22   59 1     
   64   25   60 1     
   65   25   61 1     
@<TRIPOS>SUBSTRUCTURE
      1 S1             1
@<TRIPOS>SET
LONE_PAIRS      STATIC     ATOMS    <user>   **** ""
8 54 55 56 57 58 59 60 61
DONOR_HYDROGENS      STATIC     ATOMS    <user>   **** ""
1 47
ATOM$BLUE        STATIC     ATOMS    COLORGROUP SYSTEM
8 54 55 56 57 58 59 60 61
ATOM$RED        STATIC     ATOMS    COLORGROUP SYSTEM
1 47
