#       Name:                AV-unprocessed.smi:332
#       Creating user name   scv26
#       Creation time:       Thu Mar 26 22:26:27 2020


#       File generated by GOLD software.
#

@<TRIPOS>MOLECULE
AV-unprocessed.smi:332
    46    48     1
SMALL
NO_CHARGES


@<TRIPOS>ATOM
      1 ****        -2.5137  -2.4557  -0.6525 C.3            1 S1                 0.0000
      2 ****        -1.6709  -1.2053  -0.3517 C.3            1 S1                 0.0000
      3 ****        -0.2946  -1.4705  -0.7675 N.am           1 S1                 0.0000
      4 ****         0.4400  -0.7093  -1.5938 C.2            1 S1                 0.0000
      5 ****         0.0145   0.3104  -2.1375 O.2            1 S1                 0.0000
      6 ****         1.8771  -1.1840  -1.8467 C.3            1 S1                 0.0000
      7 ****         2.8229  -0.0689  -2.0183 N.am           1 S1                 0.0000
      8 ****         3.1901   0.2666  -3.3366 C.2            1 S1                 0.0000
      9 ****         4.0418   1.2693  -3.6032 C.2            1 S1                 0.0000
     10 ****         4.5874   2.0148  -2.4936 C.2            1 S1                 0.0000
     11 ****         4.2405   1.7044  -1.2287 C.2            1 S1                 0.0000
     12 ****         3.3084   0.6101  -0.9327 C.2            1 S1                 0.0000
     13 ****         2.9842   0.3213   0.2199 O.2            1 S1                 0.0000
     14 ****        -1.7170  -0.8131   1.1474 C.3            1 S1                 0.0000
     15 ****        -3.1225  -0.3684   1.6219 C.3            1 S1                 0.0000
     16 ****        -2.8650   1.0093   2.2572 C.3            1 S1                 0.0000
     17 ****        -2.0758   0.8329   3.5668 C.3            1 S1                 0.0000
     18 ****        -0.6732   0.4454   3.0642 C.3            1 S1                 0.0000
     19 ****        -0.8548   0.4181   1.5344 C.3            1 S1                 0.0000
     20 ****        -1.8108   1.5866   1.3222 C.3            1 S1                 0.0000
     21 ****        -3.5642  -2.3018  -0.4072 H              1 S1                 0.0000
     22 ****        -2.1636  -3.3167  -0.0819 H              1 S1                 0.0000
     23 ****        -2.4641  -2.7159  -1.7104 H              1 S1                 0.0000
     24 ****        -2.0837  -0.3847  -0.9404 H              1 S1                 0.0000
     25 ****         0.1434  -2.2909  -0.3744 H              1 S1                 0.0000
     26 ****         2.2057  -1.8264  -1.0274 H              1 S1                 0.0000
     27 ****         1.8706  -1.8257  -2.7286 H              1 S1                 0.0000
     28 ****         2.7328  -0.3335  -4.1099 H              1 S1                 0.0000
     29 ****         4.3080   1.5146  -4.6207 H              1 S1                 0.0000
     30 ****         5.2753   2.8266  -2.6786 H              1 S1                 0.0000
     31 ****         4.6574   2.2746  -0.4114 H              1 S1                 0.0000
     32 ****        -1.3878  -1.6756   1.7296 H              1 S1                 0.0000
     33 ****        -3.8135  -0.2613   0.7847 H              1 S1                 0.0000
     34 ****        -3.5649  -1.0749   2.3251 H              1 S1                 0.0000
     35 ****        -3.7653   1.6147   2.3665 H              1 S1                 0.0000
     36 ****        -2.0371   1.7671   4.1284 H              1 S1                 0.0000
     37 ****        -2.5132   0.0704   4.2124 H              1 S1                 0.0000
     38 ****         0.0578   1.2021   3.3524 H              1 S1                 0.0000
     39 ****        -0.3345  -0.5114   3.4632 H              1 S1                 0.0000
     40 ****         0.0926   0.5035   1.0031 H              1 S1                 0.0000
     41 ****        -2.1519   1.6898   0.2909 H              1 S1                 0.0000
     42 ****        -1.4074   2.5423   1.6616 H              1 S1                 0.0000
     43 ****        -0.9250   0.6104  -1.9720 LP             1 S1                 0.0000
     44 ****         0.6084   0.8384  -2.7444 LP             1 S1                 0.0000
     45 ****         2.3466  -0.4309   0.3864 LP             1 S1                 0.0000
     46 ****         3.3586   0.8389   0.9893 LP             1 S1                 0.0000
@<TRIPOS>BOND
    1    1    2 1     
    2    1   21 1     
    3    1   22 1     
    4    1   23 1     
    5    2    3 1     
    6    2   14 1     
    7    2   24 1     
    8    3    4 am    
    9    3   25 1     
   10    4    5 2     
   11    4    6 1     
   12    6    7 1     
   13    6   26 1     
   14    6   27 1     
   15    7   12 am    
   16    7    8 1     
   17    8    9 2     
   18    8   28 1     
   19    9   10 1     
   20    9   29 1     
   21   10   11 2     
   22   10   30 1     
   23   11   12 1     
   24   11   31 1     
   25   12   13 2     
   26   14   19 1     
   27   14   15 1     
   28   14   32 1     
   29   15   16 1     
   30   15   33 1     
   31   15   34 1     
   32   16   20 1     
   33   16   17 1     
   34   16   35 1     
   35   17   18 1     
   36   17   36 1     
   37   17   37 1     
   38   18   19 1     
   39   18   38 1     
   40   18   39 1     
   41   19   20 1     
   42   19   40 1     
   43   20   41 1     
   44   20   42 1     
   45    5   43 1     
   46    5   44 1     
   47   13   45 1     
   48   13   46 1     
@<TRIPOS>SUBSTRUCTURE
      1 S1             1
@<TRIPOS>SET
LONE_PAIRS      STATIC     ATOMS    <user>   **** ""
4 43 44 45 46
DONOR_HYDROGENS      STATIC     ATOMS    <user>   **** ""
1 25
ATOM$BLUE        STATIC     ATOMS    COLORGROUP SYSTEM
4 43 44 45 46
ATOM$RED        STATIC     ATOMS    COLORGROUP SYSTEM
1 25
