AV-unprocessed.smi:658|AV-procd|sdf|3234|dock10
  -GOLD-   22720 0183D 1   1.00000     0.00000
 Structure written by MMmdl.
 37 37  0  0  0  0  0  0  0  0  3 V2000
  144.1286  136.3686  152.8264 C   0  0  0  0  0  0  0  0  0  0  0  0
  145.5874  135.9658  152.5548 C   0  0  2  0  0  0  0  0  0  0  0  0
  146.4862  137.0842  152.9222 N   0  3  0  0  0  0  0  0  0  0  0  0
  146.1304  138.3906  152.3359 C   0  0  0  0  0  0  0  0  0  0  0  0
  147.1359  139.4663  152.7589 C   0  0  0  0  0  0  0  0  0  0  0  0
  147.6505  139.2593  154.1884 C   0  0  0  0  0  0  0  0  0  0  0  0
  149.0540  140.3948  154.5490 S   0  0  0  0  0  0  0  0  0  0  0  0
  150.2704  139.6109  153.8374 N   0  5  0  0  0  0  0  0  0  0  0  0
  148.7254  141.6613  153.8771 O   0  0  0  0  0  0  0  0  0  0  0  0
  149.1839  140.4217  156.0136 O   0  0  0  0  0  0  0  0  0  0  0  0
  145.8212  135.5073  151.0914 C   0  0  2  0  0  0  0  0  0  0  0  0
  145.3279  136.5357  150.0559 C   0  0  0  0  0  0  0  0  0  0  0  0
  145.3015  134.1705  150.8172 N   0  0  0  0  0  0  0  0  0  0  0  0
  143.9884  133.7901  150.6262 C   0  0  0  0  0  0  0  0  0  0  0  0
  143.9811  132.4462  150.3849 C   0  0  0  0  0  0  0  0  0  0  0  0
  145.3551  132.0845  150.4437 C   0  0  0  0  0  0  0  0  0  0  0  0
  146.1422  133.1172  150.6968 N   0  0  0  0  0  0  0  0  0  0  0  0
  143.4446  135.5594  152.5693 H   0  0  0  0  0  0  0  0  0  0  0  0
  143.8360  137.2472  152.2505 H   0  0  0  0  0  0  0  0  0  0  0  0
  143.9784  136.6019  153.8809 H   0  0  0  0  0  0  0  0  0  0  0  0
  145.8082  135.1124  153.1985 H   0  0  0  0  0  0  0  0  0  0  0  0
  146.4738  137.1760  153.9286 H   0  0  0  0  0  0  0  0  0  0  0  0
  146.1083  138.3030  151.2488 H   0  0  0  0  0  0  0  0  0  0  0  0
  145.1276  138.6697  152.6623 H   0  0  0  0  0  0  0  0  0  0  0  0
  147.9799  139.4679  152.0678 H   0  0  0  0  0  0  0  0  0  0  0  0
  146.6701  140.4494  152.6810 H   0  0  0  0  0  0  0  0  0  0  0  0
  146.8643  139.4532  154.9185 H   0  0  0  0  0  0  0  0  0  0  0  0
  147.9974  138.2360  154.3338 H   0  0  0  0  0  0  0  0  0  0  0  0
  149.9933  139.4015  152.8711 H   0  0  0  0  0  0  0  0  0  0  0  0
  146.9020  135.4434  150.9556 H   0  0  0  0  0  0  0  0  0  0  0  0
  145.7954  137.5074  150.2166 H   0  0  0  0  0  0  0  0  0  0  0  0
  144.2479  136.6786  150.1028 H   0  0  0  0  0  0  0  0  0  0  0  0
  145.5742  136.2173  149.0424 H   0  0  0  0  0  0  0  0  0  0  0  0
  143.1753  134.4993  150.6784 H   0  0  0  0  0  0  0  0  0  0  0  0
  143.1240  131.8167  150.1954 H   0  0  0  0  0  0  0  0  0  0  0  0
  145.8013  131.1102  150.3089 H   0  0  0  0  0  0  0  0  0  0  0  0
  147.4263  136.8482  152.6387 H   0  0  0  0  0  0  0  0  0  0  0  0
  1  2  1  0  0  0  0
  1 18  1  0  0  0  0
  1 19  1  0  0  0  0
  1 20  1  0  0  0  0
  2  3  1  0  0  0  0
  2 11  1  0  0  0  0
  2 21  1  0  0  0  0
  3  4  1  0  0  0  0
  3 22  1  0  0  0  0
  3 37  1  0  0  0  0
  4  5  1  0  0  0  0
  4 23  1  0  0  0  0
  4 24  1  0  0  0  0
  5  6  1  0  0  0  0
  5 25  1  0  0  0  0
  5 26  1  0  0  0  0
  6  7  1  0  0  0  0
  6 27  1  0  0  0  0
  6 28  1  0  0  0  0
  7  8  1  0  0  0  0
  7  9  2  0  0  0  0
  7 10  2  0  0  0  0
  8 29  1  0  0  0  0
 11 12  1  0  0  0  0
 11 13  1  0  0  0  0
 11 30  1  0  0  0  0
 12 31  1  0  0  0  0
 12 32  1  0  0  0  0
 12 33  1  0  0  0  0
 13 17  1  0  0  0  0
 13 14  1  0  0  0  0
 14 15  2  0  0  0  0
 14 34  1  0  0  0  0
 15 16  1  0  0  0  0
 15 35  1  0  0  0  0
 16 17  2  0  0  0  0
 16 36  1  0  0  0  0
M  CHG  1   3   1
M  CHG  1   8  -1
M  END
> <s_m_source_file>
AV-unprocessed.smi

> <i_m_source_file_index>
658

> <i_lp_mmshare_version>
43012

> <i_f3d_flags>
0

> <s_epik_input>
bjFbY0hdW2NIXVtjSF1uMVtDQEBIXShbQ0gzXSlbQ0BIXShbQ0gzXSlbTkhdW0NIMl1bQ0gyXVtDSDJdUyg9TykoPU8pW05IMl0=

> <s_epik_cmdline>
J2VwaWtfcHl0aG9uJywgJy1waCcsICc3LjAnLCAnLXRuJywgJzgnLCAnLW1hJywgJzIwMCcsICctbWV0YWxfYmluZGluZycsICctaW1hZScsICc8aW5maWxlLm1hZT4nLCAnLW9tYWUnLCAnPG91dGZpbGUubWFlPic=

> <r_lp_tautomer_probability>
1

> <r_epik_Ionization_Penalty>
4.63642

> <r_epik_Ionization_Penalty_Charging>
4.63641

> <r_epik_Ionization_Penalty_Neutral>
1.08396e-05

> <r_epik_State_Penalty>
4.63466

> <r_epik_Charging_Adjusted_Penalty>
9.27106

> <i_epik_Tot_Q>
0

> <i_epik_Tot_abs_Q>
2

> <r_epik_Metal_State_Penalty>
0.890424

> <b_epik_Metal_Only>
1

> <s_lp_Force_Field>
OPLS_2005

> <r_lp_Energy>
0.307927

> <b_lp_Chiralities_Consistent>
1

> <s_lp_Variant>
AV-unprocessed.smi:658-5

> <Gold.Version>
5.8.1

> <Gold.Id.Protein>
6NUR|6NUR_protein|mol2

> <Gold.PLP.Fitness>
42.4161

> <Gold.PLP.PLP>
-27.6954

> <Gold.PLP.part.hbond>
-4.0000

> <Gold.PLP.part.metal>
0.0000

> <Gold.PLP.part.buried>
3.0606

> <Gold.PLP.part.nonpolar>
-26.3457

> <Gold.PLP.part.repulsive>
0.4434

> <Gold.PLP.ligand.clash>
0.0000

> <Gold.PLP.ligand.torsion>
1.0630

> <Gold.PLP.Chemscore.Hbond>
4.5440

> <Gold.PLP.Chemscore.CHOScore>
1.0000

> <Gold.PLP.Chemscore.Metal>
0.0000

> <Gold.Chemscore.Hbonds>
donor molecule, donor type, donor heavy atom, donor atom, acceptor molecule, acceptor atom, score
      L1  H     3    37       P1  7948  2.00
      L1  H     8    29       P1  7957  0.98
      P1  H  7989  7998       L1     8  0.88
      P1  H  8011  8017       L1     9  0.61
      L1  C    14    34       P1 10186  0.99

> <Gold.PLP.Chemscore.Internal.Correction>
0.2148

> <Gold.Rescore>
     Score         DG    S(hbond)    S(metal)    S(lipo)     H(rot)  DE(clash)    DE(int)     intcor
     11.43     -15.03       2.79        0.00      68.64       3.04       2.03       1.57       ----

> <Gold.Chemscore.Fitness>
11.4271

> <Gold.Chemscore.DG>
-15.0288

> <Gold.Chemscore.ZeroCoef>
-5.4800

> <Gold.Chemscore.Hbond>
2.7853

> <Gold.Chemscore.Metal>
0.0000

> <Gold.Chemscore.Lipo>
68.6379

> <Gold.Chemscore.Internal_Hbond>
0.0000

> <Gold.Chemscore.DEClash>
2.0335

> <Gold.Chemscore.DEInternal>
1.5682

> <Gold.Chemscore.Rot>
3.0409

> <Gold.Chemscore.Internal.Correction>
   9.000000E+99

> <Gold.Chemscore.Hbonds>
donor molecule, donor type, donor heavy atom, donor atom, acceptor molecule, acceptor atom, score
      L1  H     3    37       P1  7948  1.00
      L1  H     8    29       P1  7957  0.90
      P1  H  7989  7998       L1     8  0.11
      P1  H  8011  8017       L1     9  0.58

> <Gold.Chemscore.Hbond.Weighted>
-9.3030

> <Gold.Chemscore.Metal.Weighted>
-0.0000

> <Gold.Chemscore.Lipo.Weighted>
-8.0306

> <Gold.Chemscore.Internal_Hbond.Weighted>
0.0000

> <Gold.Chemscore.DEClash.Weighted>
2.0335

> <Gold.Chemscore.DEInternal.Weighted>
1.5682

> <Gold.Chemscore.Rot.Weighted>
7.7848

> <Gold.Chemscore.Internal.Correction.Weighted>
   9.000000E+99

> <Gold.Protein.RotatedTorsions>
[ 6907 6896 6895 6894 ] final   14.36 input  -60.11 | X-H torsion
[ 7974 7965 7964 7962 ] final  117.12 input  175.53 | X-H torsion
[ 8008 7997 7996 7995 ] final  100.78 input   59.86 | X-H torsion
[ 10167 10162 10161 10158 ] final -104.35 input  -65.29 | X-H torsion
[ 10718 10713 10712 10709 ] final -153.34 input   66.30 | X-H torsion
[ 10763 10752 10751 10750 ] final  -54.98 input  -60.55 | X-H torsion
[ 11005 11000 10999 10996 ] final   99.57 input  -57.11 | X-H torsion

> <Gold.Protein.ActiveResidues>
 VAL166  LYS551  ARG553  GLY616  TRP617  ASP618  TYR619  PRO620  LYS621  CYS622 
 ASP623  PHE694  ASN695  SER759  ASP760  ASP761  ALA762  ILE779  LEU786  VAL792 
 PHE793  MET794  SER795  GLU796  ALA797  LYS798  CYS799  TRP800  GLU811  SER814 

> <Gold.Protein.RotatedAtoms>
  151.8011  135.0708  160.0400 H   0  0  0  0  0  0  0  0  0  0  0  0  # atno 6907 bound_to 6896
  152.3088  133.5727  159.5675 H   0  0  0  0  0  0  0  0  0  0  0  0  # atno 6908 bound_to 6896
  150.7310  134.0098  159.3708 H   0  0  0  0  0  0  0  0  0  0  0  0  # atno 6909 bound_to 6896
  145.1712  139.3100  143.4466 H   0  0  0  0  0  0  0  0  0  0  0  0  # atno 7974 bound_to 7965
  156.1236  140.3208  155.8244 H   0  0  0  0  0  0  0  0  0  0  0  0  # atno 8008 bound_to 7997
  155.4460  140.0529  157.3023 H   0  0  0  0  0  0  0  0  0  0  0  0  # atno 8009 bound_to 7997
  154.4845  140.2067  155.9699 H   0  0  0  0  0  0  0  0  0  0  0  0  # atno 8010 bound_to 7997
  140.2102  143.3752  152.1057 H   0  0  0  0  0  0  0  0  0  0  0  0  # atno 10167 bound_to 10162
  156.4846  130.8319  151.2544 H   0  0  0  0  0  0  0  0  0  0  0  0  # atno 10718 bound_to 10713
  154.1835  135.6439  153.5040 H   0  0  0  0  0  0  0  0  0  0  0  0  # atno 10763 bound_to 10752
  153.0053  135.5411  154.6489 H   0  0  0  0  0  0  0  0  0  0  0  0  # atno 10764 bound_to 10752
  154.5860  135.2929  155.0657 H   0  0  0  0  0  0  0  0  0  0  0  0  # atno 10765 bound_to 10752
  139.8771  134.9101  156.4625 H   0  0  0  0  0  0  0  0  0  0  0  0  # atno 11005 bound_to 11000
  146.3468  140.1858  142.8589 LP  0  0  0  0  0  0  0  0  0  0  0  0  # atno 17320 bound_to 7965
  145.0231  140.8810  143.5155 LP  0  0  0  0  0  0  0  0  0  0  0  0  # atno 17321 bound_to 7965
  139.5183  144.7003  151.5511 LP  0  0  0  0  0  0  0  0  0  0  0  0  # atno 17342 bound_to 10162
  140.6329  143.9042  150.6621 LP  0  0  0  0  0  0  0  0  0  0  0  0  # atno 17343 bound_to 10162
  157.7480  131.0034  150.3035 LP  0  0  0  0  0  0  0  0  0  0  0  0  # atno 17370 bound_to 10713
  156.3487  130.3827  149.7347 LP  0  0  0  0  0  0  0  0  0  0  0  0  # atno 17371 bound_to 10713
  140.8854  133.7887  155.9512 LP  0  0  0  0  0  0  0  0  0  0  0  0  # atno 17394 bound_to 11000
  140.8810  134.2611  157.5144 LP  0  0  0  0  0  0  0  0  0  0  0  0  # atno 17395 bound_to 11000

$$$$
