AV-unprocessed.smi:2881|AV-procd|sdf|11067|dock5
  -GOLD-   2272015543D 1   1.00000     0.00000
 Structure written by MMmdl.
 40 42  0  0  0  0  0  0  0  0  1 V2000
  147.7572  124.3408  149.8066 C   0  0  0  0  0  0  0  0  0  0  0  0
  148.3338  125.4941  150.5735 C   0  0  0  0  0  0  0  0  0  0  0  0
  147.6560  126.6428  151.0772 C   0  0  0  0  0  0  0  0  0  0  0  0
  148.6360  127.3729  151.6895 C   0  0  0  0  0  0  0  0  0  0  0  0
  148.5843  128.6781  152.4157 C   0  0  0  0  0  0  0  0  0  0  0  0
  147.1752  129.2693  152.3792 C   0  0  0  0  0  0  0  0  0  0  0  0
  146.2118  128.5848  152.7222 O   0  0  0  0  0  0  0  0  0  0  0  0
  147.0714  130.5432  151.9689 N   0  0  0  0  0  0  0  0  0  0  0  0
  145.8237  131.2994  151.8515 C   0  0  2  0  0  0  0  0  0  0  0  0
  145.5528  131.6517  150.3729 C   0  0  1  0  0  0  0  0  0  0  0  0
  144.0866  132.0965  150.2211 C   0  0  0  0  0  0  0  0  0  0  0  0
  144.0858  133.4806  150.8979 C   0  0  0  0  0  0  0  0  0  0  0  0
  145.5510  133.6431  151.3495 C   0  0  2  0  0  0  0  0  0  0  0  0
  146.2960  132.9713  150.2031 C   0  0  0  0  0  0  0  0  0  0  0  0
  145.8285  132.6967  152.5437 C   0  0  2  0  0  0  0  0  0  0  0  0
  147.1063  133.0649  153.3316 C   0  0  0  0  0  0  0  0  0  0  0  0
  148.2542  132.8506  152.5376 O   0  0  0  0  0  0  0  0  0  0  0  0
  149.8015  126.6566  151.5319 N   0  0  0  0  0  0  0  0  0  0  0  0
  149.6291  125.5086  150.8509 N   0  0  0  0  0  0  0  0  0  0  0  0
  150.7088  126.9353  151.8773 H   0  0  0  0  0  0  0  0  0  0  0  0
  146.6797  124.4504  149.6820 H   0  0  0  0  0  0  0  0  0  0  0  0
  147.9367  123.3968  150.3215 H   0  0  0  0  0  0  0  0  0  0  0  0
  148.2000  124.2693  148.8130 H   0  0  0  0  0  0  0  0  0  0  0  0
  146.6083  126.8933  150.9995 H   0  0  0  0  0  0  0  0  0  0  0  0
  149.2973  129.3819  151.9835 H   0  0  0  0  0  0  0  0  0  0  0  0
  148.8818  128.5365  153.4552 H   0  0  0  0  0  0  0  0  0  0  0  0
  147.9189  131.0270  151.7109 H   0  0  0  0  0  0  0  0  0  0  0  0
  145.0035  130.6894  152.2354 H   0  0  0  0  0  0  0  0  0  0  0  0
  145.8374  130.8676  149.6698 H   0  0  0  0  0  0  0  0  0  0  0  0
  143.8137  132.1848  149.1687 H   0  0  0  0  0  0  0  0  0  0  0  0
  143.3881  131.4022  150.6894 H   0  0  0  0  0  0  0  0  0  0  0  0
  143.8138  134.2559  150.1805 H   0  0  0  0  0  0  0  0  0  0  0  0
  143.3837  133.5382  151.7305 H   0  0  0  0  0  0  0  0  0  0  0  0
  145.8289  134.6822  151.5278 H   0  0  0  0  0  0  0  0  0  0  0  0
  147.3712  132.8899  150.3673 H   0  0  0  0  0  0  0  0  0  0  0  0
  146.1200  133.4456  149.2359 H   0  0  0  0  0  0  0  0  0  0  0  0
  144.9935  132.7422  153.2449 H   0  0  0  0  0  0  0  0  0  0  0  0
  147.0920  134.1183  153.6121 H   0  0  0  0  0  0  0  0  0  0  0  0
  147.1934  132.4836  154.2498 H   0  0  0  0  0  0  0  0  0  0  0  0
  148.2544  131.9524  152.2438 H   0  0  0  0  0  0  0  0  0  0  0  0
  1 21  1  0  0  0  0
  1 22  1  0  0  0  0
  1 23  1  0  0  0  0
  1  2  1  0  0  0  0
  2 19  2  0  0  0  0
  2  3  1  0  0  0  0
  3  4  2  0  0  0  0
  3 24  1  0  0  0  0
  4 18  1  0  0  0  0
  4  5  1  0  0  0  0
  5  6  1  0  0  0  0
  5 25  1  0  0  0  0
  5 26  1  0  0  0  0
  6  7  2  0  0  0  0
  6  8  1  0  0  0  0
  8  9  1  0  0  0  0
  8 27  1  0  0  0  0
  9 15  1  0  0  0  0
  9 10  1  0  0  0  0
  9 28  1  0  0  0  0
 10 14  1  0  0  0  0
 10 11  1  0  0  0  0
 10 29  1  0  0  0  0
 11 12  1  0  0  0  0
 11 30  1  0  0  0  0
 11 31  1  0  0  0  0
 12 13  1  0  0  0  0
 12 32  1  0  0  0  0
 12 33  1  0  0  0  0
 13 14  1  0  0  0  0
 13 15  1  0  0  0  0
 13 34  1  0  0  0  0
 14 35  1  0  0  0  0
 14 36  1  0  0  0  0
 15 16  1  0  0  0  0
 15 37  1  0  0  0  0
 16 17  1  0  0  0  0
 16 38  1  0  0  0  0
 16 39  1  0  0  0  0
 17 40  1  0  0  0  0
 18 19  1  0  0  0  0
 18 20  1  0  0  0  0
M  END
> <s_m_source_file>
AV-unprocessed.smi

> <i_m_source_file_index>
2881

> <i_lp_mmshare_version>
43012

> <i_f3d_flags>
0

> <s_epik_input>
W0NIM11jMVtjSF1jKG5bbkhdMSlbQ0gyXUMoPU8pW05IXVtDQEhdKFtDQEBIXTIzKVtDQEhdKFtDSDJdW09IXSlbQ0BASF0oW0NIMl0zKVtDSDJdW0NIMl0y

> <s_epik_cmdline>
J2VwaWtfcHl0aG9uJywgJy1waCcsICc3LjAnLCAnLXRuJywgJzgnLCAnLW1hJywgJzIwMCcsICctbWV0YWxfYmluZGluZycsICctaW1hZScsICc8aW5maWxlLm1hZT4nLCAnLW9tYWUnLCAnPG91dGZpbGUubWFlPic=

> <r_lp_tautomer_probability>
0.5

> <r_epik_Ionization_Penalty>
0.00013396

> <r_epik_Ionization_Penalty_Charging>
0

> <r_epik_Ionization_Penalty_Neutral>
0.00013396

> <r_epik_State_Penalty>
0.41068

> <r_epik_Charging_Adjusted_Penalty>
0.41068

> <i_epik_Tot_Q>
0

> <i_epik_Tot_abs_Q>
0

> <r_epik_Metal_State_Penalty>
0.41066

> <b_epik_Metal_Only>
0

> <s_lp_Force_Field>
OPLS_2005

> <r_lp_Energy>
49.1739

> <b_lp_Chiralities_Consistent>
1

> <s_lp_Variant>
AV-unprocessed.smi:2881-13

> <Gold.Version>
5.8.1

> <Gold.Id.Protein>
6NUR|6NUR_protein|mol2

> <Gold.PLP.Fitness>
43.5660

> <Gold.PLP.PLP>
-38.6077

> <Gold.PLP.part.hbond>
-2.5853

> <Gold.PLP.part.metal>
0.0000

> <Gold.PLP.part.buried>
-5.2187

> <Gold.PLP.part.nonpolar>
-30.4134

> <Gold.PLP.part.repulsive>
0.3493

> <Gold.PLP.ligand.clash>
0.0000

> <Gold.PLP.ligand.torsion>
0.1700

> <Gold.PLP.Chemscore.Hbond>
1.7582

> <Gold.PLP.Chemscore.CHOScore>
0.0000

> <Gold.PLP.Chemscore.Metal>
0.0000

> <Gold.Chemscore.Hbonds>
donor molecule, donor type, donor heavy atom, donor atom, acceptor molecule, acceptor atom, score
      L1  H     8    27       P1 10747  0.62
      L1  H    17    40       P1 10747  0.13
      L1  H    18    20       P1 10737  1.00

> <Gold.PLP.Chemscore.Internal.Correction>
0.0240

> <Gold.Rescore>
     Score         DG    S(hbond)    S(metal)    S(lipo)     H(rot)  DE(clash)    DE(int)     intcor
     17.26     -21.42       2.79        0.00     106.30       2.28       0.43       3.73       ----

> <Gold.Chemscore.Fitness>
17.2581

> <Gold.Chemscore.DG>
-21.4204

> <Gold.Chemscore.ZeroCoef>
-5.4800

> <Gold.Chemscore.Hbond>
2.7928

> <Gold.Chemscore.Metal>
0.0000

> <Gold.Chemscore.Lipo>
106.3039

> <Gold.Chemscore.Internal_Hbond>
0.0000

> <Gold.Chemscore.DEClash>
0.4290

> <Gold.Chemscore.DEInternal>
3.7334

> <Gold.Chemscore.Rot>
2.2755

> <Gold.Chemscore.Internal.Correction>
   9.000000E+99

> <Gold.Chemscore.Hbonds>
donor molecule, donor type, donor heavy atom, donor atom, acceptor molecule, acceptor atom, score
      L1  H     8    27       P1 10747  0.62
      L1  H    17    40       P1 10747  0.13
      L1  H    18    20       P1 10737  0.88

> <Gold.Chemscore.Hbond.Weighted>
-9.3281

> <Gold.Chemscore.Metal.Weighted>
-0.0000

> <Gold.Chemscore.Lipo.Weighted>
-12.4376

> <Gold.Chemscore.Internal_Hbond.Weighted>
0.0000

> <Gold.Chemscore.DEClash.Weighted>
0.4290

> <Gold.Chemscore.DEInternal.Weighted>
3.7334

> <Gold.Chemscore.Rot.Weighted>
5.8252

> <Gold.Chemscore.Internal.Correction.Weighted>
   9.000000E+99

> <Gold.Protein.RotatedTorsions>
[ 6907 6896 6895 6894 ] final  -13.11 input  -60.11 | X-H torsion
[ 7974 7965 7964 7962 ] final  145.42 input  175.53 | X-H torsion
[ 8008 7997 7996 7995 ] final  118.38 input   59.86 | X-H torsion
[ 10167 10162 10161 10158 ] final  170.89 input  -65.29 | X-H torsion
[ 10718 10713 10712 10709 ] final  -71.61 input   66.30 | X-H torsion
[ 10763 10752 10751 10750 ] final   -2.75 input  -60.55 | X-H torsion
[ 11005 11000 10999 10996 ] final   10.53 input  -57.11 | X-H torsion

> <Gold.Protein.ActiveResidues>
 VAL166  LYS551  ARG553  GLY616  TRP617  ASP618  TYR619  PRO620  LYS621  CYS622 
 ASP623  PHE694  ASN695  SER759  ASP760  ASP761  ALA762  ILE779  LEU786  VAL792 
 PHE793  MET794  SER795  GLU796  ALA797  LYS798  CYS799  TRP800  GLU811  SER814 

> <Gold.Protein.RotatedAtoms>
  151.3601  135.0902  159.9431 H   0  0  0  0  0  0  0  0  0  0  0  0  # atno 6907 bound_to 6896
  152.5164  133.9267  159.7571 H   0  0  0  0  0  0  0  0  0  0  0  0  # atno 6908 bound_to 6896
  150.9659  133.6341  159.2775 H   0  0  0  0  0  0  0  0  0  0  0  0  # atno 6909 bound_to 6896
  144.8754  139.5781  143.5867 H   0  0  0  0  0  0  0  0  0  0  0  0  # atno 7974 bound_to 7965
  156.2543  140.2876  156.0825 H   0  0  0  0  0  0  0  0  0  0  0  0  # atno 8008 bound_to 7997
  155.1551  140.0398  157.2847 H   0  0  0  0  0  0  0  0  0  0  0  0  # atno 8009 bound_to 7997
  154.6433  140.2527  155.7304 H   0  0  0  0  0  0  0  0  0  0  0  0  # atno 8010 bound_to 7997
  139.5031  144.3546  151.9887 H   0  0  0  0  0  0  0  0  0  0  0  0  # atno 10167 bound_to 10162
  156.0355  130.4355  150.2469 H   0  0  0  0  0  0  0  0  0  0  0  0  # atno 10718 bound_to 10713
  153.3621  135.6991  153.6704 H   0  0  0  0  0  0  0  0  0  0  0  0  # atno 10763 bound_to 10752
  153.5388  135.3577  155.2709 H   0  0  0  0  0  0  0  0  0  0  0  0  # atno 10764 bound_to 10752
  154.8669  135.4198  154.2881 H   0  0  0  0  0  0  0  0  0  0  0  0  # atno 10765 bound_to 10752
  140.5135  134.0629  155.7824 H   0  0  0  0  0  0  0  0  0  0  0  0  # atno 11005 bound_to 11000
  146.2959  139.7276  142.9127 LP  0  0  0  0  0  0  0  0  0  0  0  0  # atno 17320 bound_to 7965
  145.4053  141.0390  143.3047 LP  0  0  0  0  0  0  0  0  0  0  0  0  # atno 17321 bound_to 7965
  140.2983  144.3676  150.6068 LP  0  0  0  0  0  0  0  0  0  0  0  0  # atno 17342 bound_to 10162
  140.5893  143.2168  151.7283 LP  0  0  0  0  0  0  0  0  0  0  0  0  # atno 17343 bound_to 10162
  157.0569  131.0079  151.3235 LP  0  0  0  0  0  0  0  0  0  0  0  0  # atno 17370 bound_to 10713
  157.5099  130.7932  149.7694 LP  0  0  0  0  0  0  0  0  0  0  0  0  # atno 17371 bound_to 10713
  141.1373  133.9199  157.2405 LP  0  0  0  0  0  0  0  0  0  0  0  0  # atno 17394 bound_to 11000
  139.9646  135.0145  156.9352 LP  0  0  0  0  0  0  0  0  0  0  0  0  # atno 17395 bound_to 11000

$$$$
