AV-unprocessed.smi:1433|AV-procd|sdf|5838|dock5
  -GOLD-   22720 5503D 1   1.00000     0.00000
 Structure written by MMmdl.
 44 45  0  0  0  0  0  0  0  0  1 V2000
  153.3127  141.6593  161.1453 C   0  0  0  0  0  0  0  0  0  0  0  0
  153.0163  142.4664  159.8770 C   0  0  1  0  0  0  0  0  0  0  0  0
  152.0530  141.7264  158.9299 C   0  0  0  0  0  0  0  0  0  0  0  0
  151.6980  142.5137  157.7441 N   0  0  0  0  0  0  0  0  0  0  0  0
  150.7480  141.8084  156.8519 C   0  0  1  0  0  0  0  0  0  0  0  0
  151.3921  140.5964  156.1318 C   0  0  0  0  0  0  0  0  0  0  0  0
  149.4533  141.3361  157.5777 C   0  0  0  0  0  0  0  0  0  0  0  0
  148.4041  142.3507  157.6285 N   0  0  0  0  0  0  0  0  0  0  0  0
  147.0884  142.0986  157.7096 C   0  0  0  0  0  0  0  0  0  0  0  0
  146.6156  140.9628  157.7501 O   0  0  0  0  0  0  0  0  0  0  0  0
  146.1614  143.3136  157.7520 C   0  0  0  0  0  0  0  0  0  0  0  0
  146.1975  143.9520  159.0552 N   0  0  0  0  0  0  0  0  0  0  0  0
  146.5650  145.2449  159.3656 C   0  0  0  0  0  0  0  0  0  0  0  0
  146.4418  145.3893  160.7180 C   0  0  0  0  0  0  0  0  0  0  0  0
  145.9901  144.1123  161.1541 C   0  0  0  0  0  0  0  0  0  0  0  0
  145.8442  143.2542  160.1570 N   0  0  0  0  0  0  0  0  0  0  0  0
  151.1804  143.8085  158.2007 C   0  0  0  0  0  0  0  0  0  0  0  0
  152.1453  144.5431  159.1509 C   0  0  1  0  0  0  0  0  0  0  0  0
  151.5507  145.8517  159.6823 C   0  0  0  0  0  0  0  0  0  0  0  0
  152.4337  143.7045  160.2622 O   0  0  0  0  0  0  0  0  0  0  0  0
  153.7753  140.7027  160.9018 H   0  0  0  0  0  0  0  0  0  0  0  0
  152.4005  141.4569  161.7071 H   0  0  0  0  0  0  0  0  0  0  0  0
  153.9947  142.2009  161.8011 H   0  0  0  0  0  0  0  0  0  0  0  0
  153.9574  142.6630  159.3604 H   0  0  0  0  0  0  0  0  0  0  0  0
  152.5481  140.8016  158.6411 H   0  0  0  0  0  0  0  0  0  0  0  0
  151.1478  141.4477  159.4717 H   0  0  0  0  0  0  0  0  0  0  0  0
  150.4415  142.5102  156.0747 H   0  0  0  0  0  0  0  0  0  0  0  0
  150.6794  140.0521  155.5136 H   0  0  0  0  0  0  0  0  0  0  0  0
  151.8106  139.8893  156.8485 H   0  0  0  0  0  0  0  0  0  0  0  0
  152.1855  140.8952  155.4484 H   0  0  0  0  0  0  0  0  0  0  0  0
  149.0487  140.4550  157.0786 H   0  0  0  0  0  0  0  0  0  0  0  0
  149.6476  141.0442  158.6091 H   0  0  0  0  0  0  0  0  0  0  0  0
  148.7011  143.3154  157.5949 H   0  0  0  0  0  0  0  0  0  0  0  0
  146.4739  144.0372  156.9981 H   0  0  0  0  0  0  0  0  0  0  0  0
  145.1355  143.0270  157.5136 H   0  0  0  0  0  0  0  0  0  0  0  0
  146.8811  145.9452  158.6063 H   0  0  0  0  0  0  0  0  0  0  0  0
  146.6452  146.2717  161.3062 H   0  0  0  0  0  0  0  0  0  0  0  0
  145.7654  143.7858  162.1586 H   0  0  0  0  0  0  0  0  0  0  0  0
  151.0036  144.4691  157.3537 H   0  0  0  0  0  0  0  0  0  0  0  0
  150.2193  143.6656  158.6972 H   0  0  0  0  0  0  0  0  0  0  0  0
  153.0745  144.7695  158.6251 H   0  0  0  0  0  0  0  0  0  0  0  0
  151.3195  146.5386  158.8677 H   0  0  0  0  0  0  0  0  0  0  0  0
  152.2505  146.3532  160.3511 H   0  0  0  0  0  0  0  0  0  0  0  0
  150.6309  145.6696  160.2388 H   0  0  0  0  0  0  0  0  0  0  0  0
  1  2  1  0  0  0  0
  1 21  1  0  0  0  0
  1 22  1  0  0  0  0
  1 23  1  0  0  0  0
  2 20  1  0  0  0  0
  2  3  1  0  0  0  0
  2 24  1  0  0  0  0
  3  4  1  0  0  0  0
  3 25  1  0  0  0  0
  3 26  1  0  0  0  0
  4  5  1  0  0  0  0
  4 17  1  0  0  0  0
  5  6  1  0  0  0  0
  5  7  1  0  0  0  0
  5 27  1  0  0  0  0
  6 28  1  0  0  0  0
  6 29  1  0  0  0  0
  6 30  1  0  0  0  0
  7  8  1  0  0  0  0
  7 31  1  0  0  0  0
  7 32  1  0  0  0  0
  8  9  1  0  0  0  0
  8 33  1  0  0  0  0
  9 10  2  0  0  0  0
  9 11  1  0  0  0  0
 11 12  1  0  0  0  0
 11 34  1  0  0  0  0
 11 35  1  0  0  0  0
 12 16  1  0  0  0  0
 12 13  1  0  0  0  0
 13 14  2  0  0  0  0
 13 36  1  0  0  0  0
 14 15  1  0  0  0  0
 14 37  1  0  0  0  0
 15 16  2  0  0  0  0
 15 38  1  0  0  0  0
 17 18  1  0  0  0  0
 17 39  1  0  0  0  0
 17 40  1  0  0  0  0
 18 19  1  0  0  0  0
 18 20  1  0  0  0  0
 18 41  1  0  0  0  0
 19 42  1  0  0  0  0
 19 43  1  0  0  0  0
 19 44  1  0  0  0  0
M  END
> <s_m_source_file>
AV-unprocessed.smi

> <i_m_source_file_index>
1433

> <i_lp_mmshare_version>
43012

> <i_f3d_flags>
0

> <s_epik_input>
W0NIM11bQ0BASF0xW0NIMl1OKFtDSDJdW0NASF0oTzEpW0NIM10pW0NASF0oW0NIM10pW0NIMl1bTkhdQyg9TylbQ0gyXW4yW2NIXVtjSF1bY0hdbjI=

> <s_epik_cmdline>
J2VwaWtfcHl0aG9uJywgJy1waCcsICc3LjAnLCAnLXRuJywgJzgnLCAnLW1hJywgJzIwMCcsICctbWV0YWxfYmluZGluZycsICctaW1hZScsICc8aW5maWxlLm1hZT4nLCAnLW9tYWUnLCAnPG91dGZpbGUubWFlPic=

> <r_lp_tautomer_probability>
1

> <r_epik_Ionization_Penalty>
0.196927

> <r_epik_Ionization_Penalty_Charging>
0

> <r_epik_Ionization_Penalty_Neutral>
0.196927

> <r_epik_State_Penalty>
0.186684

> <r_epik_Charging_Adjusted_Penalty>
0.186684

> <i_epik_Tot_Q>
0

> <i_epik_Tot_abs_Q>
0

> <r_epik_Metal_State_Penalty>
0.186682

> <b_epik_Metal_Only>
0

> <s_lp_Force_Field>
OPLS_2005

> <r_lp_Energy>
27.7845

> <b_lp_Chiralities_Consistent>
1

> <s_lp_Variant>
AV-unprocessed.smi:1433-4

> <Gold.Version>
5.8.1

> <Gold.Id.Protein>
6NUR|6NUR_protein|mol2

> <Gold.PLP.Fitness>
46.8840

> <Gold.PLP.PLP>
-42.4673

> <Gold.PLP.part.hbond>
-1.3128

> <Gold.PLP.part.metal>
0.0000

> <Gold.PLP.part.buried>
-6.6907

> <Gold.PLP.part.nonpolar>
-34.3265

> <Gold.PLP.part.repulsive>
0.1794

> <Gold.PLP.ligand.clash>
0.0000

> <Gold.PLP.ligand.torsion>
0.8246

> <Gold.PLP.Chemscore.Hbond>
1.0000

> <Gold.PLP.Chemscore.CHOScore>
1.0000

> <Gold.PLP.Chemscore.Metal>
0.0000

> <Gold.Chemscore.Hbonds>
donor molecule, donor type, donor heavy atom, donor atom, acceptor molecule, acceptor atom, score
      L1  H     8    33       P1  8028  0.07
      L1  C    13    36       P1  8029  0.01

> <Gold.PLP.Chemscore.Internal.Correction>
0.0660

> <Gold.Rescore>
     Score         DG    S(hbond)    S(metal)    S(lipo)     H(rot)  DE(clash)    DE(int)     intcor
     15.12     -16.09       0.93        0.00     103.53       1.80       0.03       0.94       ----

> <Gold.Chemscore.Fitness>
15.1172

> <Gold.Chemscore.DG>
-16.0906

> <Gold.Chemscore.ZeroCoef>
-5.4800

> <Gold.Chemscore.Hbond>
0.9328

> <Gold.Chemscore.Metal>
0.0000

> <Gold.Chemscore.Lipo>
103.5268

> <Gold.Chemscore.Internal_Hbond>
0.0000

> <Gold.Chemscore.DEClash>
0.0312

> <Gold.Chemscore.DEInternal>
0.9422

> <Gold.Chemscore.Rot>
1.8038

> <Gold.Chemscore.Internal.Correction>
   9.000000E+99

> <Gold.Chemscore.Hbonds>
donor molecule, donor type, donor heavy atom, donor atom, acceptor molecule, acceptor atom, score
      L1  H     8    33       P1  8028  0.02

> <Gold.Chemscore.Hbond.Weighted>
-3.1157

> <Gold.Chemscore.Metal.Weighted>
-0.0000

> <Gold.Chemscore.Lipo.Weighted>
-12.1126

> <Gold.Chemscore.Internal_Hbond.Weighted>
0.0000

> <Gold.Chemscore.DEClash.Weighted>
0.0312

> <Gold.Chemscore.DEInternal.Weighted>
0.9422

> <Gold.Chemscore.Rot.Weighted>
4.6178

> <Gold.Chemscore.Internal.Correction.Weighted>
   9.000000E+99

> <Gold.Protein.RotatedTorsions>
[ 6907 6896 6895 6894 ] final   84.71 input  -60.11 | X-H torsion
[ 7974 7965 7964 7962 ] final -121.30 input  175.53 | X-H torsion
[ 8008 7997 7996 7995 ] final  165.48 input   59.86 | X-H torsion
[ 10167 10162 10161 10158 ] final  -17.82 input  -65.29 | X-H torsion
[ 10718 10713 10712 10709 ] final   75.67 input   66.30 | X-H torsion
[ 10763 10752 10751 10750 ] final   90.10 input  -60.55 | X-H torsion
[ 11005 11000 10999 10996 ] final  134.87 input  -57.11 | X-H torsion

> <Gold.Protein.ActiveResidues>
 VAL166  LYS551  ARG553  GLY616  TRP617  ASP618  TYR619  PRO620  LYS621  CYS622 
 ASP623  PHE694  ASN695  SER759  ASP760  ASP761  ALA762  ILE779  LEU786  VAL792 
 PHE793  MET794  SER795  GLU796  ALA797  LYS798  CYS799  TRP800  GLU811  SER814 

> <Gold.Protein.RotatedAtoms>
  152.5358  134.2699  159.8967 H   0  0  0  0  0  0  0  0  0  0  0  0  # atno 6907 bound_to 6896
  151.2656  133.4273  159.2626 H   0  0  0  0  0  0  0  0  0  0  0  0  # atno 6908 bound_to 6896
  151.0413  134.9624  159.8220 H   0  0  0  0  0  0  0  0  0  0  0  0  # atno 6909 bound_to 6896
  145.0418  140.8150  143.4262 H   0  0  0  0  0  0  0  0  0  0  0  0  # atno 7974 bound_to 7965
  156.1797  140.1669  156.8297 H   0  0  0  0  0  0  0  0  0  0  0  0  # atno 8008 bound_to 7997
  154.5346  140.0749  156.8438 H   0  0  0  0  0  0  0  0  0  0  0  0  # atno 8009 bound_to 7997
  155.3337  140.3380  155.4241 H   0  0  0  0  0  0  0  0  0  0  0  0  # atno 8010 bound_to 7997
  140.7251  143.4978  150.9908 H   0  0  0  0  0  0  0  0  0  0  0  0  # atno 10167 bound_to 10162
  157.6643  130.9737  150.1386 H   0  0  0  0  0  0  0  0  0  0  0  0  # atno 10718 bound_to 10713
  153.1940  135.4446  155.0185 H   0  0  0  0  0  0  0  0  0  0  0  0  # atno 10763 bound_to 10752
  154.8108  135.3293  154.7313 H   0  0  0  0  0  0  0  0  0  0  0  0  # atno 10764 bound_to 10752
  153.7765  135.6981  153.4952 H   0  0  0  0  0  0  0  0  0  0  0  0  # atno 10765 bound_to 10752
  139.9942  134.9503  156.9927 H   0  0  0  0  0  0  0  0  0  0  0  0  # atno 11005 bound_to 11000
  145.1638  139.2443  143.5378 LP  0  0  0  0  0  0  0  0  0  0  0  0  # atno 17320 bound_to 7965
  146.3510  140.1372  142.8595 LP  0  0  0  0  0  0  0  0  0  0  0  0  # atno 17321 bound_to 7965
  139.8686  143.7222  152.3168 LP  0  0  0  0  0  0  0  0  0  0  0  0  # atno 17342 bound_to 10162
  139.7463  144.7546  151.0575 LP  0  0  0  0  0  0  0  0  0  0  0  0  # atno 17343 bound_to 10162
  156.2215  130.3674  149.8551 LP  0  0  0  0  0  0  0  0  0  0  0  0  # atno 17370 bound_to 10713
  156.6403  130.8702  151.3512 LP  0  0  0  0  0  0  0  0  0  0  0  0  # atno 17371 bound_to 10713
  140.4849  134.1252  155.7223 LP  0  0  0  0  0  0  0  0  0  0  0  0  # atno 17394 bound_to 11000
  141.1591  133.8826  157.1897 LP  0  0  0  0  0  0  0  0  0  0  0  0  # atno 17395 bound_to 11000

$$$$
