AV-unprocessed.smi:3316|AV-procd|sdf|12758|dock2
  -GOLD-   2272019 93D 1   1.00000     0.00000
 Structure written by MMmdl.
 41 43  0  0  0  0  0  0  0  0  2 V2000
  148.0876  140.0798  153.8687 C   0  0  0  0  0  0  0  0  0  0  0  0
  149.3940  140.5764  154.5072 C   0  0  1  0  0  0  0  0  0  0  0  0
  149.1219  141.4361  155.7573 C   0  0  0  0  0  0  0  0  0  0  0  0
  150.3062  142.2380  156.1262 N   0  3  0  0  0  0  0  0  0  0  0  0
  150.8864  141.8997  157.4397 C   0  0  0  0  0  0  0  0  0  0  0  0
  150.8788  143.1235  158.3737 C   0  0  2  0  0  0  0  0  0  0  0  0
  151.3683  144.4395  157.6893 C   0  0  0  0  0  0  0  0  0  0  0  0
  152.5138  144.9136  158.6129 C   0  0  1  0  0  0  0  0  0  0  0  0
  151.9191  145.2630  159.9607 C   0  0  0  0  0  0  0  0  0  0  0  0
  151.5365  144.1202  160.5337 C   0  0  0  0  0  0  0  0  0  0  0  0
  151.8621  143.0000  159.5669 C   0  0  2  0  0  0  0  0  0  0  0  0
  153.1488  143.5608  158.9461 C   0  0  0  0  0  0  0  0  0  0  0  0
  150.3358  139.4165  154.8099 C   0  0  0  0  0  0  0  0  0  0  0  0
  149.9393  138.0858  154.5578 C   0  0  0  0  0  0  0  0  0  0  0  0
  150.8492  137.0459  154.8358 C   0  0  0  0  0  0  0  0  0  0  0  0
  152.0876  137.2569  155.3294 N   0  0  0  0  0  0  0  0  0  0  0  0
  152.4622  138.5308  155.5716 C   0  0  0  0  0  0  0  0  0  0  0  0
  151.6290  139.6413  155.3302 C   0  0  0  0  0  0  0  0  0  0  0  0
  148.2878  139.5165  152.9565 H   0  0  0  0  0  0  0  0  0  0  0  0
  147.4381  140.9141  153.6026 H   0  0  0  0  0  0  0  0  0  0  0  0
  147.5306  139.4305  154.5448 H   0  0  0  0  0  0  0  0  0  0  0  0
  149.8833  141.2163  153.7709 H   0  0  0  0  0  0  0  0  0  0  0  0
  148.2841  142.1105  155.5758 H   0  0  0  0  0  0  0  0  0  0  0  0
  148.8387  140.8003  156.5973 H   0  0  0  0  0  0  0  0  0  0  0  0
  151.0166  142.0858  155.4242 H   0  0  0  0  0  0  0  0  0  0  0  0
  150.3051  141.0900  157.8824 H   0  0  0  0  0  0  0  0  0  0  0  0
  151.9012  141.5252  157.3018 H   0  0  0  0  0  0  0  0  0  0  0  0
  149.8651  143.2541  158.7581 H   0  0  0  0  0  0  0  0  0  0  0  0
  151.7455  144.2527  156.6827 H   0  0  0  0  0  0  0  0  0  0  0  0
  150.5730  145.1818  157.6097 H   0  0  0  0  0  0  0  0  0  0  0  0
  153.1913  145.6616  158.2003 H   0  0  0  0  0  0  0  0  0  0  0  0
  151.8131  146.2660  160.3470 H   0  0  0  0  0  0  0  0  0  0  0  0
  151.0477  143.9901  161.4879 H   0  0  0  0  0  0  0  0  0  0  0  0
  151.9505  142.0159  160.0279 H   0  0  0  0  0  0  0  0  0  0  0  0
  153.5060  143.0127  158.0731 H   0  0  0  0  0  0  0  0  0  0  0  0
  153.9674  143.6415  159.6645 H   0  0  0  0  0  0  0  0  0  0  0  0
  148.9608  137.8591  154.1605 H   0  0  0  0  0  0  0  0  0  0  0  0
  150.5751  136.0173  154.6537 H   0  0  0  0  0  0  0  0  0  0  0  0
  153.4571  138.6707  155.9674 H   0  0  0  0  0  0  0  0  0  0  0  0
  151.9812  140.6403  155.5414 H   0  0  0  0  0  0  0  0  0  0  0  0
  150.0539  143.2159  156.1218 H   0  0  0  0  0  0  0  0  0  0  0  0
  1  2  1  0  0  0  0
  1 19  1  0  0  0  0
  1 20  1  0  0  0  0
  1 21  1  0  0  0  0
  2  3  1  0  0  0  0
  2 13  1  0  0  0  0
  2 22  1  0  0  0  0
  3  4  1  0  0  0  0
  3 23  1  0  0  0  0
  3 24  1  0  0  0  0
  4  5  1  0  0  0  0
  4 25  1  0  0  0  0
  4 41  1  0  0  0  0
  5  6  1  0  0  0  0
  5 26  1  0  0  0  0
  5 27  1  0  0  0  0
  6 11  1  0  0  0  0
  6  7  1  0  0  0  0
  6 28  1  0  0  0  0
  7  8  1  0  0  0  0
  7 29  1  0  0  0  0
  7 30  1  0  0  0  0
  8 12  1  0  0  0  0
  8  9  1  0  0  0  0
  8 31  1  0  0  0  0
  9 10  2  0  0  0  0
  9 32  1  0  0  0  0
 10 11  1  0  0  0  0
 10 33  1  0  0  0  0
 11 12  1  0  0  0  0
 11 34  1  0  0  0  0
 12 35  1  0  0  0  0
 12 36  1  0  0  0  0
 13 18  1  0  0  0  0
 13 14  2  0  0  0  0
 14 15  1  0  0  0  0
 14 37  1  0  0  0  0
 15 16  2  0  0  0  0
 15 38  1  0  0  0  0
 16 17  1  0  0  0  0
 17 18  2  0  0  0  0
 17 39  1  0  0  0  0
 18 40  1  0  0  0  0
M  CHG  1   4   1
M  END
> <s_m_source_file>
AV-unprocessed.smi

> <i_m_source_file_index>
3316

> <i_lp_mmshare_version>
43012

> <i_f3d_flags>
0

> <s_epik_input>
W2NIXTFbY0hdbltjSF1bY0hdYzFbQ0BIXShbQ0gzXSlbQ0gyXVtOSF1bQ0gyXVtDQEhdKFtDSDJdW0NASF0yMylbQ0BIXShbQ0gyXTMpW0NIXT1bQ0hdMg==

> <s_epik_cmdline>
J2VwaWtfcHl0aG9uJywgJy1waCcsICc3LjAnLCAnLXRuJywgJzgnLCAnLW1hJywgJzIwMCcsICctbWV0YWxfYmluZGluZycsICctaW1hZScsICc8aW5maWxlLm1hZT4nLCAnLW9tYWUnLCAnPG91dGZpbGUubWFlPic=

> <r_lp_tautomer_probability>
1

> <r_epik_Ionization_Penalty>
0.00280406

> <r_epik_Ionization_Penalty_Charging>
0.000446589

> <r_epik_Ionization_Penalty_Neutral>
0.00235747

> <r_epik_State_Penalty>
-0

> <r_epik_Charging_Adjusted_Penalty>
0.000446589

> <i_epik_Tot_Q>
1

> <i_epik_Tot_abs_Q>
1

> <r_epik_Metal_State_Penalty>
-0

> <b_epik_Metal_Only>
0

> <s_lp_Force_Field>
OPLS_2005

> <r_lp_Energy>
65.494

> <b_lp_Chiralities_Consistent>
1

> <s_lp_Variant>
AV-unprocessed.smi:3316-6

> <Gold.Version>
5.8.1

> <Gold.Id.Protein>
6NUR|6NUR_protein|mol2

> <Gold.PLP.Fitness>
54.4006

> <Gold.PLP.PLP>
-47.8142

> <Gold.PLP.part.hbond>
-2.0000

> <Gold.PLP.part.metal>
0.0000

> <Gold.PLP.part.buried>
-1.1185

> <Gold.PLP.part.nonpolar>
-45.2647

> <Gold.PLP.part.repulsive>
0.1758

> <Gold.PLP.ligand.clash>
0.0000

> <Gold.PLP.ligand.torsion>
1.0075

> <Gold.PLP.Chemscore.Hbond>
2.8160

> <Gold.PLP.Chemscore.CHOScore>
0.0000

> <Gold.PLP.Chemscore.Metal>
0.0000

> <Gold.Chemscore.Hbonds>
donor molecule, donor type, donor heavy atom, donor atom, acceptor molecule, acceptor atom, score
      L1  H     4    41       P1  8028  2.00
      P1  H 10752 10763       L1    16  0.86

> <Gold.PLP.Chemscore.Internal.Correction>
0.1533

> <Gold.Rescore>
     Score         DG    S(hbond)    S(metal)    S(lipo)     H(rot)  DE(clash)    DE(int)     intcor
     24.04     -25.33       1.88        0.00     145.73       1.36       0.14       1.15       ----

> <Gold.Chemscore.Fitness>
24.0362

> <Gold.Chemscore.DG>
-25.3333

> <Gold.Chemscore.ZeroCoef>
-5.4800

> <Gold.Chemscore.Hbond>
1.8847

> <Gold.Chemscore.Metal>
0.0000

> <Gold.Chemscore.Lipo>
145.7287

> <Gold.Chemscore.Internal_Hbond>
0.0000

> <Gold.Chemscore.DEClash>
0.1422

> <Gold.Chemscore.DEInternal>
1.1549

> <Gold.Chemscore.Rot>
1.3640

> <Gold.Chemscore.Internal.Correction>
   9.000000E+99

> <Gold.Chemscore.Hbonds>
donor molecule, donor type, donor heavy atom, donor atom, acceptor molecule, acceptor atom, score
      L1  H     4    41       P1  8028  0.96
      P1  H 10752 10763       L1    16  0.21

> <Gold.Chemscore.Hbond.Weighted>
-6.2949

> <Gold.Chemscore.Metal.Weighted>
-0.0000

> <Gold.Chemscore.Lipo.Weighted>
-17.0503

> <Gold.Chemscore.Internal_Hbond.Weighted>
0.0000

> <Gold.Chemscore.DEClash.Weighted>
0.1422

> <Gold.Chemscore.DEInternal.Weighted>
1.1549

> <Gold.Chemscore.Rot.Weighted>
3.4919

> <Gold.Chemscore.Internal.Correction.Weighted>
   9.000000E+99

> <Gold.Protein.RotatedTorsions>
[ 6907 6896 6895 6894 ] final  132.87 input  -60.11 | X-H torsion
[ 7974 7965 7964 7962 ] final    0.70 input  175.53 | X-H torsion
[ 8008 7997 7996 7995 ] final  -91.68 input   59.86 | X-H torsion
[ 10167 10162 10161 10158 ] final  117.96 input  -65.29 | X-H torsion
[ 10718 10713 10712 10709 ] final  -66.93 input   66.30 | X-H torsion
[ 10763 10752 10751 10750 ] final   66.81 input  -60.55 | X-H torsion
[ 11005 11000 10999 10996 ] final -106.95 input  -57.11 | X-H torsion

> <Gold.Protein.ActiveResidues>
 VAL166  LYS551  ARG553  GLY616  TRP617  ASP618  TYR619  PRO620  LYS621  CYS622 
 ASP623  PHE694  ASN695  SER759  ASP760  ASP761  ALA762  ILE779  LEU786  VAL792 
 PHE793  MET794  SER795  GLU796  ALA797  LYS798  CYS799  TRP800  GLU811  SER814 

> <Gold.Protein.RotatedAtoms>
  152.3279  133.5925  159.5789 H   0  0  0  0  0  0  0  0  0  0  0  0  # atno 6907 bound_to 6896
  150.7407  133.9912  159.3616 H   0  0  0  0  0  0  0  0  0  0  0  0  # atno 6908 bound_to 6896
  151.7790  135.0767  160.0422 H   0  0  0  0  0  0  0  0  0  0  0  0  # atno 6909 bound_to 6896
  146.2436  140.1098  142.8344 H   0  0  0  0  0  0  0  0  0  0  0  0  # atno 7974 bound_to 7965
  154.7137  140.0517  157.0574 H   0  0  0  0  0  0  0  0  0  0  0  0  # atno 8008 bound_to 7997
  155.0520  140.3180  155.4670 H   0  0  0  0  0  0  0  0  0  0  0  0  # atno 8009 bound_to 7997
  156.2797  140.2114  156.5646 H   0  0  0  0  0  0  0  0  0  0  0  0  # atno 8010 bound_to 7997
  139.6143  144.7089  151.2773 H   0  0  0  0  0  0  0  0  0  0  0  0  # atno 10167 bound_to 10162
  156.0585  130.4270  150.1781 H   0  0  0  0  0  0  0  0  0  0  0  0  # atno 10718 bound_to 10713
  153.0157  135.5307  154.6882 H   0  0  0  0  0  0  0  0  0  0  0  0  # atno 10763 bound_to 10752
  154.6024  135.2869  155.0523 H   0  0  0  0  0  0  0  0  0  0  0  0  # atno 10764 bound_to 10752
  154.1576  135.6553  153.5030 H   0  0  0  0  0  0  0  0  0  0  0  0  # atno 10765 bound_to 10752
  141.0979  133.8938  157.1917 H   0  0  0  0  0  0  0  0  0  0  0  0  # atno 11005 bound_to 11000
  145.0497  140.9008  143.5003 LP  0  0  0  0  0  0  0  0  0  0  0  0  # atno 17320 bound_to 7965
  145.1193  139.2704  143.5596 LP  0  0  0  0  0  0  0  0  0  0  0  0  # atno 17321 bound_to 7965
  140.7341  143.6777  150.8028 LP  0  0  0  0  0  0  0  0  0  0  0  0  # atno 17342 bound_to 10162
  140.0377  143.5378  152.2732 LP  0  0  0  0  0  0  0  0  0  0  0  0  # atno 17343 bound_to 10162
  156.9853  130.9876  151.3428 LP  0  0  0  0  0  0  0  0  0  0  0  0  # atno 17370 bound_to 10713
  157.5575  130.8223  149.8223 LP  0  0  0  0  0  0  0  0  0  0  0  0  # atno 17371 bound_to 10713
  139.9821  135.0095  156.9774 LP  0  0  0  0  0  0  0  0  0  0  0  0  # atno 17394 bound_to 11000
  140.5095  134.1016  155.7267 LP  0  0  0  0  0  0  0  0  0  0  0  0  # atno 17395 bound_to 11000

$$$$
