#       Name:                AV-unprocessed.smi:1858
#       Creating user name   scv26
#       Creation time:       Fri Mar 27 09:25:43 2020


#       File generated by GOLD software.
#

@<TRIPOS>MOLECULE
AV-unprocessed.smi:1858
    54    55     1
SMALL
NO_CHARGES


@<TRIPOS>ATOM
      1 ****        -3.1090  -2.4804   1.1682 C.3            1 S1                 0.0000
      2 ****        -2.5583  -1.1830   1.5271 N.am           1 S1                 0.0000
      3 ****        -3.2869  -0.1263   1.9283 C.2            1 S1                 0.0000
      4 ****        -4.5118  -0.1906   2.0393 O.2            1 S1                 0.0000
      5 ****        -2.4981   1.0802   2.1937 C.2            1 S1                 0.0000
      6 ****        -3.1778   2.3290   2.4772 C.2            1 S1                 0.0000
      7 ****        -2.4791   3.4644   2.6758 C.2            1 S1                 0.0000
      8 ****        -1.0141   3.4899   2.6167 C.2            1 S1                 0.0000
      9 ****        -0.3731   4.5299   2.7677 O.2            1 S1                 0.0000
     10 ****        -0.4102   2.2863   2.3807 N.am           1 S1                 0.0000
     11 ****         1.0507   2.1666   2.2596 C.3            1 S1                 0.0000
     12 ****         1.4651   2.1326   0.7857 C.2            1 S1                 0.0000
     13 ****         1.4310   3.1577   0.1060 O.2            1 S1                 0.0000
     14 ****         1.8335   0.9336   0.3095 N.am           1 S1                 0.0000
     15 ****         2.1385   0.6121  -1.0819 C.3            1 S1                 0.0000
     16 ****         0.8564   0.6247  -1.9524 C.3            1 S1                 0.0000
     17 ****        -0.2975  -0.3059  -1.5286 C.3            1 S1                 0.0000
     18 ****        -0.0153  -1.8187  -1.5716 C.3            1 S1                 0.0000
     19 ****         0.6854  -2.3160  -2.8524 C.3            1 S1                 0.0000
     20 ****         2.1957  -2.5931  -2.7017 C.3            1 S1                 0.0000
     21 ****         3.1154  -1.3720  -2.4891 C.3            1 S1                 0.0000
     22 ****         2.9653  -0.6936  -1.1126 C.3            1 S1                 0.0000
     23 ****        -1.1483   1.1042   2.1717 C.2            1 S1                 0.0000
     24 ****        -2.3067  -3.1508   0.8600 H              1 S1                 0.0000
     25 ****        -3.8116  -2.3878   0.3393 H              1 S1                 0.0000
     26 ****        -3.6254  -2.9319   2.0161 H              1 S1                 0.0000
     27 ****        -1.5578  -1.0707   1.4502 H              1 S1                 0.0000
     28 ****        -4.2565   2.3640   2.5316 H              1 S1                 0.0000
     29 ****        -3.0112   4.3812   2.8833 H              1 S1                 0.0000
     30 ****         1.5763   2.9845   2.7548 H              1 S1                 0.0000
     31 ****         1.3885   1.2612   2.7673 H              1 S1                 0.0000
     32 ****         1.8443   0.1599   0.9577 H              1 S1                 0.0000
     33 ****         2.7868   1.3992  -1.4714 H              1 S1                 0.0000
     34 ****         0.4615   1.6412  -1.9523 H              1 S1                 0.0000
     35 ****         1.1090   0.4511  -2.9968 H              1 S1                 0.0000
     36 ****        -0.6460  -0.0351  -0.5326 H              1 S1                 0.0000
     37 ****        -1.1399  -0.1034  -2.1909 H              1 S1                 0.0000
     38 ****         0.5327  -2.1344  -0.6854 H              1 S1                 0.0000
     39 ****        -0.9775  -2.3254  -1.4878 H              1 S1                 0.0000
     40 ****         0.2180  -3.2604  -3.1339 H              1 S1                 0.0000
     41 ****         0.4935  -1.6487  -3.6929 H              1 S1                 0.0000
     42 ****         2.3534  -3.3116  -1.8962 H              1 S1                 0.0000
     43 ****         2.5280  -3.1014  -3.6075 H              1 S1                 0.0000
     44 ****         4.1406  -1.7372  -2.5604 H              1 S1                 0.0000
     45 ****         3.0199  -0.6557  -3.3046 H              1 S1                 0.0000
     46 ****         3.9636  -0.4461  -0.7490 H              1 S1                 0.0000
     47 ****         2.5896  -1.4134  -0.3862 H              1 S1                 0.0000
     48 ****        -0.5302   0.2409   1.9699 H              1 S1                 0.0000
     49 ****        -4.9888  -1.0440   1.8290 LP             1 S1                 0.0000
     50 ****        -5.0294   0.6105   2.3398 LP             1 S1                 0.0000
     51 ****        -0.8512   5.3918   2.9366 LP             1 S1                 0.0000
     52 ****         0.6257   4.5128   2.7215 LP             1 S1                 0.0000
     53 ****         1.1314   4.0194   0.5155 LP             1 S1                 0.0000
     54 ****         1.7028   3.1291  -0.8559 LP             1 S1                 0.0000
@<TRIPOS>BOND
    1    1    2 1     
    2    1   24 1     
    3    1   25 1     
    4    1   26 1     
    5    2    3 am    
    6    2   27 1     
    7    3    4 2     
    8    3    5 1     
    9    5   23 2     
   10    5    6 1     
   11    6    7 2     
   12    6   28 1     
   13    7    8 1     
   14    7   29 1     
   15    8    9 2     
   16    8   10 am    
   17   10   11 1     
   18   10   23 1     
   19   11   12 1     
   20   11   30 1     
   21   11   31 1     
   22   12   13 2     
   23   12   14 am    
   24   14   15 1     
   25   14   32 1     
   26   15   22 1     
   27   15   16 1     
   28   15   33 1     
   29   16   17 1     
   30   16   34 1     
   31   16   35 1     
   32   17   18 1     
   33   17   36 1     
   34   17   37 1     
   35   18   19 1     
   36   18   38 1     
   37   18   39 1     
   38   19   20 1     
   39   19   40 1     
   40   19   41 1     
   41   20   21 1     
   42   20   42 1     
   43   20   43 1     
   44   21   22 1     
   45   21   44 1     
   46   21   45 1     
   47   22   46 1     
   48   22   47 1     
   49   23   48 1     
   50    4   49 1     
   51    4   50 1     
   52    9   51 1     
   53    9   52 1     
   54   13   53 1     
   55   13   54 1     
@<TRIPOS>SUBSTRUCTURE
      1 S1             1
@<TRIPOS>SET
LONE_PAIRS      STATIC     ATOMS    <user>   **** ""
6 49 50 51 52 53 54
DONOR_HYDROGENS      STATIC     ATOMS    <user>   **** ""
2 27 32
ATOM$BLUE        STATIC     ATOMS    COLORGROUP SYSTEM
6 49 50 51 52 53 54
ATOM$RED        STATIC     ATOMS    COLORGROUP SYSTEM
2 27 32
