AV-unprocessed.smi:973|AV-procd|sdf|4299|dock5
  -GOLD-   22720 2203D 1   1.00000     0.00000
 Structure written by MMmdl.
 41 42  0  0  0  0  0  0  0  0  1 V2000
  151.0610  140.3983  155.6607 C   0  0  0  0  0  0  0  0  0  0  0  0
  149.8027  140.4172  154.9101 N   0  0  0  0  0  0  0  0  0  0  0  0
  149.1389  141.6494  154.7850 C   0  0  0  0  0  0  0  0  0  0  0  0
  147.9815  141.7602  154.1184 C   0  0  0  0  0  0  0  0  0  0  0  0
  147.4170  140.5737  153.5213 C   0  0  0  0  0  0  0  0  0  0  0  0
  148.0362  139.3720  153.6388 C   0  0  0  0  0  0  0  0  0  0  0  0
  147.5594  138.1724  153.0819 N   0  0  0  0  0  0  0  0  0  0  0  0
  146.3017  137.6948  153.0398 C   0  0  0  0  0  0  0  0  0  0  0  0
  145.3088  138.2337  153.5286 O   0  0  0  0  0  0  0  0  0  0  0  0
  146.2590  136.5156  152.4031 N   0  0  0  0  0  0  0  0  0  0  0  0
  145.0600  135.7072  152.2137 C   0  0  0  0  0  0  0  0  0  0  0  0
  145.0595  135.0011  150.8464 C   0  0  0  0  0  0  0  0  0  0  0  0
  145.4617  133.5387  150.9435 C   0  0  0  0  0  0  0  0  0  0  0  0
  145.5263  132.7436  149.8577 C   0  0  0  0  0  0  0  0  0  0  0  0
  145.9024  131.2727  149.8980 C   0  0  0  0  0  0  0  0  0  0  0  0
  145.8657  130.6972  151.3237 C   0  0  0  0  0  0  0  0  0  0  0  0
  146.5087  131.6632  152.3263 C   0  0  0  0  0  0  0  0  0  0  0  0
  145.7829  133.0206  152.3412 C   0  0  0  0  0  0  0  0  0  0  0  0
  149.3158  139.2622  154.3663 C   0  0  0  0  0  0  0  0  0  0  0  0
  149.9223  138.1948  154.4872 O   0  0  0  0  0  0  0  0  0  0  0  0
  151.3515  141.3853  156.0219 H   0  0  0  0  0  0  0  0  0  0  0  0
  151.8760  140.0293  155.0364 H   0  0  0  0  0  0  0  0  0  0  0  0
  150.9763  139.7458  156.5308 H   0  0  0  0  0  0  0  0  0  0  0  0
  149.6239  142.4898  155.2598 H   0  0  0  0  0  0  0  0  0  0  0  0
  147.4820  142.7139  154.0314 H   0  0  0  0  0  0  0  0  0  0  0  0
  146.4987  140.6887  152.9688 H   0  0  0  0  0  0  0  0  0  0  0  0
  148.2779  137.5749  152.6997 H   0  0  0  0  0  0  0  0  0  0  0  0
  147.1219  136.1415  152.0359 H   0  0  0  0  0  0  0  0  0  0  0  0
  145.0272  134.9729  153.0185 H   0  0  0  0  0  0  0  0  0  0  0  0
  144.1694  136.3286  152.3236 H   0  0  0  0  0  0  0  0  0  0  0  0
  144.0670  135.0692  150.3981 H   0  0  0  0  0  0  0  0  0  0  0  0
  145.7398  135.5066  150.1602 H   0  0  0  0  0  0  0  0  0  0  0  0
  145.3086  133.1498  148.8804 H   0  0  0  0  0  0  0  0  0  0  0  0
  145.2259  130.7103  149.2540 H   0  0  0  0  0  0  0  0  0  0  0  0
  146.9024  131.1697  149.4756 H   0  0  0  0  0  0  0  0  0  0  0  0
  144.8310  130.5144  151.6170 H   0  0  0  0  0  0  0  0  0  0  0  0
  146.3694  129.7305  151.3490 H   0  0  0  0  0  0  0  0  0  0  0  0
  146.5065  131.2291  153.3265 H   0  0  0  0  0  0  0  0  0  0  0  0
  147.5552  131.8132  152.0574 H   0  0  0  0  0  0  0  0  0  0  0  0
  146.3927  133.7529  152.8714 H   0  0  0  0  0  0  0  0  0  0  0  0
  144.8477  132.9288  152.8944 H   0  0  0  0  0  0  0  0  0  0  0  0
  1  2  1  0  0  0  0
  1 21  1  0  0  0  0
  1 22  1  0  0  0  0
  1 23  1  0  0  0  0
  2 19  1  0  0  0  0
  2  3  1  0  0  0  0
  3  4  2  0  0  0  0
  3 24  1  0  0  0  0
  4  5  1  0  0  0  0
  4 25  1  0  0  0  0
  5  6  2  0  0  0  0
  5 26  1  0  0  0  0
  6  7  1  0  0  0  0
  6 19  1  0  0  0  0
  7  8  1  0  0  0  0
  7 27  1  0  0  0  0
  8  9  2  0  0  0  0
  8 10  1  0  0  0  0
 10 11  1  0  0  0  0
 10 28  1  0  0  0  0
 11 12  1  0  0  0  0
 11 29  1  0  0  0  0
 11 30  1  0  0  0  0
 12 13  1  0  0  0  0
 12 31  1  0  0  0  0
 12 32  1  0  0  0  0
 13 18  1  0  0  0  0
 13 14  2  0  0  0  0
 14 15  1  0  0  0  0
 14 33  1  0  0  0  0
 15 16  1  0  0  0  0
 15 34  1  0  0  0  0
 15 35  1  0  0  0  0
 16 17  1  0  0  0  0
 16 36  1  0  0  0  0
 16 37  1  0  0  0  0
 17 18  1  0  0  0  0
 17 38  1  0  0  0  0
 17 39  1  0  0  0  0
 18 40  1  0  0  0  0
 18 41  1  0  0  0  0
 19 20  2  0  0  0  0
M  END
> <s_m_source_file>
AV-unprocessed.smi

> <i_m_source_file_index>
973

> <i_lp_mmshare_version>
43012

> <i_f3d_flags>
0

> <s_epik_input>
W0NIM11uMVtjSF1bY0hdW2NIXWMoYzE9TylbTkhdQyg9TylbTkhdW0NIMl1bQ0gyXUMyPVtDSF1bQ0gyXVtDSDJdW0NIMl1bQ0gyXTI=

> <s_epik_cmdline>
J2VwaWtfcHl0aG9uJywgJy1waCcsICc3LjAnLCAnLXRuJywgJzgnLCAnLW1hJywgJzIwMCcsICctbWV0YWxfYmluZGluZycsICctaW1hZScsICc8aW5maWxlLm1hZT4nLCAnLW9tYWUnLCAnPG91dGZpbGUubWFlPic=

> <r_lp_tautomer_probability>
1

> <r_epik_Ionization_Penalty>
2.5397e-05

> <r_epik_Ionization_Penalty_Charging>
4.7783e-06

> <r_epik_Ionization_Penalty_Neutral>
2.06187e-05

> <r_epik_State_Penalty>
-0

> <r_epik_Charging_Adjusted_Penalty>
4.7783e-06

> <i_epik_Tot_Q>
0

> <i_epik_Tot_abs_Q>
0

> <r_epik_Metal_State_Penalty>
-0

> <b_epik_Metal_Only>
0

> <s_lp_Force_Field>
OPLS_2005

> <r_lp_Energy>
20.1854

> <b_lp_Chiralities_Consistent>
1

> <s_lp_Variant>
AV-unprocessed.smi:973-1

> <Gold.Version>
5.8.1

> <Gold.Id.Protein>
6NUR|6NUR_protein|mol2

> <Gold.PLP.Fitness>
43.5910

> <Gold.PLP.PLP>
-36.1628

> <Gold.PLP.part.hbond>
-2.0000

> <Gold.PLP.part.metal>
0.0000

> <Gold.PLP.part.buried>
0.6354

> <Gold.PLP.part.nonpolar>
-34.6335

> <Gold.PLP.part.repulsive>
1.5938

> <Gold.PLP.ligand.clash>
0.0000

> <Gold.PLP.ligand.torsion>
0.7874

> <Gold.PLP.Chemscore.Hbond>
2.0000

> <Gold.PLP.Chemscore.CHOScore>
1.0000

> <Gold.PLP.Chemscore.Metal>
0.0000

> <Gold.Chemscore.Hbonds>
donor molecule, donor type, donor heavy atom, donor atom, acceptor molecule, acceptor atom, score
      L1  H     7    27       P1  7948  1.00
      L1  H    10    28       P1  7948  1.00
      L1  C     3    24       P1  8028  1.00

> <Gold.PLP.Chemscore.Internal.Correction>
0.0030

> <Gold.Rescore>
     Score         DG    S(hbond)    S(metal)    S(lipo)     H(rot)  DE(clash)    DE(int)     intcor
     17.95     -18.82       1.93        0.00      89.49       1.40       0.06       0.81       ----

> <Gold.Chemscore.Fitness>
17.9537

> <Gold.Chemscore.DG>
-18.8200

> <Gold.Chemscore.ZeroCoef>
-5.4800

> <Gold.Chemscore.Hbond>
1.9292

> <Gold.Chemscore.Metal>
0.0000

> <Gold.Chemscore.Lipo>
89.4850

> <Gold.Chemscore.Internal_Hbond>
0.0000

> <Gold.Chemscore.DEClash>
0.0579

> <Gold.Chemscore.DEInternal>
0.8084

> <Gold.Chemscore.Rot>
1.3958

> <Gold.Chemscore.Internal.Correction>
   9.000000E+99

> <Gold.Chemscore.Hbonds>
donor molecule, donor type, donor heavy atom, donor atom, acceptor molecule, acceptor atom, score
      L1  H     7    27       P1  7948  0.99
      L1  H    10    28       P1  7948  0.95

> <Gold.Chemscore.Hbond.Weighted>
-6.4435

> <Gold.Chemscore.Metal.Weighted>
-0.0000

> <Gold.Chemscore.Lipo.Weighted>
-10.4697

> <Gold.Chemscore.Internal_Hbond.Weighted>
0.0000

> <Gold.Chemscore.DEClash.Weighted>
0.0579

> <Gold.Chemscore.DEInternal.Weighted>
0.8084

> <Gold.Chemscore.Rot.Weighted>
3.5733

> <Gold.Chemscore.Internal.Correction.Weighted>
   9.000000E+99

> <Gold.Protein.RotatedTorsions>
[ 6907 6896 6895 6894 ] final  104.61 input  -60.11 | X-H torsion
[ 7974 7965 7964 7962 ] final  123.39 input  175.53 | X-H torsion
[ 8008 7997 7996 7995 ] final   68.11 input   59.86 | X-H torsion
[ 10167 10162 10161 10158 ] final  -90.38 input  -65.29 | X-H torsion
[ 10718 10713 10712 10709 ] final  132.83 input   66.30 | X-H torsion
[ 10763 10752 10751 10750 ] final  131.74 input  -60.55 | X-H torsion
[ 11005 11000 10999 10996 ] final  156.86 input  -57.11 | X-H torsion

> <Gold.Protein.ActiveResidues>
 VAL166  LYS551  ARG553  GLY616  TRP617  ASP618  TYR619  PRO620  LYS621  CYS622 
 ASP623  PHE694  ASN695  SER759  ASP760  ASP761  ALA762  ILE779  LEU786  VAL792 
 PHE793  MET794  SER795  GLU796  ALA797  LYS798  CYS799  TRP800  GLU811  SER814 

> <Gold.Protein.RotatedAtoms>
  152.5258  133.9651  159.7735 H   0  0  0  0  0  0  0  0  0  0  0  0  # atno 6907 bound_to 6896
  150.9934  133.6119  159.2712 H   0  0  0  0  0  0  0  0  0  0  0  0  # atno 6908 bound_to 6896
  151.3254  135.0835  159.9373 H   0  0  0  0  0  0  0  0  0  0  0  0  # atno 6909 bound_to 6896
  145.0965  139.3549  143.4834 H   0  0  0  0  0  0  0  0  0  0  0  0  # atno 7974 bound_to 7965
  155.7032  140.3495  155.4942 H   0  0  0  0  0  0  0  0  0  0  0  0  # atno 8008 bound_to 7997
  155.9422  140.1103  157.1068 H   0  0  0  0  0  0  0  0  0  0  0  0  # atno 8009 bound_to 7997
  154.4105  140.1210  156.4928 H   0  0  0  0  0  0  0  0  0  0  0  0  # atno 8010 bound_to 7997
  140.3555  143.2869  151.9676 H   0  0  0  0  0  0  0  0  0  0  0  0  # atno 10167 bound_to 10162
  157.4833  131.1087  150.9653 H   0  0  0  0  0  0  0  0  0  0  0  0  # atno 10718 bound_to 10713
  153.7793  135.3170  155.3363 H   0  0  0  0  0  0  0  0  0  0  0  0  # atno 10763 bound_to 10752
  154.8167  135.4631  154.0667 H   0  0  0  0  0  0  0  0  0  0  0  0  # atno 10764 bound_to 10752
  153.1950  135.6914  153.8388 H   0  0  0  0  0  0  0  0  0  0  0  0  # atno 10765 bound_to 10752
  140.1715  134.8540  157.2696 H   0  0  0  0  0  0  0  0  0  0  0  0  # atno 11005 bound_to 11000
  146.3530  140.0823  142.8617 LP  0  0  0  0  0  0  0  0  0  0  0  0  # atno 17320 bound_to 7965
  145.1005  140.9342  143.4715 LP  0  0  0  0  0  0  0  0  0  0  0  0  # atno 17321 bound_to 7965
  139.4820  144.6039  151.7557 LP  0  0  0  0  0  0  0  0  0  0  0  0  # atno 17342 bound_to 10162
  140.5178  144.0926  150.6013 LP  0  0  0  0  0  0  0  0  0  0  0  0  # atno 17343 bound_to 10162
  157.0379  130.5737  149.5352 LP  0  0  0  0  0  0  0  0  0  0  0  0  # atno 17370 bound_to 10713
  156.0133  130.5226  150.8057 LP  0  0  0  0  0  0  0  0  0  0  0  0  # atno 17371 bound_to 10713
  140.2372  134.3839  155.7496 LP  0  0  0  0  0  0  0  0  0  0  0  0  # atno 17394 bound_to 11000
  141.2217  133.7246  156.8732 LP  0  0  0  0  0  0  0  0  0  0  0  0  # atno 17395 bound_to 11000

$$$$
