AV-unprocessed.smi:1800|AV-procd|sdf|7264|dock3
  -GOLD-   22720 8513D 1   1.00000     0.00000
 Structure written by MMmdl.
 36 37  0  0  0  0  0  0  0  0  1 V2000
  147.0696  141.9361  155.6157 C   0  0  0  0  0  0  0  0  0  0  0  0
  148.3855  141.1509  155.7334 C   0  0  1  0  0  0  0  0  0  0  0  0
  148.8727  140.5528  154.3983 C   0  0  0  0  0  0  0  0  0  0  0  0
  149.9476  139.5936  154.5765 N   0  0  0  0  0  0  0  0  0  0  0  0
  149.9391  138.2425  154.3014 C   0  0  0  0  0  0  0  0  0  0  0  0
  151.1723  137.7540  154.6253 C   0  0  0  0  0  0  0  0  0  0  0  0
  151.8748  138.8974  155.0986 C   0  0  0  0  0  0  0  0  0  0  0  0
  151.1389  139.9967  155.0697 N   0  0  0  0  0  0  0  0  0  0  0  0
  149.4209  142.0278  156.2835 N   0  0  0  0  0  0  0  0  0  0  0  0
  149.7008  142.0108  157.9859 S   0  0  0  0  0  0  0  0  0  0  0  0
  148.4375  142.3969  158.6328 O   0  0  0  0  0  0  0  0  0  0  0  0
  150.3301  140.7222  158.3147 O   0  0  0  0  0  0  0  0  0  0  0  0
  150.9385  143.3763  158.1883 C   0  0  0  0  0  0  0  0  0  0  0  0
  152.3057  142.8877  158.6841 C   0  0  0  0  0  0  0  0  0  0  0  0
  152.8988  144.1050  159.3875 C   0  0  0  0  0  0  0  0  0  0  0  0
  151.7021  144.7481  160.0890 C   0  0  0  0  0  0  0  0  0  0  0  0
  150.4819  144.4316  159.2121 C   0  0  0  0  0  0  0  0  0  0  0  0
  146.2502  141.2952  155.2900 H   0  0  0  0  0  0  0  0  0  0  0  0
  147.1584  142.7531  154.8988 H   0  0  0  0  0  0  0  0  0  0  0  0
  146.7816  142.3647  156.5762 H   0  0  0  0  0  0  0  0  0  0  0  0
  148.2192  140.3369  156.4407 H   0  0  0  0  0  0  0  0  0  0  0  0
  148.0465  140.0677  153.8755 H   0  0  0  0  0  0  0  0  0  0  0  0
  149.2352  141.3409  153.7374 H   0  0  0  0  0  0  0  0  0  0  0  0
  149.0663  137.7484  153.9006 H   0  0  0  0  0  0  0  0  0  0  0  0
  151.5197  136.7353  154.5376 H   0  0  0  0  0  0  0  0  0  0  0  0
  152.8907  138.9604  155.4596 H   0  0  0  0  0  0  0  0  0  0  0  0
  149.3137  142.9817  155.9394 H   0  0  0  0  0  0  0  0  0  0  0  0
  151.0563  143.8676  157.2219 H   0  0  0  0  0  0  0  0  0  0  0  0
  152.1964  142.0850  159.4131 H   0  0  0  0  0  0  0  0  0  0  0  0
  152.9361  142.5194  157.8743 H   0  0  0  0  0  0  0  0  0  0  0  0
  153.6996  143.8424  160.0796 H   0  0  0  0  0  0  0  0  0  0  0  0
  153.3086  144.7941  158.6479 H   0  0  0  0  0  0  0  0  0  0  0  0
  151.5706  144.2945  161.0723 H   0  0  0  0  0  0  0  0  0  0  0  0
  151.8398  145.8194  160.2390 H   0  0  0  0  0  0  0  0  0  0  0  0
  150.1216  145.3249  158.7007 H   0  0  0  0  0  0  0  0  0  0  0  0
  149.6664  144.0675  159.8374 H   0  0  0  0  0  0  0  0  0  0  0  0
  1  2  1  0  0  0  0
  1 18  1  0  0  0  0
  1 19  1  0  0  0  0
  1 20  1  0  0  0  0
  2  3  1  0  0  0  0
  2  9  1  0  0  0  0
  2 21  1  0  0  0  0
  3  4  1  0  0  0  0
  3 22  1  0  0  0  0
  3 23  1  0  0  0  0
  4  8  1  0  0  0  0
  4  5  1  0  0  0  0
  5  6  2  0  0  0  0
  5 24  1  0  0  0  0
  6  7  1  0  0  0  0
  6 25  1  0  0  0  0
  7  8  2  0  0  0  0
  7 26  1  0  0  0  0
  9 10  1  0  0  0  0
  9 27  1  0  0  0  0
 10 11  2  0  0  0  0
 10 12  2  0  0  0  0
 10 13  1  0  0  0  0
 13 17  1  0  0  0  0
 13 14  1  0  0  0  0
 13 28  1  0  0  0  0
 14 15  1  0  0  0  0
 14 29  1  0  0  0  0
 14 30  1  0  0  0  0
 15 16  1  0  0  0  0
 15 31  1  0  0  0  0
 15 32  1  0  0  0  0
 16 17  1  0  0  0  0
 16 33  1  0  0  0  0
 16 34  1  0  0  0  0
 17 35  1  0  0  0  0
 17 36  1  0  0  0  0
M  END
> <s_m_source_file>
AV-unprocessed.smi

> <i_m_source_file_index>
1800

> <i_lp_mmshare_version>
43012

> <i_f3d_flags>
0

> <s_epik_input>
bjFbY0hdW2NIXVtjSF1uMVtDSDJdW0NAQEhdKFtDSDNdKVtOSF1TKD1PKSg9TylbQ0hdMltDSDJdW0NIMl1bQ0gyXVtDSDJdMg==

> <s_epik_cmdline>
J2VwaWtfcHl0aG9uJywgJy1waCcsICc3LjAnLCAnLXRuJywgJzgnLCAnLW1hJywgJzIwMCcsICctbWV0YWxfYmluZGluZycsICctaW1hZScsICc8aW5maWxlLm1hZT4nLCAnLW9tYWUnLCAnPG91dGZpbGUubWFlPic=

> <r_lp_tautomer_probability>
1

> <r_epik_Ionization_Penalty>
1.44925e-05

> <r_epik_Ionization_Penalty_Charging>
0

> <r_epik_Ionization_Penalty_Neutral>
1.44925e-05

> <r_epik_State_Penalty>
-0

> <r_epik_Charging_Adjusted_Penalty>
0

> <i_epik_Tot_Q>
0

> <i_epik_Tot_abs_Q>
0

> <r_epik_Metal_State_Penalty>
0.00862991

> <b_epik_Metal_Only>
0

> <s_lp_Force_Field>
OPLS_2005

> <r_lp_Energy>
17.3369

> <b_lp_Chiralities_Consistent>
1

> <s_lp_Variant>
AV-unprocessed.smi:1800-2

> <Gold.Version>
5.8.1

> <Gold.Id.Protein>
6NUR|6NUR_protein|mol2

> <Gold.PLP.Fitness>
43.5714

> <Gold.PLP.PLP>
-36.6767

> <Gold.PLP.part.hbond>
-2.3408

> <Gold.PLP.part.metal>
0.0000

> <Gold.PLP.part.buried>
-5.6026

> <Gold.PLP.part.nonpolar>
-29.7981

> <Gold.PLP.part.repulsive>
0.1664

> <Gold.PLP.ligand.clash>
0.0000

> <Gold.PLP.ligand.torsion>
0.8042

> <Gold.PLP.Chemscore.Hbond>
1.7500

> <Gold.PLP.Chemscore.CHOScore>
1.0000

> <Gold.PLP.Chemscore.Metal>
0.0000

> <Gold.Chemscore.Hbonds>
donor molecule, donor type, donor heavy atom, donor atom, acceptor molecule, acceptor atom, score
      L1  H     9    27       P1  8028  1.00
      P1  H  7989  7998       L1     8  0.70
      L1  C     5    24       P1  7948  0.93

> <Gold.PLP.Chemscore.Internal.Correction>
0.2531

> <Gold.Rescore>
     Score         DG    S(hbond)    S(metal)    S(lipo)     H(rot)  DE(clash)    DE(int)     intcor
     14.88     -15.85       1.02        0.00      98.09       1.76       0.15       0.83       ----

> <Gold.Chemscore.Fitness>
14.8752

> <Gold.Chemscore.DG>
-15.8476

> <Gold.Chemscore.ZeroCoef>
-5.4800

> <Gold.Chemscore.Hbond>
1.0159

> <Gold.Chemscore.Metal>
0.0000

> <Gold.Chemscore.Lipo>
98.0897

> <Gold.Chemscore.Internal_Hbond>
0.0000

> <Gold.Chemscore.DEClash>
0.1469

> <Gold.Chemscore.DEInternal>
0.8255

> <Gold.Chemscore.Rot>
1.7585

> <Gold.Chemscore.Internal.Correction>
   9.000000E+99

> <Gold.Chemscore.Hbonds>
donor molecule, donor type, donor heavy atom, donor atom, acceptor molecule, acceptor atom, score
      L1  H     9    27       P1  8028  1.00
      P1  H  7989  7998       L1     8  0.04

> <Gold.Chemscore.Hbond.Weighted>
-3.3930

> <Gold.Chemscore.Metal.Weighted>
-0.0000

> <Gold.Chemscore.Lipo.Weighted>
-11.4765

> <Gold.Chemscore.Internal_Hbond.Weighted>
0.0000

> <Gold.Chemscore.DEClash.Weighted>
0.1469

> <Gold.Chemscore.DEInternal.Weighted>
0.8255

> <Gold.Chemscore.Rot.Weighted>
4.5019

> <Gold.Chemscore.Internal.Correction.Weighted>
   9.000000E+99

> <Gold.Protein.RotatedTorsions>
[ 6907 6896 6895 6894 ] final  176.61 input  -60.11 | X-H torsion
[ 7974 7965 7964 7962 ] final -141.64 input  175.53 | X-H torsion
[ 8008 7997 7996 7995 ] final -157.94 input   59.86 | X-H torsion
[ 10167 10162 10161 10158 ] final  127.46 input  -65.29 | X-H torsion
[ 10718 10713 10712 10709 ] final  103.85 input   66.30 | X-H torsion
[ 10763 10752 10751 10750 ] final -142.51 input  -60.55 | X-H torsion
[ 11005 11000 10999 10996 ] final   -3.03 input  -57.11 | X-H torsion

> <Gold.Protein.ActiveResidues>
 VAL166  LYS551  ARG553  GLY616  TRP617  ASP618  TYR619  PRO620  LYS621  CYS622 
 ASP623  PHE694  ASN695  SER759  ASP760  ASP761  ALA762  ILE779  LEU786  VAL792 
 PHE793  MET794  SER795  GLU796  ALA797  LYS798  CYS799  TRP800  GLU811  SER814 

> <Gold.Protein.RotatedAtoms>
  151.7174  133.3313  159.3306 H   0  0  0  0  0  0  0  0  0  0  0  0  # atno 6907 bound_to 6896
  150.7667  134.6478  159.6281 H   0  0  0  0  0  0  0  0  0  0  0  0  # atno 6908 bound_to 6896
  152.3673  134.6787  160.0239 H   0  0  0  0  0  0  0  0  0  0  0  0  # atno 6909 bound_to 6896
  144.8504  140.6055  143.5394 H   0  0  0  0  0  0  0  0  0  0  0  0  # atno 7974 bound_to 7965
  155.7400  140.0813  157.2250 H   0  0  0  0  0  0  0  0  0  0  0  0  # atno 8008 bound_to 7997
  154.4023  140.1579  156.2660 H   0  0  0  0  0  0  0  0  0  0  0  0  # atno 8009 bound_to 7997
  155.9029  140.3408  155.6043 H   0  0  0  0  0  0  0  0  0  0  0  0  # atno 8010 bound_to 7997
  139.5577  144.6860  151.4133 H   0  0  0  0  0  0  0  0  0  0  0  0  # atno 10167 bound_to 10162
  157.6759  131.0789  150.5617 H   0  0  0  0  0  0  0  0  0  0  0  0  # atno 10718 bound_to 10713
  154.8506  135.3494  154.6040 H   0  0  0  0  0  0  0  0  0  0  0  0  # atno 10763 bound_to 10752
  153.6649  135.6988  153.5170 H   0  0  0  0  0  0  0  0  0  0  0  0  # atno 10764 bound_to 10752
  153.2788  135.4270  155.1016 H   0  0  0  0  0  0  0  0  0  0  0  0  # atno 10765 bound_to 10752
  140.6648  133.9288  155.8458 H   0  0  0  0  0  0  0  0  0  0  0  0  # atno 11005 bound_to 11000
  145.4512  139.1523  143.3917 LP  0  0  0  0  0  0  0  0  0  0  0  0  # atno 17320 bound_to 7965
  146.2780  140.4638  142.8788 LP  0  0  0  0  0  0  0  0  0  0  0  0  # atno 17321 bound_to 7965
  140.6853  143.7989  150.7177 LP  0  0  0  0  0  0  0  0  0  0  0  0  # atno 17342 bound_to 10162
  140.1455  143.4404  152.2166 LP  0  0  0  0  0  0  0  0  0  0  0  0  # atno 17343 bound_to 10162
  156.5919  130.4331  149.5933 LP  0  0  0  0  0  0  0  0  0  0  0  0  # atno 17370 bound_to 10713
  156.2576  130.6943  151.1702 LP  0  0  0  0  0  0  0  0  0  0  0  0  # atno 17371 bound_to 10713
  141.0437  134.0584  157.3870 LP  0  0  0  0  0  0  0  0  0  0  0  0  # atno 17394 bound_to 11000
  139.9001  135.0161  156.7225 LP  0  0  0  0  0  0  0  0  0  0  0  0  # atno 17395 bound_to 11000

$$$$
