AV-unprocessed.smi:3053|AV-procd|sdf|11637|dock9
  -GOLD-   2272017 33D 1   1.00000     0.00000
 Structure written by MMmdl.
 31 32  0  0  0  0  0  0  0  0  1 V2000
  152.9176  142.5403  160.9964 C   0  0  0  0  0  0  0  0  0  0  0  0
  152.2972  142.9888  159.7182 C   0  0  0  0  0  0  0  0  0  0  0  0
  151.8776  142.1496  158.7681 N   0  0  0  0  0  0  0  0  0  0  0  0
  151.3571  142.8156  157.6542 C   0  0  0  0  0  0  0  0  0  0  0  0
  150.8884  142.0310  156.4630 C   0  0  0  0  0  0  0  0  0  0  0  0
  149.5242  141.3436  156.6749 C   0  0  0  0  0  0  0  0  0  0  0  0
  148.8387  141.0697  155.4132 N   0  0  0  0  0  0  0  0  0  0  0  0
  149.3088  140.2920  154.4245 C   0  0  0  0  0  0  0  0  0  0  0  0
  150.3689  139.6688  154.4992 O   0  0  0  0  0  0  0  0  0  0  0  0
  148.4469  140.2091  153.1576 C   0  0  2  0  0  0  0  0  0  0  0  0
  147.1241  140.9845  153.2675 C   0  0  0  0  0  0  0  0  0  0  0  0
  146.1280  139.9336  153.1863 N   0  0  0  0  0  0  0  0  0  0  0  0
  146.6526  138.7223  152.9900 C   0  0  0  0  0  0  0  0  0  0  0  0
  146.0237  137.6742  152.8705 O   0  0  0  0  0  0  0  0  0  0  0  0
  147.9811  138.8487  152.9461 N   0  0  0  0  0  0  0  0  0  0  0  0
  151.3657  144.1821  157.7876 C   0  0  0  0  0  0  0  0  0  0  0  0
  152.0587  144.6821  159.3048 S   0  0  0  0  0  0  0  0  0  0  0  0
  152.6073  141.5227  161.2356 H   0  0  0  0  0  0  0  0  0  0  0  0
  152.6155  143.1979  161.8117 H   0  0  0  0  0  0  0  0  0  0  0  0
  154.0039  142.5650  160.9095 H   0  0  0  0  0  0  0  0  0  0  0  0
  150.8268  142.6825  155.5907 H   0  0  0  0  0  0  0  0  0  0  0  0
  151.6299  141.2726  156.2094 H   0  0  0  0  0  0  0  0  0  0  0  0
  149.6567  140.4232  157.2462 H   0  0  0  0  0  0  0  0  0  0  0  0
  148.8831  141.9839  157.2807 H   0  0  0  0  0  0  0  0  0  0  0  0
  147.9543  141.5349  155.2670 H   0  0  0  0  0  0  0  0  0  0  0  0
  149.0150  140.5305  152.2830 H   0  0  0  0  0  0  0  0  0  0  0  0
  147.0185  141.5349  154.2039 H   0  0  0  0  0  0  0  0  0  0  0  0
  146.9987  141.6841  152.4403 H   0  0  0  0  0  0  0  0  0  0  0  0
  145.1375  140.1149  153.2618 H   0  0  0  0  0  0  0  0  0  0  0  0
  148.6157  138.0730  152.8235 H   0  0  0  0  0  0  0  0  0  0  0  0
  151.0261  144.9225  157.0789 H   0  0  0  0  0  0  0  0  0  0  0  0
  1  2  1  0  0  0  0
  1 18  1  0  0  0  0
  1 19  1  0  0  0  0
  1 20  1  0  0  0  0
  2 17  1  0  0  0  0
  2  3  2  0  0  0  0
  3  4  1  0  0  0  0
  4  5  1  0  0  0  0
  4 16  2  0  0  0  0
  5  6  1  0  0  0  0
  5 21  1  0  0  0  0
  5 22  1  0  0  0  0
  6  7  1  0  0  0  0
  6 23  1  0  0  0  0
  6 24  1  0  0  0  0
  7  8  1  0  0  0  0
  7 25  1  0  0  0  0
  8  9  2  0  0  0  0
  8 10  1  0  0  0  0
 10 15  1  0  0  0  0
 10 11  1  0  0  0  0
 10 26  1  0  0  0  0
 11 12  1  0  0  0  0
 11 27  1  0  0  0  0
 11 28  1  0  0  0  0
 12 13  1  0  0  0  0
 12 29  1  0  0  0  0
 13 14  2  0  0  0  0
 13 15  1  0  0  0  0
 15 30  1  0  0  0  0
 16 17  1  0  0  0  0
 16 31  1  0  0  0  0
M  END
> <s_m_source_file>
AV-unprocessed.smi

> <i_m_source_file_index>
3053

> <i_lp_mmshare_version>
43012

> <i_f3d_flags>
0

> <s_epik_input>
W0NIM11jMW5jKFtjSF1zMSlbQ0gyXVtDSDJdW05IXUMoPU8pW0NAQEhdMltDSDJdW05IXUMoPU8pW05IXTI=

> <s_epik_cmdline>
J2VwaWtfcHl0aG9uJywgJy1waCcsICc3LjAnLCAnLXRuJywgJzgnLCAnLW1hJywgJzIwMCcsICctbWV0YWxfYmluZGluZycsICctaW1hZScsICc8aW5maWxlLm1hZT4nLCAnLW9tYWUnLCAnPG91dGZpbGUubWFlPic=

> <r_epik_Ionization_Penalty>
0.00110852

> <r_epik_Ionization_Penalty_Charging>
0

> <r_epik_Ionization_Penalty_Neutral>
0.00110852

> <r_epik_State_Penalty>
0.000695988

> <r_epik_Charging_Adjusted_Penalty>
0.000695988

> <i_epik_Tot_Q>
0

> <i_epik_Tot_abs_Q>
0

> <r_epik_Metal_State_Penalty>
-0

> <b_epik_Metal_Only>
0

> <s_lp_Force_Field>
OPLS_2005

> <r_lp_Energy>
23.9072

> <b_lp_Chiralities_Consistent>
1

> <s_lp_Variant>
AV-unprocessed.smi:3053-1

> <Gold.Version>
5.8.1

> <Gold.Id.Protein>
6NUR|6NUR_protein|mol2

> <Gold.PLP.Fitness>
45.5710

> <Gold.PLP.PLP>
-35.0089

> <Gold.PLP.part.hbond>
-4.0000

> <Gold.PLP.part.metal>
0.0000

> <Gold.PLP.part.buried>
-0.5718

> <Gold.PLP.part.nonpolar>
-32.2212

> <Gold.PLP.part.repulsive>
0.5014

> <Gold.PLP.ligand.clash>
0.0789

> <Gold.PLP.ligand.torsion>
0.3377

> <Gold.PLP.Chemscore.Hbond>
2.7760

> <Gold.PLP.Chemscore.CHOScore>
0.9770

> <Gold.PLP.Chemscore.Metal>
0.0000

> <Gold.Chemscore.Hbonds>
donor molecule, donor type, donor heavy atom, donor atom, acceptor molecule, acceptor atom, score
      L1  H    12    29       P1 10175  0.96
      L1  H    15    30       P1  7948  0.81
      P1  H  7989  7998       L1     9  1.00
      L1  C    16    31       P1  8028  0.92

> <Gold.PLP.Chemscore.Internal.Correction>
0.0576

> <Gold.Rescore>
     Score         DG    S(hbond)    S(metal)    S(lipo)     H(rot)  DE(clash)    DE(int)     intcor
     16.65     -18.80       2.37        0.00      90.47       2.02       1.95       0.20       ----

> <Gold.Chemscore.Fitness>
16.6522

> <Gold.Chemscore.DG>
-18.8034

> <Gold.Chemscore.ZeroCoef>
-5.4800

> <Gold.Chemscore.Hbond>
2.3721

> <Gold.Chemscore.Metal>
0.0000

> <Gold.Chemscore.Lipo>
90.4671

> <Gold.Chemscore.Internal_Hbond>
0.0000

> <Gold.Chemscore.DEClash>
1.9471

> <Gold.Chemscore.DEInternal>
0.2041

> <Gold.Chemscore.Rot>
2.0250

> <Gold.Chemscore.Internal.Correction>
   9.000000E+99

> <Gold.Chemscore.Hbonds>
donor molecule, donor type, donor heavy atom, donor atom, acceptor molecule, acceptor atom, score
      L1  H    12    29       P1 10175  0.92
      L1  H    15    30       P1  7948  0.77
      P1  H  7989  7998       L1     9  0.33

> <Gold.Chemscore.Hbond.Weighted>
-7.9227

> <Gold.Chemscore.Metal.Weighted>
-0.0000

> <Gold.Chemscore.Lipo.Weighted>
-10.5847

> <Gold.Chemscore.Internal_Hbond.Weighted>
0.0000

> <Gold.Chemscore.DEClash.Weighted>
1.9471

> <Gold.Chemscore.DEInternal.Weighted>
0.2041

> <Gold.Chemscore.Rot.Weighted>
5.1840

> <Gold.Chemscore.Internal.Correction.Weighted>
   9.000000E+99

> <Gold.Protein.RotatedTorsions>
[ 6907 6896 6895 6894 ] final -143.92 input  -60.11 | X-H torsion
[ 7974 7965 7964 7962 ] final  124.70 input  175.53 | X-H torsion
[ 8008 7997 7996 7995 ] final    7.99 input   59.86 | X-H torsion
[ 10167 10162 10161 10158 ] final  179.96 input  -65.29 | X-H torsion
[ 10718 10713 10712 10709 ] final  156.77 input   66.30 | X-H torsion
[ 10763 10752 10751 10750 ] final -158.75 input  -60.55 | X-H torsion
[ 11005 11000 10999 10996 ] final  152.54 input  -57.11 | X-H torsion

> <Gold.Protein.ActiveResidues>
 VAL166  LYS551  ARG553  GLY616  TRP617  ASP618  TYR619  PRO620  LYS621  CYS622 
 ASP623  PHE694  ASN695  SER759  ASP760  ASP761  ALA762  ILE779  LEU786  VAL792 
 PHE793  MET794  SER795  GLU796  ALA797  LYS798  CYS799  TRP800  GLU811  SER814 

> <Gold.Protein.RotatedAtoms>
  151.1070  133.5201  159.2607 H   0  0  0  0  0  0  0  0  0  0  0  0  # atno 6907 bound_to 6896
  151.2010  135.0442  159.8882 H   0  0  0  0  0  0  0  0  0  0  0  0  # atno 6908 bound_to 6896
  152.5447  134.0898  159.8325 H   0  0  0  0  0  0  0  0  0  0  0  0  # atno 6909 bound_to 6896
  145.0814  139.3654  143.4907 H   0  0  0  0  0  0  0  0  0  0  0  0  # atno 7974 bound_to 7965
  154.7610  140.2784  155.6214 H   0  0  0  0  0  0  0  0  0  0  0  0  # atno 8008 bound_to 7997
  156.2915  140.2660  156.2316 H   0  0  0  0  0  0  0  0  0  0  0  0  # atno 8009 bound_to 7997
  155.0017  140.0372  157.2352 H   0  0  0  0  0  0  0  0  0  0  0  0  # atno 8010 bound_to 7997
  139.5359  144.2498  152.0794 H   0  0  0  0  0  0  0  0  0  0  0  0  # atno 10167 bound_to 10162
  157.2005  131.0675  151.2027 H   0  0  0  0  0  0  0  0  0  0  0  0  # atno 10718 bound_to 10713
  154.7531  135.3097  154.8521 H   0  0  0  0  0  0  0  0  0  0  0  0  # atno 10763 bound_to 10752
  153.9302  135.6786  153.4750 H   0  0  0  0  0  0  0  0  0  0  0  0  # atno 10764 bound_to 10752
  153.1127  135.4859  154.8992 H   0  0  0  0  0  0  0  0  0  0  0  0  # atno 10765 bound_to 10752
  140.1317  134.8797  157.2212 H   0  0  0  0  0  0  0  0  0  0  0  0  # atno 11005 bound_to 11000
  146.3531  140.0606  142.8629 LP  0  0  0  0  0  0  0  0  0  0  0  0  # atno 17320 bound_to 7965
  145.1174  140.9442  143.4621 LP  0  0  0  0  0  0  0  0  0  0  0  0  # atno 17321 bound_to 7965
  140.1968  144.4697  150.6451 LP  0  0  0  0  0  0  0  0  0  0  0  0  # atno 17342 bound_to 10162
  140.6565  143.2239  151.5955 LP  0  0  0  0  0  0  0  0  0  0  0  0  # atno 17343 bound_to 10162
  157.3771  130.7212  149.6604 LP  0  0  0  0  0  0  0  0  0  0  0  0  # atno 17370 bound_to 10713
  155.9701  130.4182  150.4319 LP  0  0  0  0  0  0  0  0  0  0  0  0  # atno 17371 bound_to 10713
  140.2834  134.3324  155.7336 LP  0  0  0  0  0  0  0  0  0  0  0  0  # atno 17394 bound_to 11000
  141.2171  133.7491  156.9397 LP  0  0  0  0  0  0  0  0  0  0  0  0  # atno 17395 bound_to 11000

$$$$
