AV-unprocessed.smi:2039|AV-procd|sdf|8284|dock3
  -GOLD-   2272010553D 1   1.00000     0.00000
 Structure written by MMmdl.
 32 33  0  0  0  0  0  0  0  0  2 V2000
  151.9519  131.2025  157.4975 C   0  0  0  0  0  0  0  0  0  0  0  0
  151.2016  132.1325  156.6068 C   0  0  0  0  0  0  0  0  0  0  0  0
  151.0218  133.4234  156.8969 N   0  0  0  0  0  0  0  0  0  0  0  0
  150.2956  134.0834  155.9157 N   0  0  0  0  0  0  0  0  0  0  0  0
  149.9483  133.2876  154.8941 C   0  0  0  0  0  0  0  0  0  0  0  0
  149.2434  133.7309  153.8398 N   0  5  0  0  0  0  0  0  0  0  0  0
  148.0676  133.1437  153.5197 C   0  0  0  0  0  0  0  0  0  0  0  0
  147.6223  132.0961  153.9942 O   0  0  0  0  0  0  0  0  0  0  0  0
  147.3639  133.8134  152.5949 N   0  0  0  0  0  0  0  0  0  0  0  0
  146.0586  133.4314  152.0619 C   0  0  2  0  0  0  0  0  0  0  0  0
  146.0556  131.9458  151.6469 C   0  0  0  0  0  0  0  0  0  0  0  0
  144.7138  131.5423  151.0141 C   0  0  0  0  0  0  0  0  0  0  0  0
  144.3651  132.4509  149.8224 C   0  0  1  0  0  0  0  0  0  0  0  0
  143.0939  132.0996  149.3170 O   0  0  0  0  0  0  0  0  0  0  0  0
  144.3605  133.9322  150.2374 C   0  0  0  0  0  0  0  0  0  0  0  0
  145.7048  134.3343  150.8651 C   0  0  0  0  0  0  0  0  0  0  0  0
  150.4867  131.6198  155.0878 S   0  0  0  0  0  0  0  0  0  0  0  0
  153.0233  131.3796  157.4026 H   0  0  0  0  0  0  0  0  0  0  0  0
  151.7425  130.1673  157.2274 H   0  0  0  0  0  0  0  0  0  0  0  0
  151.6596  131.3575  158.5364 H   0  0  0  0  0  0  0  0  0  0  0  0
  147.7701  134.6642  152.2344 H   0  0  0  0  0  0  0  0  0  0  0  0
  145.2988  133.5831  152.8310 H   0  0  0  0  0  0  0  0  0  0  0  0
  146.8618  131.7598  150.9355 H   0  0  0  0  0  0  0  0  0  0  0  0
  146.2567  131.3131  152.5121 H   0  0  0  0  0  0  0  0  0  0  0  0
  144.7569  130.5010  150.6927 H   0  0  0  0  0  0  0  0  0  0  0  0
  143.9284  131.6017  151.7690 H   0  0  0  0  0  0  0  0  0  0  0  0
  145.0960  132.3005  149.0269 H   0  0  0  0  0  0  0  0  0  0  0  0
  142.5091  132.8308  149.4448 H   0  0  0  0  0  0  0  0  0  0  0  0
  144.1534  134.5646  149.3733 H   0  0  0  0  0  0  0  0  0  0  0  0
  143.5591  134.1153  150.9550 H   0  0  0  0  0  0  0  0  0  0  0  0
  145.6635  135.3768  151.1830 H   0  0  0  0  0  0  0  0  0  0  0  0
  146.4889  134.2723  150.1090 H   0  0  0  0  0  0  0  0  0  0  0  0
  1  2  1  0  0  0  0
  1 18  1  0  0  0  0
  1 19  1  0  0  0  0
  1 20  1  0  0  0  0
  2 17  1  0  0  0  0
  2  3  2  0  0  0  0
  3  4  1  0  0  0  0
  4  5  2  0  0  0  0
  5  6  1  0  0  0  0
  5 17  1  0  0  0  0
  6  7  1  0  0  0  0
  7  8  2  0  0  0  0
  7  9  1  0  0  0  0
  9 10  1  0  0  0  0
  9 21  1  0  0  0  0
 10 16  1  0  0  0  0
 10 11  1  0  0  0  0
 10 22  1  0  0  0  0
 11 12  1  0  0  0  0
 11 23  1  0  0  0  0
 11 24  1  0  0  0  0
 12 13  1  0  0  0  0
 12 25  1  0  0  0  0
 12 26  1  0  0  0  0
 13 14  1  0  0  0  0
 13 15  1  0  0  0  0
 13 27  1  0  0  0  0
 14 28  1  0  0  0  0
 15 16  1  0  0  0  0
 15 29  1  0  0  0  0
 15 30  1  0  0  0  0
 16 31  1  0  0  0  0
 16 32  1  0  0  0  0
M  CHG  1   6  -1
M  END
> <s_m_source_file>
AV-unprocessed.smi

> <i_m_source_file_index>
2039

> <i_lp_mmshare_version>
43012

> <i_f3d_flags>
0

> <s_epik_input>
W0NIM11jMW5uYyhzMSlbTkhdQyg9TylbTkhdW0NAQEhdMltDSDJdW0NIMl1bQ0BASF0oW09IXSlbQ0gyXVtDSDJdMg==

> <s_epik_cmdline>
J2VwaWtfcHl0aG9uJywgJy1waCcsICc3LjAnLCAnLXRuJywgJzgnLCAnLW1hJywgJzIwMCcsICctbWV0YWxfYmluZGluZycsICctaW1hZScsICc8aW5maWxlLm1hZT4nLCAnLW9tYWUnLCAnPG91dGZpbGUubWFlPic=

> <r_lp_tautomer_probability>
1

> <r_epik_Ionization_Penalty>
4.54927

> <r_epik_Ionization_Penalty_Charging>
4.39069

> <r_epik_Ionization_Penalty_Neutral>
0.158583

> <r_epik_State_Penalty>
4.39033

> <r_epik_Charging_Adjusted_Penalty>
8.78102

> <i_epik_Tot_Q>
-1

> <i_epik_Tot_abs_Q>
1

> <r_epik_Metal_State_Penalty>
0.767247

> <b_epik_Metal_Only>
1

> <s_lp_Force_Field>
OPLS_2005

> <r_lp_Energy>
5.24327

> <b_lp_Chiralities_Consistent>
1

> <s_lp_Variant>
AV-unprocessed.smi:2039-3

> <Gold.Version>
5.8.1

> <Gold.Id.Protein>
6NUR|6NUR_protein|mol2

> <Gold.PLP.Fitness>
39.1729

> <Gold.PLP.PLP>
-31.4472

> <Gold.PLP.part.hbond>
-4.6507

> <Gold.PLP.part.metal>
0.0000

> <Gold.PLP.part.buried>
-6.1855

> <Gold.PLP.part.nonpolar>
-21.4851

> <Gold.PLP.part.repulsive>
0.2412

> <Gold.PLP.ligand.clash>
0.0000

> <Gold.PLP.ligand.torsion>
0.6514

> <Gold.PLP.Chemscore.Hbond>
3.0080

> <Gold.PLP.Chemscore.CHOScore>
0.0000

> <Gold.PLP.Chemscore.Metal>
0.0000

> <Gold.Chemscore.Hbonds>
donor molecule, donor type, donor heavy atom, donor atom, acceptor molecule, acceptor atom, score
      L1  H     9    21       P1  7948  1.00
      L1  H    14    28       P1 10186  0.62
      P1  H  6896  6907       L1     3  0.24
      P1  H 10785 10796       L1    14  0.98

> <Gold.PLP.Chemscore.Internal.Correction>
0.0045

> <Gold.Rescore>
     Score         DG    S(hbond)    S(metal)    S(lipo)     H(rot)  DE(clash)    DE(int)     intcor
     17.08     -17.71       2.90        0.00      54.39       1.49       0.00       0.63       ----

> <Gold.Chemscore.Fitness>
17.0785

> <Gold.Chemscore.DG>
-17.7136

> <Gold.Chemscore.ZeroCoef>
-5.4800

> <Gold.Chemscore.Hbond>
2.8976

> <Gold.Chemscore.Metal>
0.0000

> <Gold.Chemscore.Lipo>
54.3861

> <Gold.Chemscore.Internal_Hbond>
0.0000

> <Gold.Chemscore.DEClash>
0.0048

> <Gold.Chemscore.DEInternal>
0.6303

> <Gold.Chemscore.Rot>
1.4873

> <Gold.Chemscore.Internal.Correction>
   9.000000E+99

> <Gold.Chemscore.Hbonds>
donor molecule, donor type, donor heavy atom, donor atom, acceptor molecule, acceptor atom, score
      L1  H     9    21       P1  7948  0.60
      L1  H    14    28       P1 10186  0.63
      P1  H  6896  6907       L1     3  0.11
      P1  H 10785 10796       L1    14  0.55

> <Gold.Chemscore.Hbond.Weighted>
-9.6779

> <Gold.Chemscore.Metal.Weighted>
-0.0000

> <Gold.Chemscore.Lipo.Weighted>
-6.3632

> <Gold.Chemscore.Internal_Hbond.Weighted>
0.0000

> <Gold.Chemscore.DEClash.Weighted>
0.0048

> <Gold.Chemscore.DEInternal.Weighted>
0.6303

> <Gold.Chemscore.Rot.Weighted>
3.8075

> <Gold.Chemscore.Internal.Correction.Weighted>
   9.000000E+99

> <Gold.Protein.RotatedTorsions>
[ 6907 6896 6895 6894 ] final -147.14 input  -60.11 | X-H torsion
[ 7974 7965 7964 7962 ] final   12.07 input  175.53 | X-H torsion
[ 8008 7997 7996 7995 ] final  -60.67 input   59.86 | X-H torsion
[ 10167 10162 10161 10158 ] final   46.69 input  -65.29 | X-H torsion
[ 10718 10713 10712 10709 ] final -162.05 input   66.30 | X-H torsion
[ 10763 10752 10751 10750 ] final   11.04 input  -60.55 | X-H torsion
[ 11005 11000 10999 10996 ] final -146.12 input  -57.11 | X-H torsion

> <Gold.Protein.ActiveResidues>
 VAL166  LYS551  ARG553  GLY616  TRP617  ASP618  TYR619  PRO620  LYS621  CYS622 
 ASP623  PHE694  ASN695  SER759  ASP760  ASP761  ALA762  ILE779  LEU786  VAL792 
 PHE793  MET794  SER795  GLU796  ALA797  LYS798  CYS799  TRP800  GLU811  SER814 

> <Gold.Protein.RotatedAtoms>
  151.1515  133.4904  159.2594 H   0  0  0  0  0  0  0  0  0  0  0  0  # atno 6907 bound_to 6896
  151.1548  135.0245  159.8694 H   0  0  0  0  0  0  0  0  0  0  0  0  # atno 6908 bound_to 6896
  152.5463  134.1396  159.8526 H   0  0  0  0  0  0  0  0  0  0  0  0  # atno 6909 bound_to 6896
  146.2358  139.9391  142.8485 H   0  0  0  0  0  0  0  0  0  0  0  0  # atno 7974 bound_to 7965
  154.4410  140.1034  156.6310 H   0  0  0  0  0  0  0  0  0  0  0  0  # atno 8008 bound_to 7997
  155.5605  140.3487  155.4471 H   0  0  0  0  0  0  0  0  0  0  0  0  # atno 8009 bound_to 7997
  156.0463  140.1293  157.0089 H   0  0  0  0  0  0  0  0  0  0  0  0  # atno 8010 bound_to 7997
  140.3113  144.2817  150.6199 H   0  0  0  0  0  0  0  0  0  0  0  0  # atno 10167 bound_to 10162
  156.6049  130.8826  151.2923 H   0  0  0  0  0  0  0  0  0  0  0  0  # atno 10718 bound_to 10713
  153.1968  135.6850  153.8282 H   0  0  0  0  0  0  0  0  0  0  0  0  # atno 10763 bound_to 10752
  153.7562  135.3216  155.3330 H   0  0  0  0  0  0  0  0  0  0  0  0  # atno 10764 bound_to 10752
  154.8149  135.4692  154.0716 H   0  0  0  0  0  0  0  0  0  0  0  0  # atno 10765 bound_to 10752
  140.7852  134.3032  157.5032 H   0  0  0  0  0  0  0  0  0  0  0  0  # atno 11005 bound_to 11000
  145.1970  140.9837  143.4178 LP  0  0  0  0  0  0  0  0  0  0  0  0  # atno 17320 bound_to 7965
  144.9807  139.3786  143.6263 LP  0  0  0  0  0  0  0  0  0  0  0  0  # atno 17321 bound_to 7965
  140.5566  143.2198  151.7837 LP  0  0  0  0  0  0  0  0  0  0  0  0  # atno 17342 bound_to 10162
  139.4893  144.4406  151.9769 LP  0  0  0  0  0  0  0  0  0  0  0  0  # atno 17343 bound_to 10162
  157.7270  130.9636  150.1679 LP  0  0  0  0  0  0  0  0  0  0  0  0  # atno 17370 bound_to 10713
  156.2438  130.3693  149.8307 LP  0  0  0  0  0  0  0  0  0  0  0  0  # atno 17371 bound_to 10713
  139.8737  134.9342  156.3601 LP  0  0  0  0  0  0  0  0  0  0  0  0  # atno 17394 bound_to 11000
  140.9443  133.7493  156.0188 LP  0  0  0  0  0  0  0  0  0  0  0  0  # atno 17395 bound_to 11000

$$$$
