AV-unprocessed.smi:290|AV-procd|sdf|2241|dock7
  -GOLD-   2262022113D 1   1.00000     0.00000
 Structure written by MMmdl.
 59 62  0  0  0  0  0  0  0  0  2 V2000
  152.5585  141.9537  160.7969 C   0  0  0  0  0  0  0  0  0  0  0  0
  152.6926  142.6766  159.4467 C   0  0  2  0  0  0  0  0  0  0  0  0
  152.6844  144.0847  159.6294 O   0  0  0  0  0  0  0  0  0  0  0  0
  152.4279  144.6640  158.3629 C   0  0  0  0  0  0  0  0  0  0  0  0
  151.3021  143.7951  157.8151 C   0  0  0  0  0  0  0  0  0  0  0  0
  151.5947  142.4033  158.3852 C   0  0  2  0  0  0  0  0  0  0  0  0
  150.4045  141.9120  158.9793 O   0  0  0  0  0  0  0  0  0  0  0  0
  152.0371  141.4066  157.2854 C   0  0  0  0  0  0  0  0  0  0  0  0
  150.9281  140.8057  156.5588 N   0  0  0  0  0  0  0  0  0  0  0  0
  150.0839  141.4387  155.6766 C   0  0  0  0  0  0  0  0  0  0  0  0
  149.1597  140.6817  155.1533 N   0  0  0  0  0  0  0  0  0  0  0  0
  149.3915  139.4219  155.6960 C   0  0  0  0  0  0  0  0  0  0  0  0
  148.7761  138.1403  155.5626 C   0  0  0  0  0  0  0  0  0  0  0  0
  147.7166  137.8567  154.7592 N   0  0  0  0  0  0  0  0  0  0  0  0
  147.0893  138.8737  153.9349 C   0  0  0  0  0  0  0  0  0  0  0  0
  146.5630  138.1084  152.7284 C   0  0  0  0  0  0  0  0  0  0  0  0
  146.2032  136.7218  153.2883 C   0  0  1  0  0  0  0  0  0  0  0  0
  146.1856  135.6682  152.2241 N   0  3  2  0  0  0  0  0  0  0  0  0
  145.2419  136.0144  151.1288 C   0  0  0  0  0  0  0  0  0  0  0  0
  145.9775  134.2806  152.7308 C   0  0  0  0  0  0  0  0  0  0  0  0
  146.2790  133.1791  151.6965 C   0  0  0  0  0  0  0  0  0  0  0  0
  147.6591  132.8799  151.6892 O   0  0  0  0  0  0  0  0  0  0  0  0
  147.2453  136.5168  154.4221 C   0  0  2  0  0  0  0  0  0  0  0  0
  146.6372  135.8352  155.6681 C   0  0  0  0  0  0  0  0  0  0  0  0
  149.2961  137.1233  156.2985 N   0  0  0  0  0  0  0  0  0  0  0  0
  150.3478  137.3274  157.0956 C   0  0  0  0  0  0  0  0  0  0  0  0
  151.0243  138.4560  157.3077 N   0  0  0  0  0  0  0  0  0  0  0  0
  150.5037  139.4883  156.5856 C   0  0  0  0  0  0  0  0  0  0  0  0
  145.2088  136.7850  153.7345 H   0  0  0  0  0  0  0  0  0  0  0  0
  148.0916  135.9501  154.0357 H   0  0  0  0  0  0  0  0  0  0  0  0
  152.5491  140.8715  160.6659 H   0  0  0  0  0  0  0  0  0  0  0  0
  151.6447  142.2407  161.3176 H   0  0  0  0  0  0  0  0  0  0  0  0
  153.3967  142.1993  161.4490 H   0  0  0  0  0  0  0  0  0  0  0  0
  153.6689  142.4382  159.0235 H   0  0  0  0  0  0  0  0  0  0  0  0
  152.1481  145.7143  158.4473 H   0  0  0  0  0  0  0  0  0  0  0  0
  153.3186  144.5922  157.7365 H   0  0  0  0  0  0  0  0  0  0  0  0
  150.3500  144.1792  158.1859 H   0  0  0  0  0  0  0  0  0  0  0  0
  151.2573  143.8191  156.7257 H   0  0  0  0  0  0  0  0  0  0  0  0
  150.6221  141.5440  159.8218 H   0  0  0  0  0  0  0  0  0  0  0  0
  152.6847  141.9054  156.5629 H   0  0  0  0  0  0  0  0  0  0  0  0
  152.6344  140.6060  157.7234 H   0  0  0  0  0  0  0  0  0  0  0  0
  150.1720  142.4887  155.4371 H   0  0  0  0  0  0  0  0  0  0  0  0
  146.2735  139.3325  154.4946 H   0  0  0  0  0  0  0  0  0  0  0  0
  147.7842  139.6575  153.6305 H   0  0  0  0  0  0  0  0  0  0  0  0
  145.7213  138.6210  152.2624 H   0  0  0  0  0  0  0  0  0  0  0  0
  147.3571  138.0186  151.9853 H   0  0  0  0  0  0  0  0  0  0  0  0
  144.2084  135.9550  151.4723 H   0  0  0  0  0  0  0  0  0  0  0  0
  145.3569  135.3535  150.2716 H   0  0  0  0  0  0  0  0  0  0  0  0
  145.4113  137.0200  150.7465 H   0  0  0  0  0  0  0  0  0  0  0  0
  146.6327  134.0871  153.5780 H   0  0  0  0  0  0  0  0  0  0  0  0
  144.9536  134.1795  153.0932 H   0  0  0  0  0  0  0  0  0  0  0  0
  145.7394  132.2712  151.9676 H   0  0  0  0  0  0  0  0  0  0  0  0
  145.9448  133.4402  150.6933 H   0  0  0  0  0  0  0  0  0  0  0  0
  147.8033  132.1346  151.1253 H   0  0  0  0  0  0  0  0  0  0  0  0
  146.2345  134.8480  155.4497 H   0  0  0  0  0  0  0  0  0  0  0  0
  145.8218  136.4313  156.0793 H   0  0  0  0  0  0  0  0  0  0  0  0
  147.3732  135.7098  156.4613 H   0  0  0  0  0  0  0  0  0  0  0  0
  150.6976  136.4627  157.6400 H   0  0  0  0  0  0  0  0  0  0  0  0
  147.1105  135.6708  151.8177 H   0  0  0  0  0  0  0  0  0  0  0  0
  1  2  1  0  0  0  0
  1 31  1  0  0  0  0
  1 32  1  0  0  0  0
  1 33  1  0  0  0  0
  2  6  1  0  0  0  0
  2  3  1  0  0  0  0
  2 34  1  0  0  0  0
  3  4  1  0  0  0  0
  4  5  1  0  0  0  0
  4 35  1  0  0  0  0
  4 36  1  0  0  0  0
  5  6  1  0  0  0  0
  5 37  1  0  0  0  0
  5 38  1  0  0  0  0
  6  7  1  0  0  0  0
  6  8  1  0  0  0  0
  7 39  1  0  0  0  0
  8  9  1  0  0  0  0
  8 40  1  0  0  0  0
  8 41  1  0  0  0  0
  9 28  1  0  0  0  0
  9 10  1  0  0  0  0
 10 11  2  0  0  0  0
 10 42  1  0  0  0  0
 11 12  1  0  0  0  0
 12 28  2  0  0  0  0
 12 13  1  0  0  0  0
 13 14  1  0  0  0  0
 13 25  2  0  0  0  0
 14 23  1  0  0  0  0
 14 15  1  0  0  0  0
 15 16  1  0  0  0  0
 15 43  1  0  0  0  0
 15 44  1  0  0  0  0
 16 17  1  0  0  0  0
 16 45  1  0  0  0  0
 16 46  1  0  0  0  0
 17 29  1  0  0  0  0
 17 18  1  0  0  0  0
 17 23  1  0  0  0  0
 18 19  1  0  0  0  0
 18 20  1  0  0  0  0
 18 59  1  0  0  0  0
 19 47  1  0  0  0  0
 19 48  1  0  0  0  0
 19 49  1  0  0  0  0
 20 21  1  0  0  0  0
 20 50  1  0  0  0  0
 20 51  1  0  0  0  0
 21 22  1  0  0  0  0
 21 52  1  0  0  0  0
 21 53  1  0  0  0  0
 22 54  1  0  0  0  0
 23 30  1  0  0  0  0
 23 24  1  0  0  0  0
 24 55  1  0  0  0  0
 24 56  1  0  0  0  0
 24 57  1  0  0  0  0
 25 26  1  0  0  0  0
 26 27  2  0  0  0  0
 26 58  1  0  0  0  0
 27 28  1  0  0  0  0
M  CHG  1  18   1
M  END
> <s_m_source_file>
AV-unprocessed.smi

> <i_m_source_file_index>
290

> <i_lp_mmshare_version>
43012

> <i_f3d_flags>
0

> <s_epik_input>
W0NIMl0xW0NIMl1PW0NAQEhdKFtDSDNdKVtDQEBdMShbT0hdKVtDSDJdbihbY0hdbjIpYyhjMjMpbltjSF1uYzNONFtDSDJdW0NIMl1bQ0BIXShbQ0BIXTRbQ0gzXSlOKFtDSDNdKVtDSDJdW0NIMl1bT0hd

> <s_epik_cmdline>
J2VwaWtfcHl0aG9uJywgJy1waCcsICc3LjAnLCAnLXRuJywgJzgnLCAnLW1hJywgJzIwMCcsICctbWV0YWxfYmluZGluZycsICctaW1hZScsICc8aW5maWxlLm1hZT4nLCAnLW9tYWUnLCAnPG91dGZpbGUubWFlPic=

> <r_lp_tautomer_probability>
1

> <r_epik_Ionization_Penalty>
0.0036983

> <r_epik_Ionization_Penalty_Charging>
0.0032725

> <r_epik_Ionization_Penalty_Neutral>
0.000425798

> <r_epik_State_Penalty>
-0

> <r_epik_Charging_Adjusted_Penalty>
0.0032725

> <i_epik_Tot_Q>
1

> <i_epik_Tot_abs_Q>
1

> <r_epik_Metal_State_Penalty>
-0

> <b_epik_Metal_Only>
0

> <s_lp_Force_Field>
OPLS_2005

> <r_lp_Energy>
64.4963

> <b_lp_Chiralities_Consistent>
1

> <s_lp_Variant>
AV-unprocessed.smi:290-27

> <Gold.Version>
5.8.1

> <Gold.Id.Protein>
6NUR|6NUR_protein|mol2

> <Gold.PLP.Fitness>
48.0672

> <Gold.PLP.PLP>
-37.2004

> <Gold.PLP.part.hbond>
-2.6667

> <Gold.PLP.part.metal>
0.0000

> <Gold.PLP.part.buried>
-3.1692

> <Gold.PLP.part.nonpolar>
-30.6063

> <Gold.PLP.part.repulsive>
0.1415

> <Gold.PLP.ligand.clash>
0.0000

> <Gold.PLP.ligand.torsion>
0.6474

> <Gold.PLP.Chemscore.Hbond>
3.0000

> <Gold.PLP.Chemscore.CHOScore>
0.9998

> <Gold.PLP.Chemscore.Metal>
0.0000

> <Gold.Chemscore.Hbonds>
donor molecule, donor type, donor heavy atom, donor atom, acceptor molecule, acceptor atom, score
      L1  H    18    59       P1  7948  2.00
      L1  H    22    54       P1 10747  1.00
      L1  C    10    42       P1  8028  0.87

> <Gold.PLP.Chemscore.Internal.Correction>
0.1624

> <Gold.Rescore>
     Score         DG    S(hbond)    S(metal)    S(lipo)     H(rot)  DE(clash)    DE(int)     intcor
     10.95     -15.08       1.96        0.00      99.47       3.35       1.37       2.76       ----

> <Gold.Chemscore.Fitness>
10.9459

> <Gold.Chemscore.DG>
-15.0752

> <Gold.Chemscore.ZeroCoef>
-5.4800

> <Gold.Chemscore.Hbond>
1.9576

> <Gold.Chemscore.Metal>
0.0000

> <Gold.Chemscore.Lipo>
99.4652

> <Gold.Chemscore.Internal_Hbond>
0.0000

> <Gold.Chemscore.DEClash>
1.3652

> <Gold.Chemscore.DEInternal>
2.7641

> <Gold.Chemscore.Rot>
3.3518

> <Gold.Chemscore.Internal.Correction>
   9.000000E+99

> <Gold.Chemscore.Hbonds>
donor molecule, donor type, donor heavy atom, donor atom, acceptor molecule, acceptor atom, score
      L1  H    18    59       P1  7948  0.96
      L1  H    22    54       P1 10747  0.95

> <Gold.Chemscore.Hbond.Weighted>
-6.5383

> <Gold.Chemscore.Metal.Weighted>
-0.0000

> <Gold.Chemscore.Lipo.Weighted>
-11.6374

> <Gold.Chemscore.Internal_Hbond.Weighted>
0.0000

> <Gold.Chemscore.DEClash.Weighted>
1.3652

> <Gold.Chemscore.DEInternal.Weighted>
2.7641

> <Gold.Chemscore.Rot.Weighted>
8.5806

> <Gold.Chemscore.Internal.Correction.Weighted>
   9.000000E+99

> <Gold.Protein.RotatedTorsions>
[ 6907 6896 6895 6894 ] final  106.78 input  -60.11 | X-H torsion
[ 7974 7965 7964 7962 ] final   69.85 input  175.53 | X-H torsion
[ 8008 7997 7996 7995 ] final -132.18 input   59.86 | X-H torsion
[ 10167 10162 10161 10158 ] final  133.38 input  -65.29 | X-H torsion
[ 10718 10713 10712 10709 ] final   12.66 input   66.30 | X-H torsion
[ 10763 10752 10751 10750 ] final  177.04 input  -60.55 | X-H torsion
[ 11005 11000 10999 10996 ] final   -7.69 input  -57.11 | X-H torsion

> <Gold.Protein.ActiveResidues>
 VAL166  LYS551  ARG553  GLY616  TRP617  ASP618  TYR619  PRO620  LYS621  CYS622 
 ASP623  PHE694  ASN695  SER759  ASP760  ASP761  ALA762  ILE779  LEU786  VAL792 
 PHE793  MET794  SER795  GLU796  ALA797  LYS798  CYS799  TRP800  GLU811  SER814 

> <Gold.Protein.RotatedAtoms>
  152.5180  133.9331  159.7589 H   0  0  0  0  0  0  0  0  0  0  0  0  # atno 6907 bound_to 6896
  150.9677  133.6369  159.2750 H   0  0  0  0  0  0  0  0  0  0  0  0  # atno 6908 bound_to 6896
  151.3591  135.0906  159.9481 H   0  0  0  0  0  0  0  0  0  0  0  0  # atno 6909 bound_to 6896
  145.7854  139.2908  143.1241 H   0  0  0  0  0  0  0  0  0  0  0  0  # atno 7974 bound_to 7965
  155.3246  140.0464  157.3040 H   0  0  0  0  0  0  0  0  0  0  0  0  # atno 8008 bound_to 7997
  154.5361  140.2273  155.8686 H   0  0  0  0  0  0  0  0  0  0  0  0  # atno 8009 bound_to 7997
  156.1836  140.3068  155.9203 H   0  0  0  0  0  0  0  0  0  0  0  0  # atno 8010 bound_to 7997
  139.5299  144.6618  151.4988 H   0  0  0  0  0  0  0  0  0  0  0  0  # atno 10167 bound_to 10162
  157.0133  130.6126  149.5711 H   0  0  0  0  0  0  0  0  0  0  0  0  # atno 10718 bound_to 10713
  154.4892  135.2778  155.1510 H   0  0  0  0  0  0  0  0  0  0  0  0  # atno 10763 bound_to 10752
  154.3189  135.6214  153.5502 H   0  0  0  0  0  0  0  0  0  0  0  0  # atno 10764 bound_to 10752
  152.9885  135.5738  154.5309 H   0  0  0  0  0  0  0  0  0  0  0  0  # atno 10765 bound_to 10752
  140.7155  133.8873  155.8782 H   0  0  0  0  0  0  0  0  0  0  0  0  # atno 11005 bound_to 11000
  146.0031  140.8502  143.0008 LP  0  0  0  0  0  0  0  0  0  0  0  0  # atno 17320 bound_to 7965
  144.6790  140.2382  143.7347 LP  0  0  0  0  0  0  0  0  0  0  0  0  # atno 17321 bound_to 7965
  140.6470  143.8774  150.6747 LP  0  0  0  0  0  0  0  0  0  0  0  0  # atno 17342 bound_to 10162
  140.2126  143.3871  152.1706 LP  0  0  0  0  0  0  0  0  0  0  0  0  # atno 17343 bound_to 10162
  156.0128  130.5221  150.8042 LP  0  0  0  0  0  0  0  0  0  0  0  0  # atno 17370 bound_to 10713
  157.5304  131.0936  150.9962 LP  0  0  0  0  0  0  0  0  0  0  0  0  # atno 17371 bound_to 10713
  141.0048  134.1100  157.4281 LP  0  0  0  0  0  0  0  0  0  0  0  0  # atno 17394 bound_to 11000
  139.8861  135.0078  156.6477 LP  0  0  0  0  0  0  0  0  0  0  0  0  # atno 17395 bound_to 11000

$$$$
