AV-unprocessed.smi:924|AV-procd|sdf|4179|dock5
  -GOLD-   22720 2 83D 1   1.00000     0.00000
 Structure written by MMmdl.
 46 49  0  0  0  0  0  0  0  0  1 V2000
  150.1427  140.4288  154.7880 O   0  0  0  0  0  0  0  0  0  0  0  0
  149.1591  140.9728  155.2925 C   0  0  0  0  0  0  0  0  0  0  0  0
  147.9255  141.3217  154.4477 C   0  0  0  0  0  0  0  0  0  0  0  0
  147.2045  140.1363  153.9607 N   0  0  0  0  0  0  0  0  0  0  0  0
  147.1125  139.8924  152.5977 C   0  0  0  0  0  0  0  0  0  0  0  0
  146.4506  138.8347  152.0719 C   0  0  0  0  0  0  0  0  0  0  0  0
  145.7836  137.8737  152.9436 C   0  0  0  0  0  0  0  0  0  0  0  0
  145.1624  136.8837  152.5635 O   0  0  0  0  0  0  0  0  0  0  0  0
  145.8951  138.1556  154.3077 N   0  0  0  0  0  0  0  0  0  0  0  0
  146.5721  139.2463  154.8562 C   0  0  0  0  0  0  0  0  0  0  0  0
  146.6002  139.4059  156.0759 O   0  0  0  0  0  0  0  0  0  0  0  0
  149.0807  141.2852  156.5952 N   0  0  0  0  0  0  0  0  0  0  0  0
  150.1047  141.0105  157.6010 C   0  0  0  0  0  0  0  0  0  0  0  0
  150.7325  142.2927  158.2047 C   0  0  0  0  0  0  0  0  0  0  0  0
  151.4003  143.1615  157.1036 C   0  0  0  0  0  0  0  0  0  0  0  0
  152.0583  144.4107  157.7288 C   0  0  1  0  0  0  0  0  0  0  0  0
  150.9852  145.2543  158.4487 C   0  0  0  0  0  0  0  0  0  0  0  0
  150.3359  144.4074  159.5636 C   0  0  2  0  0  0  0  0  0  0  0  0
  151.4124  143.9719  160.5786 C   0  0  0  0  0  0  0  0  0  0  0  0
  152.4827  143.1320  159.8519 C   0  0  2  0  0  0  0  0  0  0  0  0
  153.1392  143.9762  158.7401 C   0  0  0  0  0  0  0  0  0  0  0  0
  151.8226  141.8829  159.2301 C   0  0  0  0  0  0  0  0  0  0  0  0
  149.6740  143.1590  158.9426 C   0  0  0  0  0  0  0  0  0  0  0  0
  145.4452  137.5196  154.9499 H   0  0  0  0  0  0  0  0  0  0  0  0
  147.2512  141.9336  155.0495 H   0  0  0  0  0  0  0  0  0  0  0  0
  148.2330  141.9650  153.6214 H   0  0  0  0  0  0  0  0  0  0  0  0
  147.5882  140.5827  151.9151 H   0  0  0  0  0  0  0  0  0  0  0  0
  146.4131  138.6998  151.0007 H   0  0  0  0  0  0  0  0  0  0  0  0
  148.2365  141.7325  156.9217 H   0  0  0  0  0  0  0  0  0  0  0  0
  149.7037  140.3767  158.3940 H   0  0  0  0  0  0  0  0  0  0  0  0
  150.8810  140.4180  157.1156 H   0  0  0  0  0  0  0  0  0  0  0  0
  152.1488  142.5786  156.5653 H   0  0  0  0  0  0  0  0  0  0  0  0
  150.6659  143.4747  156.3606 H   0  0  0  0  0  0  0  0  0  0  0  0
  152.5196  145.0081  156.9418 H   0  0  0  0  0  0  0  0  0  0  0  0
  151.4323  146.1555  158.8701 H   0  0  0  0  0  0  0  0  0  0  0  0
  150.2279  145.5888  157.7383 H   0  0  0  0  0  0  0  0  0  0  0  0
  149.5776  145.0024  160.0739 H   0  0  0  0  0  0  0  0  0  0  0  0
  151.8690  144.8462  161.0444 H   0  0  0  0  0  0  0  0  0  0  0  0
  150.9600  143.3932  161.3849 H   0  0  0  0  0  0  0  0  0  0  0  0
  153.2447  142.8207  160.5671 H   0  0  0  0  0  0  0  0  0  0  0  0
  153.9184  143.4011  158.2381 H   0  0  0  0  0  0  0  0  0  0  0  0
  153.6297  144.8509  159.1689 H   0  0  0  0  0  0  0  0  0  0  0  0
  151.3874  141.2663  160.0181 H   0  0  0  0  0  0  0  0  0  0  0  0
  152.5830  141.2671  158.7478 H   0  0  0  0  0  0  0  0  0  0  0  0
  148.8894  143.4796  158.2571 H   0  0  0  0  0  0  0  0  0  0  0  0
  149.1806  142.5728  159.7190 H   0  0  0  0  0  0  0  0  0  0  0  0
  1  2  2  0  0  0  0
  2  3  1  0  0  0  0
  2 12  1  0  0  0  0
  3  4  1  0  0  0  0
  3 25  1  0  0  0  0
  3 26  1  0  0  0  0
  4 10  1  0  0  0  0
  4  5  1  0  0  0  0
  5  6  2  0  0  0  0
  5 27  1  0  0  0  0
  6  7  1  0  0  0  0
  6 28  1  0  0  0  0
  7  8  2  0  0  0  0
  7  9  1  0  0  0  0
  9 24  1  0  0  0  0
  9 10  1  0  0  0  0
 10 11  2  0  0  0  0
 12 13  1  0  0  0  0
 12 29  1  0  0  0  0
 13 14  1  0  0  0  0
 13 30  1  0  0  0  0
 13 31  1  0  0  0  0
 14 22  1  0  0  0  0
 14 23  1  0  0  0  0
 14 15  1  0  0  0  0
 15 16  1  0  0  0  0
 15 32  1  0  0  0  0
 15 33  1  0  0  0  0
 16 21  1  0  0  0  0
 16 17  1  0  0  0  0
 16 34  1  0  0  0  0
 17 18  1  0  0  0  0
 17 35  1  0  0  0  0
 17 36  1  0  0  0  0
 18 19  1  0  0  0  0
 18 23  1  0  0  0  0
 18 37  1  0  0  0  0
 19 20  1  0  0  0  0
 19 38  1  0  0  0  0
 19 39  1  0  0  0  0
 20 21  1  0  0  0  0
 20 22  1  0  0  0  0
 20 40  1  0  0  0  0
 21 41  1  0  0  0  0
 21 42  1  0  0  0  0
 22 43  1  0  0  0  0
 22 44  1  0  0  0  0
 23 45  1  0  0  0  0
 23 46  1  0  0  0  0
M  END
> <s_m_source_file>
AV-unprocessed.smi

> <i_m_source_file_index>
924

> <i_lp_mmshare_version>
43012

> <i_f3d_flags>
0

> <s_epik_input>
Tz1jMVtuSF1jKD1PKVtjSF1bY0hdbjFbQ0gyXUMoPU8pW05IXVtDSDJdQzIzW0NIMl1bQ0BIXTRbQ0gyXVtDQEBIXShbQ0gyXTMpW0NIMl1bQ0BIXShbQ0gyXTQpW0NIMl0y

> <s_epik_cmdline>
J2VwaWtfcHl0aG9uJywgJy1waCcsICc3LjAnLCAnLXRuJywgJzgnLCAnLW1hJywgJzIwMCcsICctbWV0YWxfYmluZGluZycsICctaW1hZScsICc8aW5maWxlLm1hZT4nLCAnLW9tYWUnLCAnPG91dGZpbGUubWFlPic=

> <r_lp_tautomer_probability>
0.999537

> <r_epik_Ionization_Penalty>
0.00304541

> <r_epik_Ionization_Penalty_Charging>
0.00304539

> <r_epik_Ionization_Penalty_Neutral>
1.85865e-08

> <r_epik_State_Penalty>
0.00214042

> <r_epik_Charging_Adjusted_Penalty>
0.00518582

> <i_epik_Tot_Q>
0

> <i_epik_Tot_abs_Q>
0

> <r_epik_Metal_State_Penalty>
0.361861

> <b_epik_Metal_Only>
0

> <s_lp_Force_Field>
OPLS_2005

> <r_lp_Energy>
33.277

> <b_lp_Chiralities_Consistent>
1

> <s_lp_Variant>
AV-unprocessed.smi:924-1

> <Gold.Version>
5.8.1

> <Gold.Id.Protein>
6NUR|6NUR_protein|mol2

> <Gold.PLP.Fitness>
46.0972

> <Gold.PLP.PLP>
-41.3491

> <Gold.PLP.part.hbond>
-1.0000

> <Gold.PLP.part.metal>
0.0000

> <Gold.PLP.part.buried>
-3.1565

> <Gold.PLP.part.nonpolar>
-39.6172

> <Gold.PLP.part.repulsive>
0.3461

> <Gold.PLP.ligand.clash>
0.0000

> <Gold.PLP.ligand.torsion>
0.0862

> <Gold.PLP.Chemscore.Hbond>
0.9600

> <Gold.PLP.Chemscore.CHOScore>
0.6771

> <Gold.PLP.Chemscore.Metal>
0.0000

> <Gold.Chemscore.Hbonds>
donor molecule, donor type, donor heavy atom, donor atom, acceptor molecule, acceptor atom, score
      P1  H  7989  7998       L1     1  0.98
      L1  C     5    27       P1  7957  0.76

> <Gold.PLP.Chemscore.Internal.Correction>
0.0091

> <Gold.Rescore>
     Score         DG    S(hbond)    S(metal)    S(lipo)     H(rot)  DE(clash)    DE(int)     intcor
     18.03     -18.71       0.92        0.00     129.33       1.94       0.38       0.30       ----

> <Gold.Chemscore.Fitness>
18.0261

> <Gold.Chemscore.DG>
-18.7065

> <Gold.Chemscore.ZeroCoef>
-5.4800

> <Gold.Chemscore.Hbond>
0.9178

> <Gold.Chemscore.Metal>
0.0000

> <Gold.Chemscore.Lipo>
129.3281

> <Gold.Chemscore.Internal_Hbond>
0.0000

> <Gold.Chemscore.DEClash>
0.3844

> <Gold.Chemscore.DEInternal>
0.2961

> <Gold.Chemscore.Rot>
1.9415

> <Gold.Chemscore.Internal.Correction>
   9.000000E+99

> <Gold.Chemscore.Hbonds>
donor molecule, donor type, donor heavy atom, donor atom, acceptor molecule, acceptor atom, score
      P1  H  7989  7998       L1     1  0.89

> <Gold.Chemscore.Hbond.Weighted>
-3.0653

> <Gold.Chemscore.Metal.Weighted>
-0.0000

> <Gold.Chemscore.Lipo.Weighted>
-15.1314

> <Gold.Chemscore.Internal_Hbond.Weighted>
0.0000

> <Gold.Chemscore.DEClash.Weighted>
0.3844

> <Gold.Chemscore.DEInternal.Weighted>
0.2961

> <Gold.Chemscore.Rot.Weighted>
4.9701

> <Gold.Chemscore.Internal.Correction.Weighted>
   9.000000E+99

> <Gold.Protein.RotatedTorsions>
[ 6907 6896 6895 6894 ] final -176.91 input  -60.11 | X-H torsion
[ 7974 7965 7964 7962 ] final  -23.14 input  175.53 | X-H torsion
[ 8008 7997 7996 7995 ] final   72.56 input   59.86 | X-H torsion
[ 10167 10162 10161 10158 ] final  -44.33 input  -65.29 | X-H torsion
[ 10718 10713 10712 10709 ] final  -87.57 input   66.30 | X-H torsion
[ 10763 10752 10751 10750 ] final -152.23 input  -60.55 | X-H torsion
[ 11005 11000 10999 10996 ] final -135.48 input  -57.11 | X-H torsion

> <Gold.Protein.ActiveResidues>
 VAL166  LYS551  ARG553  GLY616  TRP617  ASP618  TYR619  PRO620  LYS621  CYS622 
 ASP623  PHE694  ASN695  SER759  ASP760  ASP761  ALA762  ILE779  LEU786  VAL792 
 PHE793  MET794  SER795  GLU796  ALA797  LYS798  CYS799  TRP800  GLU811  SER814 

> <Gold.Protein.RotatedAtoms>
  151.6124  133.3346  159.3070 H   0  0  0  0  0  0  0  0  0  0  0  0  # atno 6907 bound_to 6896
  150.8149  134.7329  159.6733 H   0  0  0  0  0  0  0  0  0  0  0  0  # atno 6908 bound_to 6896
  152.4245  134.5898  160.0022 H   0  0  0  0  0  0  0  0  0  0  0  0  # atno 6909 bound_to 6896
  146.1634  140.4575  142.8562 H   0  0  0  0  0  0  0  0  0  0  0  0  # atno 7974 bound_to 7965
  155.7707  140.3484  155.5245 H   0  0  0  0  0  0  0  0  0  0  0  0  # atno 8008 bound_to 7997
  155.8824  140.1004  157.1496 H   0  0  0  0  0  0  0  0  0  0  0  0  # atno 8009 bound_to 7997
  154.4026  140.1320  156.4201 H   0  0  0  0  0  0  0  0  0  0  0  0  # atno 8010 bound_to 7997
  140.6901  143.2936  151.3480 H   0  0  0  0  0  0  0  0  0  0  0  0  # atno 10167 bound_to 10162
  155.9985  130.4804  150.4887 H   0  0  0  0  0  0  0  0  0  0  0  0  # atno 10718 bound_to 10713
  154.8007  135.3241  154.7557 H   0  0  0  0  0  0  0  0  0  0  0  0  # atno 10763 bound_to 10752
  153.8225  135.6886  153.4829 H   0  0  0  0  0  0  0  0  0  0  0  0  # atno 10764 bound_to 10752
  153.1722  135.4618  154.9861 H   0  0  0  0  0  0  0  0  0  0  0  0  # atno 10765 bound_to 10752
  140.8894  134.1831  157.4538 H   0  0  0  0  0  0  0  0  0  0  0  0  # atno 11005 bound_to 11000
  144.8058  140.6297  143.6448 LP  0  0  0  0  0  0  0  0  0  0  0  0  # atno 17320 bound_to 7965
  145.4530  139.1521  143.3908 LP  0  0  0  0  0  0  0  0  0  0  0  0  # atno 17321 bound_to 7965
  139.6295  144.0749  152.2463 LP  0  0  0  0  0  0  0  0  0  0  0  0  # atno 17342 bound_to 10162
  140.0219  144.6146  150.7559 LP  0  0  0  0  0  0  0  0  0  0  0  0  # atno 17343 bound_to 10162
  157.2884  131.0621  151.2150 LP  0  0  0  0  0  0  0  0  0  0  0  0  # atno 17370 bound_to 10713
  157.3172  130.6919  149.6248 LP  0  0  0  0  0  0  0  0  0  0  0  0  # atno 17371 bound_to 10713
  139.8728  134.9852  156.5271 LP  0  0  0  0  0  0  0  0  0  0  0  0  # atno 17394 bound_to 11000
  140.8365  133.8238  155.9034 LP  0  0  0  0  0  0  0  0  0  0  0  0  # atno 17395 bound_to 11000

$$$$
