AV-unprocessed.smi:3303|AV-procd|sdf|12661|dock2
  -GOLD-   2272018593D 1   1.00000     0.00000
 Structure written by MMmdl.
 45 46  0  0  0  0  0  0  0  0  3 V2000
  144.9898  135.9552  152.1871 C   0  0  0  0  0  0  0  0  0  0  0  0
  145.5182  134.8932  151.2061 C   0  0  2  0  0  0  0  0  0  0  0  0
  144.3613  134.3605  150.3335 C   0  0  0  0  0  0  0  0  0  0  0  0
  144.8273  133.3279  149.3742 N   0  3  2  0  0  0  0  0  0  0  0  0
  143.7894  132.9487  148.3883 C   0  0  0  0  0  0  0  0  0  0  0  0
  145.4955  132.1702  150.0333 C   0  0  2  0  0  0  0  0  0  0  0  0
  144.5283  131.2592  150.8202 C   0  0  0  0  0  0  0  0  0  0  0  0
  146.6692  132.6658  150.9017 C   0  0  0  0  0  0  0  0  0  0  0  0
  146.2394  133.7331  151.9321 C   0  0  1  0  0  0  0  0  0  0  0  0
  147.4128  134.2392  152.6830 N   0  3  0  0  0  0  0  0  0  0  0  0
  148.2613  133.1999  153.3025 C   0  0  0  0  0  0  0  0  0  0  0  0
  149.2612  133.8213  154.2868 C   0  0  0  0  0  0  0  0  0  0  0  0
  150.1046  132.7694  154.9815 C   0  0  0  0  0  0  0  0  0  0  0  0
  150.0139  131.4107  154.6114 C   0  0  0  0  0  0  0  0  0  0  0  0
  150.8284  130.4779  155.2823 C   0  0  0  0  0  0  0  0  0  0  0  0
  151.6974  130.9378  156.2906 C   0  0  0  0  0  0  0  0  0  0  0  0
  151.7140  132.3158  156.5847 C   0  0  0  0  0  0  0  0  0  0  0  0
  150.9382  133.2188  155.9464 N   0  0  0  0  0  0  0  0  0  0  0  0
  144.2810  135.5244  152.8952 H   0  0  0  0  0  0  0  0  0  0  0  0
  144.4785  136.7587  151.6559 H   0  0  0  0  0  0  0  0  0  0  0  0
  145.7959  136.4133  152.7604 H   0  0  0  0  0  0  0  0  0  0  0  0
  146.2355  135.3812  150.5439 H   0  0  0  0  0  0  0  0  0  0  0  0
  143.5626  133.9570  150.9571 H   0  0  0  0  0  0  0  0  0  0  0  0
  143.9244  135.1883  149.7729 H   0  0  0  0  0  0  0  0  0  0  0  0
  142.9038  132.5384  148.8743 H   0  0  0  0  0  0  0  0  0  0  0  0
  144.1731  132.2082  147.6857 H   0  0  0  0  0  0  0  0  0  0  0  0
  143.4788  133.8205  147.8114 H   0  0  0  0  0  0  0  0  0  0  0  0
  145.9264  131.5603  149.2379 H   0  0  0  0  0  0  0  0  0  0  0  0
  145.0709  130.4373  151.2880 H   0  0  0  0  0  0  0  0  0  0  0  0
  143.7786  130.8084  150.1702 H   0  0  0  0  0  0  0  0  0  0  0  0
  144.0037  131.7912  151.6129 H   0  0  0  0  0  0  0  0  0  0  0  0
  147.1333  131.8132  151.3975 H   0  0  0  0  0  0  0  0  0  0  0  0
  147.4366  133.0866  150.2499 H   0  0  0  0  0  0  0  0  0  0  0  0
  145.5439  133.2906  152.6467 H   0  0  0  0  0  0  0  0  0  0  0  0
  147.9787  134.8087  152.0700 H   0  0  0  0  0  0  0  0  0  0  0  0
  147.6284  132.4816  153.8255 H   0  0  0  0  0  0  0  0  0  0  0  0
  148.7994  132.6529  152.5284 H   0  0  0  0  0  0  0  0  0  0  0  0
  149.9226  134.5140  153.7633 H   0  0  0  0  0  0  0  0  0  0  0  0
  148.7314  134.4102  155.0372 H   0  0  0  0  0  0  0  0  0  0  0  0
  149.3388  131.0870  153.8325 H   0  0  0  0  0  0  0  0  0  0  0  0
  150.7876  129.4292  155.0280 H   0  0  0  0  0  0  0  0  0  0  0  0
  152.3363  130.2512  156.8262 H   0  0  0  0  0  0  0  0  0  0  0  0
  152.3686  132.7032  157.3516 H   0  0  0  0  0  0  0  0  0  0  0  0
  147.0672  134.8234  153.4313 H   0  0  0  0  0  0  0  0  0  0  0  0
  145.5511  133.7754  148.8300 H   0  0  0  0  0  0  0  0  0  0  0  0
  1  2  1  0  0  0  0
  1 19  1  0  0  0  0
  1 20  1  0  0  0  0
  1 21  1  0  0  0  0
  2  9  1  0  0  0  0
  2  3  1  0  0  0  0
  2 22  1  0  0  0  0
  3  4  1  0  0  0  0
  3 23  1  0  0  0  0
  3 24  1  0  0  0  0
  4  5  1  0  0  0  0
  4  6  1  0  0  0  0
  4 45  1  0  0  0  0
  5 25  1  0  0  0  0
  5 26  1  0  0  0  0
  5 27  1  0  0  0  0
  6  7  1  0  0  0  0
  6  8  1  0  0  0  0
  6 28  1  0  0  0  0
  7 29  1  0  0  0  0
  7 30  1  0  0  0  0
  7 31  1  0  0  0  0
  8  9  1  0  0  0  0
  8 32  1  0  0  0  0
  8 33  1  0  0  0  0
  9 10  1  0  0  0  0
  9 34  1  0  0  0  0
 10 11  1  0  0  0  0
 10 35  1  0  0  0  0
 10 44  1  0  0  0  0
 11 12  1  0  0  0  0
 11 36  1  0  0  0  0
 11 37  1  0  0  0  0
 12 13  1  0  0  0  0
 12 38  1  0  0  0  0
 12 39  1  0  0  0  0
 13 18  1  0  0  0  0
 13 14  2  0  0  0  0
 14 15  1  0  0  0  0
 14 40  1  0  0  0  0
 15 16  2  0  0  0  0
 15 41  1  0  0  0  0
 16 17  1  0  0  0  0
 16 42  1  0  0  0  0
 17 18  2  0  0  0  0
 17 43  1  0  0  0  0
M  CHG  1   4   1
M  CHG  1  10   1
M  END
> <s_m_source_file>
AV-unprocessed.smi

> <i_m_source_file_index>
3303

> <i_lp_mmshare_version>
43012

> <i_f3d_flags>
0

> <s_epik_input>
W0NIM11bQ0BASF0xW0NIMl1OKFtDSDNdKVtDQEBIXShbQ0gzXSlbQ0gyXVtDQEhdMVtOSF1bQ0gyXVtDSDJdYzJbY0hdW2NIXVtjSF1bY0hdbjI=

> <s_epik_cmdline>
J2VwaWtfcHl0aG9uJywgJy1waCcsICc3LjAnLCAnLXRuJywgJzgnLCAnLW1hJywgJzIwMCcsICctbWV0YWxfYmluZGluZycsICctaW1hZScsICc8aW5maWxlLm1hZT4nLCAnLW9tYWUnLCAnPG91dGZpbGUubWFlPic=

> <r_epik_Ionization_Penalty>
0.0769462

> <r_epik_Ionization_Penalty_Charging>
0.0759813

> <r_epik_Ionization_Penalty_Neutral>
0.000964829

> <r_epik_State_Penalty>
0.0654373

> <r_epik_Charging_Adjusted_Penalty>
0.141419

> <i_epik_Tot_Q>
2

> <i_epik_Tot_abs_Q>
2

> <r_epik_Metal_State_Penalty>
0.0656439

> <b_epik_Metal_Only>
0

> <s_lp_Force_Field>
OPLS_2005

> <r_lp_Energy>
28.3665

> <b_lp_Chiralities_Consistent>
1

> <s_lp_Variant>
AV-unprocessed.smi:3303-5

> <Gold.Version>
5.8.1

> <Gold.Id.Protein>
6NUR|6NUR_protein|mol2

> <Gold.PLP.Fitness>
46.5937

> <Gold.PLP.PLP>
-37.7620

> <Gold.PLP.part.hbond>
-2.0000

> <Gold.PLP.part.metal>
0.0000

> <Gold.PLP.part.buried>
-1.7611

> <Gold.PLP.part.nonpolar>
-33.7843

> <Gold.PLP.part.repulsive>
0.1540

> <Gold.PLP.ligand.clash>
0.0000

> <Gold.PLP.ligand.torsion>
0.0903

> <Gold.PLP.Chemscore.Hbond>
3.0000

> <Gold.PLP.Chemscore.CHOScore>
0.0000

> <Gold.PLP.Chemscore.Metal>
0.0000

> <Gold.Chemscore.Hbonds>
donor molecule, donor type, donor heavy atom, donor atom, acceptor molecule, acceptor atom, score
      L1  H     4    45       P1  7921  1.00
      L1  H    10    35       P1  7948  2.00

> <Gold.PLP.Chemscore.Internal.Correction>
0.0123

> <Gold.Rescore>
     Score         DG    S(hbond)    S(metal)    S(lipo)     H(rot)  DE(clash)    DE(int)     intcor
     19.69     -19.98       1.93        0.00      98.96       1.37       0.20       0.09       ----

> <Gold.Chemscore.Fitness>
19.6853

> <Gold.Chemscore.DG>
-19.9821

> <Gold.Chemscore.ZeroCoef>
-5.4800

> <Gold.Chemscore.Hbond>
1.9287

> <Gold.Chemscore.Metal>
0.0000

> <Gold.Chemscore.Lipo>
98.9628

> <Gold.Chemscore.Internal_Hbond>
0.0000

> <Gold.Chemscore.DEClash>
0.2049

> <Gold.Chemscore.DEInternal>
0.0919

> <Gold.Chemscore.Rot>
1.3744

> <Gold.Chemscore.Internal.Correction>
   9.000000E+99

> <Gold.Chemscore.Hbonds>
donor molecule, donor type, donor heavy atom, donor atom, acceptor molecule, acceptor atom, score
      L1  H     4    45       P1  7921  0.44
      L1  H    10    35       P1  7948  0.42

> <Gold.Chemscore.Hbond.Weighted>
-6.4419

> <Gold.Chemscore.Metal.Weighted>
-0.0000

> <Gold.Chemscore.Lipo.Weighted>
-11.5786

> <Gold.Chemscore.Internal_Hbond.Weighted>
0.0000

> <Gold.Chemscore.DEClash.Weighted>
0.2049

> <Gold.Chemscore.DEInternal.Weighted>
0.0919

> <Gold.Chemscore.Rot.Weighted>
3.5185

> <Gold.Chemscore.Internal.Correction.Weighted>
   9.000000E+99

> <Gold.Protein.RotatedTorsions>
[ 6907 6896 6895 6894 ] final -167.07 input  -60.11 | X-H torsion
[ 7974 7965 7964 7962 ] final  -16.65 input  175.53 | X-H torsion
[ 8008 7997 7996 7995 ] final   92.18 input   59.86 | X-H torsion
[ 10167 10162 10161 10158 ] final  123.38 input  -65.29 | X-H torsion
[ 10718 10713 10712 10709 ] final  162.82 input   66.30 | X-H torsion
[ 10763 10752 10751 10750 ] final   88.00 input  -60.55 | X-H torsion
[ 11005 11000 10999 10996 ] final  131.47 input  -57.11 | X-H torsion

> <Gold.Protein.ActiveResidues>
 VAL166  LYS551  ARG553  GLY616  TRP617  ASP618  TYR619  PRO620  LYS621  CYS622 
 ASP623  PHE694  ASN695  SER759  ASP760  ASP761  ALA762  ILE779  LEU786  VAL792 
 PHE793  MET794  SER795  GLU796  ALA797  LYS798  CYS799  TRP800  GLU811  SER814 

> <Gold.Protein.RotatedAtoms>
  151.4536  133.3611  159.2798 H   0  0  0  0  0  0  0  0  0  0  0  0  # atno 6907 bound_to 6896
  150.9074  134.8491  159.7412 H   0  0  0  0  0  0  0  0  0  0  0  0  # atno 6908 bound_to 6896
  152.4913  134.4463  159.9612 H   0  0  0  0  0  0  0  0  0  0  0  0  # atno 6909 bound_to 6896
  146.1978  140.3667  142.8434 H   0  0  0  0  0  0  0  0  0  0  0  0  # atno 7974 bound_to 7965
  156.0324  140.3328  155.7154 H   0  0  0  0  0  0  0  0  0  0  0  0  # atno 8008 bound_to 7997
  155.5866  140.0642  157.2787 H   0  0  0  0  0  0  0  0  0  0  0  0  # atno 8009 bound_to 7997
  154.4358  140.1834  156.1019 H   0  0  0  0  0  0  0  0  0  0  0  0  # atno 8010 bound_to 7997
  139.5803  144.6983  151.3547 H   0  0  0  0  0  0  0  0  0  0  0  0  # atno 10167 bound_to 10162
  157.1172  131.0483  151.2431 H   0  0  0  0  0  0  0  0  0  0  0  0  # atno 10718 bound_to 10713
  153.1724  135.4523  154.9920 H   0  0  0  0  0  0  0  0  0  0  0  0  # atno 10763 bound_to 10752
  154.7975  135.3243  154.7634 H   0  0  0  0  0  0  0  0  0  0  0  0  # atno 10764 bound_to 10752
  153.8108  135.6955  153.4896 H   0  0  0  0  0  0  0  0  0  0  0  0  # atno 10765 bound_to 10752
  139.9732  134.9571  156.9443 H   0  0  0  0  0  0  0  0  0  0  0  0  # atno 11005 bound_to 11000
  144.8617  140.7148  143.6103 LP  0  0  0  0  0  0  0  0  0  0  0  0  # atno 17320 bound_to 7965
  145.3586  139.1687  143.4395 LP  0  0  0  0  0  0  0  0  0  0  0  0  # atno 17321 bound_to 7965
  140.7081  143.7460  150.7518 LP  0  0  0  0  0  0  0  0  0  0  0  0  # atno 17342 bound_to 10162
  140.0991  143.4805  152.2435 LP  0  0  0  0  0  0  0  0  0  0  0  0  # atno 17343 bound_to 10162
  157.4508  130.7597  149.7149 LP  0  0  0  0  0  0  0  0  0  0  0  0  # atno 17370 bound_to 10713
  155.9837  130.3998  150.3352 LP  0  0  0  0  0  0  0  0  0  0  0  0  # atno 17371 bound_to 10713
  140.5249  134.0870  155.7301 LP  0  0  0  0  0  0  0  0  0  0  0  0  # atno 17394 bound_to 11000
  141.1411  133.9137  157.2324 LP  0  0  0  0  0  0  0  0  0  0  0  0  # atno 17395 bound_to 11000

$$$$
