#       Name:                AV-unprocessed.smi:379
#       Creating user name   scv26
#       Creation time:       Thu Mar 26 22:40:06 2020


#       File generated by GOLD software.
#

@<TRIPOS>MOLECULE
AV-unprocessed.smi:379
    46    47     1
SMALL
NO_CHARGES


@<TRIPOS>ATOM
      1 ****        -3.0531  -2.7675  -0.9132 C.3            1 S1                 0.0000
      2 ****        -3.5010  -2.9348   0.5464 C.3            1 S1                 0.0000
      3 ****        -3.1762  -1.7281   1.4503 C.3            1 S1                 0.0000
      4 ****        -3.7235  -1.9256   2.8708 C.3            1 S1                 0.0000
      5 ****        -1.7333  -1.5036   1.5223 N.am           1 S1                 0.0000
      6 ****        -1.0531  -0.5380   0.8844 C.2            1 S1                 0.0000
      7 ****        -1.5874   0.3020   0.1588 O.2            1 S1                 0.0000
      8 ****         0.4658  -0.5276   1.1116 C.3            1 S1                 0.0000
      9 ****         1.2135   0.1189   0.0111 N.am           1 S1                 0.0000
     10 ****         1.5359  -0.6584  -1.1310 C.2            1 S1                 0.0000
     11 ****         1.2255  -1.8494  -1.1961 O.2            1 S1                 0.0000
     12 ****         2.2326   0.0527  -2.2000 C.2            1 S1                 0.0000
     13 ****         2.5450  -0.6867  -3.3777 C.1            1 S1                 0.0000
     14 ****         2.8109  -1.2676  -4.3428 N.1            1 S1                 0.0000
     15 ****         2.5569   1.3557  -2.0713 C.2            1 S1                 0.0000
     16 ****         2.2688   2.0829  -0.9370 N.am           1 S1                 0.0000
     17 ****         2.4808   3.5019  -0.8841 C.3            1 S1                 0.0000
     18 ****         3.8644   4.0480  -1.1620 C.3            1 S1                 0.0000
     19 ****         3.3005   4.1118   0.2365 C.3            1 S1                 0.0000
     20 ****         1.5381   1.4930   0.1178 C.2            1 S1                 0.0000
     21 ****         1.1833   2.1552   1.0962 O.2            1 S1                 0.0000
     22 ****        -3.3784  -3.6154  -1.5161 H              1 S1                 0.0000
     23 ****        -1.9677  -2.7057  -0.9960 H              1 S1                 0.0000
     24 ****        -3.4757  -1.8643  -1.3539 H              1 S1                 0.0000
     25 ****        -4.5783  -3.1049   0.5583 H              1 S1                 0.0000
     26 ****        -3.0489  -3.8380   0.9584 H              1 S1                 0.0000
     27 ****        -3.6699  -0.8479   1.0346 H              1 S1                 0.0000
     28 ****        -4.8052  -2.0622   2.8584 H              1 S1                 0.0000
     29 ****        -3.5093  -1.0601   3.4988 H              1 S1                 0.0000
     30 ****        -3.2834  -2.8015   3.3489 H              1 S1                 0.0000
     31 ****        -1.2064  -2.1453   2.0970 H              1 S1                 0.0000
     32 ****         0.6625  -0.0450   2.0697 H              1 S1                 0.0000
     33 ****         0.8152  -1.5518   1.2552 H              1 S1                 0.0000
     34 ****         3.0668   1.8502  -2.8856 H              1 S1                 0.0000
     35 ****         1.6523   4.1076  -1.2473 H              1 S1                 0.0000
     36 ****         4.6701   3.3385  -1.3413 H              1 S1                 0.0000
     37 ****         3.9327   4.9799  -1.7197 H              1 S1                 0.0000
     38 ****         2.9908   5.0853   0.6110 H              1 S1                 0.0000
     39 ****         3.7366   3.4452   0.9784 H              1 S1                 0.0000
     40 ****        -2.5777   0.2862   0.0208 LP             1 S1                 0.0000
     41 ****        -1.0308   0.9997  -0.2922 LP             1 S1                 0.0000
     42 ****         0.7391  -2.2815  -0.4367 LP             1 S1                 0.0000
     43 ****         1.4601  -2.3836  -2.0083 LP             1 S1                 0.0000
     44 ****         3.0407  -1.7695  -5.1766 LP             1 S1                 0.0000
     45 ****         0.6584   1.7225   1.8291 LP             1 S1                 0.0000
     46 ****         1.4207   3.1248   1.1564 LP             1 S1                 0.0000
@<TRIPOS>BOND
    1    1    2 1     
    2    1   22 1     
    3    1   23 1     
    4    1   24 1     
    5    2    3 1     
    6    2   25 1     
    7    2   26 1     
    8    3    4 1     
    9    3    5 1     
   10    3   27 1     
   11    4   28 1     
   12    4   29 1     
   13    4   30 1     
   14    5    6 am    
   15    5   31 1     
   16    6    7 2     
   17    6    8 1     
   18    8    9 1     
   19    8   32 1     
   20    8   33 1     
   21    9   20 am    
   22    9   10 am    
   23   10   11 2     
   24   10   12 1     
   25   12   13 1     
   26   12   15 2     
   27   13   14 3     
   28   15   16 1     
   29   15   34 1     
   30   16   17 1     
   31   16   20 am    
   32   17   19 1     
   33   17   18 1     
   34   17   35 1     
   35   18   19 1     
   36   18   36 1     
   37   18   37 1     
   38   19   38 1     
   39   19   39 1     
   40   20   21 2     
   41    7   40 1     
   42    7   41 1     
   43   11   42 1     
   44   11   43 1     
   45   14   44 1     
   46   21   45 1     
   47   21   46 1     
@<TRIPOS>SUBSTRUCTURE
      1 S1             1
@<TRIPOS>SET
LONE_PAIRS      STATIC     ATOMS    <user>   **** ""
7 40 41 42 43 44 45 46
DONOR_HYDROGENS      STATIC     ATOMS    <user>   **** ""
1 31
ATOM$BLUE        STATIC     ATOMS    COLORGROUP SYSTEM
7 40 41 42 43 44 45 46
ATOM$RED        STATIC     ATOMS    COLORGROUP SYSTEM
1 31
