AV-unprocessed.smi:370|AV-procd|sdf|2439|dock3
  -GOLD-   2262022383D 1   1.00000     0.00000
 Structure written by MMmdl.
 42 43  0  0  0  0  0  0  0  0  3 V2000
  145.7871  133.0099  161.9131 C   0  0  0  0  0  0  0  0  0  0  0  0
  144.8308  133.0138  160.7699 C   0  0  0  0  0  0  0  0  0  0  0  0
  144.8812  133.5659  159.5216 C   0  0  0  0  0  0  0  0  0  0  0  0
  143.6395  133.1814  158.9460 C   0  0  0  0  0  0  0  0  0  0  0  0
  143.2100  133.4991  157.7151 N   0  5  0  0  0  0  0  0  0  0  0  0
  143.8287  134.4718  157.0085 C   0  0  0  0  0  0  0  0  0  0  0  0
  144.5460  135.3648  157.4652 O   0  0  0  0  0  0  0  0  0  0  0  0
  143.5905  134.4102  155.6904 N   0  0  0  0  0  0  0  0  0  0  0  0
  144.0995  135.3257  154.6694 C   0  0  0  0  0  0  0  0  0  0  0  0
  143.6590  134.9685  153.2161 C   0  0  0  0  0  0  0  0  0  0  0  0
  142.1077  134.9900  153.1765 C   0  0  0  0  0  0  0  0  0  0  0  0
  144.1704  136.0245  152.2052 C   0  0  0  0  0  0  0  0  0  0  0  0
  144.1933  133.5964  152.8829 N   0  3  0  0  0  0  0  0  0  0  0  0
  143.9146  133.0917  151.5074 C   0  0  0  0  0  0  0  0  0  0  0  0
  144.3757  131.6311  151.3558 C   0  0  0  0  0  0  0  0  0  0  0  0
  145.7543  131.5151  151.6761 O   0  0  0  0  0  0  0  0  0  0  0  0
  146.0123  131.8996  153.0185 C   0  0  0  0  0  0  0  0  0  0  0  0
  145.6335  133.3767  153.2042 C   0  0  0  0  0  0  0  0  0  0  0  0
  142.8943  132.4726  159.7773 N   0  0  0  0  0  0  0  0  0  0  0  0
  143.6541  132.3548  160.9474 O   0  0  0  0  0  0  0  0  0  0  0  0
  145.9861  134.0267  162.2517 H   0  0  0  0  0  0  0  0  0  0  0  0
  146.7352  132.5588  161.6203 H   0  0  0  0  0  0  0  0  0  0  0  0
  145.3904  132.4448  162.7568 H   0  0  0  0  0  0  0  0  0  0  0  0
  145.6796  134.1488  159.0874 H   0  0  0  0  0  0  0  0  0  0  0  0
  142.9980  133.6584  155.3693 H   0  0  0  0  0  0  0  0  0  0  0  0
  143.8191  136.3412  154.9438 H   0  0  0  0  0  0  0  0  0  0  0  0
  145.1877  135.2998  154.7336 H   0  0  0  0  0  0  0  0  0  0  0  0
  141.7026  135.9448  153.5125 H   0  0  0  0  0  0  0  0  0  0  0  0
  141.6800  134.2163  153.8152 H   0  0  0  0  0  0  0  0  0  0  0  0
  141.7184  134.8527  152.1675 H   0  0  0  0  0  0  0  0  0  0  0  0
  143.6867  136.9896  152.3583 H   0  0  0  0  0  0  0  0  0  0  0  0
  143.9656  135.7315  151.1756 H   0  0  0  0  0  0  0  0  0  0  0  0
  145.2431  136.1944  152.2979 H   0  0  0  0  0  0  0  0  0  0  0  0
  142.8502  133.1084  151.2802 H   0  0  0  0  0  0  0  0  0  0  0  0
  144.4156  133.7204  150.7704 H   0  0  0  0  0  0  0  0  0  0  0  0
  143.7867  130.9709  151.9947 H   0  0  0  0  0  0  0  0  0  0  0  0
  144.2240  131.2951  150.3299 H   0  0  0  0  0  0  0  0  0  0  0  0
  145.4606  131.2625  153.7117 H   0  0  0  0  0  0  0  0  0  0  0  0
  147.0725  131.7550  153.2271 H   0  0  0  0  0  0  0  0  0  0  0  0
  146.2616  133.9848  152.5521 H   0  0  0  0  0  0  0  0  0  0  0  0
  145.8691  133.6629  154.2266 H   0  0  0  0  0  0  0  0  0  0  0  0
  143.6822  132.9737  153.4922 H   0  0  0  0  0  0  0  0  0  0  0  0
  1  2  1  0  0  0  0
  1 21  1  0  0  0  0
  1 22  1  0  0  0  0
  1 23  1  0  0  0  0
  2 20  1  0  0  0  0
  2  3  2  0  0  0  0
  3  4  1  0  0  0  0
  3 24  1  0  0  0  0
  4  5  1  0  0  0  0
  4 19  2  0  0  0  0
  5  6  1  0  0  0  0
  6  7  2  0  0  0  0
  6  8  1  0  0  0  0
  8  9  1  0  0  0  0
  8 25  1  0  0  0  0
  9 10  1  0  0  0  0
  9 26  1  0  0  0  0
  9 27  1  0  0  0  0
 10 11  1  0  0  0  0
 10 12  1  0  0  0  0
 10 13  1  0  0  0  0
 11 28  1  0  0  0  0
 11 29  1  0  0  0  0
 11 30  1  0  0  0  0
 12 31  1  0  0  0  0
 12 32  1  0  0  0  0
 12 33  1  0  0  0  0
 13 18  1  0  0  0  0
 13 14  1  0  0  0  0
 13 42  1  0  0  0  0
 14 15  1  0  0  0  0
 14 34  1  0  0  0  0
 14 35  1  0  0  0  0
 15 16  1  0  0  0  0
 15 36  1  0  0  0  0
 15 37  1  0  0  0  0
 16 17  1  0  0  0  0
 17 18  1  0  0  0  0
 17 38  1  0  0  0  0
 17 39  1  0  0  0  0
 18 40  1  0  0  0  0
 18 41  1  0  0  0  0
 19 20  1  0  0  0  0
M  CHG  1   5  -1
M  CHG  1  13   1
M  END
> <s_m_source_file>
AV-unprocessed.smi

> <i_m_source_file_index>
370

> <i_lp_mmshare_version>
43012

> <i_f3d_flags>
0

> <s_epik_input>
W0NIM11jMVtjSF1jKG5vMSlbTkhdQyg9TylbTkhdW0NIMl1DKFtDSDNdKShbQ0gzXSlOMltDSDJdW0NIMl1PW0NIMl1bQ0gyXTI=

> <s_epik_cmdline>
J2VwaWtfcHl0aG9uJywgJy1waCcsICc3LjAnLCAnLXRuJywgJzgnLCAnLW1hJywgJzIwMCcsICctbWV0YWxfYmluZGluZycsICctaW1hZScsICc8aW5maWxlLm1hZT4nLCAnLW9tYWUnLCAnPG91dGZpbGUubWFlPic=

> <r_epik_Ionization_Penalty>
6.73014

> <r_epik_Ionization_Penalty_Charging>
6.73004

> <r_epik_Ionization_Penalty_Neutral>
9.76201e-05

> <r_epik_State_Penalty>
6.93052

> <r_epik_Charging_Adjusted_Penalty>
13.6606

> <i_epik_Tot_Q>
0

> <i_epik_Tot_abs_Q>
2

> <r_epik_Metal_State_Penalty>
2.86736

> <b_epik_Metal_Only>
1

> <s_lp_Force_Field>
OPLS_2005

> <r_lp_Energy>
13.9603

> <b_lp_Chiralities_Consistent>
1

> <s_lp_Variant>
AV-unprocessed.smi:370-4

> <Gold.Version>
5.8.1

> <Gold.Id.Protein>
6NUR|6NUR_protein|mol2

> <Gold.PLP.Fitness>
34.6720

> <Gold.PLP.PLP>
-23.1163

> <Gold.PLP.part.hbond>
-3.0655

> <Gold.PLP.part.metal>
0.0000

> <Gold.PLP.part.buried>
-5.7564

> <Gold.PLP.part.nonpolar>
-14.4730

> <Gold.PLP.part.repulsive>
0.3416

> <Gold.PLP.ligand.clash>
0.0000

> <Gold.PLP.ligand.torsion>
0.2804

> <Gold.PLP.Chemscore.Hbond>
4.0000

> <Gold.PLP.Chemscore.CHOScore>
0.0000

> <Gold.PLP.Chemscore.Metal>
0.0000

> <Gold.Chemscore.Hbonds>
donor molecule, donor type, donor heavy atom, donor atom, acceptor molecule, acceptor atom, score
      L1  H     8    25       P1 10957  1.00
      L1  H    13    42       P1 10957  1.98
      P1  H 11000 11005       L1     5  0.75

> <Gold.PLP.Chemscore.Internal.Correction>
0.1166

> <Gold.Rescore>
     Score         DG    S(hbond)    S(metal)    S(lipo)     H(rot)  DE(clash)    DE(int)     intcor
     13.60     -15.31       2.39        0.00      50.04       1.57       0.00       1.71       ----

> <Gold.Chemscore.Fitness>
13.6033

> <Gold.Chemscore.DG>
-15.3085

> <Gold.Chemscore.ZeroCoef>
-5.4800

> <Gold.Chemscore.Hbond>
2.3931

> <Gold.Chemscore.Metal>
0.0000

> <Gold.Chemscore.Lipo>
50.0418

> <Gold.Chemscore.Internal_Hbond>
0.0000

> <Gold.Chemscore.DEClash>
0.0000

> <Gold.Chemscore.DEInternal>
1.7053

> <Gold.Chemscore.Rot>
1.5701

> <Gold.Chemscore.Internal.Correction>
   9.000000E+99

> <Gold.Chemscore.Hbonds>
donor molecule, donor type, donor heavy atom, donor atom, acceptor molecule, acceptor atom, score
      L1  H     8    25       P1 10957  0.93
      L1  H    13    42       P1 10957  0.76
      P1  H 11000 11005       L1     5  0.19

> <Gold.Chemscore.Hbond.Weighted>
-7.9930

> <Gold.Chemscore.Metal.Weighted>
-0.0000

> <Gold.Chemscore.Lipo.Weighted>
-5.8549

> <Gold.Chemscore.Internal_Hbond.Weighted>
0.0000

> <Gold.Chemscore.DEClash.Weighted>
0.0000

> <Gold.Chemscore.DEInternal.Weighted>
1.7053

> <Gold.Chemscore.Rot.Weighted>
4.0194

> <Gold.Chemscore.Internal.Correction.Weighted>
   9.000000E+99

> <Gold.Protein.RotatedTorsions>
[ 6907 6896 6895 6894 ] final  148.63 input  -60.11 | X-H torsion
[ 7974 7965 7964 7962 ] final -131.81 input  175.53 | X-H torsion
[ 8008 7997 7996 7995 ] final   97.66 input   59.86 | X-H torsion
[ 10167 10162 10161 10158 ] final   11.17 input  -65.29 | X-H torsion
[ 10718 10713 10712 10709 ] final -141.87 input   66.30 | X-H torsion
[ 10763 10752 10751 10750 ] final  -69.33 input  -60.55 | X-H torsion
[ 11005 11000 10999 10996 ] final -102.76 input  -57.11 | X-H torsion

> <Gold.Protein.ActiveResidues>
 VAL166  LYS551  ARG553  GLY616  TRP617  ASP618  TYR619  PRO620  LYS621  CYS622 
 ASP623  PHE694  ASN695  SER759  ASP760  ASP761  ALA762  ILE779  LEU786  VAL792 
 PHE793  MET794  SER795  GLU796  ALA797  LYS798  CYS799  TRP800  GLU811  SER814 

> <Gold.Protein.RotatedAtoms>
  152.1388  133.4451  159.4756 H   0  0  0  0  0  0  0  0  0  0  0  0  # atno 6907 bound_to 6896
  150.6884  134.2330  159.4451 H   0  0  0  0  0  0  0  0  0  0  0  0  # atno 6908 bound_to 6896
  152.0219  134.9817  160.0621 H   0  0  0  0  0  0  0  0  0  0  0  0  # atno 6909 bound_to 6896
  144.9344  140.7166  143.4886 H   0  0  0  0  0  0  0  0  0  0  0  0  # atno 7974 bound_to 7965
  156.0925  140.3255  155.7834 H   0  0  0  0  0  0  0  0  0  0  0  0  # atno 8008 bound_to 7997
  155.4973  140.0566  157.2962 H   0  0  0  0  0  0  0  0  0  0  0  0  # atno 8009 bound_to 7997
  154.4646  140.1983  156.0168 H   0  0  0  0  0  0  0  0  0  0  0  0  # atno 8010 bound_to 7997
  140.6148  143.8330  150.7106 H   0  0  0  0  0  0  0  0  0  0  0  0  # atno 10167 bound_to 10162
  156.3392  130.7628  151.1761 H   0  0  0  0  0  0  0  0  0  0  0  0  # atno 10718 bound_to 10713
  154.4019  135.6029  153.5902 H   0  0  0  0  0  0  0  0  0  0  0  0  # atno 10763 bound_to 10752
  152.9788  135.5908  154.4174 H   0  0  0  0  0  0  0  0  0  0  0  0  # atno 10764 bound_to 10752
  154.3973  135.2842  155.2096 H   0  0  0  0  0  0  0  0  0  0  0  0  # atno 10765 bound_to 10752
  141.1175  133.8584  157.1400 H   0  0  0  0  0  0  0  0  0  0  0  0  # atno 11005 bound_to 11000
  145.3090  139.1825  143.4649 LP  0  0  0  0  0  0  0  0  0  0  0  0  # atno 17320 bound_to 7965
  146.3260  140.3092  142.8625 LP  0  0  0  0  0  0  0  0  0  0  0  0  # atno 17321 bound_to 7965
  140.1907  143.4038  152.1865 LP  0  0  0  0  0  0  0  0  0  0  0  0  # atno 17342 bound_to 10162
  139.5390  144.7238  151.4797 LP  0  0  0  0  0  0  0  0  0  0  0  0  # atno 17343 bound_to 10162
  157.7444  131.0459  150.4868 LP  0  0  0  0  0  0  0  0  0  0  0  0  # atno 17370 bound_to 10713
  156.5046  130.4125  149.6334 LP  0  0  0  0  0  0  0  0  0  0  0  0  # atno 17371 bound_to 10713
  140.0108  134.9989  157.0391 LP  0  0  0  0  0  0  0  0  0  0  0  0  # atno 17394 bound_to 11000
  140.4603  134.1491  155.7190 LP  0  0  0  0  0  0  0  0  0  0  0  0  # atno 17395 bound_to 11000

$$$$
