#       Name:                AV-unprocessed.smi:1521
#       Creating user name   scv26
#       Creation time:       Fri Mar 27 06:27:14 2020


#       File generated by GOLD software.
#

@<TRIPOS>MOLECULE
AV-unprocessed.smi:1521
    44    45     1
SMALL
NO_CHARGES


@<TRIPOS>ATOM
      1 ****         0.5089   1.0598  -0.8011 O.2            1 S1                 0.0000
      2 ****        -0.0266  -0.0476  -0.8486 C.2            1 S1                 0.0000
      3 ****         0.6621  -1.1966  -0.8859 N.am           1 S1                 0.0000
      4 ****         2.1169  -1.3055  -0.8653 C.3            1 S1                 0.0000
      5 ****         2.6695  -1.2464   0.5689 C.3            1 S1                 0.0000
      6 ****         4.2099  -1.3050   0.5963 C.3            1 S1                 0.0000
      7 ****         4.6571  -1.2951   1.9459 O.3            1 S1                 0.0000
      8 ****         4.1469  -2.4079   2.6677 C.3            1 S1                 0.0000
      9 ****         2.6103  -2.3587   2.6440 C.3            1 S1                 0.0000
     10 ****         2.1691  -2.3662   1.2928 O.3            1 S1                 0.0000
     11 ****        -1.3517  -0.2819  -0.8496 N.am           1 S1                 0.0000
     12 ****        -2.4134   0.6381  -0.8552 C.2            1 S1                 0.0000
     13 ****        -2.3090   1.9377  -1.2376 C.2            1 S1                 0.0000
     14 ****        -3.4519   2.8357  -1.2382 C.2            1 S1                 0.0000
     15 ****        -3.3085   4.3080  -1.5916 C.3            1 S1                 0.0000
     16 ****        -4.1990   5.0521  -0.9346 F              1 S1                 0.0000
     17 ****        -2.0883   4.7552  -1.2938 F              1 S1                 0.0000
     18 ****        -3.5063   4.4809  -2.8978 F              1 S1                 0.0000
     19 ****        -4.6239   2.3153  -0.8297 C.2            1 S1                 0.0000
     20 ****        -4.7442   0.9748  -0.4563 N.am           1 S1                 0.0000
     21 ****        -3.7183   0.0945  -0.4436 C.2            1 S1                 0.0000
     22 ****        -3.9061  -1.0730  -0.1030 O.2            1 S1                 0.0000
     23 ****        -5.6611   0.6562  -0.1781 H              1 S1                 0.0000
     24 ****         0.1433  -2.0622  -0.9150 H              1 S1                 0.0000
     25 ****         2.3970  -2.2482  -1.3358 H              1 S1                 0.0000
     26 ****         2.5571  -0.5145  -1.4748 H              1 S1                 0.0000
     27 ****         2.3363  -0.3239   1.0479 H              1 S1                 0.0000
     28 ****         4.5786  -2.1964   0.0859 H              1 S1                 0.0000
     29 ****         4.6327  -0.4428   0.0801 H              1 S1                 0.0000
     30 ****         4.5128  -3.3390   2.2328 H              1 S1                 0.0000
     31 ****         4.5127  -2.3663   3.6938 H              1 S1                 0.0000
     32 ****         2.1950  -3.2245   3.1596 H              1 S1                 0.0000
     33 ****         2.2406  -1.4701   3.1578 H              1 S1                 0.0000
     34 ****        -1.6358  -1.2499  -0.8040 H              1 S1                 0.0000
     35 ****        -1.3691   2.3397  -1.5795 H              1 S1                 0.0000
     36 ****        -5.5444   2.8753  -0.7535 H              1 S1                 0.0000
     37 ****         1.5062   1.1328  -0.7887 LP             1 S1                 0.0000
     38 ****        -0.0533   1.8863  -0.7749 LP             1 S1                 0.0000
     39 ****         4.3472  -0.4521   2.3854 LP             1 S1                 0.0000
     40 ****         5.6565  -1.3295   1.9581 LP             1 S1                 0.0000
     41 ****         2.4880  -3.2055   0.8524 LP             1 S1                 0.0000
     42 ****         1.1695  -2.3412   1.2781 LP             1 S1                 0.0000
     43 ****        -3.1437  -1.7201  -0.0943 LP             1 S1                 0.0000
     44 ****        -4.8210  -1.3747   0.1650 LP             1 S1                 0.0000
@<TRIPOS>BOND
    1    1    2 2     
    2    2    3 am    
    3    2   11 am    
    4    3    4 1     
    5    3   24 1     
    6    4    5 1     
    7    4   25 1     
    8    4   26 1     
    9    5   10 1     
   10    5    6 1     
   11    5   27 1     
   12    6    7 1     
   13    6   28 1     
   14    6   29 1     
   15    7    8 1     
   16    8    9 1     
   17    8   30 1     
   18    8   31 1     
   19    9   10 1     
   20    9   32 1     
   21    9   33 1     
   22   11   12 1     
   23   11   34 1     
   24   12   21 1     
   25   12   13 2     
   26   13   14 1     
   27   13   35 1     
   28   14   15 1     
   29   14   19 2     
   30   15   16 1     
   31   15   17 1     
   32   15   18 1     
   33   19   20 1     
   34   19   36 1     
   35   20   23 1     
   36   20   21 am    
   37   21   22 2     
   38    1   37 1     
   39    1   38 1     
   40    7   39 1     
   41    7   40 1     
   42   10   41 1     
   43   10   42 1     
   44   22   43 1     
   45   22   44 1     
@<TRIPOS>SUBSTRUCTURE
      1 S1             1
@<TRIPOS>SET
LONE_PAIRS      STATIC     ATOMS    <user>   **** ""
8 37 38 39 40 41 42 43 44
DONOR_HYDROGENS      STATIC     ATOMS    <user>   **** ""
3 24 34 23
ATOM$BLUE        STATIC     ATOMS    COLORGROUP SYSTEM
8 37 38 39 40 41 42 43 44
ATOM$RED        STATIC     ATOMS    COLORGROUP SYSTEM
3 24 34 23
