#       Name:                AV-unprocessed.smi:1880
#       Creating user name   scv26
#       Creation time:       Fri Mar 27 09:36:36 2020


#       File generated by GOLD software.
#

@<TRIPOS>MOLECULE
AV-unprocessed.smi:1880
    43    45     1
SMALL
NO_CHARGES


@<TRIPOS>ATOM
      1 ****        -0.4700  -0.0921  -2.0239 O.3            1 S1                 0.0000
      2 ****         0.1101   0.4702  -0.8631 C.3            1 S1                 0.0000
      3 ****         1.6386   0.3965  -0.9986 C.3            1 S1                 0.0000
      4 ****         2.0606  -0.9145  -0.6636 O.3            1 S1                 0.0000
      5 ****         3.4633  -1.0910  -0.7828 C.3            1 S1                 0.0000
      6 ****         3.7791  -2.5006  -0.3962 C.2            1 S1                 0.0000
      7 ****         4.8610  -3.3075  -0.6194 C.2            1 S1                 0.0000
      8 ****         4.5767  -4.5486   0.0145 C.2            1 S1                 0.0000
      9 ****         3.3447  -4.4057   0.5860 C.2            1 S1                 0.0000
     10 ****         2.8457  -3.1623   0.3484 O.3            1 S1                 0.0000
     11 ****        -0.3886   1.9209  -0.7114 C.3            1 S1                 0.0000
     12 ****        -1.8512   2.0104  -0.6070 N.pl3          1 S1                 0.0000
     13 ****        -2.7800   2.2960  -1.5596 C.2            1 S1                 0.0000
     14 ****        -4.0052   2.2459  -0.9666 N.pl3          1 S1                 1.0000
     15 ****        -3.8565   1.9234   0.3845 C.ar           1 S1                 0.0000
     16 ****        -4.8006   1.7559   1.3924 C.ar           1 S1                 0.0000
     17 ****        -4.3109   1.4237   2.6728 C.ar           1 S1                 0.0000
     18 ****        -5.1872   1.2494   3.6901 F              1 S1                 0.0000
     19 ****        -2.9289   1.2697   2.9131 C.ar           1 S1                 0.0000
     20 ****        -2.5014   0.9494   4.1572 F              1 S1                 0.0000
     21 ****        -1.9807   1.4419   1.8829 C.ar           1 S1                 0.0000
     22 ****        -2.4745   1.7709   0.6217 C.ar           1 S1                 0.0000
     23 ****        -0.1564  -0.9797  -2.1128 H              1 S1                 0.0000
     24 ****        -0.2064  -0.1097   0.0047 H              1 S1                 0.0000
     25 ****         1.9606   0.6777  -2.0031 H              1 S1                 0.0000
     26 ****         2.1054   1.0941  -0.3012 H              1 S1                 0.0000
     27 ****         3.7854  -0.9012  -1.8076 H              1 S1                 0.0000
     28 ****         3.9934  -0.3976  -0.1288 H              1 S1                 0.0000
     29 ****         5.7479  -3.0379  -1.1738 H              1 S1                 0.0000
     30 ****         5.1961  -5.4326   0.0505 H              1 S1                 0.0000
     31 ****         2.7079  -5.0542   1.1695 H              1 S1                 0.0000
     32 ****         0.0494   2.3971   0.1667 H              1 S1                 0.0000
     33 ****        -0.0845   2.5189  -1.5719 H              1 S1                 0.0000
     34 ****        -2.5807   2.5154  -2.5988 H              1 S1                 0.0000
     35 ****        -5.8592   1.8718   1.2129 H              1 S1                 0.0000
     36 ****        -0.9253   1.3203   2.0763 H              1 S1                 0.0000
     37 ****        -4.8764   2.4167  -1.4525 H              1 S1                 0.0000
     38 ****        -0.2053   0.4420  -2.8268 LP             1 S1                 0.0000
     39 ****        -1.4663  -0.0926  -1.9377 LP             1 S1                 0.0000
     40 ****         1.6046  -1.5622  -1.2741 LP             1 S1                 0.0000
     41 ****         1.7945  -1.1035   0.2816 LP             1 S1                 0.0000
     42 ****         1.9849  -3.2271  -0.1565 LP             1 S1                 0.0000
     43 ****         2.6904  -2.6825   1.2119 LP             1 S1                 0.0000
@<TRIPOS>BOND
    1    1    2 1     
    2    1   23 1     
    3    2    3 1     
    4    2   11 1     
    5    2   24 1     
    6    3    4 1     
    7    3   25 1     
    8    3   26 1     
    9    4    5 1     
   10    5    6 1     
   11    5   27 1     
   12    5   28 1     
   13    6   10 1     
   14    6    7 2     
   15    7    8 1     
   16    7   29 1     
   17    8    9 2     
   18    8   30 1     
   19    9   10 1     
   20    9   31 1     
   21   11   12 1     
   22   11   32 1     
   23   11   33 1     
   24   12   22 1     
   25   12   13 1     
   26   13   14 2     
   27   13   34 1     
   28   14   15 1     
   29   14   37 1     
   30   15   22 ar    
   31   15   16 ar    
   32   16   17 ar    
   33   16   35 1     
   34   17   18 1     
   35   17   19 ar    
   36   19   20 1     
   37   19   21 ar    
   38   21   22 ar    
   39   21   36 1     
   40    1   38 1     
   41    1   39 1     
   42    4   40 1     
   43    4   41 1     
   44   10   42 1     
   45   10   43 1     
@<TRIPOS>SUBSTRUCTURE
      1 S1             1
@<TRIPOS>SET
LONE_PAIRS      STATIC     ATOMS    <user>   **** ""
6 38 39 40 41 42 43
DONOR_HYDROGENS      STATIC     ATOMS    <user>   **** ""
2 23 37
ATOM$BLUE        STATIC     ATOMS    COLORGROUP SYSTEM
6 38 39 40 41 42 43
ATOM$RED        STATIC     ATOMS    COLORGROUP SYSTEM
2 23 37
