#       Name:                AV-unprocessed.smi:718
#       Creating user name   scv26
#       Creation time:       Fri Mar 27 00:48:47 2020


#       File generated by GOLD software.
#

@<TRIPOS>MOLECULE
AV-unprocessed.smi:718
    34    35     1
SMALL
NO_CHARGES


@<TRIPOS>ATOM
      1 ****        -0.6862   1.9221   0.5758 O.2            1 S1                 0.0000
      2 ****        -0.0447   0.8796   0.4401 C.2            1 S1                 0.0000
      3 ****        -0.5995  -0.3440   0.3412 N.am           1 S1                 0.0000
      4 ****        -1.9758  -0.6933   0.3425 C.ar           1 S1                 0.0000
      5 ****        -2.2421  -2.0747   0.2121 C.ar           1 S1                 0.0000
      6 ****        -3.5761  -2.5273   0.2014 C.ar           1 S1                 0.0000
      7 ****        -3.9118  -4.2145   0.0427 Cl             1 S1                 0.0000
      8 ****        -4.6136  -1.5809   0.3224 C.ar           1 S1                 0.0000
      9 ****        -6.2758  -2.0510   0.3184 Cl             1 S1                 0.0000
     10 ****        -4.2600  -0.2247   0.4483 C.ar           1 S1                 0.0000
     11 ****        -2.9819   0.2089   0.4584 N.ar           1 S1                 0.0000
     12 ****         1.4908   0.9235   0.4037 C.3            1 S1                 0.0000
     13 ****         2.0416   2.2844  -0.0825 C.3            1 S1                 0.0000
     14 ****         3.4617   2.2306  -0.1228 O.3            1 S1                 0.0000
     15 ****         3.9174   1.2129  -1.0029 C.3            1 S1                 0.0000
     16 ****         3.3832  -0.1433  -0.5150 C.3            1 S1                 0.0000
     17 ****         1.9633  -0.0943  -0.4768 O.3            1 S1                 0.0000
     18 ****         0.0459  -1.1138   0.2407 H              1 S1                 0.0000
     19 ****        -1.4329  -2.7848   0.1206 H              1 S1                 0.0000
     20 ****        -5.0222   0.5345   0.5441 H              1 S1                 0.0000
     21 ****         1.8501   0.7201   1.4140 H              1 S1                 0.0000
     22 ****         1.6498   2.5409  -1.0684 H              1 S1                 0.0000
     23 ****         1.7501   3.0854   0.5977 H              1 S1                 0.0000
     24 ****         3.5872   1.4184  -2.0223 H              1 S1                 0.0000
     25 ****         5.0073   1.2110  -1.0116 H              1 S1                 0.0000
     26 ****         3.6940  -0.9388  -1.1925 H              1 S1                 0.0000
     27 ****         3.7795  -0.3870   0.4720 H              1 S1                 0.0000
     28 ****        -1.6848   1.8927   0.6189 LP             1 S1                 0.0000
     29 ****        -0.2084   2.7980   0.6428 LP             1 S1                 0.0000
     30 ****        -2.7791   1.1838   0.5502 LP             1 S1                 0.0000
     31 ****         3.8064   2.0435   0.7970 LP             1 S1                 0.0000
     32 ****         3.8119   3.1131  -0.4369 LP             1 S1                 0.0000
     33 ****         1.6211   0.0905  -1.3981 LP             1 S1                 0.0000
     34 ****         1.6174  -0.9789  -0.1640 LP             1 S1                 0.0000
@<TRIPOS>BOND
    1    1    2 2     
    2    2    3 am    
    3    2   12 1     
    4    3    4 1     
    5    3   18 1     
    6    4   11 ar    
    7    4    5 ar    
    8    5    6 ar    
    9    5   19 1     
   10    6    7 1     
   11    6    8 ar    
   12    8    9 1     
   13    8   10 ar    
   14   10   11 ar    
   15   10   20 1     
   16   12   17 1     
   17   12   13 1     
   18   12   21 1     
   19   13   14 1     
   20   13   22 1     
   21   13   23 1     
   22   14   15 1     
   23   15   16 1     
   24   15   24 1     
   25   15   25 1     
   26   16   17 1     
   27   16   26 1     
   28   16   27 1     
   29    1   28 1     
   30    1   29 1     
   31   11   30 1     
   32   14   31 1     
   33   14   32 1     
   34   17   33 1     
   35   17   34 1     
@<TRIPOS>SUBSTRUCTURE
      1 S1             1
@<TRIPOS>SET
LONE_PAIRS      STATIC     ATOMS    <user>   **** ""
7 28 29 30 31 32 33 34
DONOR_HYDROGENS      STATIC     ATOMS    <user>   **** ""
1 18
ATOM$BLUE        STATIC     ATOMS    COLORGROUP SYSTEM
7 28 29 30 31 32 33 34
ATOM$RED        STATIC     ATOMS    COLORGROUP SYSTEM
1 18
