AV-unprocessed.smi:998|AV-procd|sdf|4350|dock2
  -GOLD-   22720 2253D 1   1.00000     0.00000
 Structure written by MMmdl.
 45 47  0  0  0  0  0  0  0  0  2 V2000
  151.1515  137.7192  154.0388 C   0  0  0  0  0  0  0  0  0  0  0  0
  152.2277  138.0767  155.4874 S   0  0  0  0  0  0  0  0  0  0  0  0
  152.3540  136.8445  156.2804 O   0  0  0  0  0  0  0  0  0  0  0  0
  153.4358  138.7617  155.0035 O   0  0  0  0  0  0  0  0  0  0  0  0
  151.3124  139.2188  156.4276 N   0  0  0  0  0  0  0  0  0  0  0  0
  150.0196  138.8260  157.0174 C   0  0  0  0  0  0  0  0  0  0  0  0
  148.8368  139.3270  156.1678 C   0  0  0  0  0  0  0  0  0  0  0  0
  148.9478  140.7575  155.8915 N   0  0  0  0  0  0  0  0  0  0  0  0
  147.8000  141.4387  155.4274 C   0  0  0  0  0  0  0  0  0  0  0  0
  147.5865  141.8012  154.0735 C   0  0  0  0  0  0  0  0  0  0  0  0
  146.4024  142.4722  153.7046 C   0  0  0  0  0  0  0  0  0  0  0  0
  145.4297  142.7727  154.6805 C   0  0  0  0  0  0  0  0  0  0  0  0
  144.2579  143.4588  154.2576 N   0  0  0  0  0  0  0  0  0  0  0  0
  143.5857  144.4417  154.8825 C   0  0  0  0  0  0  0  0  0  0  0  0
  143.8800  144.9197  155.9777 O   0  0  0  0  0  0  0  0  0  0  0  0
  142.5263  144.8354  154.1624 N   0  0  0  0  0  0  0  0  0  0  0  0
  141.5933  145.8452  154.5466 C   0  0  0  0  0  0  0  0  0  0  0  0
  142.1396  147.0844  155.2225 C   0  0  0  0  0  0  0  0  0  0  0  0
  141.3714  146.0718  156.0263 C   0  0  0  0  0  0  0  0  0  0  0  0
  145.6925  142.3989  156.0198 C   0  0  0  0  0  0  0  0  0  0  0  0
  146.8408  141.7591  156.3293 N   0  3  0  0  0  0  0  0  0  0  0  0
  150.2249  141.1512  155.2951 C   0  0  0  0  0  0  0  0  0  0  0  0
  151.4127  140.6621  156.1436 C   0  0  0  0  0  0  0  0  0  0  0  0
  151.6543  136.9983  153.3944 H   0  0  0  0  0  0  0  0  0  0  0  0
  150.9740  138.6320  153.4730 H   0  0  0  0  0  0  0  0  0  0  0  0
  150.2068  137.2934  154.3723 H   0  0  0  0  0  0  0  0  0  0  0  0
  149.9697  137.7445  157.1417 H   0  0  0  0  0  0  0  0  0  0  0  0
  149.9556  139.2539  158.0187 H   0  0  0  0  0  0  0  0  0  0  0  0
  148.7788  138.7822  155.2260 H   0  0  0  0  0  0  0  0  0  0  0  0
  147.9174  139.1211  156.7163 H   0  0  0  0  0  0  0  0  0  0  0  0
  148.3143  141.5864  153.3057 H   0  0  0  0  0  0  0  0  0  0  0  0
  146.2444  142.7508  152.6726 H   0  0  0  0  0  0  0  0  0  0  0  0
  143.8554  143.1332  153.3910 H   0  0  0  0  0  0  0  0  0  0  0  0
  142.3607  144.3837  153.2750 H   0  0  0  0  0  0  0  0  0  0  0  0
  140.7258  145.9956  153.9051 H   0  0  0  0  0  0  0  0  0  0  0  0
  143.2139  147.1444  155.3876 H   0  0  0  0  0  0  0  0  0  0  0  0
  141.6486  148.0311  155.0059 H   0  0  0  0  0  0  0  0  0  0  0  0
  140.3671  146.3416  156.3467 H   0  0  0  0  0  0  0  0  0  0  0  0
  141.9334  145.4568  156.7269 H   0  0  0  0  0  0  0  0  0  0  0  0
  145.0433  142.5886  156.8610 H   0  0  0  0  0  0  0  0  0  0  0  0
  150.2804  140.7430  154.2867 H   0  0  0  0  0  0  0  0  0  0  0  0
  150.3021  142.2335  155.1949 H   0  0  0  0  0  0  0  0  0  0  0  0
  151.4290  141.1995  157.0927 H   0  0  0  0  0  0  0  0  0  0  0  0
  152.3555  140.8878  155.6459 H   0  0  0  0  0  0  0  0  0  0  0  0
  146.9924  141.4994  157.3042 H   0  0  0  0  0  0  0  0  0  0  0  0
  1  2  1  0  0  0  0
  1 24  1  0  0  0  0
  1 25  1  0  0  0  0
  1 26  1  0  0  0  0
  2  3  2  0  0  0  0
  2  4  2  0  0  0  0
  2  5  1  0  0  0  0
  5 23  1  0  0  0  0
  5  6  1  0  0  0  0
  6  7  1  0  0  0  0
  6 27  1  0  0  0  0
  6 28  1  0  0  0  0
  7  8  1  0  0  0  0
  7 29  1  0  0  0  0
  7 30  1  0  0  0  0
  8  9  1  0  0  0  0
  8 22  1  0  0  0  0
  9 21  1  0  0  0  0
  9 10  2  0  0  0  0
 10 11  1  0  0  0  0
 10 31  1  0  0  0  0
 11 12  2  0  0  0  0
 11 32  1  0  0  0  0
 12 13  1  0  0  0  0
 12 20  1  0  0  0  0
 13 14  1  0  0  0  0
 13 33  1  0  0  0  0
 14 15  2  0  0  0  0
 14 16  1  0  0  0  0
 16 17  1  0  0  0  0
 16 34  1  0  0  0  0
 17 19  1  0  0  0  0
 17 18  1  0  0  0  0
 17 35  1  0  0  0  0
 18 19  1  0  0  0  0
 18 36  1  0  0  0  0
 18 37  1  0  0  0  0
 19 38  1  0  0  0  0
 19 39  1  0  0  0  0
 20 21  2  0  0  0  0
 20 40  1  0  0  0  0
 21 45  1  0  0  0  0
 22 23  1  0  0  0  0
 22 41  1  0  0  0  0
 22 42  1  0  0  0  0
 23 43  1  0  0  0  0
 23 44  1  0  0  0  0
M  CHG  1  21   1
M  END
> <s_m_source_file>
AV-unprocessed.smi

> <i_m_source_file_index>
998

> <i_lp_mmshare_version>
43012

> <i_f3d_flags>
0

> <s_epik_input>
W0NIM11TKD1PKSg9TylOMVtDSDJdW0NIMl1OKFtDSDJdW0NIMl0xKWMyW2NIXVtjSF1jKFtjSF1uMilbTkhdQyg9TylbTkhdW0NIXTNbQ0gyXVtDSDJdMw==

> <s_epik_cmdline>
J2VwaWtfcHl0aG9uJywgJy1waCcsICc3LjAnLCAnLXRuJywgJzgnLCAnLW1hJywgJzIwMCcsICctbWV0YWxfYmluZGluZycsICctaW1hZScsICc8aW5maWxlLm1hZT4nLCAnLW9tYWUnLCAnPG91dGZpbGUubWFlPic=

> <r_lp_tautomer_probability>
0.999994

> <r_epik_Ionization_Penalty>
1.4485

> <r_epik_Ionization_Penalty_Charging>
1.44848

> <r_epik_Ionization_Penalty_Neutral>
2.21562e-05

> <r_epik_State_Penalty>
1.53448

> <r_epik_Charging_Adjusted_Penalty>
2.98296

> <i_epik_Tot_Q>
1

> <i_epik_Tot_abs_Q>
1

> <r_epik_Metal_State_Penalty>
1.58455

> <b_epik_Metal_Only>
0

> <s_lp_Force_Field>
OPLS_2005

> <r_lp_Energy>
37.0823

> <b_lp_Chiralities_Consistent>
1

> <s_lp_Variant>
AV-unprocessed.smi:998-2

> <Gold.Version>
5.8.1

> <Gold.Id.Protein>
6NUR|6NUR_protein|mol2

> <Gold.PLP.Fitness>
43.6051

> <Gold.PLP.PLP>
-35.1957

> <Gold.PLP.part.hbond>
-4.0000

> <Gold.PLP.part.metal>
0.0000

> <Gold.PLP.part.buried>
-5.2936

> <Gold.PLP.part.nonpolar>
-26.3791

> <Gold.PLP.part.repulsive>
0.2137

> <Gold.PLP.ligand.clash>
0.0000

> <Gold.PLP.ligand.torsion>
2.1945

> <Gold.PLP.Chemscore.Hbond>
3.4265

> <Gold.PLP.Chemscore.CHOScore>
0.0000

> <Gold.PLP.Chemscore.Metal>
0.0000

> <Gold.Chemscore.Hbonds>
donor molecule, donor type, donor heavy atom, donor atom, acceptor molecule, acceptor atom, score
      L1  H    13    33       P1 10174  0.85
      L1  H    16    34       P1 10174  0.50
      P1  H  7997  8009       L1     4  1.00
      P1  H 10752 10764       L1     3  1.00

> <Gold.PLP.Chemscore.Internal.Correction>
2.5188

> <Gold.Rescore>
     Score         DG    S(hbond)    S(metal)    S(lipo)     H(rot)  DE(clash)    DE(int)     intcor
     15.57     -19.41       2.68        0.00      69.81       1.25       0.33       3.51       ----

> <Gold.Chemscore.Fitness>
15.5675

> <Gold.Chemscore.DG>
-19.4063

> <Gold.Chemscore.ZeroCoef>
-5.4800

> <Gold.Chemscore.Hbond>
2.6806

> <Gold.Chemscore.Metal>
0.0000

> <Gold.Chemscore.Lipo>
69.8078

> <Gold.Chemscore.Internal_Hbond>
0.0000

> <Gold.Chemscore.DEClash>
0.3295

> <Gold.Chemscore.DEInternal>
3.5093

> <Gold.Chemscore.Rot>
1.2479

> <Gold.Chemscore.Internal.Correction>
   9.000000E+99

> <Gold.Chemscore.Hbonds>
donor molecule, donor type, donor heavy atom, donor atom, acceptor molecule, acceptor atom, score
      L1  H    13    33       P1 10174  0.15
      L1  H    16    34       P1 10174  0.48
      P1  H  7997  8009       L1     4  0.93
      P1  H 10752 10764       L1     3  0.56

> <Gold.Chemscore.Hbond.Weighted>
-8.9533

> <Gold.Chemscore.Metal.Weighted>
-0.0000

> <Gold.Chemscore.Lipo.Weighted>
-8.1675

> <Gold.Chemscore.Internal_Hbond.Weighted>
0.0000

> <Gold.Chemscore.DEClash.Weighted>
0.3295

> <Gold.Chemscore.DEInternal.Weighted>
3.5093

> <Gold.Chemscore.Rot.Weighted>
3.1945

> <Gold.Chemscore.Internal.Correction.Weighted>
   9.000000E+99

> <Gold.Protein.RotatedTorsions>
[ 6907 6896 6895 6894 ] final  -54.55 input  -60.11 | X-H torsion
[ 7974 7965 7964 7962 ] final  117.40 input  175.53 | X-H torsion
[ 8008 7997 7996 7995 ] final -128.87 input   59.86 | X-H torsion
[ 10167 10162 10161 10158 ] final   69.66 input  -65.29 | X-H torsion
[ 10718 10713 10712 10709 ] final  -78.86 input   66.30 | X-H torsion
[ 10763 10752 10751 10750 ] final  -23.90 input  -60.55 | X-H torsion
[ 11005 11000 10999 10996 ] final  -49.60 input  -57.11 | X-H torsion

> <Gold.Protein.ActiveResidues>
 VAL166  LYS551  ARG553  GLY616  TRP617  ASP618  TYR619  PRO620  LYS621  CYS622 
 ASP623  PHE694  ASN695  SER759  ASP760  ASP761  ALA762  ILE779  LEU786  VAL792 
 PHE793  MET794  SER795  GLU796  ALA797  LYS798  CYS799  TRP800  GLU811  SER814 

> <Gold.Protein.RotatedAtoms>
  150.8328  134.7589  159.6867 H   0  0  0  0  0  0  0  0  0  0  0  0  # atno 6907 bound_to 6896
  152.4430  134.5549  159.9887 H   0  0  0  0  0  0  0  0  0  0  0  0  # atno 6908 bound_to 6896
  151.5706  133.3353  159.3024 H   0  0  0  0  0  0  0  0  0  0  0  0  # atno 6909 bound_to 6896
  145.1678  139.3118  143.4483 H   0  0  0  0  0  0  0  0  0  0  0  0  # atno 7974 bound_to 7965
  155.2698  140.0439  157.3006 H   0  0  0  0  0  0  0  0  0  0  0  0  # atno 8008 bound_to 7997
  154.5660  140.2360  155.8232 H   0  0  0  0  0  0  0  0  0  0  0  0  # atno 8009 bound_to 7997
  156.2085  140.3005  155.9688 H   0  0  0  0  0  0  0  0  0  0  0  0  # atno 8010 bound_to 7997
  140.0654  144.5198  150.7265 H   0  0  0  0  0  0  0  0  0  0  0  0  # atno 10167 bound_to 10162
  156.0107  130.4530  150.3561 H   0  0  0  0  0  0  0  0  0  0  0  0  # atno 10718 bound_to 10713
  153.6752  135.6969  153.5134 H   0  0  0  0  0  0  0  0  0  0  0  0  # atno 10763 bound_to 10752
  153.2527  135.4270  155.0813 H   0  0  0  0  0  0  0  0  0  0  0  0  # atno 10764 bound_to 10752
  154.8415  135.3535  154.6296 H   0  0  0  0  0  0  0  0  0  0  0  0  # atno 10765 bound_to 10752
  141.0768  133.6663  156.3609 H   0  0  0  0  0  0  0  0  0  0  0  0  # atno 11005 bound_to 11000
  146.3473  140.1813  142.8589 LP  0  0  0  0  0  0  0  0  0  0  0  0  # atno 17320 bound_to 7965
  145.0264  140.8835  143.5136 LP  0  0  0  0  0  0  0  0  0  0  0  0  # atno 17321 bound_to 7965
  140.7152  143.2538  151.4458 LP  0  0  0  0  0  0  0  0  0  0  0  0  # atno 17342 bound_to 10162
  139.5868  144.1586  152.2039 LP  0  0  0  0  0  0  0  0  0  0  0  0  # atno 17343 bound_to 10162
  157.1651  131.0355  151.2822 LP  0  0  0  0  0  0  0  0  0  0  0  0  # atno 17370 bound_to 10713
  157.4277  130.7473  149.6964 LP  0  0  0  0  0  0  0  0  0  0  0  0  # atno 17371 bound_to 10713
  140.5555  134.5985  157.5419 LP  0  0  0  0  0  0  0  0  0  0  0  0  # atno 17394 bound_to 11000
  139.9581  134.7500  156.0297 LP  0  0  0  0  0  0  0  0  0  0  0  0  # atno 17395 bound_to 11000

$$$$
