AV-unprocessed.smi:3170|AV-procd|sdf|12110|dock1
  -GOLD-   2272017543D 1   1.00000     0.00000
 Structure written by MMmdl.
 35 36  0  0  0  0  0  0  0  0  1 V2000
  151.5476  141.5786  157.4907 O   0  0  0  0  0  0  0  0  0  0  0  0
  150.8206  142.5007  157.1212 C   0  0  0  0  0  0  0  0  0  0  0  0
  151.0795  143.7968  157.3426 N   0  0  0  0  0  0  0  0  0  0  0  0
  152.2557  144.3107  158.0381 C   0  0  0  0  0  0  0  0  0  0  0  0
  151.9580  144.6966  159.4997 C   0  0  0  0  0  0  0  0  0  0  0  0
  152.4237  143.6948  160.4399 N   0  0  0  0  0  0  0  0  0  0  0  0
  152.3786  143.7606  161.8259 C   0  0  0  0  0  0  0  0  0  0  0  0
  152.9341  142.5908  162.2930 C   0  0  0  0  0  0  0  0  0  0  0  0
  153.3262  141.7960  161.2185 N   0  0  0  0  0  0  0  0  0  0  0  0
  152.9899  142.5140  160.1549 C   0  0  0  0  0  0  0  0  0  0  0  0
  149.6788  142.3298  156.4435 N   0  0  0  0  0  0  0  0  0  0  0  0
  149.1450  141.0331  156.0478 C   0  0  0  0  0  0  0  0  0  0  0  0
  147.8083  141.1901  155.3049 C   0  0  1  0  0  0  0  0  0  0  0  0
  146.7634  141.9691  156.0766 C   0  0  0  0  0  0  0  0  0  0  0  0
  145.7876  142.3665  154.9733 C   0  0  0  0  0  0  0  0  0  0  0  0
  146.5725  142.5105  153.7927 O   0  0  0  0  0  0  0  0  0  0  0  0
  147.8864  142.0058  154.0131 C   0  0  0  0  0  0  0  0  0  0  0  0
  150.4211  144.4798  156.9974 H   0  0  0  0  0  0  0  0  0  0  0  0
  153.0340  143.5476  158.0054 H   0  0  0  0  0  0  0  0  0  0  0  0
  152.6490  145.1731  157.4977 H   0  0  0  0  0  0  0  0  0  0  0  0
  152.4477  145.6411  159.7390 H   0  0  0  0  0  0  0  0  0  0  0  0
  150.8896  144.8553  159.6525 H   0  0  0  0  0  0  0  0  0  0  0  0
  151.9676  144.6107  162.3501 H   0  0  0  0  0  0  0  0  0  0  0  0
  153.0812  142.2627  163.3114 H   0  0  0  0  0  0  0  0  0  0  0  0
  153.1651  142.1762  159.1439 H   0  0  0  0  0  0  0  0  0  0  0  0
  149.1478  143.1467  156.1795 H   0  0  0  0  0  0  0  0  0  0  0  0
  149.8712  140.5340  155.4049 H   0  0  0  0  0  0  0  0  0  0  0  0
  149.0128  140.4036  156.9294 H   0  0  0  0  0  0  0  0  0  0  0  0
  147.4018  140.2038  155.0737 H   0  0  0  0  0  0  0  0  0  0  0  0
  146.2932  141.3877  156.8702 H   0  0  0  0  0  0  0  0  0  0  0  0
  147.2048  142.8619  156.5222 H   0  0  0  0  0  0  0  0  0  0  0  0
  145.0567  141.5740  154.8084 H   0  0  0  0  0  0  0  0  0  0  0  0
  145.2460  143.2832  155.2072 H   0  0  0  0  0  0  0  0  0  0  0  0
  148.5639  142.8526  154.1303 H   0  0  0  0  0  0  0  0  0  0  0  0
  148.2311  141.4135  153.1652 H   0  0  0  0  0  0  0  0  0  0  0  0
  1  2  2  0  0  0  0
  2  3  1  0  0  0  0
  2 11  1  0  0  0  0
  3  4  1  0  0  0  0
  3 18  1  0  0  0  0
  4  5  1  0  0  0  0
  4 19  1  0  0  0  0
  4 20  1  0  0  0  0
  5  6  1  0  0  0  0
  5 21  1  0  0  0  0
  5 22  1  0  0  0  0
  6 10  1  0  0  0  0
  6  7  1  0  0  0  0
  7  8  2  0  0  0  0
  7 23  1  0  0  0  0
  8  9  1  0  0  0  0
  8 24  1  0  0  0  0
  9 10  2  0  0  0  0
 10 25  1  0  0  0  0
 11 12  1  0  0  0  0
 11 26  1  0  0  0  0
 12 13  1  0  0  0  0
 12 27  1  0  0  0  0
 12 28  1  0  0  0  0
 13 17  1  0  0  0  0
 13 14  1  0  0  0  0
 13 29  1  0  0  0  0
 14 15  1  0  0  0  0
 14 30  1  0  0  0  0
 14 31  1  0  0  0  0
 15 16  1  0  0  0  0
 15 32  1  0  0  0  0
 15 33  1  0  0  0  0
 16 17  1  0  0  0  0
 17 34  1  0  0  0  0
 17 35  1  0  0  0  0
M  END
> <s_m_source_file>
AV-unprocessed.smi

> <i_m_source_file_index>
3170

> <i_lp_mmshare_version>
43012

> <i_f3d_flags>
0

> <s_epik_input>
W0NIMl0xT1tDSDJdW0NIMl1bQ0BIXTFbQ0gyXVtOSF1DKD1PKVtOSF1bQ0gyXVtDSDJdbjJbY0hdW2NIXW5bY0hdMg==

> <s_epik_cmdline>
J2VwaWtfcHl0aG9uJywgJy1waCcsICc3LjAnLCAnLXRuJywgJzgnLCAnLW1hJywgJzIwMCcsICctbWV0YWxfYmluZGluZycsICctaW1hZScsICc8aW5maWxlLm1hZT4nLCAnLW9tYWUnLCAnPG91dGZpbGUubWFlPic=

> <r_lp_tautomer_probability>
1

> <r_epik_Ionization_Penalty>
0.621287

> <r_epik_Ionization_Penalty_Charging>
0.621234

> <r_epik_Ionization_Penalty_Neutral>
5.30999e-05

> <r_epik_State_Penalty>
0.637278

> <r_epik_Charging_Adjusted_Penalty>
1.25851

> <i_epik_Tot_Q>
0

> <i_epik_Tot_abs_Q>
0

> <r_epik_Metal_State_Penalty>
0.306756

> <b_epik_Metal_Only>
0

> <s_lp_Force_Field>
OPLS_2005

> <r_lp_Energy>
18.1747

> <b_lp_Chiralities_Consistent>
1

> <s_lp_Variant>
AV-unprocessed.smi:3170-4

> <Gold.Version>
5.8.1

> <Gold.Id.Protein>
6NUR|6NUR_protein|mol2

> <Gold.PLP.Fitness>
47.7485

> <Gold.PLP.PLP>
-42.9809

> <Gold.PLP.part.hbond>
-2.0000

> <Gold.PLP.part.metal>
0.0000

> <Gold.PLP.part.buried>
-6.3902

> <Gold.PLP.part.nonpolar>
-33.4872

> <Gold.PLP.part.repulsive>
0.2749

> <Gold.PLP.ligand.clash>
0.0000

> <Gold.PLP.ligand.torsion>
0.4521

> <Gold.PLP.Chemscore.Hbond>
1.8640

> <Gold.PLP.Chemscore.CHOScore>
0.0000

> <Gold.PLP.Chemscore.Metal>
0.0000

> <Gold.Chemscore.Hbonds>
donor molecule, donor type, donor heavy atom, donor atom, acceptor molecule, acceptor atom, score
      L1  H     3    18       P1  8028  0.88
      L1  H    11    26       P1  8028  1.00

> <Gold.PLP.Chemscore.Internal.Correction>
0.0799

> <Gold.Rescore>
     Score         DG    S(hbond)    S(metal)    S(lipo)     H(rot)  DE(clash)    DE(int)     intcor
     14.71     -15.06       1.91        0.00      76.53       2.25       0.01       0.34       ----

> <Gold.Chemscore.Fitness>
14.7132

> <Gold.Chemscore.DG>
-15.0618

> <Gold.Chemscore.ZeroCoef>
-5.4800

> <Gold.Chemscore.Hbond>
1.9103

> <Gold.Chemscore.Metal>
0.0000

> <Gold.Chemscore.Lipo>
76.5348

> <Gold.Chemscore.Internal_Hbond>
0.0000

> <Gold.Chemscore.DEClash>
0.0110

> <Gold.Chemscore.DEInternal>
0.3376

> <Gold.Chemscore.Rot>
2.2474

> <Gold.Chemscore.Internal.Correction>
   9.000000E+99

> <Gold.Chemscore.Hbonds>
donor molecule, donor type, donor heavy atom, donor atom, acceptor molecule, acceptor atom, score
      L1  H     3    18       P1  8028  0.67
      L1  H    11    26       P1  8028  0.99

> <Gold.Chemscore.Hbond.Weighted>
-6.3804

> <Gold.Chemscore.Metal.Weighted>
-0.0000

> <Gold.Chemscore.Lipo.Weighted>
-8.9546

> <Gold.Chemscore.Internal_Hbond.Weighted>
0.0000

> <Gold.Chemscore.DEClash.Weighted>
0.0110

> <Gold.Chemscore.DEInternal.Weighted>
0.3376

> <Gold.Chemscore.Rot.Weighted>
5.7532

> <Gold.Chemscore.Internal.Correction.Weighted>
   9.000000E+99

> <Gold.Protein.RotatedTorsions>
[ 6907 6896 6895 6894 ] final -137.65 input  -60.11 | X-H torsion
[ 7974 7965 7964 7962 ] final   30.26 input  175.53 | X-H torsion
[ 8008 7997 7996 7995 ] final  122.12 input   59.86 | X-H torsion
[ 10167 10162 10161 10158 ] final   13.05 input  -65.29 | X-H torsion
[ 10718 10713 10712 10709 ] final  -51.31 input   66.30 | X-H torsion
[ 10763 10752 10751 10750 ] final  163.92 input  -60.55 | X-H torsion
[ 11005 11000 10999 10996 ] final -105.70 input  -57.11 | X-H torsion

> <Gold.Protein.ActiveResidues>
 VAL166  LYS551  ARG553  GLY616  TRP617  ASP618  TYR619  PRO620  LYS621  CYS622 
 ASP623  PHE694  ASN695  SER759  ASP760  ASP761  ALA762  ILE779  LEU786  VAL792 
 PHE793  MET794  SER795  GLU796  ALA797  LYS798  CYS799  TRP800  GLU811  SER814 

> <Gold.Protein.RotatedAtoms>
  151.0251  133.5841  159.2666 H   0  0  0  0  0  0  0  0  0  0  0  0  # atno 6907 bound_to 6896
  151.2943  135.0750  159.9225 H   0  0  0  0  0  0  0  0  0  0  0  0  # atno 6908 bound_to 6896
  152.5332  133.9944  159.7920 H   0  0  0  0  0  0  0  0  0  0  0  0  # atno 6909 bound_to 6896
  146.1622  139.6812  142.9025 H   0  0  0  0  0  0  0  0  0  0  0  0  # atno 7974 bound_to 7965
  156.2714  140.2793  156.1416 H   0  0  0  0  0  0  0  0  0  0  0  0  # atno 8008 bound_to 7997
  155.0947  140.0389  157.2697 H   0  0  0  0  0  0  0  0  0  0  0  0  # atno 8009 bound_to 7997
  154.6862  140.2619  155.6864 H   0  0  0  0  0  0  0  0  0  0  0  0  # atno 8010 bound_to 7997
  140.6028  143.8570  150.6982 H   0  0  0  0  0  0  0  0  0  0  0  0  # atno 10167 bound_to 10162
  156.1722  130.4149  149.9630 H   0  0  0  0  0  0  0  0  0  0  0  0  # atno 10718 bound_to 10713
  154.3011  135.2759  155.2611 H   0  0  0  0  0  0  0  0  0  0  0  0  # atno 10763 bound_to 10752
  154.5047  135.5798  153.6562 H   0  0  0  0  0  0  0  0  0  0  0  0  # atno 10764 bound_to 10752
  152.9900  135.6166  154.3181 H   0  0  0  0  0  0  0  0  0  0  0  0  # atno 10765 bound_to 10752
  141.1041  133.8830  157.1766 H   0  0  0  0  0  0  0  0  0  0  0  0  # atno 11005 bound_to 11000
  145.4558  141.0430  143.2779 LP  0  0  0  0  0  0  0  0  0  0  0  0  # atno 17320 bound_to 7965
  144.8043  139.6081  143.7058 LP  0  0  0  0  0  0  0  0  0  0  0  0  # atno 17321 bound_to 7965
  140.2120  143.3876  152.1711 LP  0  0  0  0  0  0  0  0  0  0  0  0  # atno 17342 bound_to 10162
  139.5303  144.7151  151.5080 LP  0  0  0  0  0  0  0  0  0  0  0  0  # atno 17343 bound_to 10162
  156.7427  130.9085  151.3633 LP  0  0  0  0  0  0  0  0  0  0  0  0  # atno 17370 bound_to 10713
  157.6810  130.9140  150.0268 LP  0  0  0  0  0  0  0  0  0  0  0  0  # atno 17371 bound_to 10713
  139.9903  135.0067  156.9960 LP  0  0  0  0  0  0  0  0  0  0  0  0  # atno 17394 bound_to 11000
  140.4948  134.1157  155.7239 LP  0  0  0  0  0  0  0  0  0  0  0  0  # atno 17395 bound_to 11000

$$$$
