AV-unprocessed.smi:551|AV-procd|sdf|2899|dock2
  -GOLD-   2262023393D 1   1.00000     0.00000
 Structure written by MMmdl.
 39 40  0  0  0  0  0  0  0  0  2 V2000
  148.7149  138.3521  156.3147 C   0  0  0  0  0  0  0  0  0  0  0  0
  149.9746  139.1100  155.8750 C   0  0  1  0  0  0  0  0  0  0  0  0
  149.8237  139.6622  154.4406 C   0  0  0  0  0  0  0  0  0  0  0  0
  148.5437  140.3434  154.2185 N   0  0  0  0  0  0  0  0  0  0  0  0
  148.1962  141.6113  154.6097 C   0  0  0  0  0  0  0  0  0  0  0  0
  146.9143  141.8181  154.1697 C   0  0  0  0  0  0  0  0  0  0  0  0
  146.5317  140.6669  153.5347 N   0  3  0  0  0  0  0  0  0  0  0  0
  147.5221  139.7694  153.5700 C   0  0  0  0  0  0  0  0  0  0  0  0
  150.2341  140.1889  156.8272 N   0  0  0  0  0  0  0  0  0  0  0  0
  151.4434  140.5797  157.2610 C   0  0  0  0  0  0  0  0  0  0  0  0
  152.4949  140.0497  156.8997 O   0  0  0  0  0  0  0  0  0  0  0  0
  151.4688  141.7641  158.2350 C   0  0  0  0  0  0  0  0  0  0  0  0
  151.0447  143.0671  157.5244 C   0  0  0  0  0  0  0  0  0  0  0  0
  151.0718  144.2631  158.4901 C   0  0  0  0  0  0  0  0  0  0  0  0
  152.4553  144.4223  159.1410 C   0  0  0  0  0  0  0  0  0  0  0  0
  152.8946  143.1264  159.8407 C   0  0  0  0  0  0  0  0  0  0  0  0
  152.8644  141.9321  158.8726 C   0  0  0  0  0  0  0  0  0  0  0  0
  148.5060  137.5169  155.6455 H   0  0  0  0  0  0  0  0  0  0  0  0
  147.8394  139.0023  156.3175 H   0  0  0  0  0  0  0  0  0  0  0  0
  148.8313  137.9450  157.3198 H   0  0  0  0  0  0  0  0  0  0  0  0
  150.8004  138.3964  155.8946 H   0  0  0  0  0  0  0  0  0  0  0  0
  150.6155  140.3806  154.2239 H   0  0  0  0  0  0  0  0  0  0  0  0
  149.9143  138.8614  153.7051 H   0  0  0  0  0  0  0  0  0  0  0  0
  148.8719  142.2581  155.1505 H   0  0  0  0  0  0  0  0  0  0  0  0
  146.2634  142.6758  154.2575 H   0  0  0  0  0  0  0  0  0  0  0  0
  147.5043  138.7808  153.1470 H   0  0  0  0  0  0  0  0  0  0  0  0
  149.4275  140.6818  157.1831 H   0  0  0  0  0  0  0  0  0  0  0  0
  150.7529  141.5655  159.0350 H   0  0  0  0  0  0  0  0  0  0  0  0
  151.7088  143.2710  156.6828 H   0  0  0  0  0  0  0  0  0  0  0  0
  150.0427  142.9591  157.1067 H   0  0  0  0  0  0  0  0  0  0  0  0
  150.8042  145.1768  157.9587 H   0  0  0  0  0  0  0  0  0  0  0  0
  150.3170  144.1240  159.2651 H   0  0  0  0  0  0  0  0  0  0  0  0
  153.1881  144.6922  158.3794 H   0  0  0  0  0  0  0  0  0  0  0  0
  152.4370  145.2439  159.8577 H   0  0  0  0  0  0  0  0  0  0  0  0
  153.8978  143.2474  160.2503 H   0  0  0  0  0  0  0  0  0  0  0  0
  152.2368  142.9270  160.6878 H   0  0  0  0  0  0  0  0  0  0  0  0
  153.1460  141.0234  159.4066 H   0  0  0  0  0  0  0  0  0  0  0  0
  153.6184  142.0807  158.0977 H   0  0  0  0  0  0  0  0  0  0  0  0
  145.6312  140.5152  153.0977 H   0  0  0  0  0  0  0  0  0  0  0  0
  1  2  1  0  0  0  0
  1 18  1  0  0  0  0
  1 19  1  0  0  0  0
  1 20  1  0  0  0  0
  2  3  1  0  0  0  0
  2  9  1  0  0  0  0
  2 21  1  0  0  0  0
  3  4  1  0  0  0  0
  3 22  1  0  0  0  0
  3 23  1  0  0  0  0
  4  8  1  0  0  0  0
  4  5  1  0  0  0  0
  5  6  2  0  0  0  0
  5 24  1  0  0  0  0
  6  7  1  0  0  0  0
  6 25  1  0  0  0  0
  7  8  2  0  0  0  0
  7 39  1  0  0  0  0
  8 26  1  0  0  0  0
  9 10  1  0  0  0  0
  9 27  1  0  0  0  0
 10 11  2  0  0  0  0
 10 12  1  0  0  0  0
 12 17  1  0  0  0  0
 12 13  1  0  0  0  0
 12 28  1  0  0  0  0
 13 14  1  0  0  0  0
 13 29  1  0  0  0  0
 13 30  1  0  0  0  0
 14 15  1  0  0  0  0
 14 31  1  0  0  0  0
 14 32  1  0  0  0  0
 15 16  1  0  0  0  0
 15 33  1  0  0  0  0
 15 34  1  0  0  0  0
 16 17  1  0  0  0  0
 16 35  1  0  0  0  0
 16 36  1  0  0  0  0
 17 37  1  0  0  0  0
 17 38  1  0  0  0  0
M  CHG  1   7   1
M  END
> <s_m_source_file>
AV-unprocessed.smi

> <i_m_source_file_index>
551

> <i_lp_mmshare_version>
43012

> <i_f3d_flags>
0

> <s_epik_input>
W2NIXTFuW2NIXVtjSF1uMVtDSDJdW0NAQEhdKFtDSDNdKVtOSF1DKD1PKVtDSF0yW0NIMl1bQ0gyXVtDSDJdW0NIMl1bQ0gyXTI=

> <s_epik_cmdline>
J2VwaWtfcHl0aG9uJywgJy1waCcsICc3LjAnLCAnLXRuJywgJzgnLCAnLW1hJywgJzIwMCcsICctbWV0YWxfYmluZGluZycsICctaW1hZScsICc8aW5maWxlLm1hZT4nLCAnLW9tYWUnLCAnPG91dGZpbGUubWFlPic=

> <r_lp_tautomer_probability>
1

> <r_epik_Ionization_Penalty>
0.244425

> <r_epik_Ionization_Penalty_Charging>
0

> <r_epik_Ionization_Penalty_Neutral>
0.244425

> <r_epik_State_Penalty>
0.23553

> <r_epik_Charging_Adjusted_Penalty>
0.23553

> <i_epik_Tot_Q>
1

> <i_epik_Tot_abs_Q>
1

> <r_epik_Metal_State_Penalty>
0.528799

> <b_epik_Metal_Only>
0

> <s_lp_Force_Field>
OPLS_2005

> <r_lp_Energy>
13.1921

> <b_lp_Chiralities_Consistent>
1

> <s_lp_Variant>
AV-unprocessed.smi:551-2

> <Gold.Version>
5.8.1

> <Gold.Id.Protein>
6NUR|6NUR_protein|mol2

> <Gold.PLP.Fitness>
47.1033

> <Gold.PLP.PLP>
-36.7916

> <Gold.PLP.part.hbond>
-2.0000

> <Gold.PLP.part.metal>
0.0000

> <Gold.PLP.part.buried>
-1.6528

> <Gold.PLP.part.nonpolar>
-32.4100

> <Gold.PLP.part.repulsive>
0.0481

> <Gold.PLP.ligand.clash>
0.0000

> <Gold.PLP.ligand.torsion>
0.8738

> <Gold.PLP.Chemscore.Hbond>
3.0000

> <Gold.PLP.Chemscore.CHOScore>
1.0000

> <Gold.PLP.Chemscore.Metal>
0.0000

> <Gold.Chemscore.Hbonds>
donor molecule, donor type, donor heavy atom, donor atom, acceptor molecule, acceptor atom, score
      L1  H     7    39       P1 10175  1.95
      P1  H  7997  8008       L1    11  1.00
      L1  C     5    24       P1  8028  1.00

> <Gold.PLP.Chemscore.Internal.Correction>
0.0593

> <Gold.Rescore>
     Score         DG    S(hbond)    S(metal)    S(lipo)     H(rot)  DE(clash)    DE(int)     intcor
     17.16     -18.37       1.94        0.00      94.05       1.80       0.06       1.15       ----

> <Gold.Chemscore.Fitness>
17.1614

> <Gold.Chemscore.DG>
-18.3708

> <Gold.Chemscore.ZeroCoef>
-5.4800

> <Gold.Chemscore.Hbond>
1.9438

> <Gold.Chemscore.Metal>
0.0000

> <Gold.Chemscore.Lipo>
94.0527

> <Gold.Chemscore.Internal_Hbond>
0.0000

> <Gold.Chemscore.DEClash>
0.0628

> <Gold.Chemscore.DEInternal>
1.1466

> <Gold.Chemscore.Rot>
1.7991

> <Gold.Chemscore.Internal.Correction>
   9.000000E+99

> <Gold.Chemscore.Hbonds>
donor molecule, donor type, donor heavy atom, donor atom, acceptor molecule, acceptor atom, score
      L1  H     7    39       P1 10175  0.80
      P1  H  7997  8008       L1    11  0.99

> <Gold.Chemscore.Hbond.Weighted>
-6.4924

> <Gold.Chemscore.Metal.Weighted>
-0.0000

> <Gold.Chemscore.Lipo.Weighted>
-11.0042

> <Gold.Chemscore.Internal_Hbond.Weighted>
0.0000

> <Gold.Chemscore.DEClash.Weighted>
0.0628

> <Gold.Chemscore.DEInternal.Weighted>
1.1466

> <Gold.Chemscore.Rot.Weighted>
4.6058

> <Gold.Chemscore.Internal.Correction.Weighted>
   9.000000E+99

> <Gold.Protein.RotatedTorsions>
[ 6907 6896 6895 6894 ] final -165.81 input  -60.11 | X-H torsion
[ 7974 7965 7964 7962 ] final  -33.03 input  175.53 | X-H torsion
[ 8008 7997 7996 7995 ] final  -49.91 input   59.86 | X-H torsion
[ 10167 10162 10161 10158 ] final  -36.38 input  -65.29 | X-H torsion
[ 10718 10713 10712 10709 ] final  -51.90 input   66.30 | X-H torsion
[ 10763 10752 10751 10750 ] final  144.57 input  -60.55 | X-H torsion
[ 11005 11000 10999 10996 ] final -143.93 input  -57.11 | X-H torsion

> <Gold.Protein.ActiveResidues>
 VAL166  LYS551  ARG553  GLY616  TRP617  ASP618  TYR619  PRO620  LYS621  CYS622 
 ASP623  PHE694  ASN695  SER759  ASP760  ASP761  ALA762  ILE779  LEU786  VAL792 
 PHE793  MET794  SER795  GLU796  ALA797  LYS798  CYS799  TRP800  GLU811  SER814 

> <Gold.Protein.RotatedAtoms>
  151.4336  133.3663  159.2771 H   0  0  0  0  0  0  0  0  0  0  0  0  # atno 6907 bound_to 6896
  150.9207  134.8626  159.7498 H   0  0  0  0  0  0  0  0  0  0  0  0  # atno 6908 bound_to 6896
  152.4980  134.4273  159.9552 H   0  0  0  0  0  0  0  0  0  0  0  0  # atno 6909 bound_to 6896
  146.0943  140.5866  142.8850 H   0  0  0  0  0  0  0  0  0  0  0  0  # atno 7974 bound_to 7965
  154.4052  140.1285  156.4580 H   0  0  0  0  0  0  0  0  0  0  0  0  # atno 8008 bound_to 7997
  155.7301  140.3491  155.5035 H   0  0  0  0  0  0  0  0  0  0  0  0  # atno 8009 bound_to 7997
  155.9135  140.1040  157.1251 H   0  0  0  0  0  0  0  0  0  0  0  0  # atno 8010 bound_to 7997
  140.7144  143.3413  151.2352 H   0  0  0  0  0  0  0  0  0  0  0  0  # atno 10167 bound_to 10162
  156.1669  130.4149  149.9706 H   0  0  0  0  0  0  0  0  0  0  0  0  # atno 10718 bound_to 10713
  153.9910  135.2932  155.3412 H   0  0  0  0  0  0  0  0  0  0  0  0  # atno 10763 bound_to 10752
  154.7215  135.5107  153.8822 H   0  0  0  0  0  0  0  0  0  0  0  0  # atno 10764 bound_to 10752
  153.0810  135.6679  154.0162 H   0  0  0  0  0  0  0  0  0  0  0  0  # atno 10765 bound_to 10752
  140.8076  134.2783  157.4954 H   0  0  0  0  0  0  0  0  0  0  0  0  # atno 11005 bound_to 11000
  144.7383  140.4871  143.6887 LP  0  0  0  0  0  0  0  0  0  0  0  0  # atno 17320 bound_to 7965
  145.5979  139.1501  143.3145 LP  0  0  0  0  0  0  0  0  0  0  0  0  # atno 17321 bound_to 7965
  139.6921  143.9675  152.2864 LP  0  0  0  0  0  0  0  0  0  0  0  0  # atno 17342 bound_to 10162
  139.9340  144.6724  150.8334 LP  0  0  0  0  0  0  0  0  0  0  0  0  # atno 17343 bound_to 10162
  156.7519  130.9118  151.3638 LP  0  0  0  0  0  0  0  0  0  0  0  0  # atno 17370 bound_to 10713
  157.6774  130.9108  150.0184 LP  0  0  0  0  0  0  0  0  0  0  0  0  # atno 17371 bound_to 10713
  139.8716  134.9465  156.3940 LP  0  0  0  0  0  0  0  0  0  0  0  0  # atno 17394 bound_to 11000
  140.9231  133.7631  155.9931 LP  0  0  0  0  0  0  0  0  0  0  0  0  # atno 17395 bound_to 11000

$$$$
