#       Name:                AV-unprocessed.smi:1047
#       Creating user name   scv26
#       Creation time:       Fri Mar 27 03:04:04 2020


#       File generated by GOLD software.
#

@<TRIPOS>MOLECULE
AV-unprocessed.smi:1047
    62    64     1
SMALL
NO_CHARGES


@<TRIPOS>ATOM
      1 ****        -1.3250   4.5526  -1.4525 C.3            1 S1                 0.0000
      2 ****        -2.5620   4.5888  -0.5439 C.3            1 S1                 0.0000
      3 ****        -3.5494   3.5292  -0.8820 N.4            1 S1                 1.0000
      4 ****        -4.9156   3.8114  -0.3783 C.3            1 S1                 0.0000
      5 ****        -5.0279   3.5066   1.1262 C.3            1 S1                 0.0000
      6 ****        -4.6544   2.1549   1.3646 O.3            1 S1                 0.0000
      7 ****        -3.3037   1.8878   1.0014 C.3            1 S1                 0.0000
      8 ****        -3.0024   0.4295   1.3803 C.3            1 S1                 0.0000
      9 ****        -1.5729   0.1431   1.3047 N.3            1 S1                 0.0000
     10 ****        -1.2357  -1.2264   1.6810 C.3            1 S1                 0.0000
     11 ****         0.2810  -1.4666   1.6048 C.3            1 S1                 0.0000
     12 ****         0.8829  -0.9119   2.7586 O.3            1 S1                 0.0000
     13 ****         0.6174  -2.9690   1.5392 C.3            1 S1                 0.0000
     14 ****         2.0459  -3.2158   1.4523 N.pl3          1 S1                 0.0000
     15 ****         2.8564  -3.6687   2.4282 C.2            1 S1                 0.0000
     16 ****         4.1430  -3.8226   2.1283 N.2            1 S1                 0.0000
     17 ****         4.1695  -3.4284   0.8015 C.ar           1 S1                 0.0000
     18 ****         5.2430  -3.3572  -0.1132 C.ar           1 S1                 0.0000
     19 ****         5.0360  -2.9193  -1.4409 C.ar           1 S1                 0.0000
     20 ****         6.2190  -2.8562  -2.3909 C.3            1 S1                 0.0000
     21 ****         3.7376  -2.5452  -1.8715 C.ar           1 S1                 0.0000
     22 ****         3.4917  -2.0712  -3.2928 C.3            1 S1                 0.0000
     23 ****         2.6542  -2.6102  -0.9706 C.ar           1 S1                 0.0000
     24 ****         2.8733  -3.0460   0.3479 C.ar           1 S1                 0.0000
     25 ****        -3.1374   2.1503  -0.5137 C.3            1 S1                 0.0000
     26 ****        -0.6756   5.4041  -1.2478 H              1 S1                 0.0000
     27 ****        -1.6066   4.5991  -2.5048 H              1 S1                 0.0000
     28 ****        -0.7305   3.6522  -1.3011 H              1 S1                 0.0000
     29 ****        -2.2659   4.5289   0.5033 H              1 S1                 0.0000
     30 ****        -3.0340   5.5637  -0.6715 H              1 S1                 0.0000
     31 ****        -5.2004   4.8430  -0.5881 H              1 S1                 0.0000
     32 ****        -5.6196   3.1828  -0.9254 H              1 S1                 0.0000
     33 ****        -4.4063   4.1816   1.7161 H              1 S1                 0.0000
     34 ****        -6.0555   3.6504   1.4605 H              1 S1                 0.0000
     35 ****        -2.6505   2.5412   1.5817 H              1 S1                 0.0000
     36 ****        -3.3504   0.2505   2.3986 H              1 S1                 0.0000
     37 ****        -3.5636  -0.2499   0.7374 H              1 S1                 0.0000
     38 ****        -1.0615   0.7883   1.8994 H              1 S1                 0.0000
     39 ****        -1.6052  -1.4569   2.6813 H              1 S1                 0.0000
     40 ****        -1.7417  -1.9122   1.0003 H              1 S1                 0.0000
     41 ****         0.6908  -0.9723   0.7226 H              1 S1                 0.0000
     42 ****         1.8174  -1.0404   2.6995 H              1 S1                 0.0000
     43 ****         0.2233  -3.4879   2.4146 H              1 S1                 0.0000
     44 ****         0.1441  -3.4234   0.6680 H              1 S1                 0.0000
     45 ****         2.4813  -3.8950   3.4158 H              1 S1                 0.0000
     46 ****         6.2316  -3.6425   0.2151 H              1 S1                 0.0000
     47 ****         6.0558  -3.5092  -3.2484 H              1 S1                 0.0000
     48 ****         7.1407  -3.1713  -1.9009 H              1 S1                 0.0000
     49 ****         6.3640  -1.8382  -2.7528 H              1 S1                 0.0000
     50 ****         2.4406  -1.8323  -3.4566 H              1 S1                 0.0000
     51 ****         3.7741  -2.8436  -4.0083 H              1 S1                 0.0000
     52 ****         4.0754  -1.1745  -3.5015 H              1 S1                 0.0000
     53 ****         1.6604  -2.3276  -1.2847 H              1 S1                 0.0000
     54 ****        -3.7652   1.4530  -1.0703 H              1 S1                 0.0000
     55 ****        -2.1152   1.9515  -0.8331 H              1 S1                 0.0000
     56 ****        -3.6188   3.5488  -1.8896 H              1 S1                 0.0000
     57 ****        -5.2535   1.5581   0.8309 LP             1 S1                 0.0000
     58 ****        -4.7692   1.9578   2.3383 LP             1 S1                 0.0000
     59 ****        -1.3109   0.2573   0.3464 LP             1 S1                 0.0000
     60 ****         0.5305  -1.3682   3.5757 LP             1 S1                 0.0000
     61 ****         0.6792   0.0658   2.8088 LP             1 S1                 0.0000
     62 ****         4.8935  -4.1395   2.7084 LP             1 S1                 0.0000
@<TRIPOS>BOND
    1    1    2 1     
    2    1   26 1     
    3    1   27 1     
    4    1   28 1     
    5    2    3 1     
    6    2   29 1     
    7    2   30 1     
    8    3   25 1     
    9    3    4 1     
   10    3   56 1     
   11    4    5 1     
   12    4   31 1     
   13    4   32 1     
   14    5    6 1     
   15    5   33 1     
   16    5   34 1     
   17    6    7 1     
   18    7    8 1     
   19    7   25 1     
   20    7   35 1     
   21    8    9 1     
   22    8   36 1     
   23    8   37 1     
   24    9   10 1     
   25    9   38 1     
   26   10   11 1     
   27   10   39 1     
   28   10   40 1     
   29   11   12 1     
   30   11   13 1     
   31   11   41 1     
   32   12   42 1     
   33   13   14 1     
   34   13   43 1     
   35   13   44 1     
   36   14   24 1     
   37   14   15 1     
   38   15   16 2     
   39   15   45 1     
   40   16   17 1     
   41   17   24 ar    
   42   17   18 ar    
   43   18   19 ar    
   44   18   46 1     
   45   19   20 1     
   46   19   21 ar    
   47   20   47 1     
   48   20   48 1     
   49   20   49 1     
   50   21   22 1     
   51   21   23 ar    
   52   22   50 1     
   53   22   51 1     
   54   22   52 1     
   55   23   24 ar    
   56   23   53 1     
   57   25   54 1     
   58   25   55 1     
   59    6   57 1     
   60    6   58 1     
   61    9   59 1     
   62   12   60 1     
   63   12   61 1     
   64   16   62 1     
@<TRIPOS>SUBSTRUCTURE
      1 S1             1
@<TRIPOS>SET
LONE_PAIRS      STATIC     ATOMS    <user>   **** ""
6 57 58 59 60 61 62
DONOR_HYDROGENS      STATIC     ATOMS    <user>   **** ""
3 56 38 42
ATOM$BLUE        STATIC     ATOMS    COLORGROUP SYSTEM
6 57 58 59 60 61 62
ATOM$RED        STATIC     ATOMS    COLORGROUP SYSTEM
3 56 38 42
