AV-unprocessed.smi:3047|AV-procd|sdf|11622|dock6
  -GOLD-   2272017 03D 1   1.00000     0.00000
 Structure written by MMmdl.
 38 39  0  0  0  0  0  0  0  0  2 V2000
  148.7756  127.7620  151.0152 C   0  0  0  0  0  0  0  0  0  0  0  0
  149.2995  127.2624  152.7075 S   0  0  0  0  0  0  0  0  0  0  0  0
  148.0917  127.1385  153.5374 O   0  0  0  0  0  0  0  0  0  0  0  0
  150.2360  126.1331  152.5980 O   0  0  0  0  0  0  0  0  0  0  0  0
  150.1809  128.6441  153.2783 N   0  0  0  0  0  0  0  0  0  0  0  0
  151.2684  128.5281  154.2467 C   0  0  0  0  0  0  0  0  0  0  0  0
  151.8858  129.9227  154.2844 C   0  0  0  0  0  0  0  0  0  0  0  0
  150.7101  130.8536  153.9995 C   0  0  0  0  0  0  0  0  0  0  0  0
  149.7806  130.0472  153.0673 C   0  0  2  0  0  0  0  0  0  0  0  0
  148.2955  130.3519  153.3203 C   0  0  0  0  0  0  0  0  0  0  0  0
  147.8337  130.3300  154.4617 O   0  0  0  0  0  0  0  0  0  0  0  0
  147.5487  130.6081  152.2370 N   0  0  0  0  0  0  0  0  0  0  0  0
  146.1144  130.8517  152.2665 C   0  0  0  0  0  0  0  0  0  0  0  0
  145.5727  131.0499  150.8449 C   0  0  0  0  0  0  0  0  0  0  0  0
  144.8400  132.3104  150.7173 N   0  0  0  0  0  0  0  0  0  0  0  0
  145.3240  133.5780  150.9143 C   0  0  0  0  0  0  0  0  0  0  0  0
  144.2775  134.4349  150.6878 C   0  0  0  0  0  0  0  0  0  0  0  0
  143.2002  133.6544  150.3631 N   0  3  0  0  0  0  0  0  0  0  0  0
  143.5442  132.3624  150.3826 C   0  0  0  0  0  0  0  0  0  0  0  0
  148.1316  126.9891  150.5968 H   0  0  0  0  0  0  0  0  0  0  0  0
  149.6456  127.8847  150.3728 H   0  0  0  0  0  0  0  0  0  0  0  0
  148.2245  128.7006  151.0656 H   0  0  0  0  0  0  0  0  0  0  0  0
  150.8551  128.2532  155.2178 H   0  0  0  0  0  0  0  0  0  0  0  0
  151.9879  127.7671  153.9437 H   0  0  0  0  0  0  0  0  0  0  0  0
  152.3791  130.1410  155.2318 H   0  0  0  0  0  0  0  0  0  0  0  0
  152.6279  130.0159  153.4905 H   0  0  0  0  0  0  0  0  0  0  0  0
  150.2265  131.1097  154.9431 H   0  0  0  0  0  0  0  0  0  0  0  0
  151.0390  131.7871  153.5417 H   0  0  0  0  0  0  0  0  0  0  0  0
  150.0233  130.2962  152.0329 H   0  0  0  0  0  0  0  0  0  0  0  0
  147.9993  130.5959  151.3332 H   0  0  0  0  0  0  0  0  0  0  0  0
  145.6144  130.0059  152.7417 H   0  0  0  0  0  0  0  0  0  0  0  0
  145.9096  131.7335  152.8758 H   0  0  0  0  0  0  0  0  0  0  0  0
  146.3865  131.0603  150.1183 H   0  0  0  0  0  0  0  0  0  0  0  0
  144.9022  130.2349  150.5668 H   0  0  0  0  0  0  0  0  0  0  0  0
  146.3496  133.7711  151.1943 H   0  0  0  0  0  0  0  0  0  0  0  0
  144.2203  135.5128  150.7327 H   0  0  0  0  0  0  0  0  0  0  0  0
  142.9014  131.5264  150.1707 H   0  0  0  0  0  0  0  0  0  0  0  0
  142.2760  134.0024  150.1400 H   0  0  0  0  0  0  0  0  0  0  0  0
  1  2  1  0  0  0  0
  1 20  1  0  0  0  0
  1 21  1  0  0  0  0
  1 22  1  0  0  0  0
  2  3  2  0  0  0  0
  2  4  2  0  0  0  0
  2  5  1  0  0  0  0
  5  9  1  0  0  0  0
  5  6  1  0  0  0  0
  6  7  1  0  0  0  0
  6 23  1  0  0  0  0
  6 24  1  0  0  0  0
  7  8  1  0  0  0  0
  7 25  1  0  0  0  0
  7 26  1  0  0  0  0
  8  9  1  0  0  0  0
  8 27  1  0  0  0  0
  8 28  1  0  0  0  0
  9 10  1  0  0  0  0
  9 29  1  0  0  0  0
 10 11  2  0  0  0  0
 10 12  1  0  0  0  0
 12 13  1  0  0  0  0
 12 30  1  0  0  0  0
 13 14  1  0  0  0  0
 13 31  1  0  0  0  0
 13 32  1  0  0  0  0
 14 15  1  0  0  0  0
 14 33  1  0  0  0  0
 14 34  1  0  0  0  0
 15 19  1  0  0  0  0
 15 16  1  0  0  0  0
 16 17  2  0  0  0  0
 16 35  1  0  0  0  0
 17 18  1  0  0  0  0
 17 36  1  0  0  0  0
 18 19  2  0  0  0  0
 18 38  1  0  0  0  0
 19 37  1  0  0  0  0
M  CHG  1  18   1
M  END
> <s_m_source_file>
AV-unprocessed.smi

> <i_m_source_file_index>
3047

> <i_lp_mmshare_version>
43012

> <i_f3d_flags>
0

> <s_epik_input>
W0NIM11TKD1PKSg9TylOMVtDSDJdW0NIMl1bQ0gyXVtDQEhdMUMoPU8pW05IXVtDSDJdW0NIMl1uMltjSF1bY0hdbltjSF0y

> <s_epik_cmdline>
J2VwaWtfcHl0aG9uJywgJy1waCcsICc3LjAnLCAnLXRuJywgJzgnLCAnLW1hJywgJzIwMCcsICctbWV0YWxfYmluZGluZycsICctaW1hZScsICc8aW5maWxlLm1hZT4nLCAnLW9tYWUnLCAnPG91dGZpbGUubWFlPic=

> <r_lp_tautomer_probability>
1

> <r_epik_Ionization_Penalty>
0.281738

> <r_epik_Ionization_Penalty_Charging>
0

> <r_epik_Ionization_Penalty_Neutral>
0.281738

> <r_epik_State_Penalty>
0.274352

> <r_epik_Charging_Adjusted_Penalty>
0.274352

> <i_epik_Tot_Q>
1

> <i_epik_Tot_abs_Q>
1

> <r_epik_Metal_State_Penalty>
0.555562

> <b_epik_Metal_Only>
0

> <s_lp_Force_Field>
OPLS_2005

> <r_lp_Energy>
11.563

> <b_lp_Chiralities_Consistent>
1

> <s_lp_Variant>
AV-unprocessed.smi:3047-2

> <Gold.Version>
5.8.1

> <Gold.Id.Protein>
6NUR|6NUR_protein|mol2

> <Gold.PLP.Fitness>
44.1594

> <Gold.PLP.PLP>
-33.6145

> <Gold.PLP.part.hbond>
-2.0000

> <Gold.PLP.part.metal>
0.0000

> <Gold.PLP.part.buried>
-5.7098

> <Gold.PLP.part.nonpolar>
-26.4173

> <Gold.PLP.part.repulsive>
0.1910

> <Gold.PLP.ligand.clash>
0.0000

> <Gold.PLP.ligand.torsion>
1.7466

> <Gold.PLP.Chemscore.Hbond>
3.0000

> <Gold.PLP.Chemscore.CHOScore>
0.9966

> <Gold.PLP.Chemscore.Metal>
0.0000

> <Gold.Chemscore.Hbonds>
donor molecule, donor type, donor heavy atom, donor atom, acceptor molecule, acceptor atom, score
      L1  H    12    30       P1 10747  0.81
      L1  H    18    38       P1 10186  1.62
      L1  C    19    37       P1 10952  1.00

> <Gold.PLP.Chemscore.Internal.Correction>
2.0482

> <Gold.Rescore>
     Score         DG    S(hbond)    S(metal)    S(lipo)     H(rot)  DE(clash)    DE(int)     intcor
     12.16     -13.80       1.98        0.00      60.33       2.10       0.05       1.59       ----

> <Gold.Chemscore.Fitness>
12.1611

> <Gold.Chemscore.DG>
-13.8003

> <Gold.Chemscore.ZeroCoef>
-5.4800

> <Gold.Chemscore.Hbond>
1.9838

> <Gold.Chemscore.Metal>
0.0000

> <Gold.Chemscore.Lipo>
60.3317

> <Gold.Chemscore.Internal_Hbond>
0.0000

> <Gold.Chemscore.DEClash>
0.0495

> <Gold.Chemscore.DEInternal>
1.5896

> <Gold.Chemscore.Rot>
2.0954

> <Gold.Chemscore.Internal.Correction>
   9.000000E+99

> <Gold.Chemscore.Hbonds>
donor molecule, donor type, donor heavy atom, donor atom, acceptor molecule, acceptor atom, score
      L1  H    12    30       P1 10747  0.78
      L1  H    18    38       P1 10186  0.79

> <Gold.Chemscore.Hbond.Weighted>
-6.6257

> <Gold.Chemscore.Metal.Weighted>
-0.0000

> <Gold.Chemscore.Lipo.Weighted>
-7.0588

> <Gold.Chemscore.Internal_Hbond.Weighted>
0.0000

> <Gold.Chemscore.DEClash.Weighted>
0.0495

> <Gold.Chemscore.DEInternal.Weighted>
1.5896

> <Gold.Chemscore.Rot.Weighted>
5.3643

> <Gold.Chemscore.Internal.Correction.Weighted>
   9.000000E+99

> <Gold.Protein.RotatedTorsions>
[ 6907 6896 6895 6894 ] final  -25.28 input  -60.11 | X-H torsion
[ 7974 7965 7964 7962 ] final  -28.81 input  175.53 | X-H torsion
[ 8008 7997 7996 7995 ] final  147.62 input   59.86 | X-H torsion
[ 10167 10162 10161 10158 ] final   41.31 input  -65.29 | X-H torsion
[ 10718 10713 10712 10709 ] final   14.99 input   66.30 | X-H torsion
[ 10763 10752 10751 10750 ] final   78.55 input  -60.55 | X-H torsion
[ 11005 11000 10999 10996 ] final  -43.58 input  -57.11 | X-H torsion

> <Gold.Protein.ActiveResidues>
 VAL166  LYS551  ARG553  GLY616  TRP617  ASP618  TYR619  PRO620  LYS621  CYS622 
 ASP623  PHE694  ASN695  SER759  ASP760  ASP761  ALA762  ILE779  LEU786  VAL792 
 PHE793  MET794  SER795  GLU796  ALA797  LYS798  CYS799  TRP800  GLU811  SER814 

> <Gold.Protein.RotatedAtoms>
  151.1774  135.0345  159.8777 H   0  0  0  0  0  0  0  0  0  0  0  0  # atno 6907 bound_to 6896
  152.5446  134.1102  159.8365 H   0  0  0  0  0  0  0  0  0  0  0  0  # atno 6908 bound_to 6896
  151.1215  133.5054  159.2634 H   0  0  0  0  0  0  0  0  0  0  0  0  # atno 6909 bound_to 6896
  146.1261  140.5331  142.8714 H   0  0  0  0  0  0  0  0  0  0  0  0  # atno 7974 bound_to 7965
  156.2819  140.2151  156.5567 H   0  0  0  0  0  0  0  0  0  0  0  0  # atno 8008 bound_to 7997
  154.7247  140.0500  157.0694 H   0  0  0  0  0  0  0  0  0  0  0  0  # atno 8009 bound_to 7997
  155.0432  140.3148  155.4720 H   0  0  0  0  0  0  0  0  0  0  0  0  # atno 8010 bound_to 7997
  140.3655  144.2172  150.6135 H   0  0  0  0  0  0  0  0  0  0  0  0  # atno 10167 bound_to 10162
  157.0471  130.6255  149.5761 H   0  0  0  0  0  0  0  0  0  0  0  0  # atno 10718 bound_to 10713
  153.0883  135.4873  154.8640 H   0  0  0  0  0  0  0  0  0  0  0  0  # atno 10763 bound_to 10752
  154.7238  135.3045  154.9007 H   0  0  0  0  0  0  0  0  0  0  0  0  # atno 10764 bound_to 10752
  153.9663  135.6806  153.4799 H   0  0  0  0  0  0  0  0  0  0  0  0  # atno 10765 bound_to 10752
  141.0394  133.6786  156.2753 H   0  0  0  0  0  0  0  0  0  0  0  0  # atno 11005 bound_to 11000
  144.7644  140.5497  143.6713 LP  0  0  0  0  0  0  0  0  0  0  0  0  # atno 17320 bound_to 7965
  145.5361  139.1475  143.3473 LP  0  0  0  0  0  0  0  0  0  0  0  0  # atno 17321 bound_to 7965
  140.5085  143.2297  151.8572 LP  0  0  0  0  0  0  0  0  0  0  0  0  # atno 17342 bound_to 10162
  139.4809  144.4978  151.9101 LP  0  0  0  0  0  0  0  0  0  0  0  0  # atno 17343 bound_to 10162
  156.0019  130.5100  150.7694 LP  0  0  0  0  0  0  0  0  0  0  0  0  # atno 17370 bound_to 10713
  157.5059  131.0922  151.0258 LP  0  0  0  0  0  0  0  0  0  0  0  0  # atno 17371 bound_to 10713
  140.6263  134.5310  157.5554 LP  0  0  0  0  0  0  0  0  0  0  0  0  # atno 17394 bound_to 11000
  139.9264  134.8048  156.1056 LP  0  0  0  0  0  0  0  0  0  0  0  0  # atno 17395 bound_to 11000

$$$$
