#       Name:                AV-unprocessed.smi:1364
#       Creating user name   scv26
#       Creation time:       Fri Mar 27 05:16:06 2020


#       File generated by GOLD software.
#

@<TRIPOS>MOLECULE
AV-unprocessed.smi:1364
    46    47     1
SMALL
NO_CHARGES


@<TRIPOS>ATOM
      1 ****        -5.1820   0.3934  -1.1860 C.3            1 S1                 0.0000
      2 ****        -4.4290   0.6256   0.1405 C.3            1 S1                 0.0000
      3 ****        -4.9939   1.8877   0.8251 C.3            1 S1                 0.0000
      4 ****        -4.6624  -0.5912   1.0678 C.3            1 S1                 0.0000
      5 ****        -2.9300   0.8604  -0.1740 C.2            1 S1                 0.0000
      6 ****        -2.6143   1.8022  -0.9021 O.2            1 S1                 0.0000
      7 ****        -2.0370  -0.0009   0.3531 N.am           1 S1                 0.0000
      8 ****        -0.6218  -0.0056   0.2253 C.ar           1 S1                 0.0000
      9 ****         0.1566   1.1383  -0.0652 C.ar           1 S1                 0.0000
     10 ****         1.5563   1.0084  -0.1460 C.ar           1 S1                 0.0000
     11 ****         2.1494  -0.2578   0.0715 C.ar           1 S1                 0.0000
     12 ****         3.5512  -0.4100  -0.0075 N.3            1 S1                 0.0000
     13 ****         4.1331  -1.6672   0.4595 C.3            1 S1                 0.0000
     14 ****         5.6616  -1.5411   0.5746 C.3            1 S1                 0.0000
     15 ****         6.2023  -1.1151  -0.6715 O.3            1 S1                 0.0000
     16 ****         5.7064   0.1636  -1.0535 C.3            1 S1                 0.0000
     17 ****         4.1786   0.1014  -1.2239 C.3            1 S1                 0.0000
     18 ****         1.4002  -1.3472   0.3715 N.ar           1 S1                 0.0000
     19 ****         0.0592  -1.2185   0.4472 C.ar           1 S1                 0.0000
     20 ****        -6.2466   0.2326  -1.0128 H              1 S1                 0.0000
     21 ****        -4.8017  -0.4838  -1.7115 H              1 S1                 0.0000
     22 ****        -5.0916   1.2460  -1.8607 H              1 S1                 0.0000
     23 ****        -4.9013   2.7712   0.1917 H              1 S1                 0.0000
     24 ****        -4.4764   2.0984   1.7620 H              1 S1                 0.0000
     25 ****        -6.0527   1.7696   1.0582 H              1 S1                 0.0000
     26 ****        -5.7247  -0.7273   1.2734 H              1 S1                 0.0000
     27 ****        -4.1644  -0.4692   2.0308 H              1 S1                 0.0000
     28 ****        -4.3039  -1.5185   0.6186 H              1 S1                 0.0000
     29 ****        -2.4283  -0.7835   0.8574 H              1 S1                 0.0000
     30 ****        -0.2859   2.1115  -0.2092 H              1 S1                 0.0000
     31 ****         2.1554   1.8822  -0.3535 H              1 S1                 0.0000
     32 ****         3.7202  -1.9369   1.4324 H              1 S1                 0.0000
     33 ****         3.8758  -2.4653  -0.2383 H              1 S1                 0.0000
     34 ****         5.9360  -0.8377   1.3625 H              1 S1                 0.0000
     35 ****         6.0985  -2.5035   0.8414 H              1 S1                 0.0000
     36 ****         5.9842   0.9111  -0.3086 H              1 S1                 0.0000
     37 ****         6.1757   0.4599  -1.9916 H              1 S1                 0.0000
     38 ****         3.9231  -0.5583  -2.0540 H              1 S1                 0.0000
     39 ****         3.8117   1.0931  -1.4838 H              1 S1                 0.0000
     40 ****        -0.4879  -2.1180   0.6890 H              1 S1                 0.0000
     41 ****        -3.3207   2.4007  -1.2799 LP             1 S1                 0.0000
     42 ****        -1.6516   1.9684  -1.1155 LP             1 S1                 0.0000
     43 ****         3.8130   0.2275   0.7171 LP             1 S1                 0.0000
     44 ****         5.9565  -1.7812  -1.3757 LP             1 S1                 0.0000
     45 ****         7.1980  -1.0657  -0.5924 LP             1 S1                 0.0000
     46 ****         1.8350  -2.2329   0.5343 LP             1 S1                 0.0000
@<TRIPOS>BOND
    1    1    2 1     
    2    1   20 1     
    3    1   21 1     
    4    1   22 1     
    5    2    3 1     
    6    2    4 1     
    7    2    5 1     
    8    3   23 1     
    9    3   24 1     
   10    3   25 1     
   11    4   26 1     
   12    4   27 1     
   13    4   28 1     
   14    5    6 2     
   15    5    7 am    
   16    7    8 1     
   17    7   29 1     
   18    8   19 ar    
   19    8    9 ar    
   20    9   10 ar    
   21    9   30 1     
   22   10   11 ar    
   23   10   31 1     
   24   11   12 1     
   25   11   18 ar    
   26   12   17 1     
   27   12   13 1     
   28   13   14 1     
   29   13   32 1     
   30   13   33 1     
   31   14   15 1     
   32   14   34 1     
   33   14   35 1     
   34   15   16 1     
   35   16   17 1     
   36   16   36 1     
   37   16   37 1     
   38   17   38 1     
   39   17   39 1     
   40   18   19 ar    
   41   19   40 1     
   42    6   41 1     
   43    6   42 1     
   44   12   43 1     
   45   15   44 1     
   46   15   45 1     
   47   18   46 1     
@<TRIPOS>SUBSTRUCTURE
      1 S1             1
@<TRIPOS>SET
LONE_PAIRS      STATIC     ATOMS    <user>   **** ""
6 41 42 43 44 45 46
DONOR_HYDROGENS      STATIC     ATOMS    <user>   **** ""
1 29
ATOM$BLUE        STATIC     ATOMS    COLORGROUP SYSTEM
6 41 42 43 44 45 46
ATOM$RED        STATIC     ATOMS    COLORGROUP SYSTEM
1 29
