AV-unprocessed.smi:3004|AV-procd|sdf|11442|dock10
  -GOLD-   2272016373D 1   1.00000     0.00000
 Structure written by MMmdl.
 47 48  0  0  0  0  0  0  0  0  2 V2000
  146.8827  137.8405  163.3680 C   0  0  0  0  0  0  0  0  0  0  0  0
  147.1392  136.6749  162.4596 C   0  0  0  0  0  0  0  0  0  0  0  0
  146.8346  135.3024  162.6792 C   0  0  0  0  0  0  0  0  0  0  0  0
  147.2753  134.6734  161.5490 C   0  0  0  0  0  0  0  0  0  0  0  0
  147.2398  133.2278  161.1758 C   0  0  0  0  0  0  0  0  0  0  0  0
  147.8056  135.6520  160.7265 N   0  0  0  0  0  0  0  0  0  0  0  0
  148.3989  135.5189  159.4055 C   0  0  0  0  0  0  0  0  0  0  0  0
  147.8573  136.5812  158.4482 C   0  0  0  0  0  0  0  0  0  0  0  0
  147.7961  137.7580  158.8041 O   0  0  0  0  0  0  0  0  0  0  0  0
  147.4661  136.1551  157.2367 N   0  0  0  0  0  0  0  0  0  0  0  0
  146.9479  137.0115  156.1765 C   0  0  0  0  0  0  0  0  0  0  0  0
  147.3792  136.5185  154.7819 C   0  0  0  0  0  0  0  0  0  0  0  0
  148.7486  136.9890  154.4308 N   0  3  1  0  0  0  0  0  0  0  0  0
  148.8550  138.4668  154.5986 C   0  0  0  0  0  0  0  0  0  0  0  0
  150.2083  139.0095  154.1233 C   0  0  0  0  0  0  0  0  0  0  0  0
  151.3449  138.3272  154.8830 C   0  0  0  0  0  0  0  0  0  0  0  0
  151.2385  136.8129  154.6922 C   0  0  0  0  0  0  0  0  0  0  0  0
  149.8611  136.2555  155.1202 C   0  0  2  0  0  0  0  0  0  0  0  0
  149.8535  134.7382  154.8295 C   0  0  0  0  0  0  0  0  0  0  0  0
  147.7189  136.8779  161.2880 N   0  0  0  0  0  0  0  0  0  0  0  0
  146.4583  137.5137  164.3176 H   0  0  0  0  0  0  0  0  0  0  0  0
  146.1827  138.5436  162.9161 H   0  0  0  0  0  0  0  0  0  0  0  0
  147.8049  138.3799  163.5855 H   0  0  0  0  0  0  0  0  0  0  0  0
  146.3632  134.8476  163.5380 H   0  0  0  0  0  0  0  0  0  0  0  0
  146.7668  132.6354  161.9592 H   0  0  0  0  0  0  0  0  0  0  0  0
  148.2475  132.8401  161.0265 H   0  0  0  0  0  0  0  0  0  0  0  0
  146.6764  133.0761  160.2551 H   0  0  0  0  0  0  0  0  0  0  0  0
  149.4843  135.6023  159.4845 H   0  0  0  0  0  0  0  0  0  0  0  0
  148.1877  134.5222  159.0166 H   0  0  0  0  0  0  0  0  0  0  0  0
  147.5607  135.1708  157.0287 H   0  0  0  0  0  0  0  0  0  0  0  0
  145.8596  137.0604  156.2432 H   0  0  0  0  0  0  0  0  0  0  0  0
  147.3145  138.0203  156.3626 H   0  0  0  0  0  0  0  0  0  0  0  0
  147.3323  135.4298  154.7266 H   0  0  0  0  0  0  0  0  0  0  0  0
  146.6417  136.8713  154.0677 H   0  0  0  0  0  0  0  0  0  0  0  0
  148.0643  138.9674  154.0406 H   0  0  0  0  0  0  0  0  0  0  0  0
  148.7062  138.7247  155.6487 H   0  0  0  0  0  0  0  0  0  0  0  0
  150.3212  138.8424  153.0514 H   0  0  0  0  0  0  0  0  0  0  0  0
  150.2533  140.0881  154.2768 H   0  0  0  0  0  0  0  0  0  0  0  0
  152.3099  138.6867  154.5240 H   0  0  0  0  0  0  0  0  0  0  0  0
  151.2906  138.5754  155.9438 H   0  0  0  0  0  0  0  0  0  0  0  0
  151.4222  136.5721  153.6437 H   0  0  0  0  0  0  0  0  0  0  0  0
  152.0317  136.3248  155.2601 H   0  0  0  0  0  0  0  0  0  0  0  0
  149.7485  136.4045  156.1954 H   0  0  0  0  0  0  0  0  0  0  0  0
  150.7698  134.2701  155.1908 H   0  0  0  0  0  0  0  0  0  0  0  0
  149.7876  134.5390  153.7592 H   0  0  0  0  0  0  0  0  0  0  0  0
  149.0394  134.2109  155.3241 H   0  0  0  0  0  0  0  0  0  0  0  0
  148.8687  136.7972  153.4463 H   0  0  0  0  0  0  0  0  0  0  0  0
  1  2  1  0  0  0  0
  1 21  1  0  0  0  0
  1 22  1  0  0  0  0
  1 23  1  0  0  0  0
  2 20  2  0  0  0  0
  2  3  1  0  0  0  0
  3  4  2  0  0  0  0
  3 24  1  0  0  0  0
  4  5  1  0  0  0  0
  4  6  1  0  0  0  0
  5 25  1  0  0  0  0
  5 26  1  0  0  0  0
  5 27  1  0  0  0  0
  6  7  1  0  0  0  0
  6 20  1  0  0  0  0
  7  8  1  0  0  0  0
  7 28  1  0  0  0  0
  7 29  1  0  0  0  0
  8  9  2  0  0  0  0
  8 10  1  0  0  0  0
 10 11  1  0  0  0  0
 10 30  1  0  0  0  0
 11 12  1  0  0  0  0
 11 31  1  0  0  0  0
 11 32  1  0  0  0  0
 12 13  1  0  0  0  0
 12 33  1  0  0  0  0
 12 34  1  0  0  0  0
 13 18  1  0  0  0  0
 13 14  1  0  0  0  0
 13 47  1  0  0  0  0
 14 15  1  0  0  0  0
 14 35  1  0  0  0  0
 14 36  1  0  0  0  0
 15 16  1  0  0  0  0
 15 37  1  0  0  0  0
 15 38  1  0  0  0  0
 16 17  1  0  0  0  0
 16 39  1  0  0  0  0
 16 40  1  0  0  0  0
 17 18  1  0  0  0  0
 17 41  1  0  0  0  0
 17 42  1  0  0  0  0
 18 19  1  0  0  0  0
 18 43  1  0  0  0  0
 19 44  1  0  0  0  0
 19 45  1  0  0  0  0
 19 46  1  0  0  0  0
M  CHG  1  13   1
M  END
> <s_m_source_file>
AV-unprocessed.smi

> <i_m_source_file_index>
3004

> <i_lp_mmshare_version>
43012

> <i_f3d_flags>
0

> <s_epik_input>
W0NIM11jMVtjSF1jKFtDSDNdKW4objEpW0NIMl1DKD1PKVtOSF1bQ0gyXVtDSDJdTjJbQ0gyXVtDSDJdW0NIMl1bQ0gyXVtDQEhdMltDSDNd

> <s_epik_cmdline>
J2VwaWtfcHl0aG9uJywgJy1waCcsICc3LjAnLCAnLXRuJywgJzgnLCAnLW1hJywgJzIwMCcsICctbWV0YWxfYmluZGluZycsICctaW1hZScsICc8aW5maWxlLm1hZT4nLCAnLW9tYWUnLCAnPG91dGZpbGUubWFlPic=

> <r_lp_tautomer_probability>
1

> <r_epik_Ionization_Penalty>
0.00303644

> <r_epik_Ionization_Penalty_Charging>
0.00284254

> <r_epik_Ionization_Penalty_Neutral>
0.000193908

> <r_epik_State_Penalty>
-0

> <r_epik_Charging_Adjusted_Penalty>
0.00284254

> <i_epik_Tot_Q>
1

> <i_epik_Tot_abs_Q>
1

> <r_epik_Metal_State_Penalty>
-0

> <b_epik_Metal_Only>
0

> <s_lp_Force_Field>
OPLS_2005

> <r_lp_Energy>
17.2859

> <b_lp_Chiralities_Consistent>
1

> <s_lp_Variant>
AV-unprocessed.smi:3004-4

> <Gold.Version>
5.8.1

> <Gold.Id.Protein>
6NUR|6NUR_protein|mol2

> <Gold.PLP.Fitness>
44.4608

> <Gold.PLP.PLP>
-34.9204

> <Gold.PLP.part.hbond>
-3.8849

> <Gold.PLP.part.metal>
0.0000

> <Gold.PLP.part.buried>
-2.8684

> <Gold.PLP.part.nonpolar>
-29.0446

> <Gold.PLP.part.repulsive>
0.0000

> <Gold.PLP.ligand.clash>
0.0000

> <Gold.PLP.ligand.torsion>
0.6864

> <Gold.PLP.Chemscore.Hbond>
3.6252

> <Gold.PLP.Chemscore.CHOScore>
0.0000

> <Gold.PLP.Chemscore.Metal>
0.0000

> <Gold.Chemscore.Hbonds>
donor molecule, donor type, donor heavy atom, donor atom, acceptor molecule, acceptor atom, score
      L1  H    13    47       P1  7948  2.00
      P1  H  6931  6943       L1    20  0.85
      P1  H  6934  6947       L1    20  0.42

> <Gold.PLP.Chemscore.Internal.Correction>
0.0375

> <Gold.Rescore>
     Score         DG    S(hbond)    S(metal)    S(lipo)     H(rot)  DE(clash)    DE(int)     intcor
     16.12     -19.27       2.47        0.00      83.69       1.67       1.28       1.86       ----

> <Gold.Chemscore.Fitness>
16.1242

> <Gold.Chemscore.DG>
-19.2671

> <Gold.Chemscore.ZeroCoef>
-5.4800

> <Gold.Chemscore.Hbond>
2.4730

> <Gold.Chemscore.Metal>
0.0000

> <Gold.Chemscore.Lipo>
83.6867

> <Gold.Chemscore.Internal_Hbond>
0.0000

> <Gold.Chemscore.DEClash>
1.2785

> <Gold.Chemscore.DEInternal>
1.8644

> <Gold.Chemscore.Rot>
1.6657

> <Gold.Chemscore.Internal.Correction>
   9.000000E+99

> <Gold.Chemscore.Hbonds>
donor molecule, donor type, donor heavy atom, donor atom, acceptor molecule, acceptor atom, score
      L1  H    13    47       P1  7948  1.00
      P1  H  6931  6943       L1    20  0.14
      P1  H  6934  6947       L1    20  0.10

> <Gold.Chemscore.Hbond.Weighted>
-8.2598

> <Gold.Chemscore.Metal.Weighted>
-0.0000

> <Gold.Chemscore.Lipo.Weighted>
-9.7913

> <Gold.Chemscore.Internal_Hbond.Weighted>
0.0000

> <Gold.Chemscore.DEClash.Weighted>
1.2785

> <Gold.Chemscore.DEInternal.Weighted>
1.8644

> <Gold.Chemscore.Rot.Weighted>
4.2641

> <Gold.Chemscore.Internal.Correction.Weighted>
   9.000000E+99

> <Gold.Protein.RotatedTorsions>
[ 6907 6896 6895 6894 ] final    0.98 input  -60.11 | X-H torsion
[ 7974 7965 7964 7962 ] final   42.52 input  175.53 | X-H torsion
[ 8008 7997 7996 7995 ] final  143.85 input   59.86 | X-H torsion
[ 10167 10162 10161 10158 ] final    8.38 input  -65.29 | X-H torsion
[ 10718 10713 10712 10709 ] final -120.53 input   66.30 | X-H torsion
[ 10763 10752 10751 10750 ] final -119.89 input  -60.55 | X-H torsion
[ 11005 11000 10999 10996 ] final   -5.61 input  -57.11 | X-H torsion

> <Gold.Protein.ActiveResidues>
 VAL166  LYS551  ARG553  GLY616  TRP617  ASP618  TYR619  PRO620  LYS621  CYS622 
 ASP623  PHE694  ASN695  SER759  ASP760  ASP761  ALA762  ILE779  LEU786  VAL792 
 PHE793  MET794  SER795  GLU796  ALA797  LYS798  CYS799  TRP800  GLU811  SER814 

> <Gold.Protein.RotatedAtoms>
  151.5853  135.1056  160.0026 H   0  0  0  0  0  0  0  0  0  0  0  0  # atno 6907 bound_to 6896
  152.4334  133.7313  159.6599 H   0  0  0  0  0  0  0  0  0  0  0  0  # atno 6908 bound_to 6896
  150.8228  133.8152  159.3154 H   0  0  0  0  0  0  0  0  0  0  0  0  # atno 6909 bound_to 6896
  146.0734  139.5291  142.9583 H   0  0  0  0  0  0  0  0  0  0  0  0  # atno 7974 bound_to 7965
  156.2921  140.2251  156.4957 H   0  0  0  0  0  0  0  0  0  0  0  0  # atno 8008 bound_to 7997
  154.7732  140.0465  157.1090 H   0  0  0  0  0  0  0  0  0  0  0  0  # atno 8009 bound_to 7997
  154.9848  140.3083  155.4934 H   0  0  0  0  0  0  0  0  0  0  0  0  # atno 8010 bound_to 7997
  140.6318  143.7977  150.7305 H   0  0  0  0  0  0  0  0  0  0  0  0  # atno 10167 bound_to 10162
  156.1265  130.6363  150.9552 H   0  0  0  0  0  0  0  0  0  0  0  0  # atno 10718 bound_to 10713
  154.8629  135.4222  154.2371 H   0  0  0  0  0  0  0  0  0  0  0  0  # atno 10763 bound_to 10752
  153.3344  135.6990  153.6926 H   0  0  0  0  0  0  0  0  0  0  0  0  # atno 10764 bound_to 10752
  153.5929  135.3551  155.2891 H   0  0  0  0  0  0  0  0  0  0  0  0  # atno 10765 bound_to 10752
  140.6930  133.9054  155.8631 H   0  0  0  0  0  0  0  0  0  0  0  0  # atno 11005 bound_to 11000
  145.6351  141.0296  143.1842 LP  0  0  0  0  0  0  0  0  0  0  0  0  # atno 17320 bound_to 7965
  144.7246  139.7918  143.7370 LP  0  0  0  0  0  0  0  0  0  0  0  0  # atno 17321 bound_to 7965
  140.1590  143.4292  152.2080 LP  0  0  0  0  0  0  0  0  0  0  0  0  # atno 17342 bound_to 10162
  139.5531  144.7353  151.4375 LP  0  0  0  0  0  0  0  0  0  0  0  0  # atno 17343 bound_to 10162
  157.6447  131.0905  150.8179 LP  0  0  0  0  0  0  0  0  0  0  0  0  # atno 17370 bound_to 10713
  156.8269  130.5003  149.5336 LP  0  0  0  0  0  0  0  0  0  0  0  0  # atno 17371 bound_to 10713
  141.0225  134.0868  157.4104 LP  0  0  0  0  0  0  0  0  0  0  0  0  # atno 17394 bound_to 11000
  139.8918  135.0120  156.6810 LP  0  0  0  0  0  0  0  0  0  0  0  0  # atno 17395 bound_to 11000

$$$$
