AV-unprocessed.smi:299|AV-procd|sdf|2265|dock3
  -GOLD-   2262022153D 1   1.00000     0.00000
 Structure written by MMmdl.
 42 43  0  0  0  0  0  0  0  0  2 V2000
  147.0667  135.1712  154.6372 C   0  0  0  0  0  0  0  0  0  0  0  0
  145.9703  135.1544  153.5518 C   0  0  2  0  0  0  0  0  0  0  0  0
  146.0699  133.8215  152.7768 C   0  0  0  0  0  0  0  0  0  0  0  0
  145.0096  133.7127  151.6793 C   0  0  0  0  0  0  0  0  0  0  0  0
  145.1224  134.9179  150.7471 C   0  0  0  0  0  0  0  0  0  0  0  0
  145.0111  136.2278  151.5400 C   0  0  0  0  0  0  0  0  0  0  0  0
  146.0427  136.3245  152.6144 N   0  3  1  0  0  0  0  0  0  0  0  0
  146.0131  137.6510  153.2988 C   0  0  0  0  0  0  0  0  0  0  0  0
  146.4867  138.8170  152.4090 C   0  0  0  0  0  0  0  0  0  0  0  0
  146.9494  140.0301  153.2334 C   0  0  0  0  0  0  0  0  0  0  0  0
  148.3912  140.0096  153.4516 N   0  0  0  0  0  0  0  0  0  0  0  0
  148.9894  139.7508  154.6259 C   0  0  0  0  0  0  0  0  0  0  0  0
  148.3681  139.5140  155.6615 O   0  0  0  0  0  0  0  0  0  0  0  0
  150.5199  139.7793  154.6455 C   0  0  0  0  0  0  0  0  0  0  0  0
  151.0812  138.4832  154.9815 N   0  0  0  0  0  0  0  0  0  0  0  0
  150.8870  137.2778  154.4429 C   0  0  0  0  0  0  0  0  0  0  0  0
  151.5984  136.3462  155.0587 N   0  0  0  0  0  0  0  0  0  0  0  0
  152.2689  137.0591  156.0385 N   0  0  0  0  0  0  0  0  0  0  0  0
  151.9668  138.3278  155.9971 N   0  0  0  0  0  0  0  0  0  0  0  0
  147.0888  134.2274  155.1828 H   0  0  0  0  0  0  0  0  0  0  0  0
  146.8995  135.9446  155.3862 H   0  0  0  0  0  0  0  0  0  0  0  0
  148.0555  135.3202  154.2019 H   0  0  0  0  0  0  0  0  0  0  0  0
  145.0006  135.1857  154.0520 H   0  0  0  0  0  0  0  0  0  0  0  0
  147.0621  133.7264  152.3329 H   0  0  0  0  0  0  0  0  0  0  0  0
  145.9601  132.9803  153.4627 H   0  0  0  0  0  0  0  0  0  0  0  0
  145.1403  132.7871  151.1178 H   0  0  0  0  0  0  0  0  0  0  0  0
  144.0140  133.6743  152.1233 H   0  0  0  0  0  0  0  0  0  0  0  0
  146.0744  134.8878  150.2151 H   0  0  0  0  0  0  0  0  0  0  0  0
  144.3412  134.8744  149.9874 H   0  0  0  0  0  0  0  0  0  0  0  0
  145.1128  137.0455  150.8292 H   0  0  0  0  0  0  0  0  0  0  0  0
  144.0168  136.3157  151.9808 H   0  0  0  0  0  0  0  0  0  0  0  0
  145.0110  137.8472  153.6833 H   0  0  0  0  0  0  0  0  0  0  0  0
  146.6776  137.6415  154.1594 H   0  0  0  0  0  0  0  0  0  0  0  0
  147.3067  138.4819  151.7724 H   0  0  0  0  0  0  0  0  0  0  0  0
  145.6846  139.1388  151.7459 H   0  0  0  0  0  0  0  0  0  0  0  0
  146.6556  140.9610  152.7450 H   0  0  0  0  0  0  0  0  0  0  0  0
  146.4626  140.0260  154.2090 H   0  0  0  0  0  0  0  0  0  0  0  0
  148.9768  140.1962  152.6504 H   0  0  0  0  0  0  0  0  0  0  0  0
  150.8923  140.0840  153.6667 H   0  0  0  0  0  0  0  0  0  0  0  0
  150.8744  140.5157  155.3684 H   0  0  0  0  0  0  0  0  0  0  0  0
  150.2286  137.0845  153.6088 H   0  0  0  0  0  0  0  0  0  0  0  0
  146.9414  136.2605  152.1579 H   0  0  0  0  0  0  0  0  0  0  0  0
  1  2  1  0  0  0  0
  1 20  1  0  0  0  0
  1 21  1  0  0  0  0
  1 22  1  0  0  0  0
  2  7  1  0  0  0  0
  2  3  1  0  0  0  0
  2 23  1  0  0  0  0
  3  4  1  0  0  0  0
  3 24  1  0  0  0  0
  3 25  1  0  0  0  0
  4  5  1  0  0  0  0
  4 26  1  0  0  0  0
  4 27  1  0  0  0  0
  5  6  1  0  0  0  0
  5 28  1  0  0  0  0
  5 29  1  0  0  0  0
  6  7  1  0  0  0  0
  6 30  1  0  0  0  0
  6 31  1  0  0  0  0
  7  8  1  0  0  0  0
  7 42  1  0  0  0  0
  8  9  1  0  0  0  0
  8 32  1  0  0  0  0
  8 33  1  0  0  0  0
  9 10  1  0  0  0  0
  9 34  1  0  0  0  0
  9 35  1  0  0  0  0
 10 11  1  0  0  0  0
 10 36  1  0  0  0  0
 10 37  1  0  0  0  0
 11 12  1  0  0  0  0
 11 38  1  0  0  0  0
 12 13  2  0  0  0  0
 12 14  1  0  0  0  0
 14 15  1  0  0  0  0
 14 39  1  0  0  0  0
 14 40  1  0  0  0  0
 15 19  1  0  0  0  0
 15 16  1  0  0  0  0
 16 17  2  0  0  0  0
 16 41  1  0  0  0  0
 17 18  1  0  0  0  0
 18 19  2  0  0  0  0
M  CHG  1   7   1
M  END
> <s_m_source_file>
AV-unprocessed.smi

> <i_m_source_file_index>
299

> <i_lp_mmshare_version>
43012

> <i_f3d_flags>
0

> <s_epik_input>
W0NIM11bQ0BASF0xW0NIMl1bQ0gyXVtDSDJdW0NIMl1OMVtDSDJdW0NIMl1bQ0gyXVtOSF1DKD1PKVtDSDJdbjJbY0hdbm5uMg==

> <s_epik_cmdline>
J2VwaWtfcHl0aG9uJywgJy1waCcsICc3LjAnLCAnLXRuJywgJzgnLCAnLW1hJywgJzIwMCcsICctbWV0YWxfYmluZGluZycsICctaW1hZScsICc8aW5maWxlLm1hZT4nLCAnLW9tYWUnLCAnPG91dGZpbGUubWFlPic=

> <r_lp_tautomer_probability>
1

> <r_epik_Ionization_Penalty>
0.000544863

> <r_epik_Ionization_Penalty_Charging>
0.000543475

> <r_epik_Ionization_Penalty_Neutral>
1.38784e-06

> <r_epik_State_Penalty>
0.000340025

> <r_epik_Charging_Adjusted_Penalty>
0.0008835

> <i_epik_Tot_Q>
1

> <i_epik_Tot_abs_Q>
1

> <r_epik_Metal_State_Penalty>
-0

> <b_epik_Metal_Only>
0

> <s_lp_Force_Field>
OPLS_2005

> <r_lp_Energy>
24.2757

> <b_lp_Chiralities_Consistent>
1

> <s_lp_Variant>
AV-unprocessed.smi:299-1

> <Gold.Version>
5.8.1

> <Gold.Id.Protein>
6NUR|6NUR_protein|mol2

> <Gold.PLP.Fitness>
44.6237

> <Gold.PLP.PLP>
-30.3124

> <Gold.PLP.part.hbond>
-3.7735

> <Gold.PLP.part.metal>
0.0000

> <Gold.PLP.part.buried>
-2.1468

> <Gold.PLP.part.nonpolar>
-26.2943

> <Gold.PLP.part.repulsive>
0.2709

> <Gold.PLP.ligand.clash>
0.0000

> <Gold.PLP.ligand.torsion>
0.5336

> <Gold.PLP.Chemscore.Hbond>
3.9913

> <Gold.PLP.Chemscore.CHOScore>
1.1130

> <Gold.PLP.Chemscore.Metal>
0.0000

> <Gold.Chemscore.Hbonds>
donor molecule, donor type, donor heavy atom, donor atom, acceptor molecule, acceptor atom, score
      L1  H     7    42       P1  7948  2.00
      L1  H    11    38       P1  7957  1.00
      P1  H 10752 10765       L1    17  0.60
      L1  C    16    41       P1  7948  0.86
      L1  C    16    41       P1  7949  0.16

> <Gold.PLP.Chemscore.Internal.Correction>
0.0659

> <Gold.Rescore>
     Score         DG    S(hbond)    S(metal)    S(lipo)     H(rot)  DE(clash)    DE(int)     intcor
     13.35     -13.79       2.95        0.00      51.59       2.97       0.00       0.44       ----

> <Gold.Chemscore.Fitness>
13.3489

> <Gold.Chemscore.DG>
-13.7860

> <Gold.Chemscore.ZeroCoef>
-5.4800

> <Gold.Chemscore.Hbond>
2.9546

> <Gold.Chemscore.Metal>
0.0000

> <Gold.Chemscore.Lipo>
51.5856

> <Gold.Chemscore.Internal_Hbond>
0.0000

> <Gold.Chemscore.DEClash>
0.0021

> <Gold.Chemscore.DEInternal>
0.4350

> <Gold.Chemscore.Rot>
2.9680

> <Gold.Chemscore.Internal.Correction>
   9.000000E+99

> <Gold.Chemscore.Hbonds>
donor molecule, donor type, donor heavy atom, donor atom, acceptor molecule, acceptor atom, score
      L1  H     7    42       P1  7948  0.94
      L1  H    11    38       P1  7957  0.99
      P1  H 10752 10765       L1    17  0.04

> <Gold.Chemscore.Hbond.Weighted>
-9.8685

> <Gold.Chemscore.Metal.Weighted>
-0.0000

> <Gold.Chemscore.Lipo.Weighted>
-6.0355

> <Gold.Chemscore.Internal_Hbond.Weighted>
0.0000

> <Gold.Chemscore.DEClash.Weighted>
0.0021

> <Gold.Chemscore.DEInternal.Weighted>
0.4350

> <Gold.Chemscore.Rot.Weighted>
7.5980

> <Gold.Chemscore.Internal.Correction.Weighted>
   9.000000E+99

> <Gold.Protein.RotatedTorsions>
[ 6907 6896 6895 6894 ] final  -28.89 input  -60.11 | X-H torsion
[ 7974 7965 7964 7962 ] final -109.04 input  175.53 | X-H torsion
[ 8008 7997 7996 7995 ] final   89.70 input   59.86 | X-H torsion
[ 10167 10162 10161 10158 ] final  -45.32 input  -65.29 | X-H torsion
[ 10718 10713 10712 10709 ] final -144.54 input   66.30 | X-H torsion
[ 10763 10752 10751 10750 ] final -179.46 input  -60.55 | X-H torsion
[ 11005 11000 10999 10996 ] final  121.95 input  -57.11 | X-H torsion

> <Gold.Protein.ActiveResidues>
 VAL166  LYS551  ARG553  GLY616  TRP617  ASP618  TYR619  PRO620  LYS621  CYS622 
 ASP623  PHE694  ASN695  SER759  ASP760  ASP761  ALA762  ILE779  LEU786  VAL792 
 PHE793  MET794  SER795  GLU796  ALA797  LYS798  CYS799  TRP800  GLU811  SER814 

> <Gold.Protein.RotatedAtoms>
  151.1267  135.0108  159.8563 H   0  0  0  0  0  0  0  0  0  0  0  0  # atno 6907 bound_to 6896
  152.5450  134.1659  159.8587 H   0  0  0  0  0  0  0  0  0  0  0  0  # atno 6908 bound_to 6896
  151.1722  133.4732  159.2627 H   0  0  0  0  0  0  0  0  0  0  0  0  # atno 6909 bound_to 6896
  145.1855  140.8991  143.3455 H   0  0  0  0  0  0  0  0  0  0  0  0  # atno 7974 bound_to 7965
  156.0031  140.3358  155.6866 H   0  0  0  0  0  0  0  0  0  0  0  0  # atno 8008 bound_to 7997
  155.6262  140.0680  157.2681 H   0  0  0  0  0  0  0  0  0  0  0  0  # atno 8009 bound_to 7997
  154.4256  140.1768  156.1412 H   0  0  0  0  0  0  0  0  0  0  0  0  # atno 8010 bound_to 7997
  140.6862  143.2885  151.3622 H   0  0  0  0  0  0  0  0  0  0  0  0  # atno 10167 bound_to 10162
  156.3713  130.7789  151.1970 H   0  0  0  0  0  0  0  0  0  0  0  0  # atno 10718 bound_to 10713
  154.5348  135.2802  155.1148 H   0  0  0  0  0  0  0  0  0  0  0  0  # atno 10763 bound_to 10752
  154.2654  135.6313  153.5294 H   0  0  0  0  0  0  0  0  0  0  0  0  # atno 10764 bound_to 10752
  152.9965  135.5615  154.5871 H   0  0  0  0  0  0  0  0  0  0  0  0  # atno 10765 bound_to 10752
  139.9247  134.9640  156.8036 H   0  0  0  0  0  0  0  0  0  0  0  0  # atno 11005 bound_to 11000
  145.0093  139.3524  143.6128 LP  0  0  0  0  0  0  0  0  0  0  0  0  # atno 17320 bound_to 7965
  146.3445  139.9349  142.8748 LP  0  0  0  0  0  0  0  0  0  0  0  0  # atno 17321 bound_to 7965
  139.6224  144.0881  152.2403 LP  0  0  0  0  0  0  0  0  0  0  0  0  # atno 17342 bound_to 10162
  140.0330  144.6066  150.7473 LP  0  0  0  0  0  0  0  0  0  0  0  0  # atno 17343 bound_to 10162
  157.7484  131.0371  150.4441 LP  0  0  0  0  0  0  0  0  0  0  0  0  # atno 17370 bound_to 10713
  156.4669  130.4044  149.6542 LP  0  0  0  0  0  0  0  0  0  0  0  0  # atno 17371 bound_to 10713
  140.6370  133.9853  155.7689 LP  0  0  0  0  0  0  0  0  0  0  0  0  # atno 17394 bound_to 11000
  141.0796  134.0082  157.3405 LP  0  0  0  0  0  0  0  0  0  0  0  0  # atno 17395 bound_to 11000

$$$$
