#       Name:                AV-unprocessed.smi:1756
#       Creating user name   scv26
#       Creation time:       Fri Mar 27 08:29:15 2020


#       File generated by GOLD software.
#

@<TRIPOS>MOLECULE
AV-unprocessed.smi:1756
    44    45     1
SMALL
NO_CHARGES


@<TRIPOS>ATOM
      1 ****         0.3721   1.0247   0.8975 O.2            1 S1                 0.0000
      2 ****        -0.1867  -0.0592   1.0625 C.2            1 S1                 0.0000
      3 ****         0.4739  -1.2229   1.1423 N.am           1 S1                 0.0000
      4 ****         1.9231  -1.3830   1.0647 C.3            1 S1                 0.0000
      5 ****         2.3858  -1.8411  -0.3306 C.3            1 S1                 0.0000
      6 ****         2.1541  -0.7864  -1.4342 C.3            1 S1                 0.0000
      7 ****         2.7358  -1.2610  -2.7705 C.3            1 S1                 0.0000
      8 ****         4.2012  -1.6657  -2.5835 C.3            1 S1                 0.0000
      9 ****         4.3305  -2.6756  -1.4332 C.3            1 S1                 0.0000
     10 ****         3.7805  -2.1245  -0.2406 O.3            1 S1                 0.0000
     11 ****        -1.5141  -0.2554   1.1661 N.am           1 S1                 0.0000
     12 ****        -2.5604   0.6829   1.1492 C.2            1 S1                 0.0000
     13 ****        -2.4077   2.0246   1.3024 C.2            1 S1                 0.0000
     14 ****        -3.5386   2.9374   1.2835 C.2            1 S1                 0.0000
     15 ****        -3.3482   4.4436   1.3701 C.3            1 S1                 0.0000
     16 ****        -4.3017   5.0905   0.6986 F              1 S1                 0.0000
     17 ****        -3.3995   4.8340   2.6427 F              1 S1                 0.0000
     18 ****        -2.1659   4.8063   0.8724 F              1 S1                 0.0000
     19 ****        -4.7521   2.3859   1.0988 C.2            1 S1                 0.0000
     20 ****        -4.9205   1.0062   0.9640 N.am           1 S1                 0.0000
     21 ****        -3.9066   0.1120   0.9769 C.2            1 S1                 0.0000
     22 ****        -4.1380  -1.0899   0.8496 O.2            1 S1                 0.0000
     23 ****        -5.8650   0.6686   0.8463 H              1 S1                 0.0000
     24 ****        -0.0669  -2.0658   1.2696 H              1 S1                 0.0000
     25 ****         2.4399  -0.4672   1.3564 H              1 S1                 0.0000
     26 ****         2.2049  -2.1352   1.8018 H              1 S1                 0.0000
     27 ****         1.8590  -2.7618  -0.5885 H              1 S1                 0.0000
     28 ****         1.0905  -0.5814  -1.5545 H              1 S1                 0.0000
     29 ****         2.6231   0.1553  -1.1457 H              1 S1                 0.0000
     30 ****         2.1630  -2.1133  -3.1379 H              1 S1                 0.0000
     31 ****         2.6502  -0.4768  -3.5230 H              1 S1                 0.0000
     32 ****         4.5973  -2.0901  -3.5064 H              1 S1                 0.0000
     33 ****         4.8009  -0.7821  -2.3615 H              1 S1                 0.0000
     34 ****         3.8299  -3.6133  -1.6789 H              1 S1                 0.0000
     35 ****         5.3803  -2.9122  -1.2591 H              1 S1                 0.0000
     36 ****        -1.8179  -1.2158   1.2355 H              1 S1                 0.0000
     37 ****        -1.4353   2.4594   1.4637 H              1 S1                 0.0000
     38 ****        -5.6724   2.9479   1.0343 H              1 S1                 0.0000
     39 ****         1.3679   1.0666   0.8159 LP             1 S1                 0.0000
     40 ****        -0.1695   1.8636   0.8450 LP             1 S1                 0.0000
     41 ****         3.9228  -2.7771   0.5036 LP             1 S1                 0.0000
     42 ****         4.2631  -1.2733  -0.0343 LP             1 S1                 0.0000
     43 ****        -3.3850  -1.7478   0.8595 LP             1 S1                 0.0000
     44 ****        -5.0790  -1.4086   0.7362 LP             1 S1                 0.0000
@<TRIPOS>BOND
    1    1    2 2     
    2    2    3 am    
    3    2   11 am    
    4    3    4 1     
    5    3   24 1     
    6    4    5 1     
    7    4   25 1     
    8    4   26 1     
    9    5   10 1     
   10    5    6 1     
   11    5   27 1     
   12    6    7 1     
   13    6   28 1     
   14    6   29 1     
   15    7    8 1     
   16    7   30 1     
   17    7   31 1     
   18    8    9 1     
   19    8   32 1     
   20    8   33 1     
   21    9   10 1     
   22    9   34 1     
   23    9   35 1     
   24   11   12 1     
   25   11   36 1     
   26   12   21 1     
   27   12   13 2     
   28   13   14 1     
   29   13   37 1     
   30   14   15 1     
   31   14   19 2     
   32   15   16 1     
   33   15   17 1     
   34   15   18 1     
   35   19   20 1     
   36   19   38 1     
   37   20   23 1     
   38   20   21 am    
   39   21   22 2     
   40    1   39 1     
   41    1   40 1     
   42   10   41 1     
   43   10   42 1     
   44   22   43 1     
   45   22   44 1     
@<TRIPOS>SUBSTRUCTURE
      1 S1             1
@<TRIPOS>SET
LONE_PAIRS      STATIC     ATOMS    <user>   **** ""
6 39 40 41 42 43 44
DONOR_HYDROGENS      STATIC     ATOMS    <user>   **** ""
3 24 36 23
ATOM$BLUE        STATIC     ATOMS    COLORGROUP SYSTEM
6 39 40 41 42 43 44
ATOM$RED        STATIC     ATOMS    COLORGROUP SYSTEM
3 24 36 23
