AV-unprocessed.smi:3327|AV-procd|sdf|12789|dock6
  -GOLD-   2272019143D 1   1.00000     0.00000
 Structure written by MMmdl.
 40 41  0  0  0  0  0  0  0  0  1 V2000
  151.4471  145.6263  159.8543 C   0  0  0  0  0  0  0  0  0  0  0  0
  151.6717  144.1530  160.2225 C   0  0  2  0  0  0  0  0  0  0  0  0
  152.4028  144.0123  161.5749 C   0  0  0  0  0  0  0  0  0  0  0  0
  152.7420  142.5447  161.8959 C   0  0  0  0  0  0  0  0  0  0  0  0
  153.4587  141.8721  160.7120 C   0  0  0  0  0  0  0  0  0  0  0  0
  152.6120  141.9965  159.5173 N   0  0  0  0  0  0  0  0  0  0  0  0
  151.9406  140.9839  158.9151 C   0  0  0  0  0  0  0  0  0  0  0  0
  152.0839  139.8097  159.2619 O   0  0  0  0  0  0  0  0  0  0  0  0
  150.9917  141.3068  157.7424 C   0  0  0  0  0  0  0  0  0  0  0  0
  150.4562  140.1382  157.0237 N   0  0  0  0  0  0  0  0  0  0  0  0
  151.0303  139.9643  155.6925 C   0  0  0  0  0  0  0  0  0  0  0  0
  149.9801  139.3857  154.7291 C   0  0  0  0  0  0  0  0  0  0  0  0
  148.8940  140.3126  154.4646 N   0  0  0  0  0  0  0  0  0  0  0  0
  148.8170  141.6541  154.7749 C   0  0  0  0  0  0  0  0  0  0  0  0
  147.6085  142.1059  154.3279 C   0  0  0  0  0  0  0  0  0  0  0  0
  147.0091  140.9520  153.7502 C   0  0  0  0  0  0  0  0  0  0  0  0
  147.7819  139.8807  153.8310 N   0  0  0  0  0  0  0  0  0  0  0  0
  152.4467  143.4014  159.1194 C   0  0  0  0  0  0  0  0  0  0  0  0
  152.3937  146.1530  159.7286 H   0  0  0  0  0  0  0  0  0  0  0  0
  150.8790  146.1424  160.6288 H   0  0  0  0  0  0  0  0  0  0  0  0
  150.8895  145.7166  158.9218 H   0  0  0  0  0  0  0  0  0  0  0  0
  150.6905  143.6857  160.3203 H   0  0  0  0  0  0  0  0  0  0  0  0
  153.3278  144.5899  161.5467 H   0  0  0  0  0  0  0  0  0  0  0  0
  151.7991  144.4378  162.3772 H   0  0  0  0  0  0  0  0  0  0  0  0
  153.3636  142.4933  162.7903 H   0  0  0  0  0  0  0  0  0  0  0  0
  151.8255  141.9986  162.1237 H   0  0  0  0  0  0  0  0  0  0  0  0
  154.4148  142.3638  160.5264 H   0  0  0  0  0  0  0  0  0  0  0  0
  153.7067  140.8462  160.9767 H   0  0  0  0  0  0  0  0  0  0  0  0
  150.1522  141.9054  158.0975 H   0  0  0  0  0  0  0  0  0  0  0  0
  151.5405  141.9207  157.0278 H   0  0  0  0  0  0  0  0  0  0  0  0
  149.4478  140.1638  156.9708 H   0  0  0  0  0  0  0  0  0  0  0  0
  151.3780  140.9195  155.3005 H   0  0  0  0  0  0  0  0  0  0  0  0
  151.8991  139.3063  155.7417 H   0  0  0  0  0  0  0  0  0  0  0  0
  150.4413  139.1006  153.7824 H   0  0  0  0  0  0  0  0  0  0  0  0
  149.5536  138.4752  155.1521 H   0  0  0  0  0  0  0  0  0  0  0  0
  149.6189  142.1688  155.2831 H   0  0  0  0  0  0  0  0  0  0  0  0
  147.2126  143.1076  154.4024 H   0  0  0  0  0  0  0  0  0  0  0  0
  146.0430  140.8621  153.2760 H   0  0  0  0  0  0  0  0  0  0  0  0
  151.9338  143.5083  158.1624 H   0  0  0  0  0  0  0  0  0  0  0  0
  153.4303  143.8515  158.9752 H   0  0  0  0  0  0  0  0  0  0  0  0
  1  2  1  0  0  0  0
  1 19  1  0  0  0  0
  1 20  1  0  0  0  0
  1 21  1  0  0  0  0
  2 18  1  0  0  0  0
  2  3  1  0  0  0  0
  2 22  1  0  0  0  0
  3  4  1  0  0  0  0
  3 23  1  0  0  0  0
  3 24  1  0  0  0  0
  4  5  1  0  0  0  0
  4 25  1  0  0  0  0
  4 26  1  0  0  0  0
  5  6  1  0  0  0  0
  5 27  1  0  0  0  0
  5 28  1  0  0  0  0
  6  7  1  0  0  0  0
  6 18  1  0  0  0  0
  7  8  2  0  0  0  0
  7  9  1  0  0  0  0
  9 10  1  0  0  0  0
  9 29  1  0  0  0  0
  9 30  1  0  0  0  0
 10 11  1  0  0  0  0
 10 31  1  0  0  0  0
 11 12  1  0  0  0  0
 11 32  1  0  0  0  0
 11 33  1  0  0  0  0
 12 13  1  0  0  0  0
 12 34  1  0  0  0  0
 12 35  1  0  0  0  0
 13 17  1  0  0  0  0
 13 14  1  0  0  0  0
 14 15  2  0  0  0  0
 14 36  1  0  0  0  0
 15 16  1  0  0  0  0
 15 37  1  0  0  0  0
 16 17  2  0  0  0  0
 16 38  1  0  0  0  0
 18 39  1  0  0  0  0
 18 40  1  0  0  0  0
M  END
> <s_m_source_file>
AV-unprocessed.smi

> <i_m_source_file_index>
3327

> <i_lp_mmshare_version>
43012

> <i_f3d_flags>
0

> <s_epik_input>
W0NIM11bQ0BASF0xW0NIMl1bQ0gyXVtDSDJdTihbQ0gyXTEpQyg9TylbQ0gyXVtOSF1bQ0gyXVtDSDJdbjJbY0hdW2NIXVtjSF1uMg==

> <s_epik_cmdline>
J2VwaWtfcHl0aG9uJywgJy1waCcsICc3LjAnLCAnLXRuJywgJzgnLCAnLW1hJywgJzIwMCcsICctbWV0YWxfYmluZGluZycsICctaW1hZScsICc8aW5maWxlLm1hZT4nLCAnLW9tYWUnLCAnPG91dGZpbGUubWFlPic=

> <r_lp_tautomer_probability>
1

> <r_epik_Ionization_Penalty>
0.752964

> <r_epik_Ionization_Penalty_Charging>
0

> <r_epik_Ionization_Penalty_Neutral>
0.752964

> <r_epik_State_Penalty>
0.778238

> <r_epik_Charging_Adjusted_Penalty>
0.778238

> <i_epik_Tot_Q>
0

> <i_epik_Tot_abs_Q>
0

> <r_epik_Metal_State_Penalty>
0.776974

> <b_epik_Metal_Only>
0

> <s_lp_Force_Field>
OPLS_2005

> <r_lp_Energy>
27.1089

> <b_lp_Chiralities_Consistent>
1

> <s_lp_Variant>
AV-unprocessed.smi:3327-3

> <Gold.Version>
5.8.1

> <Gold.Id.Protein>
6NUR|6NUR_protein|mol2

> <Gold.PLP.Fitness>
50.7930

> <Gold.PLP.PLP>
-47.7119

> <Gold.PLP.part.hbond>
0.0000

> <Gold.PLP.part.metal>
0.0000

> <Gold.PLP.part.buried>
-3.5496

> <Gold.PLP.part.nonpolar>
-44.4482

> <Gold.PLP.part.repulsive>
0.1778

> <Gold.PLP.ligand.clash>
0.0000

> <Gold.PLP.ligand.torsion>
0.7672

> <Gold.PLP.Chemscore.Hbond>
0.0000

> <Gold.PLP.Chemscore.CHOScore>
1.5181

> <Gold.PLP.Chemscore.Metal>
0.0000

> <Gold.Chemscore.Hbonds>
donor molecule, donor type, donor heavy atom, donor atom, acceptor molecule, acceptor atom, score
      L1  C    14    36       P1  8028  0.36
      L1  C    16    38       P1 10175  1.00

> <Gold.PLP.Chemscore.Internal.Correction>
0.0612

> <Gold.Rescore>
     Score         DG    S(hbond)    S(metal)    S(lipo)     H(rot)  DE(clash)    DE(int)     intcor
     13.51     -14.21       0.00        0.00     112.48       1.73       0.07       0.64       ----

> <Gold.Chemscore.Fitness>
13.5075

> <Gold.Chemscore.DG>
-14.2127

> <Gold.Chemscore.ZeroCoef>
-5.4800

> <Gold.Chemscore.Hbond>
0.0000

> <Gold.Chemscore.Metal>
0.0000

> <Gold.Chemscore.Lipo>
112.4832

> <Gold.Chemscore.Internal_Hbond>
0.0000

> <Gold.Chemscore.DEClash>
0.0655

> <Gold.Chemscore.DEInternal>
0.6398

> <Gold.Chemscore.Rot>
1.7296

> <Gold.Chemscore.Internal.Correction>
   9.000000E+99

> <Gold.Chemscore.Hbond.Weighted>
-0.0000

> <Gold.Chemscore.Metal.Weighted>
-0.0000

> <Gold.Chemscore.Lipo.Weighted>
-13.1605

> <Gold.Chemscore.Internal_Hbond.Weighted>
0.0000

> <Gold.Chemscore.DEClash.Weighted>
0.0655

> <Gold.Chemscore.DEInternal.Weighted>
0.6398

> <Gold.Chemscore.Rot.Weighted>
4.4278

> <Gold.Chemscore.Internal.Correction.Weighted>
   9.000000E+99

> <Gold.Protein.RotatedTorsions>
[ 6907 6896 6895 6894 ] final -133.33 input  -60.11 | X-H torsion
[ 7974 7965 7964 7962 ] final  131.71 input  175.53 | X-H torsion
[ 8008 7997 7996 7995 ] final  -54.43 input   59.86 | X-H torsion
[ 10167 10162 10161 10158 ] final  111.81 input  -65.29 | X-H torsion
[ 10718 10713 10712 10709 ] final  -14.50 input   66.30 | X-H torsion
[ 10763 10752 10751 10750 ] final -128.87 input  -60.55 | X-H torsion
[ 11005 11000 10999 10996 ] final    8.36 input  -57.11 | X-H torsion

> <Gold.Protein.ActiveResidues>
 VAL166  LYS551  ARG553  GLY616  TRP617  ASP618  TYR619  PRO620  LYS621  CYS622 
 ASP623  PHE694  ASN695  SER759  ASP760  ASP761  ALA762  ILE779  LEU786  VAL792 
 PHE793  MET794  SER795  GLU796  ALA797  LYS798  CYS799  TRP800  GLU811  SER814 

> <Gold.Protein.RotatedAtoms>
  150.9727  133.6327  159.2735 H   0  0  0  0  0  0  0  0  0  0  0  0  # atno 6907 bound_to 6896
  151.3610  135.0903  159.9444 H   0  0  0  0  0  0  0  0  0  0  0  0  # atno 6908 bound_to 6896
  152.5188  133.9301  159.7631 H   0  0  0  0  0  0  0  0  0  0  0  0  # atno 6909 bound_to 6896
  145.0045  139.4280  143.5276 H   0  0  0  0  0  0  0  0  0  0  0  0  # atno 7974 bound_to 7965
  154.4162  140.1176  156.5314 H   0  0  0  0  0  0  0  0  0  0  0  0  # atno 8008 bound_to 7997
  155.6601  140.3496  155.4760 H   0  0  0  0  0  0  0  0  0  0  0  0  # atno 8009 bound_to 7997
  155.9720  140.1143  157.0793 H   0  0  0  0  0  0  0  0  0  0  0  0  # atno 8010 bound_to 7997
  139.6583  144.7129  151.1915 H   0  0  0  0  0  0  0  0  0  0  0  0  # atno 10167 bound_to 10162
  156.6151  130.4860  149.6186 H   0  0  0  0  0  0  0  0  0  0  0  0  # atno 10718 bound_to 10713
  154.8757  135.3914  154.3828 H   0  0  0  0  0  0  0  0  0  0  0  0  # atno 10763 bound_to 10752
  153.4573  135.7029  153.6077 H   0  0  0  0  0  0  0  0  0  0  0  0  # atno 10764 bound_to 10752
  153.4591  135.3816  155.2296 H   0  0  0  0  0  0  0  0  0  0  0  0  # atno 10765 bound_to 10752
  140.5378  134.0404  155.7894 H   0  0  0  0  0  0  0  0  0  0  0  0  # atno 11005 bound_to 11000
  146.3458  139.9453  142.8736 LP  0  0  0  0  0  0  0  0  0  0  0  0  # atno 17320 bound_to 7965
  145.2108  140.9894  143.4102 LP  0  0  0  0  0  0  0  0  0  0  0  0  # atno 17321 bound_to 7965
  140.7569  143.6036  150.8675 LP  0  0  0  0  0  0  0  0  0  0  0  0  # atno 17342 bound_to 10162
  139.9691  143.6077  152.2979 LP  0  0  0  0  0  0  0  0  0  0  0  0  # atno 17343 bound_to 10162
  156.2357  130.6821  151.1507 LP  0  0  0  0  0  0  0  0  0  0  0  0  # atno 17370 bound_to 10713
  157.7243  131.0660  150.6000 LP  0  0  0  0  0  0  0  0  0  0  0  0  # atno 17371 bound_to 10713
  141.1244  133.9407  157.2664 LP  0  0  0  0  0  0  0  0  0  0  0  0  # atno 17394 bound_to 11000
  139.9520  135.0173  156.9020 LP  0  0  0  0  0  0  0  0  0  0  0  0  # atno 17395 bound_to 11000

$$$$
