AV-unprocessed.smi:3251|AV-procd|sdf|12435|dock2
  -GOLD-   2272018323D 1   1.00000     0.00000
 Structure written by MMmdl.
 41 42  0  0  0  0  0  0  0  0  2 V2000
  151.8761  145.6100  159.9585 C   0  0  0  0  0  0  0  0  0  0  0  0
  152.2194  144.1767  160.2458 C   0  0  0  0  0  0  0  0  0  0  0  0
  152.4096  143.5600  161.5151 C   0  0  0  0  0  0  0  0  0  0  0  0
  152.7113  142.2750  161.4222 N   0  0  0  0  0  0  0  0  0  0  0  0
  152.7223  142.0265  160.0953 N   0  0  0  0  0  0  0  0  0  0  0  0
  153.0452  140.6961  159.6121 C   0  0  0  0  0  0  0  0  0  0  0  0
  151.9659  140.1623  158.6582 C   0  0  0  0  0  0  0  0  0  0  0  0
  152.4996  139.9830  157.2899 N   0  3  0  0  0  0  0  0  0  0  0  0
  151.4976  139.6219  156.2622 C   0  0  2  0  0  0  0  0  0  0  0  0
  152.2207  139.1023  155.0094 C   0  0  0  0  0  0  0  0  0  0  0  0
  150.6122  140.8308  155.8959 C   0  0  0  0  0  0  0  0  0  0  0  0
  150.8674  141.9276  156.3967 O   0  0  0  0  0  0  0  0  0  0  0  0
  149.5890  140.6639  155.0304 N   0  0  0  0  0  0  0  0  0  0  0  0
  148.6595  141.6978  154.5747 C   0  0  0  0  0  0  0  0  0  0  0  0
  147.5506  140.9574  153.8271 C   0  0  0  0  0  0  0  0  0  0  0  0
  148.2176  139.6782  153.3432 C   0  0  0  0  0  0  0  0  0  0  0  0
  149.2672  139.3779  154.4132 C   0  0  0  0  0  0  0  0  0  0  0  0
  152.4281  143.1561  159.3619 C   0  0  0  0  0  0  0  0  0  0  0  0
  151.4519  146.1079  160.8308 H   0  0  0  0  0  0  0  0  0  0  0  0
  151.1459  145.6967  159.1537 H   0  0  0  0  0  0  0  0  0  0  0  0
  152.7553  146.1802  159.6584 H   0  0  0  0  0  0  0  0  0  0  0  0
  152.3395  144.0071  162.4960 H   0  0  0  0  0  0  0  0  0  0  0  0
  154.0220  140.7161  159.1259 H   0  0  0  0  0  0  0  0  0  0  0  0
  153.1381  140.0349  160.4744 H   0  0  0  0  0  0  0  0  0  0  0  0
  151.5907  139.2029  159.0156 H   0  0  0  0  0  0  0  0  0  0  0  0
  151.1191  140.8499  158.6500 H   0  0  0  0  0  0  0  0  0  0  0  0
  152.9414  140.8456  157.0018 H   0  0  0  0  0  0  0  0  0  0  0  0
  150.8920  138.8136  156.6725 H   0  0  0  0  0  0  0  0  0  0  0  0
  151.5171  138.8071  154.2306 H   0  0  0  0  0  0  0  0  0  0  0  0
  152.8290  138.2283  155.2444 H   0  0  0  0  0  0  0  0  0  0  0  0
  152.8818  139.8597  154.5857 H   0  0  0  0  0  0  0  0  0  0  0  0
  148.2479  142.2854  155.3956 H   0  0  0  0  0  0  0  0  0  0  0  0
  149.1842  142.3748  153.8990 H   0  0  0  0  0  0  0  0  0  0  0  0
  146.7459  140.7081  154.5203 H   0  0  0  0  0  0  0  0  0  0  0  0
  147.1213  141.5451  153.0149 H   0  0  0  0  0  0  0  0  0  0  0  0
  147.5113  138.8592  153.2021 H   0  0  0  0  0  0  0  0  0  0  0  0
  148.7108  139.8622  152.3878 H   0  0  0  0  0  0  0  0  0  0  0  0
  150.1464  138.8981  153.9801 H   0  0  0  0  0  0  0  0  0  0  0  0
  148.8576  138.7114  155.1740 H   0  0  0  0  0  0  0  0  0  0  0  0
  152.3969  143.1426  158.2821 H   0  0  0  0  0  0  0  0  0  0  0  0
  153.2030  139.2595  157.3244 H   0  0  0  0  0  0  0  0  0  0  0  0
  1  2  1  0  0  0  0
  1 19  1  0  0  0  0
  1 20  1  0  0  0  0
  1 21  1  0  0  0  0
  2 18  2  0  0  0  0
  2  3  1  0  0  0  0
  3  4  2  0  0  0  0
  3 22  1  0  0  0  0
  4  5  1  0  0  0  0
  5  6  1  0  0  0  0
  5 18  1  0  0  0  0
  6  7  1  0  0  0  0
  6 23  1  0  0  0  0
  6 24  1  0  0  0  0
  7  8  1  0  0  0  0
  7 25  1  0  0  0  0
  7 26  1  0  0  0  0
  8  9  1  0  0  0  0
  8 27  1  0  0  0  0
  8 41  1  0  0  0  0
  9 10  1  0  0  0  0
  9 11  1  0  0  0  0
  9 28  1  0  0  0  0
 10 29  1  0  0  0  0
 10 30  1  0  0  0  0
 10 31  1  0  0  0  0
 11 12  2  0  0  0  0
 11 13  1  0  0  0  0
 13 17  1  0  0  0  0
 13 14  1  0  0  0  0
 14 15  1  0  0  0  0
 14 32  1  0  0  0  0
 14 33  1  0  0  0  0
 15 16  1  0  0  0  0
 15 34  1  0  0  0  0
 15 35  1  0  0  0  0
 16 17  1  0  0  0  0
 16 36  1  0  0  0  0
 16 37  1  0  0  0  0
 17 38  1  0  0  0  0
 17 39  1  0  0  0  0
 18 40  1  0  0  0  0
M  CHG  1   8   1
M  END
> <s_m_source_file>
AV-unprocessed.smi

> <i_m_source_file_index>
3251

> <i_lp_mmshare_version>
43012

> <i_f3d_flags>
0

> <s_epik_input>
W0NIM11jMVtjSF1ubihbY0hdMSlbQ0gyXVtDSDJdW05IXVtDQEhdKFtDSDNdKUMoPU8pTjJbQ0gyXVtDSDJdW0NIMl1bQ0gyXTI=

> <s_epik_cmdline>
J2VwaWtfcHl0aG9uJywgJy1waCcsICc3LjAnLCAnLXRuJywgJzgnLCAnLW1hJywgJzIwMCcsICctbWV0YWxfYmluZGluZycsICctaW1hZScsICc8aW5maWxlLm1hZT4nLCAnLW9tYWUnLCAnPG91dGZpbGUubWFlPic=

> <r_lp_tautomer_probability>
1

> <r_epik_Ionization_Penalty>
0.203173

> <r_epik_Ionization_Penalty_Charging>
0.203168

> <r_epik_Ionization_Penalty_Neutral>
5.06494e-06

> <r_epik_State_Penalty>
0.193072

> <r_epik_Charging_Adjusted_Penalty>
0.39624

> <i_epik_Tot_Q>
1

> <i_epik_Tot_abs_Q>
1

> <r_epik_Metal_State_Penalty>
0.193587

> <b_epik_Metal_Only>
0

> <s_lp_Force_Field>
OPLS_2005

> <r_lp_Energy>
29.5605

> <b_lp_Chiralities_Consistent>
1

> <s_lp_Variant>
AV-unprocessed.smi:3251-1

> <Gold.Version>
5.8.1

> <Gold.Id.Protein>
6NUR|6NUR_protein|mol2

> <Gold.PLP.Fitness>
42.8733

> <Gold.PLP.PLP>
-43.9442

> <Gold.PLP.part.hbond>
0.0000

> <Gold.PLP.part.metal>
0.0000

> <Gold.PLP.part.buried>
-1.3926

> <Gold.PLP.part.nonpolar>
-43.3897

> <Gold.PLP.part.repulsive>
1.4166

> <Gold.PLP.ligand.clash>
0.0000

> <Gold.PLP.ligand.torsion>
0.5502

> <Gold.PLP.Chemscore.Hbond>
0.0000

> <Gold.PLP.Chemscore.CHOScore>
0.0000

> <Gold.PLP.Chemscore.Metal>
0.0000

> <Gold.PLP.Chemscore.Internal.Correction>
0.0296

> <Gold.Rescore>
     Score         DG    S(hbond)    S(metal)    S(lipo)     H(rot)  DE(clash)    DE(int)     intcor
     11.98     -12.76       0.00        0.00     100.70       1.76       0.14       0.64       ----

> <Gold.Chemscore.Fitness>
11.9814

> <Gold.Chemscore.DG>
-12.7571

> <Gold.Chemscore.ZeroCoef>
-5.4800

> <Gold.Chemscore.Hbond>
0.0000

> <Gold.Chemscore.Metal>
0.0000

> <Gold.Chemscore.Lipo>
100.7047

> <Gold.Chemscore.Internal_Hbond>
0.0000

> <Gold.Chemscore.DEClash>
0.1376

> <Gold.Chemscore.DEInternal>
0.6381

> <Gold.Chemscore.Rot>
1.7599

> <Gold.Chemscore.Internal.Correction>
   9.000000E+99

> <Gold.Chemscore.Hbond.Weighted>
-0.0000

> <Gold.Chemscore.Metal.Weighted>
-0.0000

> <Gold.Chemscore.Lipo.Weighted>
-11.7825

> <Gold.Chemscore.Internal_Hbond.Weighted>
0.0000

> <Gold.Chemscore.DEClash.Weighted>
0.1376

> <Gold.Chemscore.DEInternal.Weighted>
0.6381

> <Gold.Chemscore.Rot.Weighted>
4.5053

> <Gold.Chemscore.Internal.Correction.Weighted>
   9.000000E+99

> <Gold.Protein.RotatedTorsions>
[ 6907 6896 6895 6894 ] final   -5.46 input  -60.11 | X-H torsion
[ 7974 7965 7964 7962 ] final  165.81 input  175.53 | X-H torsion
[ 8008 7997 7996 7995 ] final   53.63 input   59.86 | X-H torsion
[ 10167 10162 10161 10158 ] final -102.44 input  -65.29 | X-H torsion
[ 10718 10713 10712 10709 ] final    1.20 input   66.30 | X-H torsion
[ 10763 10752 10751 10750 ] final -145.38 input  -60.55 | X-H torsion
[ 11005 11000 10999 10996 ] final -157.89 input  -57.11 | X-H torsion

> <Gold.Protein.ActiveResidues>
 VAL166  LYS551  ARG553  GLY616  TRP617  ASP618  TYR619  PRO620  LYS621  CYS622 
 ASP623  PHE694  ASN695  SER759  ASP760  ASP761  ALA762  ILE779  LEU786  VAL792 
 PHE793  MET794  SER795  GLU796  ALA797  LYS798  CYS799  TRP800  GLU811  SER814 

> <Gold.Protein.RotatedAtoms>
  151.4812  135.1052  159.9777 H   0  0  0  0  0  0  0  0  0  0  0  0  # atno 6907 bound_to 6896
  152.4778  133.8177  159.7047 H   0  0  0  0  0  0  0  0  0  0  0  0  # atno 6908 bound_to 6896
  150.8829  133.7286  159.2953 H   0  0  0  0  0  0  0  0  0  0  0  0  # atno 6909 bound_to 6896
  144.7487  139.8524  143.6373 H   0  0  0  0  0  0  0  0  0  0  0  0  # atno 7974 bound_to 7965
  155.4714  140.3465  155.4326 H   0  0  0  0  0  0  0  0  0  0  0  0  # atno 8008 bound_to 7997
  156.1098  140.1458  156.9383 H   0  0  0  0  0  0  0  0  0  0  0  0  # atno 8009 bound_to 7997
  154.4749  140.0888  156.7215 H   0  0  0  0  0  0  0  0  0  0  0  0  # atno 8010 bound_to 7997
  140.2306  143.3609  152.0890 H   0  0  0  0  0  0  0  0  0  0  0  0  # atno 10167 bound_to 10162
  156.8446  130.5533  149.5674 H   0  0  0  0  0  0  0  0  0  0  0  0  # atno 10718 bound_to 10713
  154.8386  135.3415  154.6494 H   0  0  0  0  0  0  0  0  0  0  0  0  # atno 10763 bound_to 10752
  153.7107  135.6964  153.5043 H   0  0  0  0  0  0  0  0  0  0  0  0  # atno 10764 bound_to 10752
  153.2454  135.4371  155.0695 H   0  0  0  0  0  0  0  0  0  0  0  0  # atno 10765 bound_to 10752
  140.6596  134.4363  157.5234 H   0  0  0  0  0  0  0  0  0  0  0  0  # atno 11005 bound_to 11000
  146.1407  139.4463  143.0111 LP  0  0  0  0  0  0  0  0  0  0  0  0  # atno 17320 bound_to 7965
  145.7023  141.0132  143.1497 LP  0  0  0  0  0  0  0  0  0  0  0  0  # atno 17321 bound_to 7965
  139.5111  144.6895  151.5797 LP  0  0  0  0  0  0  0  0  0  0  0  0  # atno 17342 bound_to 10162
  140.6188  143.9298  150.6509 LP  0  0  0  0  0  0  0  0  0  0  0  0  # atno 17343 bound_to 10162
  156.0861  130.5859  150.9651 LP  0  0  0  0  0  0  0  0  0  0  0  0  # atno 17370 bound_to 10713
  157.6337  131.0918  150.8392 LP  0  0  0  0  0  0  0  0  0  0  0  0  # atno 17371 bound_to 10713
  139.9017  134.8540  156.1868 LP  0  0  0  0  0  0  0  0  0  0  0  0  # atno 17394 bound_to 11000
  141.0475  133.6906  156.1710 LP  0  0  0  0  0  0  0  0  0  0  0  0  # atno 17395 bound_to 11000

$$$$
