AV-unprocessed.smi:2829|AV-procd|sdf|10901|dock3
  -GOLD-   2272015353D 1   1.00000     0.00000
 Structure written by MMmdl.
 50 53  0  0  0  0  0  0  0  0  1 V2000
  150.1066  151.3484  155.0267 C   0  0  0  0  0  0  0  0  0  0  0  0
  151.2801  150.3474  154.9871 C   0  0  0  0  0  0  0  0  0  0  0  0
  152.1566  150.6155  153.7457 C   0  0  0  0  0  0  0  0  0  0  0  0
  152.1532  150.6056  156.2360 C   0  0  0  0  0  0  0  0  0  0  0  0
  150.7349  148.9087  154.9374 C   0  0  0  0  0  0  0  0  0  0  0  0
  149.9996  148.3228  155.9927 C   0  0  0  0  0  0  0  0  0  0  0  0
  149.5577  146.9994  155.8263 C   0  0  0  0  0  0  0  0  0  0  0  0
  149.8702  146.3324  154.6250 C   0  0  0  0  0  0  0  0  0  0  0  0
  149.3941  144.9991  154.5280 N   0  0  0  0  0  0  0  0  0  0  0  0
  149.3106  144.0704  155.5014 C   0  0  0  0  0  0  0  0  0  0  0  0
  149.6546  144.2443  156.6689 O   0  0  0  0  0  0  0  0  0  0  0  0
  148.8243  142.8872  155.0874 N   0  0  0  0  0  0  0  0  0  0  0  0
  148.6099  141.6812  155.8902 C   0  0  1  0  0  0  0  0  0  0  0  0
  148.5510  140.3736  155.0654 C   0  0  1  0  0  0  0  0  0  0  0  0
  148.9453  140.3000  153.6123 C   0  0  0  0  0  0  0  0  0  0  0  0
  150.4668  140.2143  153.6768 C   0  0  0  0  0  0  0  0  0  0  0  0
  150.7384  139.5371  154.9037 O   0  0  0  0  0  0  0  0  0  0  0  0
  149.7319  139.8401  155.8735 C   0  0  1  0  0  0  0  0  0  0  0  0
  149.8869  141.1920  156.5939 C   0  0  0  0  0  0  0  0  0  0  0  0
  151.2223  141.9656  156.5836 C   0  0  0  0  0  0  0  0  0  0  0  0
  151.4870  141.4272  157.9912 C   0  0  0  0  0  0  0  0  0  0  0  0
  149.9777  141.2142  158.1282 C   0  0  0  0  0  0  0  0  0  0  0  0
  150.5800  146.9569  153.6522 N   0  0  0  0  0  0  0  0  0  0  0  0
  151.0023  148.2156  153.8037 N   0  0  0  0  0  0  0  0  0  0  0  0
  150.4636  152.3771  155.0850 H   0  0  0  0  0  0  0  0  0  0  0  0
  149.4665  151.1730  155.8924 H   0  0  0  0  0  0  0  0  0  0  0  0
  149.4811  151.2763  154.1361 H   0  0  0  0  0  0  0  0  0  0  0  0
  151.5884  150.5210  152.8195 H   0  0  0  0  0  0  0  0  0  0  0  0
  152.9908  149.9147  153.6922 H   0  0  0  0  0  0  0  0  0  0  0  0
  152.5742  151.6228  153.7639 H   0  0  0  0  0  0  0  0  0  0  0  0
  152.5303  151.6288  156.2500 H   0  0  0  0  0  0  0  0  0  0  0  0
  153.0216  149.9464  156.2641 H   0  0  0  0  0  0  0  0  0  0  0  0
  151.5892  150.4622  157.1586 H   0  0  0  0  0  0  0  0  0  0  0  0
  149.7700  148.8466  156.9075 H   0  0  0  0  0  0  0  0  0  0  0  0
  148.9923  146.5109  156.6066 H   0  0  0  0  0  0  0  0  0  0  0  0
  149.0816  144.7138  153.6117 H   0  0  0  0  0  0  0  0  0  0  0  0
  148.6120  142.8042  154.1035 H   0  0  0  0  0  0  0  0  0  0  0  0
  147.7800  141.7581  156.5952 H   0  0  0  0  0  0  0  0  0  0  0  0
  147.6306  139.8306  155.2839 H   0  0  0  0  0  0  0  0  0  0  0  0
  148.5435  139.3918  153.1620 H   0  0  0  0  0  0  0  0  0  0  0  0
  148.5979  141.1423  153.0146 H   0  0  0  0  0  0  0  0  0  0  0  0
  150.8960  139.6883  152.8240 H   0  0  0  0  0  0  0  0  0  0  0  0
  150.9024  141.2136  153.7106 H   0  0  0  0  0  0  0  0  0  0  0  0
  149.4843  139.0056  156.5305 H   0  0  0  0  0  0  0  0  0  0  0  0
  151.9508  141.6470  155.8386 H   0  0  0  0  0  0  0  0  0  0  0  0
  151.0955  143.0493  156.5790 H   0  0  0  0  0  0  0  0  0  0  0  0
  152.0473  140.4907  157.9857 H   0  0  0  0  0  0  0  0  0  0  0  0
  151.9127  142.1516  158.6861 H   0  0  0  0  0  0  0  0  0  0  0  0
  149.4715  142.0754  158.5678 H   0  0  0  0  0  0  0  0  0  0  0  0
  149.6912  140.2859  158.6229 H   0  0  0  0  0  0  0  0  0  0  0  0
  1  2  1  0  0  0  0
  1 25  1  0  0  0  0
  1 26  1  0  0  0  0
  1 27  1  0  0  0  0
  2  3  1  0  0  0  0
  2  4  1  0  0  0  0
  2  5  1  0  0  0  0
  3 28  1  0  0  0  0
  3 29  1  0  0  0  0
  3 30  1  0  0  0  0
  4 31  1  0  0  0  0
  4 32  1  0  0  0  0
  4 33  1  0  0  0  0
  5 24  1  0  0  0  0
  5  6  2  0  0  0  0
  6  7  1  0  0  0  0
  6 34  1  0  0  0  0
  7  8  2  0  0  0  0
  7 35  1  0  0  0  0
  8  9  1  0  0  0  0
  8 23  1  0  0  0  0
  9 10  1  0  0  0  0
  9 36  1  0  0  0  0
 10 11  2  0  0  0  0
 10 12  1  0  0  0  0
 12 13  1  0  0  0  0
 12 37  1  0  0  0  0
 13 19  1  0  0  0  0
 13 14  1  0  0  0  0
 13 38  1  0  0  0  0
 14 18  1  0  0  0  0
 14 15  1  0  0  0  0
 14 39  1  0  0  0  0
 15 16  1  0  0  0  0
 15 40  1  0  0  0  0
 15 41  1  0  0  0  0
 16 17  1  0  0  0  0
 16 42  1  0  0  0  0
 16 43  1  0  0  0  0
 17 18  1  0  0  0  0
 18 19  1  0  0  0  0
 18 44  1  0  0  0  0
 19 22  1  0  0  0  0
 19 20  1  0  0  0  0
 20 21  1  0  0  0  0
 20 45  1  0  0  0  0
 20 46  1  0  0  0  0
 21 22  1  0  0  0  0
 21 47  1  0  0  0  0
 21 48  1  0  0  0  0
 22 49  1  0  0  0  0
 22 50  1  0  0  0  0
 23 24  2  0  0  0  0
M  END
> <s_m_source_file>
AV-unprocessed.smi

> <i_m_source_file_index>
2829

> <i_lp_mmshare_version>
43012

> <i_f3d_flags>
0

> <s_epik_input>
W0NIM11DKFtDSDNdKShbQ0gzXSljMVtjSF1bY0hdYyhubjEpW05IXUMoPU8pW05IXVtDQEBIXTJbQ0BIXShbQ0gyXVtDSDJdTzMpW0NAQEhdM0MyNFtDSDJdW0NIMl1bQ0gyXTQ=

> <s_epik_cmdline>
J2VwaWtfcHl0aG9uJywgJy1waCcsICc3LjAnLCAnLXRuJywgJzgnLCAnLW1hJywgJzIwMCcsICctbWV0YWxfYmluZGluZycsICctaW1hZScsICc8aW5maWxlLm1hZT4nLCAnLW9tYWUnLCAnPG91dGZpbGUubWFlPic=

> <r_lp_tautomer_probability>
1

> <r_epik_Ionization_Penalty>
0.011915

> <r_epik_Ionization_Penalty_Charging>
0

> <r_epik_Ionization_Penalty_Neutral>
0.011915

> <r_epik_State_Penalty>
0.00486223

> <r_epik_Charging_Adjusted_Penalty>
0.00486223

> <i_epik_Tot_Q>
0

> <i_epik_Tot_abs_Q>
0

> <r_epik_Metal_State_Penalty>
-0

> <b_epik_Metal_Only>
0

> <s_lp_Force_Field>
OPLS_2005

> <r_lp_Energy>
61.8896

> <b_lp_Chiralities_Consistent>
1

> <s_lp_Variant>
AV-unprocessed.smi:2829-4

> <Gold.Version>
5.8.1

> <Gold.Id.Protein>
6NUR|6NUR_protein|mol2

> <Gold.PLP.Fitness>
36.6591

> <Gold.PLP.PLP>
-34.5328

> <Gold.PLP.part.hbond>
-2.0000

> <Gold.PLP.part.metal>
0.0000

> <Gold.PLP.part.buried>
-5.7099

> <Gold.PLP.part.nonpolar>
-27.7209

> <Gold.PLP.part.repulsive>
0.1975

> <Gold.PLP.ligand.clash>
0.0000

> <Gold.PLP.ligand.torsion>
0.5191

> <Gold.PLP.Chemscore.Hbond>
1.0000

> <Gold.PLP.Chemscore.CHOScore>
0.0000

> <Gold.PLP.Chemscore.Metal>
0.0000

> <Gold.PLP.Chemscore.Internal.Correction>
0.1644

> <Gold.Rescore>
     Score         DG    S(hbond)    S(metal)    S(lipo)     H(rot)  DE(clash)    DE(int)     intcor
     14.46     -16.28       0.91        0.00      91.75       1.16       0.11       1.71       ----

> <Gold.Chemscore.Fitness>
14.4598

> <Gold.Chemscore.DG>
-16.2753

> <Gold.Chemscore.ZeroCoef>
-5.4800

> <Gold.Chemscore.Hbond>
0.9087

> <Gold.Chemscore.Metal>
0.0000

> <Gold.Chemscore.Lipo>
91.7474

> <Gold.Chemscore.Internal_Hbond>
0.0000

> <Gold.Chemscore.DEClash>
0.1050

> <Gold.Chemscore.DEInternal>
1.7105

> <Gold.Chemscore.Rot>
1.1618

> <Gold.Chemscore.Internal.Correction>
   9.000000E+99

> <Gold.Chemscore.Hbond.Weighted>
-3.0350

> <Gold.Chemscore.Metal.Weighted>
-0.0000

> <Gold.Chemscore.Lipo.Weighted>
-10.7344

> <Gold.Chemscore.Internal_Hbond.Weighted>
0.0000

> <Gold.Chemscore.DEClash.Weighted>
0.1050

> <Gold.Chemscore.DEInternal.Weighted>
1.7105

> <Gold.Chemscore.Rot.Weighted>
2.9741

> <Gold.Chemscore.Internal.Correction.Weighted>
   9.000000E+99

> <Gold.Protein.RotatedTorsions>
[ 6907 6896 6895 6894 ] final   54.48 input  -60.11 | X-H torsion
[ 7974 7965 7964 7962 ] final  -92.27 input  175.53 | X-H torsion
[ 8008 7997 7996 7995 ] final    2.80 input   59.86 | X-H torsion
[ 10167 10162 10161 10158 ] final -151.98 input  -65.29 | X-H torsion
[ 10718 10713 10712 10709 ] final  -97.39 input   66.30 | X-H torsion
[ 10763 10752 10751 10750 ] final  -47.11 input  -60.55 | X-H torsion
[ 11005 11000 10999 10996 ] final  -15.12 input  -57.11 | X-H torsion

> <Gold.Protein.ActiveResidues>
 VAL166  LYS551  ARG553  GLY616  TRP617  ASP618  TYR619  PRO620  LYS621  CYS622 
 ASP623  PHE694  ASN695  SER759  ASP760  ASP761  ALA762  ILE779  LEU786  VAL792 
 PHE793  MET794  SER795  GLU796  ALA797  LYS798  CYS799  TRP800  GLU811  SER814 

> <Gold.Protein.RotatedAtoms>
  152.3443  134.7093  160.0254 H   0  0  0  0  0  0  0  0  0  0  0  0  # atno 6907 bound_to 6896
  151.7468  133.3319  159.3388 H   0  0  0  0  0  0  0  0  0  0  0  0  # atno 6908 bound_to 6896
  150.7499  134.6161  159.6156 H   0  0  0  0  0  0  0  0  0  0  0  0  # atno 6909 bound_to 6896
  145.4020  140.9538  143.2282 H   0  0  0  0  0  0  0  0  0  0  0  0  # atno 7974 bound_to 7965
  154.6959  140.2663  155.6766 H   0  0  0  0  0  0  0  0  0  0  0  0  # atno 8008 bound_to 7997
  156.2748  140.2782  156.1477 H   0  0  0  0  0  0  0  0  0  0  0  0  # atno 8009 bound_to 7997
  155.0831  140.0373  157.2635 H   0  0  0  0  0  0  0  0  0  0  0  0  # atno 8010 bound_to 7997
  139.7220  143.8942  152.2506 H   0  0  0  0  0  0  0  0  0  0  0  0  # atno 10167 bound_to 10162
  156.0082  130.5192  150.6368 H   0  0  0  0  0  0  0  0  0  0  0  0  # atno 10718 bound_to 10713
  154.0560  135.6624  153.4806 H   0  0  0  0  0  0  0  0  0  0  0  0  # atno 10763 bound_to 10752
  153.0445  135.5123  154.7705 H   0  0  0  0  0  0  0  0  0  0  0  0  # atno 10764 bound_to 10752
  154.6726  135.3032  154.9688 H   0  0  0  0  0  0  0  0  0  0  0  0  # atno 10765 bound_to 10752
  140.7934  133.8270  155.9401 H   0  0  0  0  0  0  0  0  0  0  0  0  # atno 11005 bound_to 11000
  144.8367  139.5538  143.6919 LP  0  0  0  0  0  0  0  0  0  0  0  0  # atno 17320 bound_to 7965
  146.2747  139.6723  142.9271 LP  0  0  0  0  0  0  0  0  0  0  0  0  # atno 17321 bound_to 7965
  139.8840  144.7002  150.8845 LP  0  0  0  0  0  0  0  0  0  0  0  0  # atno 17342 bound_to 10162
  140.7755  143.3638  151.1777 LP  0  0  0  0  0  0  0  0  0  0  0  0  # atno 17343 bound_to 10162
  157.4155  131.0829  151.1180 LP  0  0  0  0  0  0  0  0  0  0  0  0  # atno 17370 bound_to 10713
  157.1798  130.6304  149.5668 LP  0  0  0  0  0  0  0  0  0  0  0  0  # atno 17371 bound_to 10713
  140.9367  134.1953  157.4826 LP  0  0  0  0  0  0  0  0  0  0  0  0  # atno 17394 bound_to 11000
  139.8729  134.9855  156.5284 LP  0  0  0  0  0  0  0  0  0  0  0  0  # atno 17395 bound_to 11000

$$$$
