AV-unprocessed.smi:1790|AV-procd|sdf|7216|dock6
  -GOLD-   22720 8453D 1   1.00000     0.00000
 Structure written by MMmdl.
 33 34  0  0  0  0  0  0  0  0  1 V2000
  149.7573  135.7582  158.1285 O   0  0  0  0  0  0  0  0  0  0  0  0
  149.2418  136.7899  158.5559 C   0  0  0  0  0  0  0  0  0  0  0  0
  149.5525  138.1168  157.8643 C   0  0  0  0  0  0  0  0  0  0  0  0
  148.7306  139.1336  158.4158 O   0  0  0  0  0  0  0  0  0  0  0  0
  148.6032  140.2559  157.5612 C   0  0  0  0  0  0  0  0  0  0  0  0
  149.9847  140.7797  157.2332 C   0  0  0  0  0  0  0  0  0  0  0  0
  150.2115  141.6393  156.0100 C   0  0  0  0  0  0  0  0  0  0  0  0
  150.7498  140.2316  156.0501 C   0  0  0  0  0  0  0  0  0  0  0  0
  148.3773  136.8620  159.5879 N   0  0  0  0  0  0  0  0  0  0  0  0
  147.8940  135.8458  160.4297 C   0  0  0  0  0  0  0  0  0  0  0  0
  147.7853  134.5347  160.0892 C   0  0  0  0  0  0  0  0  0  0  0  0
  147.2795  133.5360  161.0162 C   0  0  0  0  0  0  0  0  0  0  0  0
  147.2151  132.0638  160.6401 C   0  0  0  0  0  0  0  0  0  0  0  0
  147.6171  131.8645  159.3843 F   0  0  0  0  0  0  0  0  0  0  0  0
  148.0045  131.3555  161.4463 F   0  0  0  0  0  0  0  0  0  0  0  0
  145.9728  131.5953  160.7609 F   0  0  0  0  0  0  0  0  0  0  0  0
  146.9493  133.9709  162.2461 C   0  0  0  0  0  0  0  0  0  0  0  0
  147.0576  135.3162  162.6044 N   0  0  0  0  0  0  0  0  0  0  0  0
  147.5109  136.2879  161.7811 C   0  0  0  0  0  0  0  0  0  0  0  0
  147.5827  137.4513  162.1755 O   0  0  0  0  0  0  0  0  0  0  0  0
  146.7813  135.5647  163.5433 H   0  0  0  0  0  0  0  0  0  0  0  0
  150.6066  138.3673  157.9974 H   0  0  0  0  0  0  0  0  0  0  0  0
  149.3650  138.0116  156.7946 H   0  0  0  0  0  0  0  0  0  0  0  0
  148.0999  139.9735  156.6353 H   0  0  0  0  0  0  0  0  0  0  0  0
  148.0139  141.0400  158.0400 H   0  0  0  0  0  0  0  0  0  0  0  0
  150.5825  141.0223  158.1098 H   0  0  0  0  0  0  0  0  0  0  0  0
  149.3601  141.8330  155.3607 H   0  0  0  0  0  0  0  0  0  0  0  0
  150.9261  142.4552  156.0967 H   0  0  0  0  0  0  0  0  0  0  0  0
  151.8252  140.1077  156.1616 H   0  0  0  0  0  0  0  0  0  0  0  0
  150.2569  139.4880  155.4269 H   0  0  0  0  0  0  0  0  0  0  0  0
  147.9959  137.7780  159.7778 H   0  0  0  0  0  0  0  0  0  0  0  0
  148.0831  134.1848  159.1149 H   0  0  0  0  0  0  0  0  0  0  0  0
  146.5876  133.3349  163.0405 H   0  0  0  0  0  0  0  0  0  0  0  0
  1  2  2  0  0  0  0
  2  3  1  0  0  0  0
  2  9  1  0  0  0  0
  3  4  1  0  0  0  0
  3 22  1  0  0  0  0
  3 23  1  0  0  0  0
  4  5  1  0  0  0  0
  5  6  1  0  0  0  0
  5 24  1  0  0  0  0
  5 25  1  0  0  0  0
  6  8  1  0  0  0  0
  6  7  1  0  0  0  0
  6 26  1  0  0  0  0
  7  8  1  0  0  0  0
  7 27  1  0  0  0  0
  7 28  1  0  0  0  0
  8 29  1  0  0  0  0
  8 30  1  0  0  0  0
  9 10  1  0  0  0  0
  9 31  1  0  0  0  0
 10 19  1  0  0  0  0
 10 11  2  0  0  0  0
 11 12  1  0  0  0  0
 11 32  1  0  0  0  0
 12 13  1  0  0  0  0
 12 17  2  0  0  0  0
 13 14  1  0  0  0  0
 13 15  1  0  0  0  0
 13 16  1  0  0  0  0
 17 18  1  0  0  0  0
 17 33  1  0  0  0  0
 18 21  1  0  0  0  0
 18 19  1  0  0  0  0
 19 20  2  0  0  0  0
M  END
> <s_m_source_file>
AV-unprocessed.smi

> <i_m_source_file_index>
1790

> <i_lp_mmshare_version>
43012

> <i_f3d_flags>
0

> <s_epik_input>
W0NIMl0xW0NIMl1bQ0hdMVtDSDJdT1tDSDJdQyg9TylbTkhdYzJbY0hdYyhDKEYpKEYpRilbY0hdW25IXWMyPU8=

> <s_epik_cmdline>
J2VwaWtfcHl0aG9uJywgJy1waCcsICc3LjAnLCAnLXRuJywgJzgnLCAnLW1hJywgJzIwMCcsICctbWV0YWxfYmluZGluZycsICctaW1hZScsICc8aW5maWxlLm1hZT4nLCAnLW9tYWUnLCAnPG91dGZpbGUubWFlPic=

> <r_lp_tautomer_probability>
0.999

> <r_epik_Ionization_Penalty>
0.00811055

> <r_epik_Ionization_Penalty_Charging>
0.00811046

> <r_epik_Ionization_Penalty_Neutral>
9.25705e-08

> <r_epik_State_Penalty>
0.00609496

> <r_epik_Charging_Adjusted_Penalty>
0.0142054

> <i_epik_Tot_Q>
0

> <i_epik_Tot_abs_Q>
0

> <r_epik_Metal_State_Penalty>
0.317593

> <b_epik_Metal_Only>
0

> <s_lp_Force_Field>
OPLS_2005

> <r_lp_Energy>
26.3792

> <b_lp_Chiralities_Consistent>
1

> <s_lp_Variant>
AV-unprocessed.smi:1790-1

> <Gold.Version>
5.8.1

> <Gold.Id.Protein>
6NUR|6NUR_protein|mol2

> <Gold.PLP.Fitness>
38.9264

> <Gold.PLP.PLP>
-32.3130

> <Gold.PLP.part.hbond>
-3.8469

> <Gold.PLP.part.metal>
0.0000

> <Gold.PLP.part.buried>
-4.4826

> <Gold.PLP.part.nonpolar>
-24.0576

> <Gold.PLP.part.repulsive>
0.3140

> <Gold.PLP.ligand.clash>
0.0000

> <Gold.PLP.ligand.torsion>
0.5897

> <Gold.PLP.Chemscore.Hbond>
2.3840

> <Gold.PLP.Chemscore.CHOScore>
0.0000

> <Gold.PLP.Chemscore.Metal>
0.0000

> <Gold.Chemscore.Hbonds>
donor molecule, donor type, donor heavy atom, donor atom, acceptor molecule, acceptor atom, score
      P1  H  6896  6908       L1     1  0.84
      P1  H  6931  6943       L1    20  0.78
      P1  H  6934  6947       L1    20  0.53

> <Gold.PLP.Chemscore.Internal.Correction>
0.6408

> <Gold.Rescore>
     Score         DG    S(hbond)    S(metal)    S(lipo)     H(rot)  DE(clash)    DE(int)     intcor
     13.64     -14.36       2.40        0.00      48.17       1.87       0.00       0.71       ----

> <Gold.Chemscore.Fitness>
13.6445

> <Gold.Chemscore.DG>
-14.3554

> <Gold.Chemscore.ZeroCoef>
-5.4800

> <Gold.Chemscore.Hbond>
2.4004

> <Gold.Chemscore.Metal>
0.0000

> <Gold.Chemscore.Lipo>
48.1705

> <Gold.Chemscore.Internal_Hbond>
0.0000

> <Gold.Chemscore.DEClash>
0.0000

> <Gold.Chemscore.DEInternal>
0.7108

> <Gold.Chemscore.Rot>
1.8664

> <Gold.Chemscore.Internal.Correction>
   9.000000E+99

> <Gold.Chemscore.Hbonds>
donor molecule, donor type, donor heavy atom, donor atom, acceptor molecule, acceptor atom, score
      P1  H  6896  6908       L1     1  0.59
      P1  H  6931  6943       L1    20  0.76
      P1  H  6934  6947       L1    20  0.48

> <Gold.Chemscore.Hbond.Weighted>
-8.0174

> <Gold.Chemscore.Metal.Weighted>
-0.0000

> <Gold.Chemscore.Lipo.Weighted>
-5.6359

> <Gold.Chemscore.Internal_Hbond.Weighted>
0.0000

> <Gold.Chemscore.DEClash.Weighted>
0.0000

> <Gold.Chemscore.DEInternal.Weighted>
0.7108

> <Gold.Chemscore.Rot.Weighted>
4.7780

> <Gold.Chemscore.Internal.Correction.Weighted>
   9.000000E+99

> <Gold.Protein.RotatedTorsions>
[ 6907 6896 6895 6894 ] final -172.40 input  -60.11 | X-H torsion
[ 7974 7965 7964 7962 ] final   70.54 input  175.53 | X-H torsion
[ 8008 7997 7996 7995 ] final  123.92 input   59.86 | X-H torsion
[ 10167 10162 10161 10158 ] final  177.48 input  -65.29 | X-H torsion
[ 10718 10713 10712 10709 ] final  -47.97 input   66.30 | X-H torsion
[ 10763 10752 10751 10750 ] final  -32.02 input  -60.55 | X-H torsion
[ 11005 11000 10999 10996 ] final  137.00 input  -57.11 | X-H torsion

> <Gold.Protein.ActiveResidues>
 VAL166  LYS551  ARG553  GLY616  TRP617  ASP618  TYR619  PRO620  LYS621  CYS622 
 ASP623  PHE694  ASN695  SER759  ASP760  ASP761  ALA762  ILE779  LEU786  VAL792 
 PHE793  MET794  SER795  GLU796  ALA797  LYS798  CYS799  TRP800  GLU811  SER814 

> <Gold.Protein.RotatedAtoms>
  151.5393  133.3435  159.2932 H   0  0  0  0  0  0  0  0  0  0  0  0  # atno 6907 bound_to 6896
  150.8545  134.7883  159.7046 H   0  0  0  0  0  0  0  0  0  0  0  0  # atno 6908 bound_to 6896
  152.4582  134.5251  159.9846 H   0  0  0  0  0  0  0  0  0  0  0  0  # atno 6909 bound_to 6896
  145.7769  139.2869  143.1288 H   0  0  0  0  0  0  0  0  0  0  0  0  # atno 7974 bound_to 7965
  156.2783  140.2752  156.1704 H   0  0  0  0  0  0  0  0  0  0  0  0  # atno 8008 bound_to 7997
  155.0660  140.0387  157.2610 H   0  0  0  0  0  0  0  0  0  0  0  0  # atno 8009 bound_to 7997
  154.7078  140.2662  155.6663 H   0  0  0  0  0  0  0  0  0  0  0  0  # atno 8010 bound_to 7997
  139.5255  144.2793  152.0561 H   0  0  0  0  0  0  0  0  0  0  0  0  # atno 10167 bound_to 10162
  156.2033  130.4157  149.9212 H   0  0  0  0  0  0  0  0  0  0  0  0  # atno 10718 bound_to 10713
  153.8069  135.6885  153.4847 H   0  0  0  0  0  0  0  0  0  0  0  0  # atno 10763 bound_to 10752
  153.1653  135.4564  154.9826 H   0  0  0  0  0  0  0  0  0  0  0  0  # atno 10764 bound_to 10752
  154.7983  135.3328  154.7553 H   0  0  0  0  0  0  0  0  0  0  0  0  # atno 10765 bound_to 10752
  140.0084  134.9449  157.0225 H   0  0  0  0  0  0  0  0  0  0  0  0  # atno 11005 bound_to 11000
  146.0113  140.8432  142.9969 LP  0  0  0  0  0  0  0  0  0  0  0  0  # atno 17320 bound_to 7965
  144.6803  140.2494  143.7333 LP  0  0  0  0  0  0  0  0  0  0  0  0  # atno 17321 bound_to 7965
  140.2249  144.4428  150.6325 LP  0  0  0  0  0  0  0  0  0  0  0  0  # atno 17342 bound_to 10162
  140.6394  143.2201  151.6323 LP  0  0  0  0  0  0  0  0  0  0  0  0  # atno 17343 bound_to 10162
  156.6914  130.8897  151.3588 LP  0  0  0  0  0  0  0  0  0  0  0  0  # atno 17370 bound_to 10713
  157.6998  130.9320  150.0751 LP  0  0  0  0  0  0  0  0  0  0  0  0  # atno 17371 bound_to 10713
  140.4599  134.1495  155.7190 LP  0  0  0  0  0  0  0  0  0  0  0  0  # atno 17394 bound_to 11000
  141.1693  133.8640  157.1618 LP  0  0  0  0  0  0  0  0  0  0  0  0  # atno 17395 bound_to 11000

$$$$
