AV-unprocessed.smi:2772|AV-procd|sdf|10668|dock1
  -GOLD-   2272015113D 1   1.00000     0.00000
 Structure written by MMmdl.
 54 56  0  0  0  0  0  0  0  0  2 V2000
  147.2981  128.8470  152.9281 C   0  0  0  0  0  0  0  0  0  0  0  0
  147.8311  130.2402  153.1900 C   0  0  0  0  0  0  0  0  0  0  0  0
  149.0093  130.4365  153.9395 C   0  0  0  0  0  0  0  0  0  0  0  0
  149.4581  131.7535  154.1557 C   0  0  0  0  0  0  0  0  0  0  0  0
  148.7073  132.8281  153.6214 C   0  0  0  0  0  0  0  0  0  0  0  0
  149.0671  134.1959  153.7569 N   0  0  0  0  0  0  0  0  0  0  0  0
  149.7331  134.7856  154.7642 C   0  0  0  0  0  0  0  0  0  0  0  0
  150.1311  134.2194  155.7823 O   0  0  0  0  0  0  0  0  0  0  0  0
  149.8990  136.0957  154.5335 N   0  0  0  0  0  0  0  0  0  0  0  0
  150.5625  137.0311  155.4368 C   0  0  0  0  0  0  0  0  0  0  0  0
  149.5376  137.9952  156.0383 C   0  0  0  0  0  0  0  0  0  0  0  0
  150.2225  139.0653  156.9060 C   0  0  0  0  0  0  0  0  0  0  0  0
  151.1973  139.8583  156.1364 N   0  0  0  0  0  0  0  0  0  0  0  0
  151.8024  140.9310  156.9592 C   0  0  2  0  0  0  0  0  0  0  0  0
  152.4202  140.3716  158.2703 C   0  0  0  0  0  0  0  0  0  0  0  0
  152.9309  141.4749  159.2105 C   0  0  0  0  0  0  0  0  0  0  0  0
  151.8545  142.4343  159.5403 N   0  3  1  0  0  0  0  0  0  0  0  0
  152.2734  143.4272  160.5529 C   0  0  0  0  0  0  0  0  0  0  0  0
  151.3120  143.0651  158.3172 C   0  0  0  0  0  0  0  0  0  0  0  0
  150.7532  142.0080  157.3511 C   0  0  0  0  0  0  0  0  0  0  0  0
  152.2228  138.9361  155.6179 C   0  0  0  0  0  0  0  0  0  0  0  0
  151.6197  137.8605  154.6982 C   0  0  0  0  0  0  0  0  0  0  0  0
  147.5532  132.5160  152.8725 C   0  0  0  0  0  0  0  0  0  0  0  0
  147.1158  131.2564  152.6613 N   0  0  0  0  0  0  0  0  0  0  0  0
  147.9086  128.0902  153.4218 H   0  0  0  0  0  0  0  0  0  0  0  0
  147.2953  128.6370  151.8583 H   0  0  0  0  0  0  0  0  0  0  0  0
  146.2773  128.7545  153.3001 H   0  0  0  0  0  0  0  0  0  0  0  0
  149.5623  129.5989  154.3384 H   0  0  0  0  0  0  0  0  0  0  0  0
  150.3700  131.9112  154.7106 H   0  0  0  0  0  0  0  0  0  0  0  0
  148.7263  134.8076  153.0297 H   0  0  0  0  0  0  0  0  0  0  0  0
  149.5351  136.4759  153.6721 H   0  0  0  0  0  0  0  0  0  0  0  0
  151.0374  136.4759  156.2482 H   0  0  0  0  0  0  0  0  0  0  0  0
  148.9696  138.4834  155.2446 H   0  0  0  0  0  0  0  0  0  0  0  0
  148.8152  137.4423  156.6399 H   0  0  0  0  0  0  0  0  0  0  0  0
  149.4227  139.6934  157.2904 H   0  0  0  0  0  0  0  0  0  0  0  0
  150.7109  138.6026  157.7651 H   0  0  0  0  0  0  0  0  0  0  0  0
  152.5940  141.4089  156.3795 H   0  0  0  0  0  0  0  0  0  0  0  0
  151.6840  139.7606  158.7954 H   0  0  0  0  0  0  0  0  0  0  0  0
  153.2741  139.7284  158.0646 H   0  0  0  0  0  0  0  0  0  0  0  0
  153.3095  141.0219  160.1278 H   0  0  0  0  0  0  0  0  0  0  0  0
  153.7667  142.0044  158.7500 H   0  0  0  0  0  0  0  0  0  0  0  0
  153.0897  144.0474  160.1801 H   0  0  0  0  0  0  0  0  0  0  0  0
  152.6100  142.9297  161.4631 H   0  0  0  0  0  0  0  0  0  0  0  0
  151.4418  144.0798  160.8202 H   0  0  0  0  0  0  0  0  0  0  0  0
  150.5186  143.7630  158.5880 H   0  0  0  0  0  0  0  0  0  0  0  0
  152.0929  143.6484  157.8265 H   0  0  0  0  0  0  0  0  0  0  0  0
  150.3940  142.5519  156.4793 H   0  0  0  0  0  0  0  0  0  0  0  0
  149.8830  141.5291  157.8028 H   0  0  0  0  0  0  0  0  0  0  0  0
  152.9599  139.4638  155.0177 H   0  0  0  0  0  0  0  0  0  0  0  0
  152.7579  138.4689  156.4461 H   0  0  0  0  0  0  0  0  0  0  0  0
  152.4148  137.2118  154.3286 H   0  0  0  0  0  0  0  0  0  0  0  0
  151.1782  138.3381  153.8218 H   0  0  0  0  0  0  0  0  0  0  0  0
  146.9566  133.3013  152.4319 H   0  0  0  0  0  0  0  0  0  0  0  0
  151.1024  141.9004  159.9527 H   0  0  0  0  0  0  0  0  0  0  0  0
  1  2  1  0  0  0  0
  1 25  1  0  0  0  0
  1 26  1  0  0  0  0
  1 27  1  0  0  0  0
  2 24  1  0  0  0  0
  2  3  2  0  0  0  0
  3  4  1  0  0  0  0
  3 28  1  0  0  0  0
  4  5  2  0  0  0  0
  4 29  1  0  0  0  0
  5  6  1  0  0  0  0
  5 23  1  0  0  0  0
  6  7  1  0  0  0  0
  6 30  1  0  0  0  0
  7  8  2  0  0  0  0
  7  9  1  0  0  0  0
  9 10  1  0  0  0  0
  9 31  1  0  0  0  0
 10 22  1  0  0  0  0
 10 11  1  0  0  0  0
 10 32  1  0  0  0  0
 11 12  1  0  0  0  0
 11 33  1  0  0  0  0
 11 34  1  0  0  0  0
 12 13  1  0  0  0  0
 12 35  1  0  0  0  0
 12 36  1  0  0  0  0
 13 14  1  0  0  0  0
 13 21  1  0  0  0  0
 14 20  1  0  0  0  0
 14 15  1  0  0  0  0
 14 37  1  0  0  0  0
 15 16  1  0  0  0  0
 15 38  1  0  0  0  0
 15 39  1  0  0  0  0
 16 17  1  0  0  0  0
 16 40  1  0  0  0  0
 16 41  1  0  0  0  0
 17 18  1  0  0  0  0
 17 19  1  0  0  0  0
 17 54  1  0  0  0  0
 18 42  1  0  0  0  0
 18 43  1  0  0  0  0
 18 44  1  0  0  0  0
 19 20  1  0  0  0  0
 19 45  1  0  0  0  0
 19 46  1  0  0  0  0
 20 47  1  0  0  0  0
 20 48  1  0  0  0  0
 21 22  1  0  0  0  0
 21 49  1  0  0  0  0
 21 50  1  0  0  0  0
 22 51  1  0  0  0  0
 22 52  1  0  0  0  0
 23 24  2  0  0  0  0
 23 53  1  0  0  0  0
M  CHG  1  17   1
M  END
> <s_m_source_file>
AV-unprocessed.smi

> <i_m_source_file_index>
2772

> <i_lp_mmshare_version>
43012

> <i_f3d_flags>
0

> <s_epik_input>
W0NIM11jMVtjSF1bY0hdYyhbY0hdbjEpW05IXUMoPU8pW05IXVtDSF0yW0NIMl1bQ0gyXU4oW0NIMl1bQ0gyXTIpW0NIXTNbQ0gyXVtDSDJdTihbQ0gzXSlbQ0gyXVtDSDJdMw==

> <s_epik_cmdline>
J2VwaWtfcHl0aG9uJywgJy1waCcsICc3LjAnLCAnLXRuJywgJzgnLCAnLW1hJywgJzIwMCcsICctbWV0YWxfYmluZGluZycsICctaW1hZScsICc8aW5maWxlLm1hZT4nLCAnLW9tYWUnLCAnPG91dGZpbGUubWFlPic=

> <r_epik_Ionization_Penalty>
1.02952

> <r_epik_Ionization_Penalty_Charging>
0.000974969

> <r_epik_Ionization_Penalty_Neutral>
1.02854

> <r_epik_State_Penalty>
1.11259

> <r_epik_Charging_Adjusted_Penalty>
1.11356

> <i_epik_Tot_Q>
1

> <i_epik_Tot_abs_Q>
1

> <r_epik_Metal_State_Penalty>
1.1091

> <b_epik_Metal_Only>
0

> <s_lp_Force_Field>
OPLS_2005

> <r_lp_Energy>
33.5329

> <b_lp_Chiralities_Consistent>
1

> <s_lp_Variant>
AV-unprocessed.smi:2772-5

> <Gold.Version>
5.8.1

> <Gold.Id.Protein>
6NUR|6NUR_protein|mol2

> <Gold.PLP.Fitness>
45.3740

> <Gold.PLP.PLP>
-40.0309

> <Gold.PLP.part.hbond>
-2.1013

> <Gold.PLP.part.metal>
0.0000

> <Gold.PLP.part.buried>
-5.3217

> <Gold.PLP.part.nonpolar>
-32.5609

> <Gold.PLP.part.repulsive>
0.6202

> <Gold.PLP.ligand.clash>
0.0000

> <Gold.PLP.ligand.torsion>
0.3182

> <Gold.PLP.Chemscore.Hbond>
1.9920

> <Gold.PLP.Chemscore.CHOScore>
0.0000

> <Gold.PLP.Chemscore.Metal>
0.0000

> <Gold.Chemscore.Hbonds>
donor molecule, donor type, donor heavy atom, donor atom, acceptor molecule, acceptor atom, score
      L1  H     6    30       P1  7948  1.00
      L1  H     9    31       P1  7948  0.99

> <Gold.PLP.Chemscore.Internal.Correction>
0.0036

> <Gold.Rescore>
     Score         DG    S(hbond)    S(metal)    S(lipo)     H(rot)  DE(clash)    DE(int)     intcor
     19.06     -20.36       1.58        0.00     108.18       1.20       0.08       1.21       ----

> <Gold.Chemscore.Fitness>
19.0636

> <Gold.Chemscore.DG>
-20.3561

> <Gold.Chemscore.ZeroCoef>
-5.4800

> <Gold.Chemscore.Hbond>
1.5822

> <Gold.Chemscore.Metal>
0.0000

> <Gold.Chemscore.Lipo>
108.1777

> <Gold.Chemscore.Internal_Hbond>
0.0000

> <Gold.Chemscore.DEClash>
0.0809

> <Gold.Chemscore.DEInternal>
1.2116

> <Gold.Chemscore.Rot>
1.1974

> <Gold.Chemscore.Internal.Correction>
   9.000000E+99

> <Gold.Chemscore.Hbonds>
donor molecule, donor type, donor heavy atom, donor atom, acceptor molecule, acceptor atom, score
      L1  H     6    30       P1  7948  0.24
      L1  H     9    31       P1  7948  0.66

> <Gold.Chemscore.Hbond.Weighted>
-5.2845

> <Gold.Chemscore.Metal.Weighted>
-0.0000

> <Gold.Chemscore.Lipo.Weighted>
-12.6568

> <Gold.Chemscore.Internal_Hbond.Weighted>
0.0000

> <Gold.Chemscore.DEClash.Weighted>
0.0809

> <Gold.Chemscore.DEInternal.Weighted>
1.2116

> <Gold.Chemscore.Rot.Weighted>
3.0652

> <Gold.Chemscore.Internal.Correction.Weighted>
   9.000000E+99

> <Gold.Protein.RotatedTorsions>
[ 6907 6896 6895 6894 ] final  106.46 input  -60.11 | X-H torsion
[ 7974 7965 7964 7962 ] final    7.73 input  175.53 | X-H torsion
[ 8008 7997 7996 7995 ] final  -44.75 input   59.86 | X-H torsion
[ 10167 10162 10161 10158 ] final  116.17 input  -65.29 | X-H torsion
[ 10718 10713 10712 10709 ] final  -11.13 input   66.30 | X-H torsion
[ 10763 10752 10751 10750 ] final  -63.77 input  -60.55 | X-H torsion
[ 11005 11000 10999 10996 ] final  109.02 input  -57.11 | X-H torsion

> <Gold.Protein.ActiveResidues>
 VAL166  LYS551  ARG553  GLY616  TRP617  ASP618  TYR619  PRO620  LYS621  CYS622 
 ASP623  PHE694  ASN695  SER759  ASP760  ASP761  ALA762  ILE779  LEU786  VAL792 
 PHE793  MET794  SER795  GLU796  ALA797  LYS798  CYS799  TRP800  GLU811  SER814 

> <Gold.Protein.RotatedAtoms>
  152.5193  133.9378  159.7611 H   0  0  0  0  0  0  0  0  0  0  0  0  # atno 6907 bound_to 6896
  150.9714  133.6331  159.2744 H   0  0  0  0  0  0  0  0  0  0  0  0  # atno 6908 bound_to 6896
  151.3541  135.0896  159.9466 H   0  0  0  0  0  0  0  0  0  0  0  0  # atno 6909 bound_to 6896
  146.2424  140.0039  142.8413 H   0  0  0  0  0  0  0  0  0  0  0  0  # atno 7974 bound_to 7965
  154.3998  140.1414  156.3734 H   0  0  0  0  0  0  0  0  0  0  0  0  # atno 8008 bound_to 7997
  155.8071  140.3474  155.5415 H   0  0  0  0  0  0  0  0  0  0  0  0  # atno 8009 bound_to 7997
  155.8424  140.0929  157.1716 H   0  0  0  0  0  0  0  0  0  0  0  0  # atno 8010 bound_to 7997
  139.6266  144.7109  151.2521 H   0  0  0  0  0  0  0  0  0  0  0  0  # atno 10167 bound_to 10162
  156.6635  130.4988  149.6023 H   0  0  0  0  0  0  0  0  0  0  0  0  # atno 10718 bound_to 10713
  154.3200  135.6198  153.5503 H   0  0  0  0  0  0  0  0  0  0  0  0  # atno 10763 bound_to 10752
  152.9821  135.5721  154.5080 H   0  0  0  0  0  0  0  0  0  0  0  0  # atno 10764 bound_to 10752
  154.4747  135.2860  155.1593 H   0  0  0  0  0  0  0  0  0  0  0  0  # atno 10765 bound_to 10752
  139.8854  134.9447  156.6061 H   0  0  0  0  0  0  0  0  0  0  0  0  # atno 11005 bound_to 11000
  145.1389  140.9560  143.4500 LP  0  0  0  0  0  0  0  0  0  0  0  0  # atno 17320 bound_to 7965
  145.0315  139.3337  143.6022 LP  0  0  0  0  0  0  0  0  0  0  0  0  # atno 17321 bound_to 7965
  140.7414  143.6557  150.8209 LP  0  0  0  0  0  0  0  0  0  0  0  0  # atno 17342 bound_to 10162
  140.0176  143.5577  152.2814 LP  0  0  0  0  0  0  0  0  0  0  0  0  # atno 17343 bound_to 10162
  156.1993  130.6609  151.1149 LP  0  0  0  0  0  0  0  0  0  0  0  0  # atno 17370 bound_to 10713
  157.7102  131.0738  150.6529 LP  0  0  0  0  0  0  0  0  0  0  0  0  # atno 17371 bound_to 10713
  140.7847  133.8631  155.8596 LP  0  0  0  0  0  0  0  0  0  0  0  0  # atno 17394 bound_to 11000
  140.9730  134.1506  157.4560 LP  0  0  0  0  0  0  0  0  0  0  0  0  # atno 17395 bound_to 11000

$$$$
