#       Name:                AV-unprocessed.smi:1464
#       Creating user name   scv26
#       Creation time:       Fri Mar 27 06:02:21 2020


#       File generated by GOLD software.
#

@<TRIPOS>MOLECULE
AV-unprocessed.smi:1464
    47    48     1
SMALL
NO_CHARGES


@<TRIPOS>ATOM
      1 ****        -3.7868  -1.5246   1.6017 C.3            1 S1                 0.0000
      2 ****        -3.1367  -0.9101   0.3507 C.3            1 S1                 0.0000
      3 ****        -3.6751  -1.5482  -0.9460 C.3            1 S1                 0.0000
      4 ****        -3.0972  -0.8620  -2.1937 C.3            1 S1                 0.0000
      5 ****        -1.5614  -0.8452  -2.1687 C.3            1 S1                 0.0000
      6 ****        -1.0303  -0.2019  -0.8732 C.3            1 S1                 0.0000
      7 ****         0.4304  -0.1688  -0.9003 N.am           1 S1                 0.0000
      8 ****         1.2033   0.6750  -0.1992 C.2            1 S1                 0.0000
      9 ****         0.7460   1.5297   0.5618 O.2            1 S1                 0.0000
     10 ****         2.7183   0.5055  -0.3960 C.3            1 S1                 0.0000
     11 ****         3.5333   1.5094   0.3042 N.am           1 S1                 0.0000
     12 ****         4.1476   1.0165   1.5341 N.pl3          1 S1                -1.0000
     13 ****         4.8973   1.8651   2.2863 C.2            1 S1                 0.0000
     14 ****         5.4291   1.5275   3.3414 O.2            1 S1                 0.0000
     15 ****         5.0756   3.2266   1.8094 C.2            1 S1                 0.0000
     16 ****         4.5207   3.6459   0.6551 C.2            1 S1                 0.0000
     17 ****         3.7053   2.7725  -0.1804 C.2            1 S1                 0.0000
     18 ****         3.2035   3.1461  -1.2410 O.2            1 S1                 0.0000
     19 ****        -1.5850  -0.9163   0.3906 C.3            1 S1                 0.0000
     20 ****        -0.9777  -2.3212   0.6128 C.3            1 S1                 0.0000
     21 ****        -3.6286  -2.6017   1.6543 H              1 S1                 0.0000
     22 ****        -4.8639  -1.3554   1.6017 H              1 S1                 0.0000
     23 ****        -3.3852  -1.0804   2.5128 H              1 S1                 0.0000
     24 ****        -3.4436   0.1371   0.3380 H              1 S1                 0.0000
     25 ****        -3.4388  -2.6124  -0.9685 H              1 S1                 0.0000
     26 ****        -4.7632  -1.4788  -0.9696 H              1 S1                 0.0000
     27 ****        -3.4489  -1.3680  -3.0932 H              1 S1                 0.0000
     28 ****        -3.4699   0.1616  -2.2506 H              1 S1                 0.0000
     29 ****        -1.1823  -1.8628  -2.2689 H              1 S1                 0.0000
     30 ****        -1.1922  -0.2955  -3.0354 H              1 S1                 0.0000
     31 ****        -1.3835   0.8314  -0.8612 H              1 S1                 0.0000
     32 ****         0.8896  -0.8411  -1.4973 H              1 S1                 0.0000
     33 ****         2.9924  -0.4990  -0.0683 H              1 S1                 0.0000
     34 ****         2.9407   0.5335  -1.4642 H              1 S1                 0.0000
     35 ****         5.6684   3.9161   2.3923 H              1 S1                 0.0000
     36 ****         4.6813   4.6655   0.3383 H              1 S1                 0.0000
     37 ****        -1.2891  -0.3185   1.2538 H              1 S1                 0.0000
     38 ****        -1.2343  -3.0116  -0.1897 H              1 S1                 0.0000
     39 ****        -1.3204  -2.7609   1.5487 H              1 S1                 0.0000
     40 ****         0.1097  -2.2816   0.6756 H              1 S1                 0.0000
     41 ****        -0.2432   1.6174   0.6786 LP             1 S1                 0.0000
     42 ****         1.3643   2.1356   1.0626 LP             1 S1                 0.0000
     43 ****         4.0184   0.0668   1.8193 LP             1 S1                 0.0000
     44 ****         5.3190   0.5932   3.6803 LP             1 S1                 0.0000
     45 ****         5.9721   2.1871   3.8612 LP             1 S1                 0.0000
     46 ****         2.6466   2.5146  -1.7804 LP             1 S1                 0.0000
     47 ****         3.3530   4.0810  -1.5629 LP             1 S1                 0.0000
@<TRIPOS>BOND
    1    1    2 1     
    2    1   21 1     
    3    1   22 1     
    4    1   23 1     
    5    2   19 1     
    6    2    3 1     
    7    2   24 1     
    8    3    4 1     
    9    3   25 1     
   10    3   26 1     
   11    4    5 1     
   12    4   27 1     
   13    4   28 1     
   14    5    6 1     
   15    5   29 1     
   16    5   30 1     
   17    6    7 1     
   18    6   19 1     
   19    6   31 1     
   20    7    8 am    
   21    7   32 1     
   22    8    9 2     
   23    8   10 1     
   24   10   33 1     
   25   10   34 1     
   26   10   11 1     
   27   11   12 1     
   28   11   17 am    
   29   12   13 1     
   30   13   14 2     
   31   13   15 1     
   32   15   35 1     
   33   15   16 2     
   34   16   36 1     
   35   16   17 1     
   36   17   18 2     
   37   19   20 1     
   38   19   37 1     
   39   20   38 1     
   40   20   39 1     
   41   20   40 1     
   42    9   41 1     
   43    9   42 1     
   44   12   43 1     
   45   14   44 1     
   46   14   45 1     
   47   18   46 1     
   48   18   47 1     
@<TRIPOS>SUBSTRUCTURE
      1 S1             1
@<TRIPOS>SET
LONE_PAIRS      STATIC     ATOMS    <user>   **** ""
7 41 42 43 44 45 46 47
DONOR_HYDROGENS      STATIC     ATOMS    <user>   **** ""
1 32
ATOM$BLUE        STATIC     ATOMS    COLORGROUP SYSTEM
7 41 42 43 44 45 46 47
ATOM$RED        STATIC     ATOMS    COLORGROUP SYSTEM
1 32
