AV-unprocessed.smi:21|AV-procd|sdf|140|dock6
  -GOLD-   2262015343D 1   1.00000     0.00000
 Structure written by MMmdl.
 62 65  0  0  0  0  0  0  0  0  2 V2000
  142.4404  137.0081  162.1930 C   0  0  0  0  0  0  0  0  0  0  0  0
  143.3995  137.3552  161.2074 O   0  0  0  0  0  0  0  0  0  0  0  0
  144.7411  137.2030  161.6457 C   0  0  2  0  0  0  0  0  0  0  0  0
  145.6973  137.2482  160.4625 C   0  0  0  0  0  0  0  0  0  0  0  0
  146.9435  136.5391  161.0008 C   0  0  2  0  0  0  0  0  0  0  0  0
  147.8611  135.9597  159.9055 C   0  0  0  0  0  0  0  0  0  0  0  0
  148.2212  136.9530  158.8896 N   0  0  0  0  0  0  0  0  0  0  0  0
  147.4032  137.0131  157.6841 C   0  0  0  0  0  0  0  0  0  0  0  0
  149.4131  137.6189  158.9456 C   0  0  0  0  0  0  0  0  0  0  0  0
  150.4724  136.9960  159.5299 N   0  0  0  0  0  0  0  0  0  0  0  0
  151.6640  137.5919  159.6147 C   0  0  0  0  0  0  0  0  0  0  0  0
  152.0206  138.8017  159.1869 N   0  0  0  0  0  0  0  0  0  0  0  0
  150.9712  139.4438  158.6010 C   0  0  0  0  0  0  0  0  0  0  0  0
  149.6483  138.9355  158.4362 C   0  0  0  0  0  0  0  0  0  0  0  0
  148.8731  139.8887  157.7804 N   0  0  0  0  0  0  0  0  0  0  0  0
  149.6815  140.8918  157.5778 C   0  0  0  0  0  0  0  0  0  0  0  0
  150.9607  140.7112  158.0473 N   0  0  0  0  0  0  0  0  0  0  0  0
  152.0630  141.6523  157.9617 C   0  0  0  0  0  0  0  0  0  0  0  0
  151.7604  143.0207  158.6324 C   0  0  2  0  0  0  0  0  0  0  0  0
  152.0136  144.2184  157.6847 C   0  0  0  0  0  0  0  0  0  0  0  0
  151.3276  144.0795  156.4576 O   0  0  0  0  0  0  0  0  0  0  0  0
  152.5158  143.2312  159.9720 C   0  0  2  0  0  0  0  0  0  0  0  0
  152.7151  142.0081  160.8486 C   0  0  0  0  0  0  0  0  0  0  0  0
  153.1400  142.6500  162.1653 C   0  0  0  0  0  0  0  0  0  0  0  0
  152.4348  143.8864  162.2362 O   0  0  0  0  0  0  0  0  0  0  0  0
  151.8902  144.2198  160.9611 C   0  0  0  0  0  0  0  0  0  0  0  0
  146.4190  135.4750  161.8898 N   0  3  1  0  0  0  0  0  0  0  0  0
  147.2861  135.1710  163.0492 C   0  0  0  0  0  0  0  0  0  0  0  0
  145.0270  135.8267  162.2602 C   0  0  0  0  0  0  0  0  0  0  0  0
  145.0143  137.9939  162.3472 H   0  0  0  0  0  0  0  0  0  0  0  0
  147.5002  137.2525  161.6116 H   0  0  0  0  0  0  0  0  0  0  0  0
  141.4374  137.1673  161.7971 H   0  0  0  0  0  0  0  0  0  0  0  0
  142.5504  137.6265  163.0848 H   0  0  0  0  0  0  0  0  0  0  0  0
  142.5225  135.9597  162.4816 H   0  0  0  0  0  0  0  0  0  0  0  0
  145.2743  136.6874  159.6276 H   0  0  0  0  0  0  0  0  0  0  0  0
  145.8991  138.2631  160.1186 H   0  0  0  0  0  0  0  0  0  0  0  0
  148.7884  135.6146  160.3634 H   0  0  0  0  0  0  0  0  0  0  0  0
  147.4174  135.0639  159.4713 H   0  0  0  0  0  0  0  0  0  0  0  0
  147.9172  136.5435  156.8450 H   0  0  0  0  0  0  0  0  0  0  0  0
  147.1698  138.0462  157.4254 H   0  0  0  0  0  0  0  0  0  0  0  0
  146.4571  136.4904  157.8266 H   0  0  0  0  0  0  0  0  0  0  0  0
  152.4426  137.0175  160.0949 H   0  0  0  0  0  0  0  0  0  0  0  0
  149.3626  141.7985  157.0846 H   0  0  0  0  0  0  0  0  0  0  0  0
  152.9264  141.1704  158.4168 H   0  0  0  0  0  0  0  0  0  0  0  0
  152.3090  141.7896  156.9087 H   0  0  0  0  0  0  0  0  0  0  0  0
  150.7008  143.0374  158.8930 H   0  0  0  0  0  0  0  0  0  0  0  0
  151.6617  145.1466  158.1355 H   0  0  0  0  0  0  0  0  0  0  0  0
  153.0799  144.3456  157.4949 H   0  0  0  0  0  0  0  0  0  0  0  0
  150.4600  144.4412  156.5547 H   0  0  0  0  0  0  0  0  0  0  0  0
  153.5060  143.6269  159.7384 H   0  0  0  0  0  0  0  0  0  0  0  0
  151.7817  141.4655  160.9967 H   0  0  0  0  0  0  0  0  0  0  0  0
  153.4586  141.3134  160.4571 H   0  0  0  0  0  0  0  0  0  0  0  0
  152.9265  142.0176  163.0273 H   0  0  0  0  0  0  0  0  0  0  0  0
  154.2103  142.8602  162.1569 H   0  0  0  0  0  0  0  0  0  0  0  0
  152.1068  145.2558  160.6998 H   0  0  0  0  0  0  0  0  0  0  0  0
  150.8086  144.1142  161.0249 H   0  0  0  0  0  0  0  0  0  0  0  0
  147.3733  136.0330  163.7121 H   0  0  0  0  0  0  0  0  0  0  0  0
  148.2865  134.8892  162.7197 H   0  0  0  0  0  0  0  0  0  0  0  0
  146.8760  134.3388  163.6224 H   0  0  0  0  0  0  0  0  0  0  0  0
  144.8583  135.8248  163.3381 H   0  0  0  0  0  0  0  0  0  0  0  0
  144.3701  135.0727  161.8246 H   0  0  0  0  0  0  0  0  0  0  0  0
  146.3569  134.6349  161.3322 H   0  0  0  0  0  0  0  0  0  0  0  0
  1  2  1  0  0  0  0
  1 32  1  0  0  0  0
  1 33  1  0  0  0  0
  1 34  1  0  0  0  0
  2  3  1  0  0  0  0
  3 30  1  0  0  0  0
  3 29  1  0  0  0  0
  3  4  1  0  0  0  0
  4  5  1  0  0  0  0
  4 35  1  0  0  0  0
  4 36  1  0  0  0  0
  5 31  1  0  0  0  0
  5  6  1  0  0  0  0
  5 27  1  0  0  0  0
  6  7  1  0  0  0  0
  6 37  1  0  0  0  0
  6 38  1  0  0  0  0
  7  8  1  0  0  0  0
  7  9  1  0  0  0  0
  8 39  1  0  0  0  0
  8 40  1  0  0  0  0
  8 41  1  0  0  0  0
  9 14  1  0  0  0  0
  9 10  2  0  0  0  0
 10 11  1  0  0  0  0
 11 12  2  0  0  0  0
 11 42  1  0  0  0  0
 12 13  1  0  0  0  0
 13 17  1  0  0  0  0
 13 14  2  0  0  0  0
 14 15  1  0  0  0  0
 15 16  2  0  0  0  0
 16 17  1  0  0  0  0
 16 43  1  0  0  0  0
 17 18  1  0  0  0  0
 18 19  1  0  0  0  0
 18 44  1  0  0  0  0
 18 45  1  0  0  0  0
 19 20  1  0  0  0  0
 19 22  1  0  0  0  0
 19 46  1  0  0  0  0
 20 21  1  0  0  0  0
 20 47  1  0  0  0  0
 20 48  1  0  0  0  0
 21 49  1  0  0  0  0
 22 26  1  0  0  0  0
 22 23  1  0  0  0  0
 22 50  1  0  0  0  0
 23 24  1  0  0  0  0
 23 51  1  0  0  0  0
 23 52  1  0  0  0  0
 24 25  1  0  0  0  0
 24 53  1  0  0  0  0
 24 54  1  0  0  0  0
 25 26  1  0  0  0  0
 26 55  1  0  0  0  0
 26 56  1  0  0  0  0
 27 28  1  0  0  0  0
 27 29  1  0  0  0  0
 27 62  1  0  0  0  0
 28 57  1  0  0  0  0
 28 58  1  0  0  0  0
 28 59  1  0  0  0  0
 29 60  1  0  0  0  0
 29 61  1  0  0  0  0
M  CHG  1  27   1
M  END
> <s_m_source_file>
AV-unprocessed.smi

> <i_m_source_file_index>
21

> <i_lp_mmshare_version>
43012

> <i_f3d_flags>
0

> <s_epik_input>
W0NIM11PW0NASF0xW0NIMl1bQ0BIXShOKFtDSDNdKVtDSDJdMSlbQ0gyXU4oW0NIM10pYyhuW2NIXW4yKWMoYzIzKW5bY0hdbjNbQ0gyXVtDQEhdKFtDSDJdW09IXSlbQ0BASF00W0NIMl1bQ0gyXU9bQ0gyXTQ=

> <s_epik_cmdline>
J2VwaWtfcHl0aG9uJywgJy1waCcsICc3LjAnLCAnLXRuJywgJzgnLCAnLW1hJywgJzIwMCcsICctbWV0YWxfYmluZGluZycsICctaW1hZScsICc8aW5maWxlLm1hZT4nLCAnLW9tYWUnLCAnPG91dGZpbGUubWFlPic=

> <r_lp_tautomer_probability>
1

> <r_epik_Ionization_Penalty>
0.0157465

> <r_epik_Ionization_Penalty_Charging>
0.015354

> <r_epik_Ionization_Penalty_Neutral>
0.000392529

> <r_epik_State_Penalty>
0.0120612

> <r_epik_Charging_Adjusted_Penalty>
0.0274152

> <i_epik_Tot_Q>
1

> <i_epik_Tot_abs_Q>
1

> <r_epik_Metal_State_Penalty>
0.0121253

> <b_epik_Metal_Only>
0

> <s_lp_Force_Field>
OPLS_2005

> <r_lp_Energy>
59.0143

> <b_lp_Chiralities_Consistent>
1

> <s_lp_Variant>
AV-unprocessed.smi:21-20

> <Gold.Version>
5.8.1

> <Gold.Id.Protein>
6NUR|6NUR_protein|mol2

> <Gold.PLP.Fitness>
53.4387

> <Gold.PLP.PLP>
-51.4577

> <Gold.PLP.part.hbond>
-2.0000

> <Gold.PLP.part.metal>
0.0000

> <Gold.PLP.part.buried>
-9.4423

> <Gold.PLP.part.nonpolar>
-40.1321

> <Gold.PLP.part.repulsive>
0.2229

> <Gold.PLP.ligand.clash>
0.0000

> <Gold.PLP.ligand.torsion>
2.0579

> <Gold.PLP.Chemscore.Hbond>
1.8160

> <Gold.PLP.Chemscore.CHOScore>
0.0000

> <Gold.PLP.Chemscore.Metal>
0.0000

> <Gold.Chemscore.Hbonds>
donor molecule, donor type, donor heavy atom, donor atom, acceptor molecule, acceptor atom, score
      L1  H    21    49       P1  8028  0.86
      P1  H  6896  6909       L1    10  0.86

> <Gold.PLP.Chemscore.Internal.Correction>
0.6488

> <Gold.Rescore>
     Score         DG    S(hbond)    S(metal)    S(lipo)     H(rot)  DE(clash)    DE(int)     intcor
     14.53     -17.02       1.50        0.00     123.22       3.08       0.54       1.96       ----

> <Gold.Chemscore.Fitness>
14.5286

> <Gold.Chemscore.DG>
-17.0194

> <Gold.Chemscore.ZeroCoef>
-5.4800

> <Gold.Chemscore.Hbond>
1.4962

> <Gold.Chemscore.Metal>
0.0000

> <Gold.Chemscore.Lipo>
123.2161

> <Gold.Chemscore.Internal_Hbond>
0.0000

> <Gold.Chemscore.DEClash>
0.5357

> <Gold.Chemscore.DEInternal>
1.9551

> <Gold.Chemscore.Rot>
3.0758

> <Gold.Chemscore.Internal.Correction>
   9.000000E+99

> <Gold.Chemscore.Hbonds>
donor molecule, donor type, donor heavy atom, donor atom, acceptor molecule, acceptor atom, score
      L1  H    21    49       P1  8028  0.86
      P1  H  6896  6909       L1    10  0.16

> <Gold.Chemscore.Hbond.Weighted>
-4.9973

> <Gold.Chemscore.Metal.Weighted>
-0.0000

> <Gold.Chemscore.Lipo.Weighted>
-14.4163

> <Gold.Chemscore.Internal_Hbond.Weighted>
0.0000

> <Gold.Chemscore.DEClash.Weighted>
0.5357

> <Gold.Chemscore.DEInternal.Weighted>
1.9551

> <Gold.Chemscore.Rot.Weighted>
7.8741

> <Gold.Chemscore.Internal.Correction.Weighted>
   9.000000E+99

> <Gold.Protein.RotatedTorsions>
[ 6907 6896 6895 6894 ] final   89.35 input  -60.11 | X-H torsion
[ 7974 7965 7964 7962 ] final -150.74 input  175.53 | X-H torsion
[ 8008 7997 7996 7995 ] final -174.59 input   59.86 | X-H torsion
[ 10167 10162 10161 10158 ] final  -49.26 input  -65.29 | X-H torsion
[ 10718 10713 10712 10709 ] final   67.80 input   66.30 | X-H torsion
[ 10763 10752 10751 10750 ] final  -80.42 input  -60.55 | X-H torsion
[ 11005 11000 10999 10996 ] final  -75.38 input  -57.11 | X-H torsion

> <Gold.Protein.ActiveResidues>
 VAL166  LYS551  ARG553  GLY616  TRP617  ASP618  TYR619  PRO620  LYS621  CYS622 
 ASP623  PHE694  ASN695  SER759  ASP760  ASP761  ALA762  ILE779  LEU786  VAL792 
 PHE793  MET794  SER795  GLU796  ALA797  LYS798  CYS799  TRP800  GLU811  SER814 

> <Gold.Protein.RotatedAtoms>
  152.5435  134.1979  159.8700 H   0  0  0  0  0  0  0  0  0  0  0  0  # atno 6907 bound_to 6896
  151.1970  133.4626  159.2603 H   0  0  0  0  0  0  0  0  0  0  0  0  # atno 6908 bound_to 6896
  151.1027  134.9993  159.8512 H   0  0  0  0  0  0  0  0  0  0  0  0  # atno 6909 bound_to 6896
  144.7890  140.4892  143.5786 H   0  0  0  0  0  0  0  0  0  0  0  0  # atno 7974 bound_to 7965
  155.9720  140.1165  157.0804 H   0  0  0  0  0  0  0  0  0  0  0  0  # atno 8008 bound_to 7997
  154.4159  140.1161  156.5387 H   0  0  0  0  0  0  0  0  0  0  0  0  # atno 8009 bound_to 7997
  155.6584  140.3473  155.4776 H   0  0  0  0  0  0  0  0  0  0  0  0  # atno 8010 bound_to 7997
  140.6693  143.2705  151.4189 H   0  0  0  0  0  0  0  0  0  0  0  0  # atno 10167 bound_to 10162
  157.6252  130.9340  150.0291 H   0  0  0  0  0  0  0  0  0  0  0  0  # atno 10718 bound_to 10713
  154.5510  135.5661  153.6922 H   0  0  0  0  0  0  0  0  0  0  0  0  # atno 10763 bound_to 10752
  152.9990  135.6251  154.2374 H   0  0  0  0  0  0  0  0  0  0  0  0  # atno 10764 bound_to 10752
  154.2308  135.2866  155.2870 H   0  0  0  0  0  0  0  0  0  0  0  0  # atno 10765 bound_to 10752
  141.1645  133.6944  156.7508 H   0  0  0  0  0  0  0  0  0  0  0  0  # atno 11005 bound_to 11000
  145.5844  139.1491  143.3217 LP  0  0  0  0  0  0  0  0  0  0  0  0  # atno 17320 bound_to 7965
  146.2134  140.5973  142.9049 LP  0  0  0  0  0  0  0  0  0  0  0  0  # atno 17321 bound_to 7965
  139.5955  144.1407  152.2138 LP  0  0  0  0  0  0  0  0  0  0  0  0  # atno 17342 bound_to 10162
  140.0775  144.5728  150.7146 LP  0  0  0  0  0  0  0  0  0  0  0  0  # atno 17343 bound_to 10162
  156.1420  130.3642  149.9568 LP  0  0  0  0  0  0  0  0  0  0  0  0  # atno 17370 bound_to 10713
  156.7607  130.9150  151.3641 LP  0  0  0  0  0  0  0  0  0  0  0  0  # atno 17371 bound_to 10713
  140.2605  134.8470  157.3754 LP  0  0  0  0  0  0  0  0  0  0  0  0  # atno 17394 bound_to 11000
  140.1615  134.4722  155.7891 LP  0  0  0  0  0  0  0  0  0  0  0  0  # atno 17395 bound_to 11000

$$$$
