AV-unprocessed.smi:801|AV-procd|sdf|3789|dock6
  -GOLD-   22720 1223D 1   1.00000     0.00000
 Structure written by MMmdl.
 44 45  0  0  0  0  0  0  0  0  1 V2000
  151.6963  138.0933  154.3987 C   0  0  0  0  0  0  0  0  0  0  0  0
  150.7774  137.2981  155.1317 O   0  0  0  0  0  0  0  0  0  0  0  0
  151.3764  136.5197  156.1573 C   0  0  0  0  0  0  0  0  0  0  0  0
  150.3385  135.6486  156.8883 C   0  0  0  0  0  0  0  0  0  0  0  0
  149.9486  134.4879  156.1129 N   0  0  0  0  0  0  0  0  0  0  0  0
  149.2395  134.5671  154.9109 C   0  0  0  0  0  0  0  0  0  0  0  0
  148.8502  135.8392  154.4629 N   0  0  0  0  0  0  0  0  0  0  0  0
  148.0749  136.6899  155.1579 C   0  0  0  0  0  0  0  0  0  0  0  0
  147.6801  137.9764  154.4413 C   0  0  0  0  0  0  0  0  0  0  0  0
  147.6803  136.4782  156.3043 O   0  0  0  0  0  0  0  0  0  0  0  0
  148.8812  133.4559  154.1939 C   0  0  0  0  0  0  0  0  0  0  0  0
  148.1348  133.5619  153.0188 N   0  0  0  0  0  0  0  0  0  0  0  0
  147.6411  132.5477  152.0990 C   0  0  0  0  0  0  0  0  0  0  0  0
  146.3569  132.9483  151.3953 C   0  0  0  0  0  0  0  0  0  0  0  0
  145.6463  132.0104  150.6143 C   0  0  0  0  0  0  0  0  0  0  0  0
  144.4582  132.3879  149.9590 C   0  0  0  0  0  0  0  0  0  0  0  0
  143.9763  133.7056  150.0774 C   0  0  0  0  0  0  0  0  0  0  0  0
  144.6841  134.6463  150.8503 C   0  0  0  0  0  0  0  0  0  0  0  0
  145.8722  134.2691  151.5063 C   0  0  0  0  0  0  0  0  0  0  0  0
  149.2598  132.1199  154.6880 C   0  0  0  0  0  0  0  0  0  0  0  0
  149.0291  131.0413  154.1438 O   0  0  0  0  0  0  0  0  0  0  0  0
  149.9405  132.1097  155.9033 N   0  0  0  0  0  0  0  0  0  0  0  0
  150.2903  133.2270  156.6501 C   0  0  0  0  0  0  0  0  0  0  0  0
  150.8698  133.0781  157.7264 O   0  0  0  0  0  0  0  0  0  0  0  0
  150.1974  131.2080  156.2778 H   0  0  0  0  0  0  0  0  0  0  0  0
  151.1663  138.6213  153.6063 H   0  0  0  0  0  0  0  0  0  0  0  0
  152.4662  137.4777  153.9315 H   0  0  0  0  0  0  0  0  0  0  0  0
  152.1801  138.8411  155.0268 H   0  0  0  0  0  0  0  0  0  0  0  0
  152.1183  135.8746  155.6860 H   0  0  0  0  0  0  0  0  0  0  0  0
  151.9217  137.1575  156.8549 H   0  0  0  0  0  0  0  0  0  0  0  0
  150.7095  135.2713  157.8397 H   0  0  0  0  0  0  0  0  0  0  0  0
  149.4408  136.2141  157.1439 H   0  0  0  0  0  0  0  0  0  0  0  0
  149.0499  136.0581  153.4978 H   0  0  0  0  0  0  0  0  0  0  0  0
  148.4981  138.6958  154.4809 H   0  0  0  0  0  0  0  0  0  0  0  0
  146.8043  138.4262  154.9100 H   0  0  0  0  0  0  0  0  0  0  0  0
  147.4417  137.7800  153.3954 H   0  0  0  0  0  0  0  0  0  0  0  0
  147.9396  134.5049  152.7149 H   0  0  0  0  0  0  0  0  0  0  0  0
  148.4128  132.3362  151.3577 H   0  0  0  0  0  0  0  0  0  0  0  0
  147.4509  131.6241  152.6465 H   0  0  0  0  0  0  0  0  0  0  0  0
  146.0106  130.9985  150.5135 H   0  0  0  0  0  0  0  0  0  0  0  0
  143.9176  131.6665  149.3643 H   0  0  0  0  0  0  0  0  0  0  0  0
  143.0656  133.9950  149.5739 H   0  0  0  0  0  0  0  0  0  0  0  0
  144.3161  135.6577  150.9402 H   0  0  0  0  0  0  0  0  0  0  0  0
  146.4087  134.9982  152.0960 H   0  0  0  0  0  0  0  0  0  0  0  0
  1  2  1  0  0  0  0
  1 26  1  0  0  0  0
  1 27  1  0  0  0  0
  1 28  1  0  0  0  0
  2  3  1  0  0  0  0
  3  4  1  0  0  0  0
  3 29  1  0  0  0  0
  3 30  1  0  0  0  0
  4  5  1  0  0  0  0
  4 31  1  0  0  0  0
  4 32  1  0  0  0  0
  5 23  1  0  0  0  0
  5  6  1  0  0  0  0
  6  7  1  0  0  0  0
  6 11  2  0  0  0  0
  7  8  1  0  0  0  0
  7 33  1  0  0  0  0
  8  9  1  0  0  0  0
  8 10  2  0  0  0  0
  9 34  1  0  0  0  0
  9 35  1  0  0  0  0
  9 36  1  0  0  0  0
 11 12  1  0  0  0  0
 11 20  1  0  0  0  0
 12 13  1  0  0  0  0
 12 37  1  0  0  0  0
 13 14  1  0  0  0  0
 13 38  1  0  0  0  0
 13 39  1  0  0  0  0
 14 19  1  0  0  0  0
 14 15  2  0  0  0  0
 15 16  1  0  0  0  0
 15 40  1  0  0  0  0
 16 17  2  0  0  0  0
 16 41  1  0  0  0  0
 17 18  1  0  0  0  0
 17 42  1  0  0  0  0
 18 19  2  0  0  0  0
 18 43  1  0  0  0  0
 19 44  1  0  0  0  0
 20 21  2  0  0  0  0
 20 22  1  0  0  0  0
 22 25  1  0  0  0  0
 22 23  1  0  0  0  0
 23 24  2  0  0  0  0
M  END
> <s_m_source_file>
AV-unprocessed.smi

> <i_m_source_file_index>
801

> <i_lp_mmshare_version>
43012

> <i_f3d_flags>
0

> <s_epik_input>
W0NIM11PW0NIMl1bQ0gyXW4xYyhbTkhdQyg9TylbQ0gzXSljKGMoPU8pW25IXWMxPU8pW05IXVtDSDJdYzJbY0hdW2NIXVtjSF1bY0hdW2NIXTI=

> <s_epik_cmdline>
J2VwaWtfcHl0aG9uJywgJy1waCcsICc3LjAnLCAnLXRuJywgJzgnLCAnLW1hJywgJzIwMCcsICctbWV0YWxfYmluZGluZycsICctaW1hZScsICc8aW5maWxlLm1hZT4nLCAnLW9tYWUnLCAnPG91dGZpbGUubWFlPic=

> <r_lp_tautomer_probability>
0.999901

> <r_epik_Ionization_Penalty>
0.000786563

> <r_epik_Ionization_Penalty_Charging>
0.000779429

> <r_epik_Ionization_Penalty_Neutral>
7.13436e-06

> <r_epik_State_Penalty>
0.00049961

> <r_epik_Charging_Adjusted_Penalty>
0.00127904

> <i_epik_Tot_Q>
0

> <i_epik_Tot_abs_Q>
0

> <r_epik_Metal_State_Penalty>
0.266924

> <b_epik_Metal_Only>
0

> <s_lp_Force_Field>
OPLS_2005

> <r_lp_Energy>
22.7844

> <b_lp_Chiralities_Consistent>
1

> <s_lp_Variant>
AV-unprocessed.smi:801-1

> <Gold.Version>
5.8.1

> <Gold.Id.Protein>
6NUR|6NUR_protein|mol2

> <Gold.PLP.Fitness>
44.0926

> <Gold.PLP.PLP>
-36.4582

> <Gold.PLP.part.hbond>
-3.0000

> <Gold.PLP.part.metal>
0.0000

> <Gold.PLP.part.buried>
-1.5725

> <Gold.PLP.part.nonpolar>
-32.0364

> <Gold.PLP.part.repulsive>
0.2197

> <Gold.PLP.ligand.clash>
0.0000

> <Gold.PLP.ligand.torsion>
0.9218

> <Gold.PLP.Chemscore.Hbond>
2.7920

> <Gold.PLP.Chemscore.CHOScore>
0.0000

> <Gold.PLP.Chemscore.Metal>
0.0000

> <Gold.Chemscore.Hbonds>
donor molecule, donor type, donor heavy atom, donor atom, acceptor molecule, acceptor atom, score
      L1  H     7    33       P1  7948  1.00
      L1  H    12    37       P1  7948  0.57
      P1  H  6896  6909       L1    24  0.98

> <Gold.PLP.Chemscore.Internal.Correction>
1.1019

> <Gold.Rescore>
     Score         DG    S(hbond)    S(metal)    S(lipo)     H(rot)  DE(clash)    DE(int)     intcor
     13.35     -16.90       2.27        0.00      76.87       2.02       1.24       2.32       ----

> <Gold.Chemscore.Fitness>
13.3486

> <Gold.Chemscore.DG>
-16.9041

> <Gold.Chemscore.ZeroCoef>
-5.4800

> <Gold.Chemscore.Hbond>
2.2736

> <Gold.Chemscore.Metal>
0.0000

> <Gold.Chemscore.Lipo>
76.8706

> <Gold.Chemscore.Internal_Hbond>
0.0000

> <Gold.Chemscore.DEClash>
1.2384

> <Gold.Chemscore.DEInternal>
2.3171

> <Gold.Chemscore.Rot>
2.0170

> <Gold.Chemscore.Internal.Correction>
   9.000000E+99

> <Gold.Chemscore.Hbonds>
donor molecule, donor type, donor heavy atom, donor atom, acceptor molecule, acceptor atom, score
      L1  H     7    33       P1  7948  0.94
      L1  H    12    37       P1  7948  0.37
      P1  H  6896  6909       L1    24  0.90

> <Gold.Chemscore.Hbond.Weighted>
-7.5938

> <Gold.Chemscore.Metal.Weighted>
-0.0000

> <Gold.Chemscore.Lipo.Weighted>
-8.9939

> <Gold.Chemscore.Internal_Hbond.Weighted>
0.0000

> <Gold.Chemscore.DEClash.Weighted>
1.2384

> <Gold.Chemscore.DEInternal.Weighted>
2.3171

> <Gold.Chemscore.Rot.Weighted>
5.1636

> <Gold.Chemscore.Internal.Correction.Weighted>
   9.000000E+99

> <Gold.Protein.RotatedTorsions>
[ 6907 6896 6895 6894 ] final  -37.59 input  -60.11 | X-H torsion
[ 7974 7965 7964 7962 ] final -142.13 input  175.53 | X-H torsion
[ 8008 7997 7996 7995 ] final  -23.86 input   59.86 | X-H torsion
[ 10167 10162 10161 10158 ] final  -70.94 input  -65.29 | X-H torsion
[ 10718 10713 10712 10709 ] final -138.36 input   66.30 | X-H torsion
[ 10763 10752 10751 10750 ] final   91.58 input  -60.55 | X-H torsion
[ 11005 11000 10999 10996 ] final -165.46 input  -57.11 | X-H torsion

> <Gold.Protein.ActiveResidues>
 VAL166  LYS551  ARG553  GLY616  TRP617  ASP618  TYR619  PRO620  LYS621  CYS622 
 ASP623  PHE694  ASN695  SER759  ASP760  ASP761  ALA762  ILE779  LEU786  VAL792 
 PHE793  MET794  SER795  GLU796  ALA797  LYS798  CYS799  TRP800  GLU811  SER814 

> <Gold.Protein.RotatedAtoms>
  151.0128  134.9410  159.8016 H   0  0  0  0  0  0  0  0  0  0  0  0  # atno 6907 bound_to 6896
  152.5307  134.3005  159.9086 H   0  0  0  0  0  0  0  0  0  0  0  0  # atno 6908 bound_to 6896
  151.3011  133.4080  159.2674 H   0  0  0  0  0  0  0  0  0  0  0  0  # atno 6909 bound_to 6896
  144.8466  140.5995  143.5417 H   0  0  0  0  0  0  0  0  0  0  0  0  # atno 7974 bound_to 7965
  154.4561  140.1969  156.0376 H   0  0  0  0  0  0  0  0  0  0  0  0  # atno 8008 bound_to 7997
  156.0749  140.3279  155.7593 H   0  0  0  0  0  0  0  0  0  0  0  0  # atno 8009 bound_to 7997
  155.5205  140.0569  157.2898 H   0  0  0  0  0  0  0  0  0  0  0  0  # atno 8010 bound_to 7997
  140.5313  143.2321  151.7257 H   0  0  0  0  0  0  0  0  0  0  0  0  # atno 10167 bound_to 10162
  156.2985  130.7415  151.1461 H   0  0  0  0  0  0  0  0  0  0  0  0  # atno 10718 bound_to 10713
  153.2098  135.4392  155.0366 H   0  0  0  0  0  0  0  0  0  0  0  0  # atno 10763 bound_to 10752
  154.8194  135.3330  154.7086 H   0  0  0  0  0  0  0  0  0  0  0  0  # atno 10764 bound_to 10752
  153.7525  135.6997  153.4998 H   0  0  0  0  0  0  0  0  0  0  0  0  # atno 10765 bound_to 10752
  140.5755  134.5195  157.5169 H   0  0  0  0  0  0  0  0  0  0  0  0  # atno 11005 bound_to 11000
  145.4584  139.1515  143.3880 LP  0  0  0  0  0  0  0  0  0  0  0  0  # atno 17320 bound_to 7965
  146.2749  140.4713  142.8799 LP  0  0  0  0  0  0  0  0  0  0  0  0  # atno 17321 bound_to 7965
  139.4955  144.4110  152.0080 LP  0  0  0  0  0  0  0  0  0  0  0  0  # atno 17342 bound_to 10162
  140.3213  144.3425  150.6009 LP  0  0  0  0  0  0  0  0  0  0  0  0  # atno 17343 bound_to 10162
  157.7362  131.0565  150.5429 LP  0  0  0  0  0  0  0  0  0  0  0  0  # atno 17370 bound_to 10713
  156.5553  130.4242  149.6088 LP  0  0  0  0  0  0  0  0  0  0  0  0  # atno 17371 bound_to 10713
  139.9342  134.7907  156.0848 LP  0  0  0  0  0  0  0  0  0  0  0  0  # atno 17394 bound_to 11000
  141.1029  133.6670  156.2797 LP  0  0  0  0  0  0  0  0  0  0  0  0  # atno 17395 bound_to 11000

$$$$
