AV-unprocessed.smi:534|AV-procd|sdf|2856|dock4
  -GOLD-   2262023343D 1   1.00000     0.00000
 Structure written by MMmdl.
 40 41  0  0  0  0  0  0  0  0  1 V2000
  143.2301  134.1998  152.1815 C   0  0  0  0  0  0  0  0  0  0  0  0
  144.5290  133.6446  152.0787 O   0  0  0  0  0  0  0  0  0  0  0  0
  144.9317  133.4473  150.7331 C   0  0  0  0  0  0  0  0  0  0  0  0
  146.3761  132.9329  150.7034 C   0  0  0  0  0  0  0  0  0  0  0  0
  146.5789  131.8719  151.6714 N   0  0  0  0  0  0  0  0  0  0  0  0
  147.3653  131.8011  152.8143 C   0  0  0  0  0  0  0  0  0  0  0  0
  148.1226  132.7985  153.2784 N   0  0  0  0  0  0  0  0  0  0  0  0
  148.6697  132.2550  154.4326 C   0  0  0  0  0  0  0  0  0  0  0  0
  148.2324  130.9837  154.6240 C   0  0  0  0  0  0  0  0  0  0  0  0
  148.6297  130.1769  155.7837 C   0  0  0  0  0  0  0  0  0  0  0  0
  148.2330  129.0300  155.9785 O   0  0  0  0  0  0  0  0  0  0  0  0
  149.4724  130.8303  156.6201 N   0  0  0  0  0  0  0  0  0  0  0  0
  149.9527  132.1049  156.4881 C   0  0  0  0  0  0  0  0  0  0  0  0
  150.7097  132.5676  157.3412 O   0  0  0  0  0  0  0  0  0  0  0  0
  149.5576  132.8251  155.3894 N   0  0  0  0  0  0  0  0  0  0  0  0
  150.0331  134.1969  155.2014 C   0  0  0  0  0  0  0  0  0  0  0  0
  147.3812  130.6723  153.5652 N   0  0  0  0  0  0  0  0  0  0  0  0
  146.6474  129.4323  153.3335 C   0  0  0  0  0  0  0  0  0  0  0  0
  146.9265  128.8586  151.9367 C   0  0  0  0  0  0  0  0  0  0  0  0
  147.9716  127.9022  152.0160 O   0  0  0  0  0  0  0  0  0  0  0  0
  148.2167  127.2540  150.7813 C   0  0  0  0  0  0  0  0  0  0  0  0
  149.7768  130.3208  157.4368 H   0  0  0  0  0  0  0  0  0  0  0  0
  142.9751  134.3424  153.2315 H   0  0  0  0  0  0  0  0  0  0  0  0
  142.4838  133.5373  151.7411 H   0  0  0  0  0  0  0  0  0  0  0  0
  143.1749  135.1701  151.6863 H   0  0  0  0  0  0  0  0  0  0  0  0
  144.2677  132.7439  150.2269 H   0  0  0  0  0  0  0  0  0  0  0  0
  144.8708  134.3959  150.1983 H   0  0  0  0  0  0  0  0  0  0  0  0
  146.6043  132.5339  149.7152 H   0  0  0  0  0  0  0  0  0  0  0  0
  147.0787  133.7457  150.8896 H   0  0  0  0  0  0  0  0  0  0  0  0
  145.9273  131.1074  151.5697 H   0  0  0  0  0  0  0  0  0  0  0  0
  151.1202  134.2470  155.2797 H   0  0  0  0  0  0  0  0  0  0  0  0
  149.6055  134.8525  155.9612 H   0  0  0  0  0  0  0  0  0  0  0  0
  149.7634  134.6021  154.2259 H   0  0  0  0  0  0  0  0  0  0  0  0
  146.9184  128.7043  154.0984 H   0  0  0  0  0  0  0  0  0  0  0  0
  145.5819  129.6151  153.4674 H   0  0  0  0  0  0  0  0  0  0  0  0
  146.0243  128.3918  151.5392 H   0  0  0  0  0  0  0  0  0  0  0  0
  147.2060  129.6626  151.2540 H   0  0  0  0  0  0  0  0  0  0  0  0
  149.0200  126.5277  150.9043 H   0  0  0  0  0  0  0  0  0  0  0  0
  148.5234  127.9679  150.0160 H   0  0  0  0  0  0  0  0  0  0  0  0
  147.3310  126.7224  150.4314 H   0  0  0  0  0  0  0  0  0  0  0  0
  1  2  1  0  0  0  0
  1 23  1  0  0  0  0
  1 24  1  0  0  0  0
  1 25  1  0  0  0  0
  2  3  1  0  0  0  0
  3  4  1  0  0  0  0
  3 26  1  0  0  0  0
  3 27  1  0  0  0  0
  4  5  1  0  0  0  0
  4 28  1  0  0  0  0
  4 29  1  0  0  0  0
  5  6  1  0  0  0  0
  5 30  1  0  0  0  0
  6 17  1  0  0  0  0
  6  7  2  0  0  0  0
  7  8  1  0  0  0  0
  8 15  1  0  0  0  0
  8  9  2  0  0  0  0
  9 10  1  0  0  0  0
  9 17  1  0  0  0  0
 10 11  2  0  0  0  0
 10 12  1  0  0  0  0
 12 22  1  0  0  0  0
 12 13  1  0  0  0  0
 13 14  2  0  0  0  0
 13 15  1  0  0  0  0
 15 16  1  0  0  0  0
 16 31  1  0  0  0  0
 16 32  1  0  0  0  0
 16 33  1  0  0  0  0
 17 18  1  0  0  0  0
 18 19  1  0  0  0  0
 18 34  1  0  0  0  0
 18 35  1  0  0  0  0
 19 20  1  0  0  0  0
 19 36  1  0  0  0  0
 19 37  1  0  0  0  0
 20 21  1  0  0  0  0
 21 38  1  0  0  0  0
 21 39  1  0  0  0  0
 21 40  1  0  0  0  0
M  END
> <s_m_source_file>
AV-unprocessed.smi

> <i_m_source_file_index>
534

> <i_lp_mmshare_version>
43012

> <i_f3d_flags>
0

> <s_epik_input>
W0NIM11PW0NIMl1bQ0gyXVtOSF1jKG4xKW4oW0NIMl1bQ0gyXU9bQ0gzXSljKGMxMiljKD1PKVtuSF1jKD1PKW4yW0NIM10=

> <s_epik_cmdline>
J2VwaWtfcHl0aG9uJywgJy1waCcsICc3LjAnLCAnLXRuJywgJzgnLCAnLW1hJywgJzIwMCcsICctbWV0YWxfYmluZGluZycsICctaW1hZScsICc8aW5maWxlLm1hZT4nLCAnLW9tYWUnLCAnPG91dGZpbGUubWFlPic=

> <r_lp_tautomer_probability>
1

> <r_epik_Ionization_Penalty>
6.5127e-05

> <r_epik_Ionization_Penalty_Charging>
2.86033e-05

> <r_epik_Ionization_Penalty_Neutral>
3.65237e-05

> <r_epik_State_Penalty>
-0

> <r_epik_Charging_Adjusted_Penalty>
2.86033e-05

> <i_epik_Tot_Q>
0

> <i_epik_Tot_abs_Q>
0

> <r_epik_Metal_State_Penalty>
0.0266758

> <b_epik_Metal_Only>
0

> <s_lp_Force_Field>
OPLS_2005

> <r_lp_Energy>
20.7104

> <b_lp_Chiralities_Consistent>
1

> <s_lp_Variant>
AV-unprocessed.smi:534-1

> <Gold.Version>
5.8.1

> <Gold.Id.Protein>
6NUR|6NUR_protein|mol2

> <Gold.PLP.Fitness>
33.6097

> <Gold.PLP.PLP>
-31.7177

> <Gold.PLP.part.hbond>
-2.0000

> <Gold.PLP.part.metal>
0.0000

> <Gold.PLP.part.buried>
-4.0281

> <Gold.PLP.part.nonpolar>
-27.2105

> <Gold.PLP.part.repulsive>
0.4354

> <Gold.PLP.ligand.clash>
0.0000

> <Gold.PLP.ligand.torsion>
0.3365

> <Gold.PLP.Chemscore.Hbond>
0.8450

> <Gold.PLP.Chemscore.CHOScore>
0.0000

> <Gold.PLP.Chemscore.Metal>
0.0000

> <Gold.Chemscore.Hbonds>
donor molecule, donor type, donor heavy atom, donor atom, acceptor molecule, acceptor atom, score
      P1  H  6896  6907       L1    14  0.81

> <Gold.PLP.Chemscore.Internal.Correction>
0.0301

> <Gold.Rescore>
     Score         DG    S(hbond)    S(metal)    S(lipo)     H(rot)  DE(clash)    DE(int)     intcor
      8.27      -8.72       0.98        0.00      53.15       2.45       0.01       0.44       ----

> <Gold.Chemscore.Fitness>
8.2724

> <Gold.Chemscore.DG>
-8.7238

> <Gold.Chemscore.ZeroCoef>
-5.4800

> <Gold.Chemscore.Hbond>
0.9849

> <Gold.Chemscore.Metal>
0.0000

> <Gold.Chemscore.Lipo>
53.1456

> <Gold.Chemscore.Internal_Hbond>
0.0000

> <Gold.Chemscore.DEClash>
0.0149

> <Gold.Chemscore.DEInternal>
0.4365

> <Gold.Chemscore.Rot>
2.4468

> <Gold.Chemscore.Internal.Correction>
   9.000000E+99

> <Gold.Chemscore.Hbonds>
donor molecule, donor type, donor heavy atom, donor atom, acceptor molecule, acceptor atom, score
      P1  H  6896  6907       L1    14  0.80

> <Gold.Chemscore.Hbond.Weighted>
-3.2896

> <Gold.Chemscore.Metal.Weighted>
-0.0000

> <Gold.Chemscore.Lipo.Weighted>
-6.2180

> <Gold.Chemscore.Internal_Hbond.Weighted>
0.0000

> <Gold.Chemscore.DEClash.Weighted>
0.0149

> <Gold.Chemscore.DEInternal.Weighted>
0.4365

> <Gold.Chemscore.Rot.Weighted>
6.2638

> <Gold.Chemscore.Internal.Correction.Weighted>
   9.000000E+99

> <Gold.Protein.RotatedTorsions>
[ 6907 6896 6895 6894 ] final -146.65 input  -60.11 | X-H torsion
[ 7974 7965 7964 7962 ] final -179.72 input  175.53 | X-H torsion
[ 8008 7997 7996 7995 ] final  141.75 input   59.86 | X-H torsion
[ 10167 10162 10161 10158 ] final    3.98 input  -65.29 | X-H torsion
[ 10718 10713 10712 10709 ] final   48.91 input   66.30 | X-H torsion
[ 10763 10752 10751 10750 ] final  143.91 input  -60.55 | X-H torsion
[ 11005 11000 10999 10996 ] final  -48.94 input  -57.11 | X-H torsion

> <Gold.Protein.ActiveResidues>
 VAL166  LYS551  ARG553  GLY616  TRP617  ASP618  TYR619  PRO620  LYS621  CYS622 
 ASP623  PHE694  ASN695  SER759  ASP760  ASP761  ALA762  ILE779  LEU786  VAL792 
 PHE793  MET794  SER795  GLU796  ALA797  LYS798  CYS799  TRP800  GLU811  SER814 

> <Gold.Protein.RotatedAtoms>
  151.1447  133.4948  159.2596 H   0  0  0  0  0  0  0  0  0  0  0  0  # atno 6907 bound_to 6896
  151.1618  135.0276  159.8723 H   0  0  0  0  0  0  0  0  0  0  0  0  # atno 6908 bound_to 6896
  152.5463  134.1320  159.8496 H   0  0  0  0  0  0  0  0  0  0  0  0  # atno 6909 bound_to 6896
  144.7138  140.0674  143.6430 H   0  0  0  0  0  0  0  0  0  0  0  0  # atno 7974 bound_to 7965
  156.2961  140.2307  156.4616 H   0  0  0  0  0  0  0  0  0  0  0  0  # atno 8008 bound_to 7997
  154.8013  140.0448  157.1296 H   0  0  0  0  0  0  0  0  0  0  0  0  # atno 8009 bound_to 7997
  154.9530  140.3044  155.5069 H   0  0  0  0  0  0  0  0  0  0  0  0  # atno 8010 bound_to 7997
  140.6558  143.7431  150.7651 H   0  0  0  0  0  0  0  0  0  0  0  0  # atno 10167 bound_to 10162
  157.4734  130.8269  149.8013 H   0  0  0  0  0  0  0  0  0  0  0  0  # atno 10718 bound_to 10713
  153.9801  135.2942  155.3421 H   0  0  0  0  0  0  0  0  0  0  0  0  # atno 10763 bound_to 10752
  154.7273  135.5083  153.8911 H   0  0  0  0  0  0  0  0  0  0  0  0  # atno 10764 bound_to 10752
  153.0858  135.6693  154.0066 H   0  0  0  0  0  0  0  0  0  0  0  0  # atno 10765 bound_to 10752
  141.0730  133.6673  156.3513 H   0  0  0  0  0  0  0  0  0  0  0  0  # atno 11005 bound_to 11000
  145.9812  139.2943  143.1041 LP  0  0  0  0  0  0  0  0  0  0  0  0  # atno 17320 bound_to 7965
  145.9008  140.9244  143.0504 LP  0  0  0  0  0  0  0  0  0  0  0  0  # atno 17321 bound_to 7965
  140.1090  143.4717  152.2381 LP  0  0  0  0  0  0  0  0  0  0  0  0  # atno 17342 bound_to 10162
  139.5780  144.7497  151.3713 LP  0  0  0  0  0  0  0  0  0  0  0  0  # atno 17343 bound_to 10162
  156.0085  130.3844  150.2348 LP  0  0  0  0  0  0  0  0  0  0  0  0  # atno 17370 bound_to 10713
  157.0531  131.0068  151.3247 LP  0  0  0  0  0  0  0  0  0  0  0  0  # atno 17371 bound_to 10713
  140.5633  134.5912  157.5439 LP  0  0  0  0  0  0  0  0  0  0  0  0  # atno 17394 bound_to 11000
  139.9543  134.7563  156.0378 LP  0  0  0  0  0  0  0  0  0  0  0  0  # atno 17395 bound_to 11000

$$$$
