AV-unprocessed.smi:3271|AV-procd|sdf|12517|dock1
  -GOLD-   2272018423D 1   1.00000     0.00000
 Structure written by MMmdl.
 41 41  0  0  0  0  0  0  0  0  1 V2000
  149.4485  133.5760  154.8015 C   0  0  0  0  0  0  0  0  0  0  0  0
  148.7376  133.5450  153.4390 C   0  0  0  0  0  0  0  0  0  0  0  0
  147.2184  133.8265  153.5012 C   0  0  0  0  0  0  0  0  0  0  0  0
  146.6290  133.9511  152.0775 C   0  0  0  0  0  0  0  0  0  0  0  0
  146.5135  132.6191  151.3191 C   0  0  0  0  0  0  0  0  0  0  0  0
  146.9134  135.0772  154.3433 C   0  0  0  0  0  0  0  0  0  0  0  0
  146.3001  134.9774  155.4062 O   0  0  0  0  0  0  0  0  0  0  0  0
  147.3419  136.2473  153.8474 N   0  0  0  0  0  0  0  0  0  0  0  0
  147.1041  137.5557  154.4511 C   0  0  0  0  0  0  0  0  0  0  0  0
  147.7573  138.7234  153.6661 C   0  0  2  0  0  0  0  0  0  0  0  0
  146.8963  139.9923  153.7901 C   0  0  0  0  0  0  0  0  0  0  0  0
  147.7039  138.3807  152.2942 O   0  0  0  0  0  0  0  0  0  0  0  0
  149.1742  139.0126  154.1197 C   0  0  0  0  0  0  0  0  0  0  0  0
  149.7087  140.2294  154.6369 C   0  0  0  0  0  0  0  0  0  0  0  0
  150.9977  140.1499  154.9236 N   0  0  0  0  0  0  0  0  0  0  0  0
  151.3317  138.8819  154.6116 N   0  0  0  0  0  0  0  0  0  0  0  0
  152.6955  138.4362  154.7997 C   0  0  0  0  0  0  0  0  0  0  0  0
  150.2536  138.1723  154.1299 C   0  0  0  0  0  0  0  0  0  0  0  0
  150.4900  133.2708  154.7004 H   0  0  0  0  0  0  0  0  0  0  0  0
  148.9720  132.9002  155.5124 H   0  0  0  0  0  0  0  0  0  0  0  0
  149.4443  134.5768  155.2329 H   0  0  0  0  0  0  0  0  0  0  0  0
  149.2225  134.2519  152.7639 H   0  0  0  0  0  0  0  0  0  0  0  0
  148.8950  132.5597  152.9990 H   0  0  0  0  0  0  0  0  0  0  0  0
  146.7471  132.9661  153.9800 H   0  0  0  0  0  0  0  0  0  0  0  0
  145.6492  134.4292  152.1187 H   0  0  0  0  0  0  0  0  0  0  0  0
  147.2596  134.6197  151.4906 H   0  0  0  0  0  0  0  0  0  0  0  0
  146.1502  132.7848  150.3046 H   0  0  0  0  0  0  0  0  0  0  0  0
  145.8191  131.9339  151.8057 H   0  0  0  0  0  0  0  0  0  0  0  0
  147.4813  132.1223  151.2471 H   0  0  0  0  0  0  0  0  0  0  0  0
  147.8357  136.2350  152.9670 H   0  0  0  0  0  0  0  0  0  0  0  0
  146.0422  137.7332  154.6329 H   0  0  0  0  0  0  0  0  0  0  0  0
  147.5633  137.4973  155.4384 H   0  0  0  0  0  0  0  0  0  0  0  0
  146.8490  140.3401  154.8227 H   0  0  0  0  0  0  0  0  0  0  0  0
  145.8723  139.8151  153.4583 H   0  0  0  0  0  0  0  0  0  0  0  0
  147.3016  140.8078  153.1894 H   0  0  0  0  0  0  0  0  0  0  0  0
  148.1047  137.5326  152.1792 H   0  0  0  0  0  0  0  0  0  0  0  0
  149.2012  141.1684  154.8028 H   0  0  0  0  0  0  0  0  0  0  0  0
  152.7583  137.3563  154.6615 H   0  0  0  0  0  0  0  0  0  0  0  0
  153.0319  138.6838  155.8073 H   0  0  0  0  0  0  0  0  0  0  0  0
  153.3452  138.9260  154.0739 H   0  0  0  0  0  0  0  0  0  0  0  0
  150.3415  137.1390  153.8283 H   0  0  0  0  0  0  0  0  0  0  0  0
  1  2  1  0  0  0  0
  1 19  1  0  0  0  0
  1 20  1  0  0  0  0
  1 21  1  0  0  0  0
  2  3  1  0  0  0  0
  2 22  1  0  0  0  0
  2 23  1  0  0  0  0
  3  4  1  0  0  0  0
  3  6  1  0  0  0  0
  3 24  1  0  0  0  0
  4  5  1  0  0  0  0
  4 25  1  0  0  0  0
  4 26  1  0  0  0  0
  5 27  1  0  0  0  0
  5 28  1  0  0  0  0
  5 29  1  0  0  0  0
  6  7  2  0  0  0  0
  6  8  1  0  0  0  0
  8  9  1  0  0  0  0
  8 30  1  0  0  0  0
  9 10  1  0  0  0  0
  9 31  1  0  0  0  0
  9 32  1  0  0  0  0
 10 11  1  0  0  0  0
 10 12  1  0  0  0  0
 10 13  1  0  0  0  0
 11 33  1  0  0  0  0
 11 34  1  0  0  0  0
 11 35  1  0  0  0  0
 12 36  1  0  0  0  0
 13 18  2  0  0  0  0
 13 14  1  0  0  0  0
 14 15  2  0  0  0  0
 14 37  1  0  0  0  0
 15 16  1  0  0  0  0
 16 17  1  0  0  0  0
 16 18  1  0  0  0  0
 17 38  1  0  0  0  0
 17 39  1  0  0  0  0
 17 40  1  0  0  0  0
 18 41  1  0  0  0  0
M  END
> <s_m_source_file>
AV-unprocessed.smi

> <i_m_source_file_index>
3271

> <i_lp_mmshare_version>
43012

> <i_f3d_flags>
0

> <s_epik_input>
W0NIM11bQ0gyXVtDSF0oW0NIMl1bQ0gzXSlDKD1PKVtOSF1bQ0gyXVtDQEBdKFtDSDNdKShbT0hdKWMxW2NIXW5uKFtDSDNdKVtjSF0x

> <s_epik_cmdline>
J2VwaWtfcHl0aG9uJywgJy1waCcsICc3LjAnLCAnLXRuJywgJzgnLCAnLW1hJywgJzIwMCcsICctbWV0YWxfYmluZGluZycsICctaW1hZScsICc8aW5maWxlLm1hZT4nLCAnLW9tYWUnLCAnPG91dGZpbGUubWFlPic=

> <r_lp_tautomer_probability>
1

> <r_epik_Ionization_Penalty>
6.03488e-05

> <r_epik_Ionization_Penalty_Charging>
0

> <r_epik_Ionization_Penalty_Neutral>
6.03488e-05

> <r_epik_State_Penalty>
-0

> <r_epik_Charging_Adjusted_Penalty>
0

> <i_epik_Tot_Q>
0

> <i_epik_Tot_abs_Q>
0

> <r_epik_Metal_State_Penalty>
-0

> <b_epik_Metal_Only>
0

> <s_lp_Force_Field>
OPLS_2005

> <r_lp_Energy>
0.383254

> <b_lp_Chiralities_Consistent>
1

> <s_lp_Variant>
AV-unprocessed.smi:3271-2

> <Gold.Version>
5.8.1

> <Gold.Id.Protein>
6NUR|6NUR_protein|mol2

> <Gold.PLP.Fitness>
42.0405

> <Gold.PLP.PLP>
-31.9312

> <Gold.PLP.part.hbond>
-3.9278

> <Gold.PLP.part.metal>
0.0000

> <Gold.PLP.part.buried>
-0.9774

> <Gold.PLP.part.nonpolar>
-27.1753

> <Gold.PLP.part.repulsive>
0.0784

> <Gold.PLP.ligand.clash>
0.0000

> <Gold.PLP.ligand.torsion>
0.7590

> <Gold.PLP.Chemscore.Hbond>
2.9000

> <Gold.PLP.Chemscore.CHOScore>
0.9240

> <Gold.PLP.Chemscore.Metal>
0.0000

> <Gold.Chemscore.Hbonds>
donor molecule, donor type, donor heavy atom, donor atom, acceptor molecule, acceptor atom, score
      L1  H     8    30       P1  7948  1.00
      L1  H    12    36       P1  7948  1.00
      P1  H  7989  7998       L1    15  0.81
      L1  C    18    41       P1  7948  0.72
      L1  C    18    41       P1  7949  0.20

> <Gold.PLP.Chemscore.Internal.Correction>
0.1554

> <Gold.Rescore>
     Score         DG    S(hbond)    S(metal)    S(lipo)     H(rot)  DE(clash)    DE(int)     intcor
     13.75     -14.52       2.06        0.00      69.60       2.33       0.00       0.77       ----

> <Gold.Chemscore.Fitness>
13.7498

> <Gold.Chemscore.DG>
-14.5234

> <Gold.Chemscore.ZeroCoef>
-5.4800

> <Gold.Chemscore.Hbond>
2.0584

> <Gold.Chemscore.Metal>
0.0000

> <Gold.Chemscore.Lipo>
69.6027

> <Gold.Chemscore.Internal_Hbond>
0.0000

> <Gold.Chemscore.DEClash>
0.0015

> <Gold.Chemscore.DEInternal>
0.7722

> <Gold.Chemscore.Rot>
2.3341

> <Gold.Chemscore.Internal.Correction>
   9.000000E+99

> <Gold.Chemscore.Hbonds>
donor molecule, donor type, donor heavy atom, donor atom, acceptor molecule, acceptor atom, score
      L1  H     8    30       P1  7948  0.97
      L1  H    12    36       P1  7948  0.96
      P1  H  7989  7998       L1    15  0.03

> <Gold.Chemscore.Hbond.Weighted>
-6.8751

> <Gold.Chemscore.Metal.Weighted>
-0.0000

> <Gold.Chemscore.Lipo.Weighted>
-8.1435

> <Gold.Chemscore.Internal_Hbond.Weighted>
0.0000

> <Gold.Chemscore.DEClash.Weighted>
0.0015

> <Gold.Chemscore.DEInternal.Weighted>
0.7722

> <Gold.Chemscore.Rot.Weighted>
5.9753

> <Gold.Chemscore.Internal.Correction.Weighted>
   9.000000E+99

> <Gold.Protein.RotatedTorsions>
[ 6907 6896 6895 6894 ] final   93.83 input  -60.11 | X-H torsion
[ 7974 7965 7964 7962 ] final   95.93 input  175.53 | X-H torsion
[ 8008 7997 7996 7995 ] final  175.30 input   59.86 | X-H torsion
[ 10167 10162 10161 10158 ] final   34.15 input  -65.29 | X-H torsion
[ 10718 10713 10712 10709 ] final  170.47 input   66.30 | X-H torsion
[ 10763 10752 10751 10750 ] final  -68.72 input  -60.55 | X-H torsion
[ 11005 11000 10999 10996 ] final -139.60 input  -57.11 | X-H torsion

> <Gold.Protein.ActiveResidues>
 VAL166  LYS551  ARG553  GLY616  TRP617  ASP618  TYR619  PRO620  LYS621  CYS622 
 ASP623  PHE694  ASN695  SER759  ASP760  ASP761  ALA762  ILE779  LEU786  VAL792 
 PHE793  MET794  SER795  GLU796  ALA797  LYS798  CYS799  TRP800  GLU811  SER814 

> <Gold.Protein.RotatedAtoms>
  152.5451  134.1287  159.8429 H   0  0  0  0  0  0  0  0  0  0  0  0  # atno 6907 bound_to 6896
  151.1335  133.5013  159.2606 H   0  0  0  0  0  0  0  0  0  0  0  0  # atno 6908 bound_to 6896
  151.1649  135.0301  159.8781 H   0  0  0  0  0  0  0  0  0  0  0  0  # atno 6909 bound_to 6896
  145.4455  139.2297  143.3068 H   0  0  0  0  0  0  0  0  0  0  0  0  # atno 7974 bound_to 7965
  156.0885  140.1412  156.9622 H   0  0  0  0  0  0  0  0  0  0  0  0  # atno 8008 bound_to 7997
  154.4627  140.0937  156.6985 H   0  0  0  0  0  0  0  0  0  0  0  0  # atno 8009 bound_to 7997
  155.4959  140.3449  155.4365 H   0  0  0  0  0  0  0  0  0  0  0  0  # atno 8010 bound_to 7997
  140.4342  144.1281  150.6164 H   0  0  0  0  0  0  0  0  0  0  0  0  # atno 10167 bound_to 10162
  157.0077  131.0195  151.2812 H   0  0  0  0  0  0  0  0  0  0  0  0  # atno 10718 bound_to 10713
  154.3930  135.6048  153.5854 H   0  0  0  0  0  0  0  0  0  0  0  0  # atno 10763 bound_to 10752
  152.9787  135.5888  154.4274 H   0  0  0  0  0  0  0  0  0  0  0  0  # atno 10764 bound_to 10752
  154.4061  135.2843  155.2044 H   0  0  0  0  0  0  0  0  0  0  0  0  # atno 10765 bound_to 10752
  140.8504  134.2292  157.4763 H   0  0  0  0  0  0  0  0  0  0  0  0  # atno 11005 bound_to 11000
  146.2533  140.5209  142.8884 LP  0  0  0  0  0  0  0  0  0  0  0  0  # atno 17320 bound_to 7965
  144.8094  140.6358  143.6425 LP  0  0  0  0  0  0  0  0  0  0  0  0  # atno 17321 bound_to 7965
  140.4393  143.2533  151.9494 LP  0  0  0  0  0  0  0  0  0  0  0  0  # atno 17342 bound_to 10162
  139.4786  144.5670  151.8149 LP  0  0  0  0  0  0  0  0  0  0  0  0  # atno 17343 bound_to 10162
  157.5344  130.8079  149.7954 LP  0  0  0  0  0  0  0  0  0  0  0  0  # atno 17370 bound_to 10713
  156.0147  130.3818  150.2148 LP  0  0  0  0  0  0  0  0  0  0  0  0  # atno 17371 bound_to 10713
  139.8704  134.9680  156.4617 LP  0  0  0  0  0  0  0  0  0  0  0  0  # atno 17394 bound_to 11000
  140.8796  133.7927  155.9452 LP  0  0  0  0  0  0  0  0  0  0  0  0  # atno 17395 bound_to 11000

$$$$
