AV-unprocessed.smi:2491|AV-procd|sdf|9809|dock2
  -GOLD-   2272013443D 1   1.00000     0.00000
 Structure written by MMmdl.
 27 28  0  0  0  0  0  0  0  0  1 V2000
  149.7148  143.4637  157.8907 N   0  0  0  0  0  0  0  0  0  0  0  0
  149.5762  142.1589  157.6429 C   0  0  0  0  0  0  0  0  0  0  0  0
  148.7075  141.4795  158.1876 O   0  0  0  0  0  0  0  0  0  0  0  0
  150.5467  141.5325  156.6232 C   0  0  2  0  0  0  0  0  0  0  0  0
  149.7036  141.0048  155.4373 C   0  0  0  0  0  0  0  0  0  0  0  0
  150.5316  140.3845  154.4630 O   0  0  0  0  0  0  0  0  0  0  0  0
  151.2018  139.2555  155.0025 C   0  0  0  0  0  0  0  0  0  0  0  0
  152.1345  139.7216  156.1282 C   0  0  0  0  0  0  0  0  0  0  0  0
  151.3998  140.4563  157.1576 N   0  0  0  0  0  0  0  0  0  0  0  0
  152.1032  140.6281  158.3484 C   0  0  0  0  0  0  0  0  0  0  0  0
  152.1158  141.8489  158.9023 N   0  0  0  0  0  0  0  0  0  0  0  0
  152.8139  142.0016  160.0480 C   0  0  0  0  0  0  0  0  0  0  0  0
  153.5099  140.9275  160.6356 C   0  0  0  0  0  0  0  0  0  0  0  0
  154.4041  141.1166  162.0988 Cl  0  0  0  0  0  0  0  0  0  0  0  0
  153.4389  139.6909  159.9646 C   0  0  0  0  0  0  0  0  0  0  0  0
  152.7383  139.5476  158.8186 N   0  0  0  0  0  0  0  0  0  0  0  0
  149.1032  143.9138  158.5562 H   0  0  0  0  0  0  0  0  0  0  0  0
  150.4316  143.9945  157.4179 H   0  0  0  0  0  0  0  0  0  0  0  0
  151.2098  142.3152  156.2494 H   0  0  0  0  0  0  0  0  0  0  0  0
  148.9450  140.2953  155.7744 H   0  0  0  0  0  0  0  0  0  0  0  0
  149.1712  141.8257  154.9552 H   0  0  0  0  0  0  0  0  0  0  0  0
  150.4819  138.5202  155.3664 H   0  0  0  0  0  0  0  0  0  0  0  0
  151.7783  138.7739  154.2125 H   0  0  0  0  0  0  0  0  0  0  0  0
  152.6385  138.8527  156.5533 H   0  0  0  0  0  0  0  0  0  0  0  0
  152.9134  140.3687  155.7220 H   0  0  0  0  0  0  0  0  0  0  0  0
  152.8161  142.9848  160.4949 H   0  0  0  0  0  0  0  0  0  0  0  0
  153.9455  138.8158  160.3440 H   0  0  0  0  0  0  0  0  0  0  0  0
  1  2  1  0  0  0  0
  1 17  1  0  0  0  0
  1 18  1  0  0  0  0
  2  3  2  0  0  0  0
  2  4  1  0  0  0  0
  4  9  1  0  0  0  0
  4  5  1  0  0  0  0
  4 19  1  0  0  0  0
  5  6  1  0  0  0  0
  5 20  1  0  0  0  0
  5 21  1  0  0  0  0
  6  7  1  0  0  0  0
  7  8  1  0  0  0  0
  7 22  1  0  0  0  0
  7 23  1  0  0  0  0
  8  9  1  0  0  0  0
  8 24  1  0  0  0  0
  8 25  1  0  0  0  0
  9 10  1  0  0  0  0
 10 16  1  0  0  0  0
 10 11  2  0  0  0  0
 11 12  1  0  0  0  0
 12 13  2  0  0  0  0
 12 26  1  0  0  0  0
 13 14  1  0  0  0  0
 13 15  1  0  0  0  0
 15 16  2  0  0  0  0
 15 27  1  0  0  0  0
M  END
> <s_m_source_file>
AV-unprocessed.smi

> <i_m_source_file_index>
2491

> <i_lp_mmshare_version>
43012

> <i_f3d_flags>
0

> <s_epik_input>
W05IMl1DKD1PKVtDQEBIXTFbQ0gyXU9bQ0gyXVtDSDJdTjFjMm5bY0hdYyhDbClbY0hdbjI=

> <s_epik_cmdline>
J2VwaWtfcHl0aG9uJywgJy1waCcsICc3LjAnLCAnLXRuJywgJzgnLCAnLW1hJywgJzIwMCcsICctbWV0YWxfYmluZGluZycsICctaW1hZScsICc8aW5maWxlLm1hZT4nLCAnLW9tYWUnLCAnPG91dGZpbGUubWFlPic=

> <r_lp_tautomer_probability>
1

> <r_epik_Ionization_Penalty>
2.68452e-07

> <r_epik_Ionization_Penalty_Charging>
0

> <r_epik_Ionization_Penalty_Neutral>
2.68452e-07

> <r_epik_State_Penalty>
-0

> <r_epik_Charging_Adjusted_Penalty>
0

> <i_epik_Tot_Q>
0

> <i_epik_Tot_abs_Q>
0

> <r_epik_Metal_State_Penalty>
-0

> <b_epik_Metal_Only>
0

> <s_lp_Force_Field>
OPLS_2005

> <r_lp_Energy>
10.3646

> <b_lp_Chiralities_Consistent>
1

> <s_lp_Variant>
AV-unprocessed.smi:2491-1

> <Gold.Version>
5.8.1

> <Gold.Id.Protein>
6NUR|6NUR_protein|mol2

> <Gold.PLP.Fitness>
31.5274

> <Gold.PLP.PLP>
-28.5459

> <Gold.PLP.part.hbond>
-2.5374

> <Gold.PLP.part.metal>
0.0000

> <Gold.PLP.part.buried>
-1.6028

> <Gold.PLP.part.nonpolar>
-23.9794

> <Gold.PLP.part.repulsive>
0.2066

> <Gold.PLP.ligand.clash>
0.0000

> <Gold.PLP.ligand.torsion>
0.2266

> <Gold.PLP.Chemscore.Hbond>
1.0000

> <Gold.PLP.Chemscore.CHOScore>
0.0000

> <Gold.PLP.Chemscore.Metal>
0.0000

> <Gold.Chemscore.Hbonds>
donor molecule, donor type, donor heavy atom, donor atom, acceptor molecule, acceptor atom, score
      P1  H  7989  7998       L1     6  0.95

> <Gold.PLP.Chemscore.Internal.Correction>
0.4347

> <Gold.Rescore>
     Score         DG    S(hbond)    S(metal)    S(lipo)     H(rot)  DE(clash)    DE(int)     intcor
     10.72     -12.17       0.95        0.00      62.67       1.49       0.01       1.43       ----

> <Gold.Chemscore.Fitness>
10.7241

> <Gold.Chemscore.DG>
-12.1698

> <Gold.Chemscore.ZeroCoef>
-5.4800

> <Gold.Chemscore.Hbond>
0.9475

> <Gold.Chemscore.Metal>
0.0000

> <Gold.Chemscore.Lipo>
62.6732

> <Gold.Chemscore.Internal_Hbond>
0.0000

> <Gold.Chemscore.DEClash>
0.0137

> <Gold.Chemscore.DEInternal>
1.4320

> <Gold.Chemscore.Rot>
1.4874

> <Gold.Chemscore.Internal.Correction>
   9.000000E+99

> <Gold.Chemscore.Hbonds>
donor molecule, donor type, donor heavy atom, donor atom, acceptor molecule, acceptor atom, score
      P1  H  7989  7998       L1     6  0.20

> <Gold.Chemscore.Hbond.Weighted>
-3.1647

> <Gold.Chemscore.Metal.Weighted>
-0.0000

> <Gold.Chemscore.Lipo.Weighted>
-7.3328

> <Gold.Chemscore.Internal_Hbond.Weighted>
0.0000

> <Gold.Chemscore.DEClash.Weighted>
0.0137

> <Gold.Chemscore.DEInternal.Weighted>
1.4320

> <Gold.Chemscore.Rot.Weighted>
3.8077

> <Gold.Chemscore.Internal.Correction.Weighted>
   9.000000E+99

> <Gold.Protein.RotatedTorsions>
[ 6907 6896 6895 6894 ] final  111.45 input  -60.11 | X-H torsion
[ 7974 7965 7964 7962 ] final -175.98 input  175.53 | X-H torsion
[ 8008 7997 7996 7995 ] final -117.74 input   59.86 | X-H torsion
[ 10167 10162 10161 10158 ] final  166.86 input  -65.29 | X-H torsion
[ 10718 10713 10712 10709 ] final   73.42 input   66.30 | X-H torsion
[ 10763 10752 10751 10750 ] final -145.28 input  -60.55 | X-H torsion
[ 11005 11000 10999 10996 ] final  -11.30 input  -57.11 | X-H torsion

> <Gold.Protein.ActiveResidues>
 VAL166  LYS551  ARG553  GLY616  TRP617  ASP618  TYR619  PRO620  LYS621  CYS622 
 ASP623  PHE694  ASN695  SER759  ASP760  ASP761  ALA762  ILE779  LEU786  VAL792 
 PHE793  MET794  SER795  GLU796  ALA797  LYS798  CYS799  TRP800  GLU811  SER814 

> <Gold.Protein.RotatedAtoms>
  152.4968  133.8656  159.7271 H   0  0  0  0  0  0  0  0  0  0  0  0  # atno 6907 bound_to 6896
  150.9156  133.6935  159.2851 H   0  0  0  0  0  0  0  0  0  0  0  0  # atno 6908 bound_to 6896
  151.4329  135.1016  159.9700 H   0  0  0  0  0  0  0  0  0  0  0  0  # atno 6909 bound_to 6896
  144.7127  140.1239  143.6403 H   0  0  0  0  0  0  0  0  0  0  0  0  # atno 7974 bound_to 7965
  155.0885  140.0395  157.2661 H   0  0  0  0  0  0  0  0  0  0  0  0  # atno 8008 bound_to 7997
  154.6850  140.2641  155.6844 H   0  0  0  0  0  0  0  0  0  0  0  0  # atno 8009 bound_to 7997
  156.2708  140.2771  156.1408 H   0  0  0  0  0  0  0  0  0  0  0  0  # atno 8010 bound_to 7997
  139.4933  144.3983  151.9439 H   0  0  0  0  0  0  0  0  0  0  0  0  # atno 10167 bound_to 10162
  157.6547  130.9628  150.1067 H   0  0  0  0  0  0  0  0  0  0  0  0  # atno 10718 bound_to 10713
  154.8391  135.3417  154.6479 H   0  0  0  0  0  0  0  0  0  0  0  0  # atno 10763 bound_to 10752
  153.7091  135.6965  153.5047 H   0  0  0  0  0  0  0  0  0  0  0  0  # atno 10764 bound_to 10752
  153.2465  135.4367  155.0707 H   0  0  0  0  0  0  0  0  0  0  0  0  # atno 10765 bound_to 10752
  140.7538  133.8571  155.9067 H   0  0  0  0  0  0  0  0  0  0  0  0  # atno 11005 bound_to 11000
  145.9347  139.2629  143.1304 LP  0  0  0  0  0  0  0  0  0  0  0  0  # atno 17320 bound_to 7965
  145.9486  140.8925  143.0270 LP  0  0  0  0  0  0  0  0  0  0  0  0  # atno 17321 bound_to 7965
  140.3422  144.3190  150.5965 LP  0  0  0  0  0  0  0  0  0  0  0  0  # atno 17342 bound_to 10162
  140.5556  143.2199  151.7852 LP  0  0  0  0  0  0  0  0  0  0  0  0  # atno 17343 bound_to 10162
  156.1975  130.3658  149.8830 LP  0  0  0  0  0  0  0  0  0  0  0  0  # atno 17370 bound_to 10713
  156.6743  130.8833  151.3567 LP  0  0  0  0  0  0  0  0  0  0  0  0  # atno 17371 bound_to 10713
  140.9726  134.1510  157.4563 LP  0  0  0  0  0  0  0  0  0  0  0  0  # atno 17394 bound_to 11000
  139.8783  134.9984  156.5897 LP  0  0  0  0  0  0  0  0  0  0  0  0  # atno 17395 bound_to 11000

$$$$
