#       Name:                AV-unprocessed.smi:2911
#       Creating user name   scv26
#       Creation time:       Fri Mar 27 16:07:21 2020


#       File generated by GOLD software.
#

@<TRIPOS>MOLECULE
AV-unprocessed.smi:2911
    47    48     1
SMALL
NO_CHARGES


@<TRIPOS>ATOM
      1 ****        -7.0172   1.5461   2.0726 C.3            1 S1                 0.0000
      2 ****        -5.6566   1.6148   1.4677 C.2            1 S1                 0.0000
      3 ****        -5.3402   2.5571   0.5877 N.2            1 S1                 0.0000
      4 ****        -4.0035   2.2712   0.2746 O.3            1 S1                 0.0000
      5 ****        -3.6699   1.1951   1.0270 C.2            1 S1                 0.0000
      6 ****        -2.3044   0.6117   0.8848 C.3            1 S1                 0.0000
      7 ****        -2.2031  -0.3608  -0.3010 C.3            1 S1                 0.0000
      8 ****        -0.8688  -0.9401  -0.4066 N.am           1 S1                 0.0000
      9 ****         0.2014  -0.3278  -0.9414 C.2            1 S1                 0.0000
     10 ****         0.1282   0.7882  -1.4560 O.2            1 S1                 0.0000
     11 ****         1.3170  -1.1012  -0.9588 N.am           1 S1                 0.0000
     12 ****         1.7378  -1.8524   0.2375 C.3            1 S1                 0.0000
     13 ****         2.7155  -0.9859   1.0550 C.3            1 S1                 0.0000
     14 ****         3.9312  -0.5543   0.2070 C.3            1 S1                 0.0000
     15 ****         4.8462   0.4086   0.9758 C.3            1 S1                 0.0000
     16 ****         3.4841   0.0413  -1.1461 C.3            1 S1                 0.0000
     17 ****         2.4749  -0.8862  -1.8544 C.3            1 S1                 0.0000
     18 ****         2.1294  -0.4046  -3.2796 C.3            1 S1                 0.0000
     19 ****        -4.6671   0.7327   1.7775 N.2            1 S1                 0.0000
     20 ****        -7.7559   2.0085   1.4170 H              1 S1                 0.0000
     21 ****        -7.0285   2.0669   3.0301 H              1 S1                 0.0000
     22 ****        -7.3087   0.5087   2.2391 H              1 S1                 0.0000
     23 ****        -1.5916   1.4292   0.7697 H              1 S1                 0.0000
     24 ****        -2.0461   0.1003   1.8129 H              1 S1                 0.0000
     25 ****        -2.9164  -1.1756  -0.1742 H              1 S1                 0.0000
     26 ****        -2.4680   0.1424  -1.2325 H              1 S1                 0.0000
     27 ****        -0.7464  -1.8746  -0.0445 H              1 S1                 0.0000
     28 ****         0.9049  -2.1558   0.8725 H              1 S1                 0.0000
     29 ****         2.2220  -2.7825  -0.0634 H              1 S1                 0.0000
     30 ****         2.1922  -0.1035   1.4265 H              1 S1                 0.0000
     31 ****         3.0511  -1.5368   1.9343 H              1 S1                 0.0000
     32 ****         4.5110  -1.4528  -0.0092 H              1 S1                 0.0000
     33 ****         4.3275   1.3350   1.2240 H              1 S1                 0.0000
     34 ****         5.7266   0.6674   0.3870 H              1 S1                 0.0000
     35 ****         5.1927  -0.0391   1.9077 H              1 S1                 0.0000
     36 ****         3.0337   1.0230  -0.9907 H              1 S1                 0.0000
     37 ****         4.3555   0.1997  -1.7826 H              1 S1                 0.0000
     38 ****         2.9544  -1.8569  -1.9922 H              1 S1                 0.0000
     39 ****         3.0024  -0.4806  -3.9283 H              1 S1                 0.0000
     40 ****         1.8121   0.6375  -3.3047 H              1 S1                 0.0000
     41 ****         1.3410  -1.0132  -3.7234 H              1 S1                 0.0000
     42 ****        -5.9164   3.2936   0.2334 LP             1 S1                 0.0000
     43 ****        -3.4185   3.0497   0.5018 LP             1 S1                 0.0000
     44 ****        -3.9117   2.0579  -0.6980 LP             1 S1                 0.0000
     45 ****        -0.7483   1.2687  -1.4854 LP             1 S1                 0.0000
     46 ****         0.9452   1.2142  -1.8445 LP             1 S1                 0.0000
     47 ****        -4.6847  -0.0499   2.3998 LP             1 S1                 0.0000
@<TRIPOS>BOND
    1    1    2 1     
    2    1   20 1     
    3    1   21 1     
    4    1   22 1     
    5    2   19 1     
    6    2    3 2     
    7    3    4 1     
    8    4    5 1     
    9    5    6 1     
   10    5   19 2     
   11    6    7 1     
   12    6   23 1     
   13    6   24 1     
   14    7    8 1     
   15    7   25 1     
   16    7   26 1     
   17    8    9 am    
   18    8   27 1     
   19    9   10 2     
   20    9   11 am    
   21   11   17 1     
   22   11   12 1     
   23   12   13 1     
   24   12   28 1     
   25   12   29 1     
   26   13   14 1     
   27   13   30 1     
   28   13   31 1     
   29   14   15 1     
   30   14   16 1     
   31   14   32 1     
   32   15   33 1     
   33   15   34 1     
   34   15   35 1     
   35   16   17 1     
   36   16   36 1     
   37   16   37 1     
   38   17   18 1     
   39   17   38 1     
   40   18   39 1     
   41   18   40 1     
   42   18   41 1     
   43    3   42 1     
   44    4   43 1     
   45    4   44 1     
   46   10   45 1     
   47   10   46 1     
   48   19   47 1     
@<TRIPOS>SUBSTRUCTURE
      1 S1             1
@<TRIPOS>SET
LONE_PAIRS      STATIC     ATOMS    <user>   **** ""
6 42 43 44 45 46 47
DONOR_HYDROGENS      STATIC     ATOMS    <user>   **** ""
1 27
ATOM$BLUE        STATIC     ATOMS    COLORGROUP SYSTEM
6 42 43 44 45 46 47
ATOM$RED        STATIC     ATOMS    COLORGROUP SYSTEM
1 27
