#       Name:                AV-unprocessed.smi:2788
#       Creating user name   scv26
#       Creation time:       Fri Mar 27 15:19:33 2020


#       File generated by GOLD software.
#

@<TRIPOS>MOLECULE
AV-unprocessed.smi:2788
    54    55     1
SMALL
NO_CHARGES


@<TRIPOS>ATOM
      1 ****        -3.2450   2.9698  -0.3514 C.3            1 S1                 0.0000
      2 ****        -3.2930   1.5200  -0.7396 C.2            1 S1                 0.0000
      3 ****        -3.5848   1.1877  -1.9858 N.2            1 S1                 0.0000
      4 ****        -3.5281  -0.2082  -2.0335 O.3            1 S1                 0.0000
      5 ****        -3.1987  -0.6673  -0.8000 C.2            1 S1                 0.0000
      6 ****        -3.0622  -2.1453  -0.6571 C.3            1 S1                 0.0000
      7 ****        -3.0389   0.3764   0.0707 C.2            1 S1                 0.0000
      8 ****        -2.6551   0.3416   1.5285 C.3            1 S1                 0.0000
      9 ****        -1.1349   0.4317   1.6456 C.2            1 S1                 0.0000
     10 ****        -0.6091   1.4868   1.9973 O.2            1 S1                 0.0000
     11 ****        -0.4544  -0.6811   1.3140 N.am           1 S1                 0.0000
     12 ****         0.9998  -0.8775   1.2086 C.3            1 S1                 0.0000
     13 ****         1.2093  -2.3685   0.8551 C.3            1 S1                 0.0000
     14 ****         1.6736  -0.5875   2.5818 C.3            1 S1                 0.0000
     15 ****         1.0700  -1.3050   3.6422 O.3            1 S1                 0.0000
     16 ****         1.5824   0.0566   0.0859 C.3            1 S1                 0.0000
     17 ****         0.8370  -0.0399  -1.2740 C.3            1 S1                 0.0000
     18 ****         1.3644   0.9842  -2.2907 C.3            1 S1                 0.0000
     19 ****         2.8747   0.8229  -2.5091 C.3            1 S1                 0.0000
     20 ****         3.6329   0.9174  -1.1781 C.3            1 S1                 0.0000
     21 ****         3.1050  -0.1043  -0.1572 C.3            1 S1                 0.0000
     22 ****        -2.2167   3.3304  -0.3279 H              1 S1                 0.0000
     23 ****        -3.6746   3.1269   0.6379 H              1 S1                 0.0000
     24 ****        -3.8006   3.5925  -1.0532 H              1 S1                 0.0000
     25 ****        -2.9718  -2.4334   0.3899 H              1 S1                 0.0000
     26 ****        -2.1745  -2.5001  -1.1811 H              1 S1                 0.0000
     27 ****        -3.9297  -2.6567  -1.0740 H              1 S1                 0.0000
     28 ****        -3.1076   1.1658   2.0810 H              1 S1                 0.0000
     29 ****        -2.9986  -0.5719   2.0150 H              1 S1                 0.0000
     30 ****        -1.0129  -1.4808   1.0546 H              1 S1                 0.0000
     31 ****         2.2654  -2.6328   0.8096 H              1 S1                 0.0000
     32 ****         0.7597  -2.6310  -0.1020 H              1 S1                 0.0000
     33 ****         0.7542  -3.0212   1.6008 H              1 S1                 0.0000
     34 ****         2.7256  -0.8696   2.5660 H              1 S1                 0.0000
     35 ****         1.6449   0.4750   2.8229 H              1 S1                 0.0000
     36 ****         1.5100  -1.0775   4.4468 H              1 S1                 0.0000
     37 ****         1.4484   1.0819   0.4327 H              1 S1                 0.0000
     38 ****         0.9453  -1.0392  -1.6948 H              1 S1                 0.0000
     39 ****        -0.2325   0.1259  -1.1524 H              1 S1                 0.0000
     40 ****         0.8383   0.8697  -3.2389 H              1 S1                 0.0000
     41 ****         1.1489   1.9937  -1.9382 H              1 S1                 0.0000
     42 ****         3.0765  -0.1405  -2.9791 H              1 S1                 0.0000
     43 ****         3.2354   1.5865  -3.1988 H              1 S1                 0.0000
     44 ****         4.6979   0.7565  -1.3472 H              1 S1                 0.0000
     45 ****         3.5341   1.9248  -0.7717 H              1 S1                 0.0000
     46 ****         3.6636   0.0236   0.7687 H              1 S1                 0.0000
     47 ****         3.3276  -1.1084  -0.5182 H              1 S1                 0.0000
     48 ****        -3.8016   1.8079  -2.7397 LP             1 S1                 0.0000
     49 ****        -2.8366  -0.4954  -2.6963 LP             1 S1                 0.0000
     50 ****        -4.4194  -0.5732  -2.3025 LP             1 S1                 0.0000
     51 ****        -1.1768   2.2832   2.2058 LP             1 S1                 0.0000
     52 ****         0.3860   1.5481   2.0746 LP             1 S1                 0.0000
     53 ****         1.1561  -2.2875   3.4767 LP             1 S1                 0.0000
     54 ****         0.1022  -1.0614   3.7064 LP             1 S1                 0.0000
@<TRIPOS>BOND
    1    1    2 1     
    2    1   22 1     
    3    1   23 1     
    4    1   24 1     
    5    2    7 1     
    6    2    3 2     
    7    3    4 1     
    8    4    5 1     
    9    5    6 1     
   10    5    7 2     
   11    6   25 1     
   12    6   26 1     
   13    6   27 1     
   14    7    8 1     
   15    8    9 1     
   16    8   28 1     
   17    8   29 1     
   18    9   10 2     
   19    9   11 am    
   20   11   12 1     
   21   11   30 1     
   22   12   13 1     
   23   12   14 1     
   24   12   16 1     
   25   13   31 1     
   26   13   32 1     
   27   13   33 1     
   28   14   15 1     
   29   14   34 1     
   30   14   35 1     
   31   15   36 1     
   32   16   21 1     
   33   16   17 1     
   34   16   37 1     
   35   17   18 1     
   36   17   38 1     
   37   17   39 1     
   38   18   19 1     
   39   18   40 1     
   40   18   41 1     
   41   19   20 1     
   42   19   42 1     
   43   19   43 1     
   44   20   21 1     
   45   20   44 1     
   46   20   45 1     
   47   21   46 1     
   48   21   47 1     
   49    3   48 1     
   50    4   49 1     
   51    4   50 1     
   52   10   51 1     
   53   10   52 1     
   54   15   53 1     
   55   15   54 1     
@<TRIPOS>SUBSTRUCTURE
      1 S1             1
@<TRIPOS>SET
LONE_PAIRS      STATIC     ATOMS    <user>   **** ""
7 48 49 50 51 52 53 54
DONOR_HYDROGENS      STATIC     ATOMS    <user>   **** ""
2 30 36
ATOM$BLUE        STATIC     ATOMS    COLORGROUP SYSTEM
7 48 49 50 51 52 53 54
ATOM$RED        STATIC     ATOMS    COLORGROUP SYSTEM
2 30 36
