AV-unprocessed.smi:189|AV-procd|sdf|1480|dock5
  -GOLD-   2262019303D 1   1.00000     0.00000
 Structure written by MMmdl.
 53 57  0  0  0  0  0  0  0  0  1 V2000
  149.3170  141.2461  156.6595 C   0  0  0  0  0  0  0  0  0  0  0  0
  150.6629  141.9745  156.8562 C   0  0  1  0  0  0  0  0  0  0  0  0
  150.5514  143.0475  157.9672 C   0  0  0  0  0  0  0  0  0  0  0  0
  151.8272  142.8554  158.7816 C   0  0  1  0  0  0  0  0  0  0  0  0
  151.8388  143.2953  160.2503 C   0  0  0  0  0  0  0  0  0  0  0  0
  153.2004  142.9244  160.8751 C   0  0  0  0  0  0  0  0  0  0  0  0
  153.5560  141.4339  160.6709 C   0  0  0  0  0  0  0  0  0  0  0  0
  153.4456  140.9958  159.1949 C   0  0  0  0  0  0  0  0  0  0  0  0
  152.0433  141.3537  158.6693 C   0  0  2  0  0  0  0  0  0  0  0  0
  151.7723  141.0991  157.2629 N   0  0  0  0  0  0  0  0  0  0  0  0
  151.8723  139.8611  156.7169 C   0  0  0  0  0  0  0  0  0  0  0  0
  152.7902  139.6192  155.7447 N   0  0  0  0  0  0  0  0  0  0  0  0
  152.9087  138.3960  155.2200 C   0  0  0  0  0  0  0  0  0  0  0  0
  152.2244  137.2899  155.5191 N   0  0  0  0  0  0  0  0  0  0  0  0
  151.2995  137.5279  156.4925 C   0  0  0  0  0  0  0  0  0  0  0  0
  151.0606  138.7726  157.1401 C   0  0  0  0  0  0  0  0  0  0  0  0
  150.0439  138.6327  158.0769 N   0  0  0  0  0  0  0  0  0  0  0  0
  149.7048  137.3757  157.9923 C   0  0  0  0  0  0  0  0  0  0  0  0
  150.4032  136.6395  157.0617 N   0  0  0  0  0  0  0  0  0  0  0  0
  150.2284  135.2257  156.7665 C   0  0  0  0  0  0  0  0  0  0  0  0
  149.5993  134.9580  155.3795 C   0  0  1  0  0  0  0  0  0  0  0  0
  150.3879  135.5883  154.3843 O   0  0  0  0  0  0  0  0  0  0  0  0
  149.4655  133.4792  155.0275 C   0  0  0  0  0  0  0  0  0  0  0  0
  148.2141  133.4498  154.1616 C   0  0  0  0  0  0  0  0  0  0  0  0
  147.3646  134.3730  154.8206 O   0  0  0  0  0  0  0  0  0  0  0  0
  148.1522  135.4768  155.2558 C   0  0  0  0  0  0  0  0  0  0  0  0
  148.5216  141.9587  156.4400 H   0  0  0  0  0  0  0  0  0  0  0  0
  149.0292  140.6934  157.5547 H   0  0  0  0  0  0  0  0  0  0  0  0
  149.3514  140.5415  155.8289 H   0  0  0  0  0  0  0  0  0  0  0  0
  150.9525  142.4617  155.9247 H   0  0  0  0  0  0  0  0  0  0  0  0
  150.4597  144.0573  157.5663 H   0  0  0  0  0  0  0  0  0  0  0  0
  149.6824  142.8626  158.6011 H   0  0  0  0  0  0  0  0  0  0  0  0
  152.6343  143.3724  158.2576 H   0  0  0  0  0  0  0  0  0  0  0  0
  151.6679  144.3693  160.3269 H   0  0  0  0  0  0  0  0  0  0  0  0
  151.0316  142.8058  160.7966 H   0  0  0  0  0  0  0  0  0  0  0  0
  153.9799  143.5408  160.4255 H   0  0  0  0  0  0  0  0  0  0  0  0
  153.1985  143.1637  161.9389 H   0  0  0  0  0  0  0  0  0  0  0  0
  154.5632  141.2394  161.0403 H   0  0  0  0  0  0  0  0  0  0  0  0
  152.8854  140.8216  161.2754 H   0  0  0  0  0  0  0  0  0  0  0  0
  154.2105  141.4951  158.5989 H   0  0  0  0  0  0  0  0  0  0  0  0
  153.6381  139.9263  159.1177 H   0  0  0  0  0  0  0  0  0  0  0  0
  151.2909  140.8272  159.2601 H   0  0  0  0  0  0  0  0  0  0  0  0
  153.6607  138.2879  154.4525 H   0  0  0  0  0  0  0  0  0  0  0  0
  148.9266  136.9479  158.6078 H   0  0  0  0  0  0  0  0  0  0  0  0
  151.2009  134.7372  156.8403 H   0  0  0  0  0  0  0  0  0  0  0  0
  149.6082  134.7883  157.5502 H   0  0  0  0  0  0  0  0  0  0  0  0
  149.8107  136.0420  153.7889 H   0  0  0  0  0  0  0  0  0  0  0  0
  150.3434  133.0596  154.5344 H   0  0  0  0  0  0  0  0  0  0  0  0
  149.2769  132.8918  155.9266 H   0  0  0  0  0  0  0  0  0  0  0  0
  148.4273  133.7986  153.1501 H   0  0  0  0  0  0  0  0  0  0  0  0
  147.7637  132.4591  154.1005 H   0  0  0  0  0  0  0  0  0  0  0  0
  147.7587  135.8409  156.2053 H   0  0  0  0  0  0  0  0  0  0  0  0
  148.0679  136.2918  154.5347 H   0  0  0  0  0  0  0  0  0  0  0  0
  1  2  1  0  0  0  0
  1 27  1  0  0  0  0
  1 28  1  0  0  0  0
  1 29  1  0  0  0  0
  2 10  1  0  0  0  0
  2  3  1  0  0  0  0
  2 30  1  0  0  0  0
  3  4  1  0  0  0  0
  3 31  1  0  0  0  0
  3 32  1  0  0  0  0
  4  9  1  0  0  0  0
  4  5  1  0  0  0  0
  4 33  1  0  0  0  0
  5  6  1  0  0  0  0
  5 34  1  0  0  0  0
  5 35  1  0  0  0  0
  6  7  1  0  0  0  0
  6 36  1  0  0  0  0
  6 37  1  0  0  0  0
  7  8  1  0  0  0  0
  7 38  1  0  0  0  0
  7 39  1  0  0  0  0
  8  9  1  0  0  0  0
  8 40  1  0  0  0  0
  8 41  1  0  0  0  0
  9 10  1  0  0  0  0
  9 42  1  0  0  0  0
 10 11  1  0  0  0  0
 11 16  1  0  0  0  0
 11 12  2  0  0  0  0
 12 13  1  0  0  0  0
 13 14  2  0  0  0  0
 13 43  1  0  0  0  0
 14 15  1  0  0  0  0
 15 19  1  0  0  0  0
 15 16  2  0  0  0  0
 16 17  1  0  0  0  0
 17 18  2  0  0  0  0
 18 19  1  0  0  0  0
 18 44  1  0  0  0  0
 19 20  1  0  0  0  0
 20 21  1  0  0  0  0
 20 45  1  0  0  0  0
 20 46  1  0  0  0  0
 21 26  1  0  0  0  0
 21 22  1  0  0  0  0
 21 23  1  0  0  0  0
 22 47  1  0  0  0  0
 23 24  1  0  0  0  0
 23 48  1  0  0  0  0
 23 49  1  0  0  0  0
 24 25  1  0  0  0  0
 24 50  1  0  0  0  0
 24 51  1  0  0  0  0
 25 26  1  0  0  0  0
 26 52  1  0  0  0  0
 26 53  1  0  0  0  0
M  END
> <s_m_source_file>
AV-unprocessed.smi

> <i_m_source_file_index>
189

> <i_lp_mmshare_version>
43012

> <i_f3d_flags>
0

> <s_epik_input>
W0NIMl0xW0NIMl1bQ0gyXVtDSDJdW0NASF0oW0NASF0xMilOKFtDQEhdKFtDSDNdKVtDSDJdMiljKG5bY0hdbjMpYyhjMzQpbltjSF1uNFtDSDJdW0NAQF01KFtPSF0pW0NIMl1bQ0gyXU9bQ0gyXTU=

> <s_epik_cmdline>
J2VwaWtfcHl0aG9uJywgJy1waCcsICc3LjAnLCAnLXRuJywgJzgnLCAnLW1hJywgJzIwMCcsICctbWV0YWxfYmluZGluZycsICctaW1hZScsICc8aW5maWxlLm1hZT4nLCAnLW9tYWUnLCAnPG91dGZpbGUubWFlPic=

> <r_lp_tautomer_probability>
1

> <r_epik_Ionization_Penalty>
0.00594261

> <r_epik_Ionization_Penalty_Charging>
0

> <r_epik_Ionization_Penalty_Neutral>
0.00594261

> <r_epik_State_Penalty>
0.00429776

> <r_epik_Charging_Adjusted_Penalty>
0.00429776

> <i_epik_Tot_Q>
0

> <i_epik_Tot_abs_Q>
0

> <r_epik_Metal_State_Penalty>
-0

> <b_epik_Metal_Only>
0

> <s_lp_Force_Field>
OPLS_2005

> <r_lp_Energy>
58.915

> <b_lp_Chiralities_Consistent>
1

> <s_lp_Variant>
AV-unprocessed.smi:189-6

> <Gold.Version>
5.8.1

> <Gold.Id.Protein>
6NUR|6NUR_protein|mol2

> <Gold.PLP.Fitness>
47.6536

> <Gold.PLP.PLP>
-39.8454

> <Gold.PLP.part.hbond>
-4.0000

> <Gold.PLP.part.metal>
0.0000

> <Gold.PLP.part.buried>
-4.3455

> <Gold.PLP.part.nonpolar>
-32.0544

> <Gold.PLP.part.repulsive>
0.1035

> <Gold.PLP.ligand.clash>
0.0000

> <Gold.PLP.ligand.torsion>
0.3478

> <Gold.PLP.Chemscore.Hbond>
2.7088

> <Gold.PLP.Chemscore.CHOScore>
0.0000

> <Gold.PLP.Chemscore.Metal>
0.0000

> <Gold.Chemscore.Hbonds>
donor molecule, donor type, donor heavy atom, donor atom, acceptor molecule, acceptor atom, score
      L1  H    22    47       P1  7948  0.80
      P1  H  7997  8008       L1    12  1.00
      P1  H 10752 10764       L1    14  0.80

> <Gold.PLP.Chemscore.Internal.Correction>
0.3774

> <Gold.Rescore>
     Score         DG    S(hbond)    S(metal)    S(lipo)     H(rot)  DE(clash)    DE(int)     intcor
     17.35     -18.00       1.71        0.00     102.65       2.03       0.11       0.54       ----

> <Gold.Chemscore.Fitness>
17.3461

> <Gold.Chemscore.DG>
-17.9980

> <Gold.Chemscore.ZeroCoef>
-5.4800

> <Gold.Chemscore.Hbond>
1.7076

> <Gold.Chemscore.Metal>
0.0000

> <Gold.Chemscore.Lipo>
102.6531

> <Gold.Chemscore.Internal_Hbond>
0.0000

> <Gold.Chemscore.DEClash>
0.1136

> <Gold.Chemscore.DEInternal>
0.5383

> <Gold.Chemscore.Rot>
2.0297

> <Gold.Chemscore.Internal.Correction>
   9.000000E+99

> <Gold.Chemscore.Hbonds>
donor molecule, donor type, donor heavy atom, donor atom, acceptor molecule, acceptor atom, score
      L1  H    22    47       P1  7948  0.17
      P1  H  7997  8008       L1    12  0.53
      P1  H 10752 10764       L1    14  0.67

> <Gold.Chemscore.Hbond.Weighted>
-5.7035

> <Gold.Chemscore.Metal.Weighted>
-0.0000

> <Gold.Chemscore.Lipo.Weighted>
-12.0104

> <Gold.Chemscore.Internal_Hbond.Weighted>
0.0000

> <Gold.Chemscore.DEClash.Weighted>
0.1136

> <Gold.Chemscore.DEInternal.Weighted>
0.5383

> <Gold.Chemscore.Rot.Weighted>
5.1960

> <Gold.Chemscore.Internal.Correction.Weighted>
   9.000000E+99

> <Gold.Protein.RotatedTorsions>
[ 6907 6896 6895 6894 ] final   45.55 input  -60.11 | X-H torsion
[ 7974 7965 7964 7962 ] final  164.00 input  175.53 | X-H torsion
[ 8008 7997 7996 7995 ] final  -29.47 input   59.86 | X-H torsion
[ 10167 10162 10161 10158 ] final  -95.69 input  -65.29 | X-H torsion
[ 10718 10713 10712 10709 ] final   -0.48 input   66.30 | X-H torsion
[ 10763 10752 10751 10750 ] final  -49.63 input  -60.55 | X-H torsion
[ 11005 11000 10999 10996 ] final  163.22 input  -57.11 | X-H torsion

> <Gold.Protein.ActiveResidues>
 VAL166  LYS551  ARG553  GLY616  TRP617  ASP618  TYR619  PRO620  LYS621  CYS622 
 ASP623  PHE694  ASN695  SER759  ASP760  ASP761  ALA762  ILE779  LEU786  VAL792 
 PHE793  MET794  SER795  GLU796  ALA797  LYS798  CYS799  TRP800  GLU811  SER814 

> <Gold.Protein.RotatedAtoms>
  152.2459  134.8182  160.0453 H   0  0  0  0  0  0  0  0  0  0  0  0  # atno 6907 bound_to 6896
  151.8879  133.3504  159.3796 H   0  0  0  0  0  0  0  0  0  0  0  0  # atno 6908 bound_to 6896
  150.7068  134.4879  159.5546 H   0  0  0  0  0  0  0  0  0  0  0  0  # atno 6909 bound_to 6896
  144.7564  139.8264  143.6348 H   0  0  0  0  0  0  0  0  0  0  0  0  # atno 7974 bound_to 7965
  154.4289  140.1817  156.1252 H   0  0  0  0  0  0  0  0  0  0  0  0  # atno 8008 bound_to 7997
  156.0111  140.3350  155.6917 H   0  0  0  0  0  0  0  0  0  0  0  0  # atno 8009 bound_to 7997
  155.6109  140.0650  157.2697 H   0  0  0  0  0  0  0  0  0  0  0  0  # atno 8010 bound_to 7997
  140.3016  143.3159  152.0242 H   0  0  0  0  0  0  0  0  0  0  0  0  # atno 10167 bound_to 10162
  156.8199  130.5453  149.5698 H   0  0  0  0  0  0  0  0  0  0  0  0  # atno 10718 bound_to 10713
  154.0973  135.6568  153.4862 H   0  0  0  0  0  0  0  0  0  0  0  0  # atno 10763 bound_to 10752
  153.0301  135.5216  154.7321 H   0  0  0  0  0  0  0  0  0  0  0  0  # atno 10764 bound_to 10752
  154.6463  135.2995  155.0011 H   0  0  0  0  0  0  0  0  0  0  0  0  # atno 10765 bound_to 10752
  140.2336  134.8105  157.3341 H   0  0  0  0  0  0  0  0  0  0  0  0  # atno 11005 bound_to 11000
  146.1579  139.4683  143.0007 LP  0  0  0  0  0  0  0  0  0  0  0  0  # atno 17320 bound_to 7965
  145.6765  141.0203  143.1630 LP  0  0  0  0  0  0  0  0  0  0  0  0  # atno 17321 bound_to 7965
  139.4914  144.6452  151.6794 LP  0  0  0  0  0  0  0  0  0  0  0  0  # atno 17342 bound_to 10162
  140.5646  144.0211  150.6186 LP  0  0  0  0  0  0  0  0  0  0  0  0  # atno 17343 bound_to 10162
  156.0995  130.5958  150.9870 LP  0  0  0  0  0  0  0  0  0  0  0  0  # atno 17370 bound_to 10713
  157.6462  131.0903  150.8147 LP  0  0  0  0  0  0  0  0  0  0  0  0  # atno 17371 bound_to 10713
  140.1725  134.4590  155.7822 LP  0  0  0  0  0  0  0  0  0  0  0  0  # atno 17394 bound_to 11000
  141.2216  133.6948  156.7732 LP  0  0  0  0  0  0  0  0  0  0  0  0  # atno 17395 bound_to 11000

$$$$
