AV-unprocessed.smi:25|AV-procd|sdf|181|dock1
  -GOLD-   2262015443D 1   1.00000     0.00000
 Structure written by MMmdl.
 47 50  0  0  0  0  0  0  0  0  1 V2000
  152.4227  144.9330  158.6902 C   0  0  0  0  0  0  0  0  0  0  0  0
  151.8222  143.8156  159.5663 C   0  0  2  0  0  0  0  0  0  0  0  0
  152.0019  144.1196  161.0707 C   0  0  0  0  0  0  0  0  0  0  0  0
  152.9245  143.0332  161.5300 C   0  0  0  0  0  0  0  0  0  0  0  0
  153.4876  142.9149  162.8125 C   0  0  0  0  0  0  0  0  0  0  0  0
  154.3653  141.8411  163.0608 C   0  0  0  0  0  0  0  0  0  0  0  0
  154.6696  140.9223  162.0326 C   0  0  0  0  0  0  0  0  0  0  0  0
  154.0952  141.0576  160.7496 C   0  0  0  0  0  0  0  0  0  0  0  0
  153.1974  142.1254  160.5079 C   0  0  0  0  0  0  0  0  0  0  0  0
  152.4842  142.5112  159.3326 N   0  0  0  0  0  0  0  0  0  0  0  0
  152.2364  141.8053  158.1947 C   0  0  0  0  0  0  0  0  0  0  0  0
  152.7474  140.6974  158.0124 O   0  0  0  0  0  0  0  0  0  0  0  0
  151.3355  142.3729  157.0805 C   0  0  0  0  0  0  0  0  0  0  0  0
  150.1338  141.5495  156.8077 N   0  0  0  0  0  0  0  0  0  0  0  0
  150.2068  140.5502  155.8056 C   0  0  0  0  0  0  0  0  0  0  0  0
  151.2364  140.3708  155.1533 O   0  0  0  0  0  0  0  0  0  0  0  0
  148.9945  139.7645  155.6126 C   0  0  0  0  0  0  0  0  0  0  0  0
  148.9907  138.7528  154.7281 F   0  0  0  0  0  0  0  0  0  0  0  0
  147.8776  140.0247  156.3220 C   0  0  0  0  0  0  0  0  0  0  0  0
  147.7935  141.0516  157.2458 N   0  0  0  0  0  0  0  0  0  0  0  0
  146.5527  141.2645  158.0892 C   0  0  1  0  0  0  0  0  0  0  0  0
  145.2693  141.5049  157.2747 C   0  0  0  0  0  0  0  0  0  0  0  0
  144.5482  140.1777  157.4072 C   0  0  0  0  0  0  0  0  0  0  0  0
  145.0014  139.7198  158.7877 C   0  0  0  0  0  0  0  0  0  0  0  0
  146.3659  140.1130  158.8569 O   0  0  0  0  0  0  0  0  0  0  0  0
  148.9514  141.8059  157.5442 C   0  0  0  0  0  0  0  0  0  0  0  0
  148.9314  142.6745  158.4190 O   0  0  0  0  0  0  0  0  0  0  0  0
  151.9608  145.8941  158.9170 H   0  0  0  0  0  0  0  0  0  0  0  0
  152.2700  144.7463  157.6276 H   0  0  0  0  0  0  0  0  0  0  0  0
  153.4956  145.0326  158.8585 H   0  0  0  0  0  0  0  0  0  0  0  0
  150.7540  143.7338  159.3556 H   0  0  0  0  0  0  0  0  0  0  0  0
  152.4369  145.1020  161.2585 H   0  0  0  0  0  0  0  0  0  0  0  0
  151.0559  144.0506  161.6087 H   0  0  0  0  0  0  0  0  0  0  0  0
  153.2591  143.6325  163.5868 H   0  0  0  0  0  0  0  0  0  0  0  0
  154.8146  141.7266  164.0361 H   0  0  0  0  0  0  0  0  0  0  0  0
  155.3541  140.1101  162.2282 H   0  0  0  0  0  0  0  0  0  0  0  0
  154.3830  140.3406  160.0023 H   0  0  0  0  0  0  0  0  0  0  0  0
  151.0357  143.3821  157.3628 H   0  0  0  0  0  0  0  0  0  0  0  0
  151.9227  142.4811  156.1682 H   0  0  0  0  0  0  0  0  0  0  0  0
  147.0255  139.3876  156.1480 H   0  0  0  0  0  0  0  0  0  0  0  0
  146.7609  142.1269  158.7241 H   0  0  0  0  0  0  0  0  0  0  0  0
  144.6947  142.2866  157.7731 H   0  0  0  0  0  0  0  0  0  0  0  0
  145.4563  141.8292  156.2513 H   0  0  0  0  0  0  0  0  0  0  0  0
  143.4651  140.2698  157.3245 H   0  0  0  0  0  0  0  0  0  0  0  0
  144.8888  139.4737  156.6478 H   0  0  0  0  0  0  0  0  0  0  0  0
  144.4406  140.2380  159.5672 H   0  0  0  0  0  0  0  0  0  0  0  0
  144.8843  138.6462  158.9368 H   0  0  0  0  0  0  0  0  0  0  0  0
  1  2  1  0  0  0  0
  1 28  1  0  0  0  0
  1 29  1  0  0  0  0
  1 30  1  0  0  0  0
  2 10  1  0  0  0  0
  2  3  1  0  0  0  0
  2 31  1  0  0  0  0
  3  4  1  0  0  0  0
  3 32  1  0  0  0  0
  3 33  1  0  0  0  0
  4  9  2  0  0  0  0
  4  5  1  0  0  0  0
  5  6  2  0  0  0  0
  5 34  1  0  0  0  0
  6  7  1  0  0  0  0
  6 35  1  0  0  0  0
  7  8  2  0  0  0  0
  7 36  1  0  0  0  0
  8  9  1  0  0  0  0
  8 37  1  0  0  0  0
  9 10  1  0  0  0  0
 10 11  1  0  0  0  0
 11 12  2  0  0  0  0
 11 13  1  0  0  0  0
 13 14  1  0  0  0  0
 13 38  1  0  0  0  0
 13 39  1  0  0  0  0
 14 26  1  0  0  0  0
 14 15  1  0  0  0  0
 15 16  2  0  0  0  0
 15 17  1  0  0  0  0
 17 18  1  0  0  0  0
 17 19  2  0  0  0  0
 19 20  1  0  0  0  0
 19 40  1  0  0  0  0
 20 21  1  0  0  0  0
 20 26  1  0  0  0  0
 21 25  1  0  0  0  0
 21 22  1  0  0  0  0
 21 41  1  0  0  0  0
 22 23  1  0  0  0  0
 22 42  1  0  0  0  0
 22 43  1  0  0  0  0
 23 24  1  0  0  0  0
 23 44  1  0  0  0  0
 23 45  1  0  0  0  0
 24 25  1  0  0  0  0
 24 46  1  0  0  0  0
 24 47  1  0  0  0  0
 26 27  2  0  0  0  0
M  END
> <s_m_source_file>
AV-unprocessed.smi

> <i_m_source_file_index>
25

> <i_lp_mmshare_version>
43012

> <i_f3d_flags>
0

> <s_epik_input>
W2NIXTFbY0hdW2NIXVtjSF1jKGMxMilOKFtDQEhdKFtDSDNdKVtDSDJdMilDKD1PKVtDSDJdbjNjKD1PKWMoRilbY0hdbihjMz1PKVtDQEBIXTRbQ0gyXVtDSDJdW0NIMl1PNA==

> <s_epik_cmdline>
J2VwaWtfcHl0aG9uJywgJy1waCcsICc3LjAnLCAnLXRuJywgJzgnLCAnLW1hJywgJzIwMCcsICctbWV0YWxfYmluZGluZycsICctaW1hZScsICc8aW5maWxlLm1hZT4nLCAnLW9tYWUnLCAnPG91dGZpbGUubWFlPic=

> <r_lp_tautomer_probability>
1

> <r_epik_Ionization_Penalty>
1.67943e-06

> <r_epik_Ionization_Penalty_Charging>
3.79603e-09

> <r_epik_Ionization_Penalty_Neutral>
1.67563e-06

> <r_epik_State_Penalty>
-0

> <r_epik_Charging_Adjusted_Penalty>
3.79603e-09

> <i_epik_Tot_Q>
0

> <i_epik_Tot_abs_Q>
0

> <r_epik_Metal_State_Penalty>
-0

> <b_epik_Metal_Only>
0

> <s_epik_Chemistry_Notes>
This compound contains an acetal/aminal-like group ( X-CH(R)-Y where X, Y are N, S, or O) that may be acid/base labile, releasing an aldehyde.

> <s_lp_Force_Field>
OPLS_2005

> <r_lp_Energy>
54.5982

> <b_lp_Chiralities_Consistent>
1

> <s_lp_Variant>
AV-unprocessed.smi:25-3

> <Gold.Version>
5.8.1

> <Gold.Id.Protein>
6NUR|6NUR_protein|mol2

> <Gold.PLP.Fitness>
54.9834

> <Gold.PLP.PLP>
-51.9764

> <Gold.PLP.part.hbond>
-2.6220

> <Gold.PLP.part.metal>
0.0000

> <Gold.PLP.part.buried>
-4.9298

> <Gold.PLP.part.nonpolar>
-43.5683

> <Gold.PLP.part.repulsive>
0.2281

> <Gold.PLP.ligand.clash>
0.0000

> <Gold.PLP.ligand.torsion>
0.4771

> <Gold.PLP.Chemscore.Hbond>
1.2813

> <Gold.PLP.Chemscore.CHOScore>
0.0000

> <Gold.PLP.Chemscore.Metal>
0.0000

> <Gold.Chemscore.Hbonds>
donor molecule, donor type, donor heavy atom, donor atom, acceptor molecule, acceptor atom, score
      P1  H  6934  6946       L1    25  0.03
      P1  H  7989  7998       L1    16  1.00
      P1  H  7997  8010       L1    12  0.50

> <Gold.PLP.Chemscore.Internal.Correction>
0.1173

> <Gold.Rescore>
     Score         DG    S(hbond)    S(metal)    S(lipo)     H(rot)  DE(clash)    DE(int)     intcor
     19.54     -20.99       1.84        0.00     113.89       1.55       0.20       1.25       ----

> <Gold.Chemscore.Fitness>
19.5445

> <Gold.Chemscore.DG>
-20.9935

> <Gold.Chemscore.ZeroCoef>
-5.4800

> <Gold.Chemscore.Hbond>
1.8423

> <Gold.Chemscore.Metal>
0.0000

> <Gold.Chemscore.Lipo>
113.8931

> <Gold.Chemscore.Internal_Hbond>
0.0000

> <Gold.Chemscore.DEClash>
0.1992

> <Gold.Chemscore.DEInternal>
1.2498

> <Gold.Chemscore.Rot>
1.5489

> <Gold.Chemscore.Internal.Correction>
   9.000000E+99

> <Gold.Chemscore.Hbonds>
donor molecule, donor type, donor heavy atom, donor atom, acceptor molecule, acceptor atom, score
      P1  H  6934  6946       L1    25  0.02
      P1  H  7989  7998       L1    16  0.95
      P1  H  7997  8010       L1    12  0.51

> <Gold.Chemscore.Hbond.Weighted>
-6.1532

> <Gold.Chemscore.Metal.Weighted>
-0.0000

> <Gold.Chemscore.Lipo.Weighted>
-13.3255

> <Gold.Chemscore.Internal_Hbond.Weighted>
0.0000

> <Gold.Chemscore.DEClash.Weighted>
0.1992

> <Gold.Chemscore.DEInternal.Weighted>
1.2498

> <Gold.Chemscore.Rot.Weighted>
3.9651

> <Gold.Chemscore.Internal.Correction.Weighted>
   9.000000E+99

> <Gold.Protein.RotatedTorsions>
[ 6907 6896 6895 6894 ] final    7.16 input  -60.11 | X-H torsion
[ 7974 7965 7964 7962 ] final   -4.29 input  175.53 | X-H torsion
[ 8008 7997 7996 7995 ] final   46.20 input   59.86 | X-H torsion
[ 10167 10162 10161 10158 ] final  -73.62 input  -65.29 | X-H torsion
[ 10718 10713 10712 10709 ] final  -89.72 input   66.30 | X-H torsion
[ 10763 10752 10751 10750 ] final  -51.20 input  -60.55 | X-H torsion
[ 11005 11000 10999 10996 ] final -126.19 input  -57.11 | X-H torsion

> <Gold.Protein.ActiveResidues>
 VAL166  LYS551  ARG553  GLY616  TRP617  ASP618  TYR619  PRO620  LYS621  CYS622 
 ASP623  PHE694  ASN695  SER759  ASP760  ASP761  ALA762  ILE779  LEU786  VAL792 
 PHE793  MET794  SER795  GLU796  ALA797  LYS798  CYS799  TRP800  GLU811  SER814 

> <Gold.Protein.RotatedAtoms>
  151.6853  135.0955  160.0223 H   0  0  0  0  0  0  0  0  0  0  0  0  # atno 6907 bound_to 6896
  152.3811  133.6543  159.6170 H   0  0  0  0  0  0  0  0  0  0  0  0  # atno 6908 bound_to 6896
  150.7747  133.9029  159.3388 H   0  0  0  0  0  0  0  0  0  0  0  0  # atno 6909 bound_to 6896
  146.2375  140.1849  142.8332 H   0  0  0  0  0  0  0  0  0  0  0  0  # atno 7974 bound_to 7965
  155.3485  140.3412  155.4239 H   0  0  0  0  0  0  0  0  0  0  0  0  # atno 8008 bound_to 7997
  156.1776  140.1653  156.8369 H   0  0  0  0  0  0  0  0  0  0  0  0  # atno 8009 bound_to 7997
  154.5299  140.0748  156.8308 H   0  0  0  0  0  0  0  0  0  0  0  0  # atno 8010 bound_to 7997
  140.5095  143.2347  151.7617 H   0  0  0  0  0  0  0  0  0  0  0  0  # atno 10167 bound_to 10162
  155.9985  130.4882  150.5213 H   0  0  0  0  0  0  0  0  0  0  0  0  # atno 10718 bound_to 10713
  154.1228  135.6532  153.4906 H   0  0  0  0  0  0  0  0  0  0  0  0  # atno 10763 bound_to 10752
  153.0220  135.5274  154.7080 H   0  0  0  0  0  0  0  0  0  0  0  0  # atno 10764 bound_to 10752
  154.6292  135.2974  155.0206 H   0  0  0  0  0  0  0  0  0  0  0  0  # atno 10765 bound_to 10752
  140.9701  134.0817  157.3878 H   0  0  0  0  0  0  0  0  0  0  0  0  # atno 11005 bound_to 11000
  144.9904  140.8542  143.5343 LP  0  0  0  0  0  0  0  0  0  0  0  0  # atno 17320 bound_to 7965
  145.1855  139.2329  143.5270 LP  0  0  0  0  0  0  0  0  0  0  0  0  # atno 17321 bound_to 7965
  139.4892  144.4410  151.9764 LP  0  0  0  0  0  0  0  0  0  0  0  0  # atno 17342 bound_to 10162
  140.3502  144.3098  150.5951 LP  0  0  0  0  0  0  0  0  0  0  0  0  # atno 17343 bound_to 10162
  157.3174  131.0675  151.1957 LP  0  0  0  0  0  0  0  0  0  0  0  0  # atno 17370 bound_to 10713
  157.2882  130.6783  149.6100 LP  0  0  0  0  0  0  0  0  0  0  0  0  # atno 17371 bound_to 10713
  139.8909  135.0115  156.6762 LP  0  0  0  0  0  0  0  0  0  0  0  0  # atno 17394 bound_to 11000
  140.7341  133.9033  155.8232 LP  0  0  0  0  0  0  0  0  0  0  0  0  # atno 17395 bound_to 11000

$$$$
