AV-unprocessed.smi:1703|AV-procd|sdf|6854|dock5
  -GOLD-   22720 8 33D 1   1.00000     0.00000
 Structure written by MMmdl.
 48 50  0  0  0  0  0  0  0  0  1 V2000
  146.8579  133.1849  158.3038 C   0  0  0  0  0  0  0  0  0  0  0  0
  146.9295  134.5263  159.0410 C   0  0  2  0  0  0  0  0  0  0  0  0
  148.2310  135.2914  158.7348 C   0  0  0  0  0  0  0  0  0  0  0  0
  148.3303  136.5322  159.4952 N   0  0  0  0  0  0  0  0  0  0  0  0
  149.5690  137.2432  159.1717 C   0  0  0  0  0  0  0  0  0  0  0  0
  149.4314  138.3828  158.1429 C   0  0  2  0  0  0  0  0  0  0  0  0
  148.6544  137.9172  157.0572 O   0  0  0  0  0  0  0  0  0  0  0  0
  150.8061  138.8480  157.6244 C   0  0  0  0  0  0  0  0  0  0  0  0
  150.8033  140.2481  157.2202 N   0  0  0  0  0  0  0  0  0  0  0  0
  150.2870  140.8024  156.0940 C   0  0  0  0  0  0  0  0  0  0  0  0
  149.6082  139.9657  155.0469 C   0  0  0  0  0  0  0  0  0  0  0  0
  150.3405  139.8495  153.8440 O   0  0  0  0  0  0  0  0  0  0  0  0
  150.4278  142.1262  155.9871 N   0  0  0  0  0  0  0  0  0  0  0  0
  151.0995  142.4582  157.1470 C   0  0  0  0  0  0  0  0  0  0  0  0
  151.5449  143.7115  157.6250 C   0  0  0  0  0  0  0  0  0  0  0  0
  152.2214  143.8052  158.8590 C   0  0  0  0  0  0  0  0  0  0  0  0
  152.4609  142.6501  159.6314 C   0  0  0  0  0  0  0  0  0  0  0  0
  152.0253  141.3918  159.1734 C   0  0  0  0  0  0  0  0  0  0  0  0
  151.3510  141.3042  157.9408 C   0  0  0  0  0  0  0  0  0  0  0  0
  148.2062  136.2237  160.9184 C   0  0  0  0  0  0  0  0  0  0  0  0
  146.9059  135.4578  161.2307 C   0  0  2  0  0  0  0  0  0  0  0  0
  146.8090  135.0594  162.7070 C   0  0  0  0  0  0  0  0  0  0  0  0
  146.8597  134.2725  160.4414 O   0  0  0  0  0  0  0  0  0  0  0  0
  146.8995  133.3280  157.2238 H   0  0  0  0  0  0  0  0  0  0  0  0
  145.9289  132.6630  158.5344 H   0  0  0  0  0  0  0  0  0  0  0  0
  147.6850  132.5336  158.5879 H   0  0  0  0  0  0  0  0  0  0  0  0
  146.0714  135.1335  158.7478 H   0  0  0  0  0  0  0  0  0  0  0  0
  149.0884  134.6538  158.9574 H   0  0  0  0  0  0  0  0  0  0  0  0
  148.2755  135.5103  157.6672 H   0  0  0  0  0  0  0  0  0  0  0  0
  150.0000  137.6419  160.0915 H   0  0  0  0  0  0  0  0  0  0  0  0
  150.3014  136.5312  158.7878 H   0  0  0  0  0  0  0  0  0  0  0  0
  148.9249  139.2394  158.5850 H   0  0  0  0  0  0  0  0  0  0  0  0
  148.9649  137.0568  156.8184 H   0  0  0  0  0  0  0  0  0  0  0  0
  151.5559  138.7287  158.4074 H   0  0  0  0  0  0  0  0  0  0  0  0
  151.1366  138.2232  156.7946 H   0  0  0  0  0  0  0  0  0  0  0  0
  149.4391  138.9657  155.4471 H   0  0  0  0  0  0  0  0  0  0  0  0
  148.6339  140.3954  154.8146 H   0  0  0  0  0  0  0  0  0  0  0  0
  149.7521  140.0115  153.1224 H   0  0  0  0  0  0  0  0  0  0  0  0
  151.3661  144.6020  157.0405 H   0  0  0  0  0  0  0  0  0  0  0  0
  152.5581  144.7680  159.2144 H   0  0  0  0  0  0  0  0  0  0  0  0
  152.9796  142.7305  160.5757 H   0  0  0  0  0  0  0  0  0  0  0  0
  152.2065  140.5050  159.7621 H   0  0  0  0  0  0  0  0  0  0  0  0
  149.0644  135.6337  161.2444 H   0  0  0  0  0  0  0  0  0  0  0  0
  148.2142  137.1393  161.5080 H   0  0  0  0  0  0  0  0  0  0  0  0
  146.0463  136.0821  160.9804 H   0  0  0  0  0  0  0  0  0  0  0  0
  146.8309  135.9377  163.3527 H   0  0  0  0  0  0  0  0  0  0  0  0
  147.6357  134.4100  162.9961 H   0  0  0  0  0  0  0  0  0  0  0  0
  145.8798  134.5246  162.9054 H   0  0  0  0  0  0  0  0  0  0  0  0
  1  2  1  0  0  0  0
  1 24  1  0  0  0  0
  1 25  1  0  0  0  0
  1 26  1  0  0  0  0
  2 23  1  0  0  0  0
  2  3  1  0  0  0  0
  2 27  1  0  0  0  0
  3  4  1  0  0  0  0
  3 28  1  0  0  0  0
  3 29  1  0  0  0  0
  4  5  1  0  0  0  0
  4 20  1  0  0  0  0
  5  6  1  0  0  0  0
  5 30  1  0  0  0  0
  5 31  1  0  0  0  0
  6  7  1  0  0  0  0
  6  8  1  0  0  0  0
  6 32  1  0  0  0  0
  7 33  1  0  0  0  0
  8  9  1  0  0  0  0
  8 34  1  0  0  0  0
  8 35  1  0  0  0  0
  9 19  1  0  0  0  0
  9 10  1  0  0  0  0
 10 11  1  0  0  0  0
 10 13  2  0  0  0  0
 11 12  1  0  0  0  0
 11 36  1  0  0  0  0
 11 37  1  0  0  0  0
 12 38  1  0  0  0  0
 13 14  1  0  0  0  0
 14 19  2  0  0  0  0
 14 15  1  0  0  0  0
 15 16  2  0  0  0  0
 15 39  1  0  0  0  0
 16 17  1  0  0  0  0
 16 40  1  0  0  0  0
 17 18  2  0  0  0  0
 17 41  1  0  0  0  0
 18 19  1  0  0  0  0
 18 42  1  0  0  0  0
 20 21  1  0  0  0  0
 20 43  1  0  0  0  0
 20 44  1  0  0  0  0
 21 22  1  0  0  0  0
 21 23  1  0  0  0  0
 21 45  1  0  0  0  0
 22 46  1  0  0  0  0
 22 47  1  0  0  0  0
 22 48  1  0  0  0  0
M  END
> <s_m_source_file>
AV-unprocessed.smi

> <i_m_source_file_index>
1703

> <i_lp_mmshare_version>
43012

> <i_f3d_flags>
0

> <s_epik_input>
W0NIM11bQ0BASF0xW0NIMl1OKFtDSDJdW0NASF0oTzEpW0NIM10pW0NIMl1bQ0BIXShbT0hdKVtDSDJdbihjKG4yKVtDSDJdW09IXSljKGMyMylbY0hdW2NIXVtjSF1bY0hdMw==

> <s_epik_cmdline>
J2VwaWtfcHl0aG9uJywgJy1waCcsICc3LjAnLCAnLXRuJywgJzgnLCAnLW1hJywgJzIwMCcsICctbWV0YWxfYmluZGluZycsICctaW1hZScsICc8aW5maWxlLm1hZT4nLCAnLW9tYWUnLCAnPG91dGZpbGUubWFlPic=

> <r_epik_Ionization_Penalty>
0.307685

> <r_epik_Ionization_Penalty_Charging>
0

> <r_epik_Ionization_Penalty_Neutral>
0.307685

> <r_epik_State_Penalty>
0.277856

> <r_epik_Charging_Adjusted_Penalty>
0.277856

> <i_epik_Tot_Q>
0

> <i_epik_Tot_abs_Q>
0

> <r_epik_Metal_State_Penalty>
0.238959

> <b_epik_Metal_Only>
0

> <s_lp_Force_Field>
OPLS_2005

> <r_lp_Energy>
28.9256

> <b_lp_Chiralities_Consistent>
1

> <s_lp_Variant>
AV-unprocessed.smi:1703-2

> <Gold.Version>
5.8.1

> <Gold.Id.Protein>
6NUR|6NUR_protein|mol2

> <Gold.PLP.Fitness>
43.0425

> <Gold.PLP.PLP>
-39.8950

> <Gold.PLP.part.hbond>
-2.0000

> <Gold.PLP.part.metal>
0.0000

> <Gold.PLP.part.buried>
-4.3131

> <Gold.PLP.part.nonpolar>
-34.4157

> <Gold.PLP.part.repulsive>
0.8365

> <Gold.PLP.ligand.clash>
0.0000

> <Gold.PLP.ligand.torsion>
1.2913

> <Gold.PLP.Chemscore.Hbond>
1.8960

> <Gold.PLP.Chemscore.CHOScore>
0.0000

> <Gold.PLP.Chemscore.Metal>
0.0000

> <Gold.Chemscore.Hbonds>
donor molecule, donor type, donor heavy atom, donor atom, acceptor molecule, acceptor atom, score
      L1  H    12    38       P1  7957  0.86
      P1  H  7989  7998       L1    12  0.98

> <Gold.PLP.Chemscore.Internal.Correction>
0.0422

> <Gold.Rescore>
     Score         DG    S(hbond)    S(metal)    S(lipo)     H(rot)  DE(clash)    DE(int)     intcor
     14.20     -15.65       1.54        0.00     106.10       2.88       0.13       1.33       ----

> <Gold.Chemscore.Fitness>
14.1996

> <Gold.Chemscore.DG>
-15.6545

> <Gold.Chemscore.ZeroCoef>
-5.4800

> <Gold.Chemscore.Hbond>
1.5352

> <Gold.Chemscore.Metal>
0.0000

> <Gold.Chemscore.Lipo>
106.1037

> <Gold.Chemscore.Internal_Hbond>
0.0000

> <Gold.Chemscore.DEClash>
0.1271

> <Gold.Chemscore.DEInternal>
1.3278

> <Gold.Chemscore.Rot>
2.8778

> <Gold.Chemscore.Internal.Correction>
   9.000000E+99

> <Gold.Chemscore.Hbonds>
donor molecule, donor type, donor heavy atom, donor atom, acceptor molecule, acceptor atom, score
      L1  H    12    38       P1  7957  0.85
      P1  H  7989  7998       L1    12  0.28

> <Gold.Chemscore.Hbond.Weighted>
-5.1274

> <Gold.Chemscore.Metal.Weighted>
-0.0000

> <Gold.Chemscore.Lipo.Weighted>
-12.4141

> <Gold.Chemscore.Internal_Hbond.Weighted>
0.0000

> <Gold.Chemscore.DEClash.Weighted>
0.1271

> <Gold.Chemscore.DEInternal.Weighted>
1.3278

> <Gold.Chemscore.Rot.Weighted>
7.3671

> <Gold.Chemscore.Internal.Correction.Weighted>
   9.000000E+99

> <Gold.Protein.RotatedTorsions>
[ 6907 6896 6895 6894 ] final  -33.13 input  -60.11 | X-H torsion
[ 7974 7965 7964 7962 ] final  -63.27 input  175.53 | X-H torsion
[ 8008 7997 7996 7995 ] final    4.61 input   59.86 | X-H torsion
[ 10167 10162 10161 10158 ] final -126.48 input  -65.29 | X-H torsion
[ 10718 10713 10712 10709 ] final -173.41 input   66.30 | X-H torsion
[ 10763 10752 10751 10750 ] final  -92.95 input  -60.55 | X-H torsion
[ 11005 11000 10999 10996 ] final  106.61 input  -57.11 | X-H torsion

> <Gold.Protein.ActiveResidues>
 VAL166  LYS551  ARG553  GLY616  TRP617  ASP618  TYR619  PRO620  LYS621  CYS622 
 ASP623  PHE694  ASN695  SER759  ASP760  ASP761  ALA762  ILE779  LEU786  VAL792 
 PHE793  MET794  SER795  GLU796  ALA797  LYS798  CYS799  TRP800  GLU811  SER814 

> <Gold.Protein.RotatedAtoms>
  151.0697  134.9790  159.8301 H   0  0  0  0  0  0  0  0  0  0  0  0  # atno 6907 bound_to 6896
  152.5406  134.2315  159.8837 H   0  0  0  0  0  0  0  0  0  0  0  0  # atno 6908 bound_to 6896
  151.2339  133.4392  159.2638 H   0  0  0  0  0  0  0  0  0  0  0  0  # atno 6909 bound_to 6896
  145.7811  140.8762  143.0330 H   0  0  0  0  0  0  0  0  0  0  0  0  # atno 7974 bound_to 7965
  154.7181  140.2706  155.6567 H   0  0  0  0  0  0  0  0  0  0  0  0  # atno 8008 bound_to 7997
  156.2815  140.2740  156.1768 H   0  0  0  0  0  0  0  0  0  0  0  0  # atno 8009 bound_to 7997
  155.0544  140.0371  157.2545 H   0  0  0  0  0  0  0  0  0  0  0  0  # atno 8010 bound_to 7997
  139.9710  143.5845  152.2413 H   0  0  0  0  0  0  0  0  0  0  0  0  # atno 10167 bound_to 10162
  156.7700  130.9445  151.3119 H   0  0  0  0  0  0  0  0  0  0  0  0  # atno 10718 bound_to 10713
  154.6911  135.5212  153.8394 H   0  0  0  0  0  0  0  0  0  0  0  0  # atno 10763 bound_to 10752
  153.0633  135.6576  154.0422 H   0  0  0  0  0  0  0  0  0  0  0  0  # atno 10764 bound_to 10752
  154.0296  135.2986  155.3350 H   0  0  0  0  0  0  0  0  0  0  0  0  # atno 10765 bound_to 10752
  139.8816  134.9375  156.5693 H   0  0  0  0  0  0  0  0  0  0  0  0  # atno 11005 bound_to 11000
  144.6796  139.9990  143.7484 LP  0  0  0  0  0  0  0  0  0  0  0  0  # atno 17320 bound_to 7965
  146.0073  139.3141  143.0891 LP  0  0  0  0  0  0  0  0  0  0  0  0  # atno 17321 bound_to 7965
  139.6481  144.7659  151.2203 LP  0  0  0  0  0  0  0  0  0  0  0  0  # atno 17342 bound_to 10162
  140.7522  143.6205  150.8517 LP  0  0  0  0  0  0  0  0  0  0  0  0  # atno 17343 bound_to 10162
  157.6695  130.9038  150.0009 LP  0  0  0  0  0  0  0  0  0  0  0  0  # atno 17370 bound_to 10713
  156.1284  130.3644  149.9771 LP  0  0  0  0  0  0  0  0  0  0  0  0  # atno 17371 bound_to 10713
  140.8110  133.8429  155.8810 LP  0  0  0  0  0  0  0  0  0  0  0  0  # atno 17394 bound_to 11000
  140.9506  134.1784  157.4730 LP  0  0  0  0  0  0  0  0  0  0  0  0  # atno 17395 bound_to 11000

$$$$
