AV-unprocessed.smi:311|AV-procd|sdf|2300|dock1
  -GOLD-   2262022203D 1   1.00000     0.00000
 Structure written by MMmdl.
 44 46  0  0  0  0  0  0  0  0  2 V2000
  149.2979  135.2500  156.3086 C   0  0  0  0  0  0  0  0  0  0  0  0
  149.7659  133.8227  156.3117 C   0  0  0  0  0  0  0  0  0  0  0  0
  150.1551  133.2636  157.4450 N   0  0  0  0  0  0  0  0  0  0  0  0
  150.5293  131.9565  157.1191 O   0  0  0  0  0  0  0  0  0  0  0  0
  150.3462  131.7768  155.7866 C   0  0  0  0  0  0  0  0  0  0  0  0
  150.7019  130.4361  155.2383 C   0  0  0  0  0  0  0  0  0  0  0  0
  149.8640  132.9216  155.2128 C   0  0  0  0  0  0  0  0  0  0  0  0
  149.5203  133.1833  153.7684 C   0  0  0  0  0  0  0  0  0  0  0  0
  148.0024  133.2137  153.5888 C   0  0  0  0  0  0  0  0  0  0  0  0
  147.3214  132.2491  153.9348 O   0  0  0  0  0  0  0  0  0  0  0  0
  147.4862  134.3231  153.0358 N   0  0  0  0  0  0  0  0  0  0  0  0
  146.0662  134.5687  152.7954 C   0  0  1  0  0  0  0  0  0  0  0  0
  145.7955  135.9500  152.1688 C   0  0  0  0  0  0  0  0  0  0  0  0
  144.7074  135.6931  151.1210 C   0  0  0  0  0  0  0  0  0  0  0  0
  145.0200  134.3392  150.6494 N   0  3  2  0  0  0  0  0  0  0  0  0
  144.0356  133.6428  149.7963 C   0  0  0  0  0  0  0  0  0  0  0  0
  144.6701  132.3287  149.2910 C   0  0  0  0  0  0  0  0  0  0  0  0
  145.2417  131.4710  150.4431 C   0  0  0  0  0  0  0  0  0  0  0  0
  146.1629  132.2944  151.3695 C   0  0  0  0  0  0  0  0  0  0  0  0
  145.4074  133.5525  151.8332 C   0  0  1  0  0  0  0  0  0  0  0  0
  149.7676  135.8126  155.5015 H   0  0  0  0  0  0  0  0  0  0  0  0
  149.5366  135.7556  157.2451 H   0  0  0  0  0  0  0  0  0  0  0  0
  148.2185  135.3051  156.1671 H   0  0  0  0  0  0  0  0  0  0  0  0
  150.0589  130.1754  154.3977 H   0  0  0  0  0  0  0  0  0  0  0  0
  150.5921  129.6614  155.9976 H   0  0  0  0  0  0  0  0  0  0  0  0
  151.7347  130.4253  154.8899 H   0  0  0  0  0  0  0  0  0  0  0  0
  149.9339  134.1311  153.4223 H   0  0  0  0  0  0  0  0  0  0  0  0
  149.9422  132.4157  153.1181 H   0  0  0  0  0  0  0  0  0  0  0  0
  148.1268  135.0624  152.7850 H   0  0  0  0  0  0  0  0  0  0  0  0
  145.5352  134.5286  153.7488 H   0  0  0  0  0  0  0  0  0  0  0  0
  145.4952  136.6945  152.9069 H   0  0  0  0  0  0  0  0  0  0  0  0
  146.6922  136.3237  151.6716 H   0  0  0  0  0  0  0  0  0  0  0  0
  143.7187  135.7041  151.5827 H   0  0  0  0  0  0  0  0  0  0  0  0
  144.7211  136.4226  150.3105 H   0  0  0  0  0  0  0  0  0  0  0  0
  143.1223  133.4442  150.3594 H   0  0  0  0  0  0  0  0  0  0  0  0
  143.7650  134.2785  148.9524 H   0  0  0  0  0  0  0  0  0  0  0  0
  143.9374  131.7530  148.7245 H   0  0  0  0  0  0  0  0  0  0  0  0
  145.4752  132.5671  148.5948 H   0  0  0  0  0  0  0  0  0  0  0  0
  144.4167  131.0626  151.0282 H   0  0  0  0  0  0  0  0  0  0  0  0
  145.7838  130.6153  150.0395 H   0  0  0  0  0  0  0  0  0  0  0  0
  146.4613  131.6881  152.2252 H   0  0  0  0  0  0  0  0  0  0  0  0
  147.0757  132.5712  150.8402 H   0  0  0  0  0  0  0  0  0  0  0  0
  144.4873  133.2253  152.3226 H   0  0  0  0  0  0  0  0  0  0  0  0
  145.8585  134.4370  150.0948 H   0  0  0  0  0  0  0  0  0  0  0  0
  1  2  1  0  0  0  0
  1 21  1  0  0  0  0
  1 22  1  0  0  0  0
  1 23  1  0  0  0  0
  2  7  1  0  0  0  0
  2  3  2  0  0  0  0
  3  4  1  0  0  0  0
  4  5  1  0  0  0  0
  5  6  1  0  0  0  0
  5  7  2  0  0  0  0
  6 24  1  0  0  0  0
  6 25  1  0  0  0  0
  6 26  1  0  0  0  0
  7  8  1  0  0  0  0
  8  9  1  0  0  0  0
  8 27  1  0  0  0  0
  8 28  1  0  0  0  0
  9 10  2  0  0  0  0
  9 11  1  0  0  0  0
 11 12  1  0  0  0  0
 11 29  1  0  0  0  0
 12 20  1  0  0  0  0
 12 13  1  0  0  0  0
 12 30  1  0  0  0  0
 13 14  1  0  0  0  0
 13 31  1  0  0  0  0
 13 32  1  0  0  0  0
 14 15  1  0  0  0  0
 14 33  1  0  0  0  0
 14 34  1  0  0  0  0
 15 20  1  0  0  0  0
 15 16  1  0  0  0  0
 15 44  1  0  0  0  0
 16 17  1  0  0  0  0
 16 35  1  0  0  0  0
 16 36  1  0  0  0  0
 17 18  1  0  0  0  0
 17 37  1  0  0  0  0
 17 38  1  0  0  0  0
 18 19  1  0  0  0  0
 18 39  1  0  0  0  0
 18 40  1  0  0  0  0
 19 20  1  0  0  0  0
 19 41  1  0  0  0  0
 19 42  1  0  0  0  0
 20 43  1  0  0  0  0
M  CHG  1  15   1
M  END
> <s_m_source_file>
AV-unprocessed.smi

> <i_m_source_file_index>
311

> <i_lp_mmshare_version>
43012

> <i_f3d_flags>
0

> <s_epik_input>
W0NIM11jMW5vYyhbQ0gzXSljMVtDSDJdQyg9TylbTkhdW0NASF0oW0NIMl1bQ0gyXTIpW0NAQEhdKE4yMylbQ0gyXVtDSDJdW0NIMl1bQ0gyXTM=

> <s_epik_cmdline>
J2VwaWtfcHl0aG9uJywgJy1waCcsICc3LjAnLCAnLXRuJywgJzgnLCAnLW1hJywgJzIwMCcsICctbWV0YWxfYmluZGluZycsICctaW1hZScsICc8aW5maWxlLm1hZT4nLCAnLW9tYWUnLCAnPG91dGZpbGUubWFlPic=

> <r_epik_Ionization_Penalty>
0.00173669

> <r_epik_Ionization_Penalty_Charging>
0.0017366

> <r_epik_Ionization_Penalty_Neutral>
9.2145e-08

> <r_epik_State_Penalty>
0.00117499

> <r_epik_Charging_Adjusted_Penalty>
0.00291159

> <i_epik_Tot_Q>
1

> <i_epik_Tot_abs_Q>
1

> <r_epik_Metal_State_Penalty>
-0

> <b_epik_Metal_Only>
0

> <s_lp_Force_Field>
OPLS_2005

> <r_lp_Energy>
35.4626

> <b_lp_Chiralities_Consistent>
1

> <s_lp_Variant>
AV-unprocessed.smi:311-4

> <Gold.Version>
5.8.1

> <Gold.Id.Protein>
6NUR|6NUR_protein|mol2

> <Gold.PLP.Fitness>
38.3518

> <Gold.PLP.PLP>
-32.7484

> <Gold.PLP.part.hbond>
-2.3380

> <Gold.PLP.part.metal>
0.0000

> <Gold.PLP.part.buried>
-2.8790

> <Gold.PLP.part.nonpolar>
-28.0360

> <Gold.PLP.part.repulsive>
0.0982

> <Gold.PLP.ligand.clash>
0.0000

> <Gold.PLP.ligand.torsion>
0.1878

> <Gold.PLP.Chemscore.Hbond>
1.9920

> <Gold.PLP.Chemscore.CHOScore>
0.0000

> <Gold.PLP.Chemscore.Metal>
0.0000

> <Gold.Chemscore.Hbonds>
donor molecule, donor type, donor heavy atom, donor atom, acceptor molecule, acceptor atom, score
      L1  H    11    29       P1  7948  1.00
      P1  H  6896  6909       L1     3  1.00

> <Gold.PLP.Chemscore.Internal.Correction>
0.0031

> <Gold.Rescore>
     Score         DG    S(hbond)    S(metal)    S(lipo)     H(rot)  DE(clash)    DE(int)     intcor
     17.70     -18.27       1.80        0.00      87.61       1.36       0.13       0.44       ----

> <Gold.Chemscore.Fitness>
17.6959

> <Gold.Chemscore.DG>
-18.2697

> <Gold.Chemscore.ZeroCoef>
-5.4800

> <Gold.Chemscore.Hbond>
1.8001

> <Gold.Chemscore.Metal>
0.0000

> <Gold.Chemscore.Lipo>
87.6095

> <Gold.Chemscore.Internal_Hbond>
0.0000

> <Gold.Chemscore.DEClash>
0.1292

> <Gold.Chemscore.DEInternal>
0.4447

> <Gold.Chemscore.Rot>
1.3567

> <Gold.Chemscore.Internal.Correction>
   9.000000E+99

> <Gold.Chemscore.Hbonds>
donor molecule, donor type, donor heavy atom, donor atom, acceptor molecule, acceptor atom, score
      L1  H    11    29       P1  7948  0.92
      L1  H    15    44       P1  7921  0.01
      P1  H  6896  6909       L1     3  0.27

> <Gold.Chemscore.Hbond.Weighted>
-6.0125

> <Gold.Chemscore.Metal.Weighted>
-0.0000

> <Gold.Chemscore.Lipo.Weighted>
-10.2503

> <Gold.Chemscore.Internal_Hbond.Weighted>
0.0000

> <Gold.Chemscore.DEClash.Weighted>
0.1292

> <Gold.Chemscore.DEInternal.Weighted>
0.4447

> <Gold.Chemscore.Rot.Weighted>
3.4731

> <Gold.Chemscore.Internal.Correction.Weighted>
   9.000000E+99

> <Gold.Protein.RotatedTorsions>
[ 6907 6896 6895 6894 ] final  -26.09 input  -60.11 | X-H torsion
[ 7974 7965 7964 7962 ] final  -11.72 input  175.53 | X-H torsion
[ 8008 7997 7996 7995 ] final   27.67 input   59.86 | X-H torsion
[ 10167 10162 10161 10158 ] final  -60.91 input  -65.29 | X-H torsion
[ 10718 10713 10712 10709 ] final  -20.77 input   66.30 | X-H torsion
[ 10763 10752 10751 10750 ] final  150.03 input  -60.55 | X-H torsion
[ 11005 11000 10999 10996 ] final -132.07 input  -57.11 | X-H torsion

> <Gold.Protein.ActiveResidues>
 VAL166  LYS551  ARG553  GLY616  TRP617  ASP618  TYR619  PRO620  LYS621  CYS622 
 ASP623  PHE694  ASN695  SER759  ASP760  ASP761  ALA762  ILE779  LEU786  VAL792 
 PHE793  MET794  SER795  GLU796  ALA797  LYS798  CYS799  TRP800  GLU811  SER814 

> <Gold.Protein.RotatedAtoms>
  151.1659  135.0295  159.8730 H   0  0  0  0  0  0  0  0  0  0  0  0  # atno 6907 bound_to 6896
  152.5450  134.1226  159.8415 H   0  0  0  0  0  0  0  0  0  0  0  0  # atno 6908 bound_to 6896
  151.1327  133.4980  159.2631 H   0  0  0  0  0  0  0  0  0  0  0  0  # atno 6909 bound_to 6896
  146.2177  140.2952  142.8371 H   0  0  0  0  0  0  0  0  0  0  0  0  # atno 7974 bound_to 7965
  155.0466  140.3175  155.4706 H   0  0  0  0  0  0  0  0  0  0  0  0  # atno 8008 bound_to 7997
  156.2843  140.2153  156.5535 H   0  0  0  0  0  0  0  0  0  0  0  0  # atno 8009 bound_to 7997
  154.7245  140.0486  157.0658 H   0  0  0  0  0  0  0  0  0  0  0  0  # atno 8010 bound_to 7997
  140.6041  143.2369  151.5862 H   0  0  0  0  0  0  0  0  0  0  0  0  # atno 10167 bound_to 10162
  156.5273  130.4646  149.6565 H   0  0  0  0  0  0  0  0  0  0  0  0  # atno 10718 bound_to 10713
  154.0809  135.2859  155.3290 H   0  0  0  0  0  0  0  0  0  0  0  0  # atno 10763 bound_to 10752
  154.6684  135.5308  153.8110 H   0  0  0  0  0  0  0  0  0  0  0  0  # atno 10764 bound_to 10752
  153.0449  135.6551  154.0984 H   0  0  0  0  0  0  0  0  0  0  0  0  # atno 10765 bound_to 10752
  140.9203  134.1453  157.4319 H   0  0  0  0  0  0  0  0  0  0  0  0  # atno 11005 bound_to 11000
  144.9097  140.7743  143.5815 LP  0  0  0  0  0  0  0  0  0  0  0  0  # atno 17320 bound_to 7965
  145.2882  139.1893  143.4754 LP  0  0  0  0  0  0  0  0  0  0  0  0  # atno 17321 bound_to 7965
  139.5312  144.2911  152.1151 LP  0  0  0  0  0  0  0  0  0  0  0  0  # atno 17342 bound_to 10162
  140.2098  144.4574  150.6391 LP  0  0  0  0  0  0  0  0  0  0  0  0  # atno 17343 bound_to 10162
  156.3093  130.7220  151.2109 LP  0  0  0  0  0  0  0  0  0  0  0  0  # atno 17370 bound_to 10713
  157.7427  131.0485  150.5001 LP  0  0  0  0  0  0  0  0  0  0  0  0  # atno 17371 bound_to 10713
  139.8774  134.9969  156.5818 LP  0  0  0  0  0  0  0  0  0  0  0  0  # atno 17394 bound_to 11000
  140.7996  133.8516  155.8715 LP  0  0  0  0  0  0  0  0  0  0  0  0  # atno 17395 bound_to 11000

$$$$
