AV-unprocessed.smi:1963|AV-procd|sdf|7927|dock3
  -GOLD-   2272010 93D 1   1.00000     0.00000
 Structure written by MMmdl.
 47 48  0  0  0  0  0  0  0  0  1 V2000
  155.0943  133.5207  158.7406 C   0  0  0  0  0  0  0  0  0  0  0  0
  154.3407  134.3854  159.7449 C   0  0  0  0  0  0  0  0  0  0  0  0
  153.1120  134.4460  159.7104 O   0  0  0  0  0  0  0  0  0  0  0  0
  155.0924  135.0514  160.6353 N   0  0  0  0  0  0  0  0  0  0  0  0
  154.5822  135.9273  161.6928 C   0  0  1  0  0  0  0  0  0  0  0  0
  153.8061  137.0908  161.0443 C   0  0  0  0  0  0  0  0  0  0  0  0
  152.8385  136.8559  160.3191 O   0  0  0  0  0  0  0  0  0  0  0  0
  154.2370  138.3252  161.3639 N   0  0  0  0  0  0  0  0  0  0  0  0
  153.7172  139.5795  160.9464 C   0  0  0  0  0  0  0  0  0  0  0  0
  153.9997  140.7100  161.7368 C   0  0  0  0  0  0  0  0  0  0  0  0
  153.5078  141.9679  161.3407 C   0  0  0  0  0  0  0  0  0  0  0  0
  152.7472  142.0685  160.1520 C   0  0  0  0  0  0  0  0  0  0  0  0
  152.2374  143.3186  159.7382 N   0  0  0  0  0  0  0  0  0  0  0  0
  152.6471  143.7612  158.4075 C   0  0  0  0  0  0  0  0  0  0  0  0
  151.7961  144.9605  157.9552 C   0  0  0  0  0  0  0  0  0  0  0  0
  151.8652  145.9972  158.9288 O   0  0  0  0  0  0  0  0  0  0  0  0
  151.3548  145.5745  160.1886 C   0  0  0  0  0  0  0  0  0  0  0  0
  152.1945  144.4008  160.7202 C   0  0  0  0  0  0  0  0  0  0  0  0
  152.4971  140.9833  159.3786 N   0  0  0  0  0  0  0  0  0  0  0  0
  152.9685  139.7782  159.7627 C   0  0  0  0  0  0  0  0  0  0  0  0
  153.6361  135.1028  162.6159 C   0  0  0  0  0  0  0  0  0  0  0  0
  153.2439  135.8519  163.9069 C   0  0  0  0  0  0  0  0  0  0  0  0
  154.2486  133.7394  162.9933 C   0  0  0  0  0  0  0  0  0  0  0  0
  155.6756  132.7567  159.2576 H   0  0  0  0  0  0  0  0  0  0  0  0
  155.7750  134.1318  158.1473 H   0  0  0  0  0  0  0  0  0  0  0  0
  154.4024  133.0220  158.0609 H   0  0  0  0  0  0  0  0  0  0  0  0
  156.0942  134.9334  160.5905 H   0  0  0  0  0  0  0  0  0  0  0  0
  155.4158  136.3158  162.2821 H   0  0  0  0  0  0  0  0  0  0  0  0
  154.9872  138.3692  162.0382 H   0  0  0  0  0  0  0  0  0  0  0  0
  154.5844  140.6180  162.6405 H   0  0  0  0  0  0  0  0  0  0  0  0
  153.7310  142.8367  161.9416 H   0  0  0  0  0  0  0  0  0  0  0  0
  153.7003  144.0435  158.4402 H   0  0  0  0  0  0  0  0  0  0  0  0
  152.5558  142.9652  157.6698 H   0  0  0  0  0  0  0  0  0  0  0  0
  152.1643  145.3434  157.0034 H   0  0  0  0  0  0  0  0  0  0  0  0
  150.7580  144.6627  157.7982 H   0  0  0  0  0  0  0  0  0  0  0  0
  151.3948  146.4105  160.8867 H   0  0  0  0  0  0  0  0  0  0  0  0
  150.3057  145.2901  160.0919 H   0  0  0  0  0  0  0  0  0  0  0  0
  151.7642  144.0449  161.6573 H   0  0  0  0  0  0  0  0  0  0  0  0
  153.2107  144.7355  160.9330 H   0  0  0  0  0  0  0  0  0  0  0  0
  152.7471  138.9697  159.0836 H   0  0  0  0  0  0  0  0  0  0  0  0
  152.7134  134.8970  162.0702 H   0  0  0  0  0  0  0  0  0  0  0  0
  154.1261  136.1436  164.4775 H   0  0  0  0  0  0  0  0  0  0  0  0
  152.6265  135.2254  164.5513 H   0  0  0  0  0  0  0  0  0  0  0  0
  152.6659  136.7528  163.7011 H   0  0  0  0  0  0  0  0  0  0  0  0
  155.1976  133.8645  163.5159 H   0  0  0  0  0  0  0  0  0  0  0  0
  154.4302  133.1155  162.1178 H   0  0  0  0  0  0  0  0  0  0  0  0
  153.5819  133.1777  163.6482 H   0  0  0  0  0  0  0  0  0  0  0  0
  1  2  1  0  0  0  0
  1 24  1  0  0  0  0
  1 25  1  0  0  0  0
  1 26  1  0  0  0  0
  2  3  2  0  0  0  0
  2  4  1  0  0  0  0
  4  5  1  0  0  0  0
  4 27  1  0  0  0  0
  5  6  1  0  0  0  0
  5 21  1  0  0  0  0
  5 28  1  0  0  0  0
  6  7  2  0  0  0  0
  6  8  1  0  0  0  0
  8  9  1  0  0  0  0
  8 29  1  0  0  0  0
  9 20  1  0  0  0  0
  9 10  2  0  0  0  0
 10 11  1  0  0  0  0
 10 30  1  0  0  0  0
 11 12  2  0  0  0  0
 11 31  1  0  0  0  0
 12 13  1  0  0  0  0
 12 19  1  0  0  0  0
 13 18  1  0  0  0  0
 13 14  1  0  0  0  0
 14 15  1  0  0  0  0
 14 32  1  0  0  0  0
 14 33  1  0  0  0  0
 15 16  1  0  0  0  0
 15 34  1  0  0  0  0
 15 35  1  0  0  0  0
 16 17  1  0  0  0  0
 17 18  1  0  0  0  0
 17 36  1  0  0  0  0
 17 37  1  0  0  0  0
 18 38  1  0  0  0  0
 18 39  1  0  0  0  0
 19 20  2  0  0  0  0
 20 40  1  0  0  0  0
 21 22  1  0  0  0  0
 21 23  1  0  0  0  0
 21 41  1  0  0  0  0
 22 42  1  0  0  0  0
 22 43  1  0  0  0  0
 22 44  1  0  0  0  0
 23 45  1  0  0  0  0
 23 46  1  0  0  0  0
 23 47  1  0  0  0  0
M  END
> <s_m_source_file>
AV-unprocessed.smi

> <i_m_source_file_index>
1963

> <i_lp_mmshare_version>
43012

> <i_f3d_flags>
0

> <s_epik_input>
W0NIM11DKD1PKVtOSF1bQ0BASF0oW0NIXShbQ0gzXSlbQ0gzXSlDKD1PKVtOSF1jMVtjSF1bY0hdYyhuW2NIXTEpTjJbQ0gyXVtDSDJdT1tDSDJdW0NIMl0y

> <s_epik_cmdline>
J2VwaWtfcHl0aG9uJywgJy1waCcsICc3LjAnLCAnLXRuJywgJzgnLCAnLW1hJywgJzIwMCcsICctbWV0YWxfYmluZGluZycsICctaW1hZScsICc8aW5maWxlLm1hZT4nLCAnLW9tYWUnLCAnPG91dGZpbGUubWFlPic=

> <r_lp_tautomer_probability>
1

> <r_epik_Ionization_Penalty>
0.00051446

> <r_epik_Ionization_Penalty_Charging>
0

> <r_epik_Ionization_Penalty_Neutral>
0.00051446

> <r_epik_State_Penalty>
0.00031949

> <r_epik_Charging_Adjusted_Penalty>
0.00031949

> <i_epik_Tot_Q>
0

> <i_epik_Tot_abs_Q>
0

> <r_epik_Metal_State_Penalty>
-0

> <b_epik_Metal_Only>
0

> <s_lp_Force_Field>
OPLS_2005

> <r_lp_Energy>
25.5716

> <b_lp_Chiralities_Consistent>
1

> <s_lp_Variant>
AV-unprocessed.smi:1963-2

> <Gold.Version>
5.8.1

> <Gold.Id.Protein>
6NUR|6NUR_protein|mol2

> <Gold.PLP.Fitness>
42.2081

> <Gold.PLP.PLP>
-39.3940

> <Gold.PLP.part.hbond>
-2.4485

> <Gold.PLP.part.metal>
0.0000

> <Gold.PLP.part.buried>
-6.3750

> <Gold.PLP.part.nonpolar>
-31.7702

> <Gold.PLP.part.repulsive>
0.1377

> <Gold.PLP.ligand.clash>
0.0000

> <Gold.PLP.ligand.torsion>
0.5040

> <Gold.PLP.Chemscore.Hbond>
1.1473

> <Gold.PLP.Chemscore.CHOScore>
0.0000

> <Gold.PLP.Chemscore.Metal>
0.0000

> <Gold.Chemscore.Hbonds>
donor molecule, donor type, donor heavy atom, donor atom, acceptor molecule, acceptor atom, score
      P1  H  6896  6907       L1     7  1.00

> <Gold.PLP.Chemscore.Internal.Correction>
0.3803

> <Gold.Rescore>
     Score         DG    S(hbond)    S(metal)    S(lipo)     H(rot)  DE(clash)    DE(int)     intcor
     14.47     -18.32       1.75        0.00      97.93       1.74       0.04       3.81       ----

> <Gold.Chemscore.Fitness>
14.4682

> <Gold.Chemscore.DG>
-18.3155

> <Gold.Chemscore.ZeroCoef>
-5.4800

> <Gold.Chemscore.Hbond>
1.7457

> <Gold.Chemscore.Metal>
0.0000

> <Gold.Chemscore.Lipo>
97.9275

> <Gold.Chemscore.Internal_Hbond>
0.0000

> <Gold.Chemscore.DEClash>
0.0375

> <Gold.Chemscore.DEInternal>
3.8098

> <Gold.Chemscore.Rot>
1.7394

> <Gold.Chemscore.Internal.Correction>
   9.000000E+99

> <Gold.Chemscore.Hbonds>
donor molecule, donor type, donor heavy atom, donor atom, acceptor molecule, acceptor atom, score
      P1  H  6896  6907       L1     7  0.94

> <Gold.Chemscore.Hbond.Weighted>
-5.8308

> <Gold.Chemscore.Metal.Weighted>
-0.0000

> <Gold.Chemscore.Lipo.Weighted>
-11.4575

> <Gold.Chemscore.Internal_Hbond.Weighted>
0.0000

> <Gold.Chemscore.DEClash.Weighted>
0.0375

> <Gold.Chemscore.DEInternal.Weighted>
3.8098

> <Gold.Chemscore.Rot.Weighted>
4.4528

> <Gold.Chemscore.Internal.Correction.Weighted>
   9.000000E+99

> <Gold.Protein.RotatedTorsions>
[ 6907 6896 6895 6894 ] final   35.40 input  -60.11 | X-H torsion
[ 7974 7965 7964 7962 ] final   70.81 input  175.53 | X-H torsion
[ 8008 7997 7996 7995 ] final  -95.88 input   59.86 | X-H torsion
[ 10167 10162 10161 10158 ] final   72.48 input  -65.29 | X-H torsion
[ 10718 10713 10712 10709 ] final  176.46 input   66.30 | X-H torsion
[ 10763 10752 10751 10750 ] final -117.56 input  -60.55 | X-H torsion
[ 11005 11000 10999 10996 ] final   44.42 input  -57.11 | X-H torsion

> <Gold.Protein.ActiveResidues>
 VAL166  LYS551  ARG553  GLY616  TRP617  ASP618  TYR619  PRO620  LYS621  CYS622 
 ASP623  PHE694  ASN695  SER759  ASP760  ASP761  ALA762  ILE779  LEU786  VAL792 
 PHE793  MET794  SER795  GLU796  ALA797  LYS798  CYS799  TRP800  GLU811  SER814 

> <Gold.Protein.RotatedAtoms>
  152.1155  134.9243  160.0564 H   0  0  0  0  0  0  0  0  0  0  0  0  # atno 6907 bound_to 6896
  152.0404  133.3970  159.4342 H   0  0  0  0  0  0  0  0  0  0  0  0  # atno 6908 bound_to 6896
  150.6846  134.3342  159.4884 H   0  0  0  0  0  0  0  0  0  0  0  0  # atno 6909 bound_to 6896
  145.7736  139.2854  143.1307 H   0  0  0  0  0  0  0  0  0  0  0  0  # atno 7974 bound_to 7965
  154.7671  140.0476  157.1021 H   0  0  0  0  0  0  0  0  0  0  0  0  # atno 8008 bound_to 7997
  154.9866  140.3108  155.4904 H   0  0  0  0  0  0  0  0  0  0  0  0  # atno 8009 bound_to 7997
  156.2914  140.2226  156.4968 H   0  0  0  0  0  0  0  0  0  0  0  0  # atno 8010 bound_to 7997
  140.0348  144.5436  150.7479 H   0  0  0  0  0  0  0  0  0  0  0  0  # atno 10167 bound_to 10162
  156.9198  130.9937  151.3006 H   0  0  0  0  0  0  0  0  0  0  0  0  # atno 10718 bound_to 10713
  154.8559  135.4305  154.1999 H   0  0  0  0  0  0  0  0  0  0  0  0  # atno 10763 bound_to 10752
  153.3048  135.6971  153.7175 H   0  0  0  0  0  0  0  0  0  0  0  0  # atno 10764 bound_to 10752
  153.6291  135.3488  155.3010 H   0  0  0  0  0  0  0  0  0  0  0  0  # atno 10765 bound_to 10752
  140.1554  134.4409  155.8353 H   0  0  0  0  0  0  0  0  0  0  0  0  # atno 11005 bound_to 11000
  146.0145  140.8405  142.9954 LP  0  0  0  0  0  0  0  0  0  0  0  0  # atno 17320 bound_to 7965
  144.6808  140.2538  143.7328 LP  0  0  0  0  0  0  0  0  0  0  0  0  # atno 17321 bound_to 7965
  140.7286  143.2663  151.4033 LP  0  0  0  0  0  0  0  0  0  0  0  0  # atno 17342 bound_to 10162
  139.6052  144.1212  152.2241 LP  0  0  0  0  0  0  0  0  0  0  0  0  # atno 17343 bound_to 10162
  157.5915  130.8447  149.8666 LP  0  0  0  0  0  0  0  0  0  0  0  0  # atno 17370 bound_to 10713
  156.0496  130.3720  150.1232 LP  0  0  0  0  0  0  0  0  0  0  0  0  # atno 17371 bound_to 10713
  141.2204  133.6890  156.7497 LP  0  0  0  0  0  0  0  0  0  0  0  0  # atno 17394 bound_to 11000
  140.2554  134.8508  157.3708 LP  0  0  0  0  0  0  0  0  0  0  0  0  # atno 17395 bound_to 11000

$$$$
