#       Name:                AV-unprocessed.smi:209
#       Creating user name   scv26
#       Creation time:       Thu Mar 26 19:52:59 2020


#       File generated by GOLD software.
#

@<TRIPOS>MOLECULE
AV-unprocessed.smi:209
    58    62     1
SMALL
NO_CHARGES


@<TRIPOS>ATOM
      1 ****         0.0719   6.2603  -0.2770 O.2            1 S1                 0.0000
      2 ****         0.0569   5.0314  -0.2884 C.2            1 S1                 0.0000
      3 ****         1.1034   4.2192  -0.4800 N.am           1 S1                 0.0000
      4 ****         0.7184   2.8119  -0.5239 C.3            1 S1                 0.0000
      5 ****        -0.7915   2.9091  -0.7906 C.3            1 S1                 0.0000
      6 ****        -1.1787   4.1820  -0.0533 C.3            1 S1                 0.0000
      7 ****        -2.5576   4.6429  -0.5292 C.3            1 S1                 0.0000
      8 ****        -3.5427   3.4955  -0.1994 C.3            1 S1                 0.0000
      9 ****        -3.0629   2.1149  -0.7264 C.3            1 S1                 0.0000
     10 ****        -1.6677   1.8240  -0.3639 N.3            1 S1                 0.0000
     11 ****        -1.2572   0.5992  -0.7589 C.ar           1 S1                 0.0000
     12 ****        -1.2100   0.2852  -2.0805 N.ar           1 S1                 0.0000
     13 ****        -0.7914  -0.9254  -2.4616 C.ar           1 S1                 0.0000
     14 ****        -0.3780  -1.9431  -1.7027 N.ar           1 S1                 0.0000
     15 ****        -0.4171  -1.6242  -0.3766 C.ar           1 S1                 0.0000
     16 ****        -0.8478  -0.3862   0.1755 C.ar           1 S1                 0.0000
     17 ****        -0.7659  -0.4244   1.5606 N.2            1 S1                 0.0000
     18 ****        -0.3177  -1.6234   1.8151 C.2            1 S1                 0.0000
     19 ****        -0.0593  -2.4050   0.7098 N.pl3          1 S1                 0.0000
     20 ****         0.4438  -3.7714   0.7033 C.3            1 S1                 0.0000
     21 ****         1.9822  -3.8880   0.7454 C.3            1 S1                 0.0000
     22 ****         2.4772  -3.3628   2.1080 C.3            1 S1                 0.0000
     23 ****         3.8635  -3.5631   2.3002 O.3            1 S1                 0.0000
     24 ****         2.5154  -5.2557   0.2918 C.3            1 S1                 0.0000
     25 ****         3.0843  -4.7100  -0.9185 O.3            1 S1                 0.0000
     26 ****         2.7339  -3.3751  -0.4922 C.3            1 S1                 0.0000
     27 ****        -0.9354   3.0613  -1.8631 H              1 S1                 0.0000
     28 ****        -1.2174   3.9951   1.0221 H              1 S1                 0.0000
     29 ****         2.0464   4.5358  -0.6545 H              1 S1                 0.0000
     30 ****         1.2457   2.2667  -1.3074 H              1 S1                 0.0000
     31 ****         0.9324   2.3455   0.4390 H              1 S1                 0.0000
     32 ****        -2.8572   5.5620  -0.0250 H              1 S1                 0.0000
     33 ****        -2.5502   4.8476  -1.6006 H              1 S1                 0.0000
     34 ****        -3.6618   3.4334   0.8831 H              1 S1                 0.0000
     35 ****        -4.5304   3.7237  -0.6003 H              1 S1                 0.0000
     36 ****        -3.7109   1.3281  -0.3378 H              1 S1                 0.0000
     37 ****        -3.1651   2.0962  -1.8126 H              1 S1                 0.0000
     38 ****        -0.7850  -1.1038  -3.5268 H              1 S1                 0.0000
     39 ****        -0.1541  -1.9700   2.8251 H              1 S1                 0.0000
     40 ****        -0.0035  -4.2992   1.5464 H              1 S1                 0.0000
     41 ****         0.0512  -4.2633  -0.1876 H              1 S1                 0.0000
     42 ****         2.2976  -2.2927   2.2029 H              1 S1                 0.0000
     43 ****         1.9496  -3.8495   2.9288 H              1 S1                 0.0000
     44 ****         4.1042  -3.2157   3.1456 H              1 S1                 0.0000
     45 ****         3.2772  -5.6898   0.9397 H              1 S1                 0.0000
     46 ****         1.7346  -5.9882   0.0832 H              1 S1                 0.0000
     47 ****         2.1088  -2.8656  -1.2234 H              1 S1                 0.0000
     48 ****         3.6173  -2.7770  -0.2652 H              1 S1                 0.0000
     49 ****        -0.7714   6.7691  -0.1038 LP             1 S1                 0.0000
     50 ****         0.9274   6.7515  -0.4409 LP             1 S1                 0.0000
     51 ****        -1.6148   1.7819   0.6338 LP             1 S1                 0.0000
     52 ****        -1.4878   0.9583  -2.7659 LP             1 S1                 0.0000
     53 ****        -0.0777  -2.8271  -2.0608 LP             1 S1                 0.0000
     54 ****        -0.9966   0.2986   2.2119 LP             1 S1                 0.0000
     55 ****         4.3749  -3.0892   1.5833 LP             1 S1                 0.0000
     56 ****         4.0704  -4.5408   2.2665 LP             1 S1                 0.0000
     57 ****         2.6216  -5.0048  -1.7545 LP             1 S1                 0.0000
     58 ****         4.0683  -4.8627  -1.0105 LP             1 S1                 0.0000
@<TRIPOS>BOND
    1    1    2 2     
    2    2    6 1     
    3    2    3 am    
    4    3    4 1     
    5    3   29 1     
    6    4    5 1     
    7    4   30 1     
    8    4   31 1     
    9    5   27 1     
   10    5   10 1     
   11    5    6 1     
   12    6   28 1     
   13    6    7 1     
   14    7    8 1     
   15    7   32 1     
   16    7   33 1     
   17    8    9 1     
   18    8   34 1     
   19    8   35 1     
   20    9   10 1     
   21    9   36 1     
   22    9   37 1     
   23   10   11 1     
   24   11   16 ar    
   25   11   12 ar    
   26   12   13 ar    
   27   13   14 ar    
   28   13   38 1     
   29   14   15 ar    
   30   15   19 1     
   31   15   16 ar    
   32   16   17 1     
   33   17   18 2     
   34   18   19 1     
   35   18   39 1     
   36   19   20 1     
   37   20   21 1     
   38   20   40 1     
   39   20   41 1     
   40   21   26 1     
   41   21   22 1     
   42   21   24 1     
   43   22   23 1     
   44   22   42 1     
   45   22   43 1     
   46   23   44 1     
   47   24   25 1     
   48   24   45 1     
   49   24   46 1     
   50   25   26 1     
   51   26   47 1     
   52   26   48 1     
   53    1   49 1     
   54    1   50 1     
   55   10   51 1     
   56   12   52 1     
   57   14   53 1     
   58   17   54 1     
   59   23   55 1     
   60   23   56 1     
   61   25   57 1     
   62   25   58 1     
@<TRIPOS>SUBSTRUCTURE
      1 S1             1
@<TRIPOS>SET
LONE_PAIRS      STATIC     ATOMS    <user>   **** ""
10 49 50 51 52 53 54 55 56 57 58
DONOR_HYDROGENS      STATIC     ATOMS    <user>   **** ""
2 29 44
ATOM$BLUE        STATIC     ATOMS    COLORGROUP SYSTEM
10 49 50 51 52 53 54 55 56 57 58
ATOM$RED        STATIC     ATOMS    COLORGROUP SYSTEM
2 29 44
