#       Name:                AV-unprocessed.smi:160
#       Creating user name   scv26
#       Creation time:       Thu Mar 26 19:08:46 2020


#       File generated by GOLD software.
#

@<TRIPOS>MOLECULE
AV-unprocessed.smi:160
    41    42     1
SMALL
NO_CHARGES


@<TRIPOS>ATOM
      1 ****        -3.6239   2.2478   0.2140 N.pl3          1 S1                -1.0000
      2 ****        -4.1191   0.9950   0.3132 C.2            1 S1                 0.0000
      3 ****        -5.3059   0.6885   0.4234 O.2            1 S1                 0.0000
      4 ****        -3.0757  -0.0965   0.2768 C.2            1 S1                 0.0000
      5 ****        -3.4418  -1.4128   0.3423 N.2            1 S1                 0.0000
      6 ****        -2.2407  -1.9708   0.2749 C.2            1 S1                 0.0000
      7 ****        -1.2345  -1.0980   0.1724 N.pl3          1 S1                 0.0000
      8 ****         0.2419  -1.3482   0.0779 C.3            1 S1                 0.0000
      9 ****         0.8932  -0.5012   0.9767 O.3            1 S1                 0.0000
     10 ****         1.4701   0.5940   0.2737 C.3            1 S1                 0.0000
     11 ****         2.5785   1.2676   1.1023 C.3            1 S1                 0.0000
     12 ****         2.0161   2.1878   2.0129 O.3            1 S1                 0.0000
     13 ****         1.9278  -0.0570  -1.0397 C.3            1 S1                 0.0000
     14 ****         3.1745  -0.7101  -0.8765 O.3            1 S1                 0.0000
     15 ****         0.8312  -1.0773  -1.3288 C.3            1 S1                 0.0000
     16 ****        -0.0924  -0.5504  -2.2654 O.3            1 S1                 0.0000
     17 ****        -1.7656   0.1504   0.1794 N.2            1 S1                 0.0000
     18 ****         0.3598  -2.3837   0.3991 H              1 S1                 0.0000
     19 ****         0.6906   1.3209   0.0386 H              1 S1                 0.0000
     20 ****         2.0382   0.6795  -1.8371 H              1 S1                 0.0000
     21 ****         1.2330  -2.0059  -1.7365 H              1 S1                 0.0000
     22 ****        -2.6077   2.3655   0.1226 H              1 S1                 0.0000
     23 ****        -2.0912  -3.0402   0.2971 H              1 S1                 0.0000
     24 ****         3.1813   0.5314   1.6349 H              1 S1                 0.0000
     25 ****         3.2482   1.8269   0.4484 H              1 S1                 0.0000
     26 ****         2.7150   2.5954   2.5008 H              1 S1                 0.0000
     27 ****         3.8279  -0.0596  -0.6699 H              1 S1                 0.0000
     28 ****        -0.8289  -1.1389  -2.3273 H              1 S1                 0.0000
     29 ****        -4.2320   3.0415   0.2292 LP             1 S1                 0.0000
     30 ****        -6.0065   1.4017   0.4461 LP             1 S1                 0.0000
     31 ****        -5.5697  -0.2738   0.4902 LP             1 S1                 0.0000
     32 ****        -4.3471  -1.8306   0.4185 LP             1 S1                 0.0000
     33 ****         1.6134  -1.0090   1.4494 LP             1 S1                 0.0000
     34 ****         0.2344  -0.1567   1.6455 LP             1 S1                 0.0000
     35 ****         1.4025   1.7084   2.6403 LP             1 S1                 0.0000
     36 ****         1.5030   2.8855   1.5129 LP             1 S1                 0.0000
     37 ****         3.4225  -1.1806  -1.7233 LP             1 S1                 0.0000
     38 ****         3.1125  -1.3747  -0.1318 LP             1 S1                 0.0000
     39 ****         0.3466  -0.4652  -3.1598 LP             1 S1                 0.0000
     40 ****        -0.4050   0.3492  -1.9605 LP             1 S1                 0.0000
     41 ****        -1.2961   1.0317   0.1254 LP             1 S1                 0.0000
@<TRIPOS>BOND
    1    1    2 1     
    2    1   22 1     
    3    2    3 2     
    4    2    4 1     
    5    4   17 2     
    6    4    5 1     
    7    5    6 2     
    8    6    7 1     
    9    6   23 1     
   10    7    8 1     
   11    7   17 1     
   12    8   18 1     
   13    8   15 1     
   14    8    9 1     
   15    9   10 1     
   16   10   19 1     
   17   10   11 1     
   18   10   13 1     
   19   11   12 1     
   20   11   24 1     
   21   11   25 1     
   22   12   26 1     
   23   13   20 1     
   24   13   14 1     
   25   13   15 1     
   26   14   27 1     
   27   15   21 1     
   28   15   16 1     
   29   16   28 1     
   30    1   29 1     
   31    3   30 1     
   32    3   31 1     
   33    5   32 1     
   34    9   33 1     
   35    9   34 1     
   36   12   35 1     
   37   12   36 1     
   38   14   37 1     
   39   14   38 1     
   40   16   39 1     
   41   16   40 1     
   42   17   41 1     
@<TRIPOS>SUBSTRUCTURE
      1 S1             1
@<TRIPOS>SET
LONE_PAIRS      STATIC     ATOMS    <user>   **** ""
13 29 30 31 32 33 34 35 36 37 38 39 40 41
DONOR_HYDROGENS      STATIC     ATOMS    <user>   **** ""
4 22 26 27 28
ATOM$BLUE        STATIC     ATOMS    COLORGROUP SYSTEM
13 29 30 31 32 33 34 35 36 37 38 39 40 41
ATOM$RED        STATIC     ATOMS    COLORGROUP SYSTEM
4 22 26 27 28
