AV-unprocessed.smi:2510|AV-procd|sdf|9875|dock1
  -GOLD-   2272013503D 1   1.00000     0.00000
 Structure written by MMmdl.
 48 49  0  0  0  0  0  0  0  0  1 V2000
  151.4645  137.0207  157.4889 C   0  0  0  0  0  0  0  0  0  0  0  0
  150.7308  138.2891  157.0207 C   0  0  0  0  0  0  0  0  0  0  0  0
  150.3099  138.3464  155.5320 C   0  0  0  0  0  0  0  0  0  0  0  0
  151.5969  138.1162  154.6887 C   0  0  0  0  0  0  0  0  0  0  0  0
  152.6630  139.2267  154.7482 C   0  0  0  0  0  0  0  0  0  0  0  0
  149.0745  137.4955  155.1109 C   0  0  2  0  0  0  0  0  0  0  0  0
  149.4085  136.2566  154.4145 N   0  0  0  0  0  0  0  0  0  0  0  0
  149.6862  135.0910  155.0157 C   0  0  0  0  0  0  0  0  0  0  0  0
  149.7013  134.9549  156.2403 O   0  0  0  0  0  0  0  0  0  0  0  0
  149.9849  133.9162  154.0754 C   0  0  0  0  0  0  0  0  0  0  0  0
  148.7758  133.0475  153.8406 C   0  0  0  0  0  0  0  0  0  0  0  0
  148.0430  132.8741  152.6291 C   0  0  0  0  0  0  0  0  0  0  0  0
  147.0522  131.9922  152.9565 C   0  0  0  0  0  0  0  0  0  0  0  0
  145.9532  131.3973  152.1441 C   0  0  0  0  0  0  0  0  0  0  0  0
  147.2267  131.6951  154.2883 N   0  0  0  0  0  0  0  0  0  0  0  0
  148.2726  132.3368  154.8410 N   0  0  0  0  0  0  0  0  0  0  0  0
  148.6348  138.6186  154.1626 C   0  0  1  0  0  0  0  0  0  0  0  0
  147.1452  138.8400  153.9286 C   0  0  0  0  0  0  0  0  0  0  0  0
  149.4074  139.5440  155.1168 C   0  0  2  0  0  0  0  0  0  0  0  0
  150.1147  140.5960  154.4786 O   0  0  0  0  0  0  0  0  0  0  0  0
  150.3684  141.7030  155.3256 C   0  0  0  0  0  0  0  0  0  0  0  0
  146.6472  131.0659  154.8256 H   0  0  0  0  0  0  0  0  0  0  0  0
  151.6163  137.0495  158.5681 H   0  0  0  0  0  0  0  0  0  0  0  0
  152.4513  136.9350  157.0339 H   0  0  0  0  0  0  0  0  0  0  0  0
  150.9037  136.1139  157.2664 H   0  0  0  0  0  0  0  0  0  0  0  0
  149.8445  138.3936  157.6471 H   0  0  0  0  0  0  0  0  0  0  0  0
  151.3662  139.1414  157.2648 H   0  0  0  0  0  0  0  0  0  0  0  0
  152.0758  137.1852  154.9946 H   0  0  0  0  0  0  0  0  0  0  0  0
  151.3393  137.9685  153.6399 H   0  0  0  0  0  0  0  0  0  0  0  0
  153.4780  139.0033  154.0595 H   0  0  0  0  0  0  0  0  0  0  0  0
  153.1039  139.3148  155.7408 H   0  0  0  0  0  0  0  0  0  0  0  0
  152.2656  140.2016  154.4708 H   0  0  0  0  0  0  0  0  0  0  0  0
  148.3390  137.3612  155.9051 H   0  0  0  0  0  0  0  0  0  0  0  0
  149.4179  136.2875  153.4053 H   0  0  0  0  0  0  0  0  0  0  0  0
  150.3630  134.3099  153.1310 H   0  0  0  0  0  0  0  0  0  0  0  0
  150.7902  133.3199  154.5058 H   0  0  0  0  0  0  0  0  0  0  0  0
  148.2222  133.3278  151.6655 H   0  0  0  0  0  0  0  0  0  0  0  0
  145.9598  131.7952  151.1291 H   0  0  0  0  0  0  0  0  0  0  0  0
  144.9816  131.6183  152.5860 H   0  0  0  0  0  0  0  0  0  0  0  0
  146.0605  130.3143  152.0822 H   0  0  0  0  0  0  0  0  0  0  0  0
  149.1656  138.5427  153.2117 H   0  0  0  0  0  0  0  0  0  0  0  0
  146.6121  138.9911  154.8674 H   0  0  0  0  0  0  0  0  0  0  0  0
  146.6949  137.9816  153.4302 H   0  0  0  0  0  0  0  0  0  0  0  0
  146.9632  139.7114  153.3010 H   0  0  0  0  0  0  0  0  0  0  0  0
  148.7868  139.9030  155.9398 H   0  0  0  0  0  0  0  0  0  0  0  0
  150.9661  142.4402  154.7898 H   0  0  0  0  0  0  0  0  0  0  0  0
  150.9236  141.4033  156.2154 H   0  0  0  0  0  0  0  0  0  0  0  0
  149.4432  142.1885  155.6342 H   0  0  0  0  0  0  0  0  0  0  0  0
  1  2  1  0  0  0  0
  1 23  1  0  0  0  0
  1 24  1  0  0  0  0
  1 25  1  0  0  0  0
  2  3  1  0  0  0  0
  2 26  1  0  0  0  0
  2 27  1  0  0  0  0
  3 19  1  0  0  0  0
  3  4  1  0  0  0  0
  3  6  1  0  0  0  0
  4  5  1  0  0  0  0
  4 28  1  0  0  0  0
  4 29  1  0  0  0  0
  5 30  1  0  0  0  0
  5 31  1  0  0  0  0
  5 32  1  0  0  0  0
  6  7  1  0  0  0  0
  6 17  1  0  0  0  0
  6 33  1  0  0  0  0
  7  8  1  0  0  0  0
  7 34  1  0  0  0  0
  8  9  2  0  0  0  0
  8 10  1  0  0  0  0
 10 11  1  0  0  0  0
 10 35  1  0  0  0  0
 10 36  1  0  0  0  0
 11 16  2  0  0  0  0
 11 12  1  0  0  0  0
 12 13  2  0  0  0  0
 12 37  1  0  0  0  0
 13 14  1  0  0  0  0
 13 15  1  0  0  0  0
 14 38  1  0  0  0  0
 14 39  1  0  0  0  0
 14 40  1  0  0  0  0
 15 22  1  0  0  0  0
 15 16  1  0  0  0  0
 17 18  1  0  0  0  0
 17 19  1  0  0  0  0
 17 41  1  0  0  0  0
 18 42  1  0  0  0  0
 18 43  1  0  0  0  0
 18 44  1  0  0  0  0
 19 20  1  0  0  0  0
 19 45  1  0  0  0  0
 20 21  1  0  0  0  0
 21 46  1  0  0  0  0
 21 47  1  0  0  0  0
 21 48  1  0  0  0  0
M  END
> <s_m_source_file>
AV-unprocessed.smi

> <i_m_source_file_index>
2510

> <i_lp_mmshare_version>
43012

> <i_f3d_flags>
0

> <s_epik_input>
W0NIM11PW0NAQEhdMVtDQEhdKFtDSDNdKVtDQEBIXShDMShbQ0gyXVtDSDNdKVtDSDJdW0NIM10pW05IXUMoPU8pW0NIMl1jMltjSF1jKFtDSDNdKVtuSF1uMg==

> <s_epik_cmdline>
J2VwaWtfcHl0aG9uJywgJy1waCcsICc3LjAnLCAnLXRuJywgJzgnLCAnLW1hJywgJzIwMCcsICctbWV0YWxfYmluZGluZycsICctaW1hZScsICc8aW5maWxlLm1hZT4nLCAnLW9tYWUnLCAnPG91dGZpbGUubWFlPic=

> <r_lp_tautomer_probability>
0.5

> <r_epik_Ionization_Penalty>
9.73156e-05

> <r_epik_Ionization_Penalty_Charging>
0

> <r_epik_Ionization_Penalty_Neutral>
9.73156e-05

> <r_epik_State_Penalty>
0.41068

> <r_epik_Charging_Adjusted_Penalty>
0.41068

> <i_epik_Tot_Q>
0

> <i_epik_Tot_abs_Q>
0

> <r_epik_Metal_State_Penalty>
0.410699

> <b_epik_Metal_Only>
0

> <s_lp_Force_Field>
OPLS_2005

> <r_lp_Energy>
28.5674

> <b_lp_Chiralities_Consistent>
1

> <s_lp_Variant>
AV-unprocessed.smi:2510-6

> <Gold.Version>
5.8.1

> <Gold.Id.Protein>
6NUR|6NUR_protein|mol2

> <Gold.PLP.Fitness>
33.8992

> <Gold.PLP.PLP>
-29.9816

> <Gold.PLP.part.hbond>
-2.0000

> <Gold.PLP.part.metal>
0.0000

> <Gold.PLP.part.buried>
-3.2560

> <Gold.PLP.part.nonpolar>
-23.6288

> <Gold.PLP.part.repulsive>
0.1553

> <Gold.PLP.ligand.clash>
0.0000

> <Gold.PLP.ligand.torsion>
1.1983

> <Gold.PLP.Chemscore.Hbond>
1.9120

> <Gold.PLP.Chemscore.CHOScore>
0.0000

> <Gold.PLP.Chemscore.Metal>
0.0000

> <Gold.Chemscore.Hbonds>
donor molecule, donor type, donor heavy atom, donor atom, acceptor molecule, acceptor atom, score
      L1  H     7    34       P1  7948  1.00
      P1  H  7989  7998       L1    20  0.55

> <Gold.PLP.Chemscore.Internal.Correction>
0.5782

> <Gold.Rescore>
     Score         DG    S(hbond)    S(metal)    S(lipo)     H(rot)  DE(clash)    DE(int)     intcor
     13.42     -14.70       1.45        0.00      77.01       1.81       0.10       1.19       ----

> <Gold.Chemscore.Fitness>
13.4160

> <Gold.Chemscore.DG>
-14.7005

> <Gold.Chemscore.ZeroCoef>
-5.4800

> <Gold.Chemscore.Hbond>
1.4505

> <Gold.Chemscore.Metal>
0.0000

> <Gold.Chemscore.Lipo>
77.0094

> <Gold.Chemscore.Internal_Hbond>
0.0000

> <Gold.Chemscore.DEClash>
0.0951

> <Gold.Chemscore.DEInternal>
1.1895

> <Gold.Chemscore.Rot>
1.8102

> <Gold.Chemscore.Internal.Correction>
   9.000000E+99

> <Gold.Chemscore.Hbonds>
donor molecule, donor type, donor heavy atom, donor atom, acceptor molecule, acceptor atom, score
      L1  H     7    34       P1  7948  0.68
      P1  H  7989  7998       L1    20  0.05

> <Gold.Chemscore.Hbond.Weighted>
-4.8445

> <Gold.Chemscore.Metal.Weighted>
-0.0000

> <Gold.Chemscore.Lipo.Weighted>
-9.0101

> <Gold.Chemscore.Internal_Hbond.Weighted>
0.0000

> <Gold.Chemscore.DEClash.Weighted>
0.0951

> <Gold.Chemscore.DEInternal.Weighted>
1.1895

> <Gold.Chemscore.Rot.Weighted>
4.6341

> <Gold.Chemscore.Internal.Correction.Weighted>
   9.000000E+99

> <Gold.Protein.RotatedTorsions>
[ 6907 6896 6895 6894 ] final  158.79 input  -60.11 | X-H torsion
[ 7974 7965 7964 7962 ] final  -37.99 input  175.53 | X-H torsion
[ 8008 7997 7996 7995 ] final   16.02 input   59.86 | X-H torsion
[ 10167 10162 10161 10158 ] final -176.24 input  -65.29 | X-H torsion
[ 10718 10713 10712 10709 ] final  148.29 input   66.30 | X-H torsion
[ 10763 10752 10751 10750 ] final   71.68 input  -60.55 | X-H torsion
[ 11005 11000 10999 10996 ] final  -79.29 input  -57.11 | X-H torsion

> <Gold.Protein.ActiveResidues>
 VAL166  LYS551  ARG553  GLY616  TRP617  ASP618  TYR619  PRO620  LYS621  CYS622 
 ASP623  PHE694  ASN695  SER759  ASP760  ASP761  ALA762  ILE779  LEU786  VAL792 
 PHE793  MET794  SER795  GLU796  ALA797  LYS798  CYS799  TRP800  GLU811  SER814 

> <Gold.Protein.RotatedAtoms>
  151.9952  133.3805  159.4159 H   0  0  0  0  0  0  0  0  0  0  0  0  # atno 6907 bound_to 6896
  150.6917  134.3894  159.5078 H   0  0  0  0  0  0  0  0  0  0  0  0  # atno 6908 bound_to 6896
  152.1633  134.8894  160.0590 H   0  0  0  0  0  0  0  0  0  0  0  0  # atno 6909 bound_to 6896
  146.0526  140.6460  142.9035 H   0  0  0  0  0  0  0  0  0  0  0  0  # atno 7974 bound_to 7965
  154.8709  140.2958  155.5482 H   0  0  0  0  0  0  0  0  0  0  0  0  # atno 8008 bound_to 7997
  156.3021  140.2460  156.3631 H   0  0  0  0  0  0  0  0  0  0  0  0  # atno 8009 bound_to 7997
  154.8818  140.0397  157.1776 H   0  0  0  0  0  0  0  0  0  0  0  0  # atno 8010 bound_to 7997
  139.5540  144.2037  152.1126 H   0  0  0  0  0  0  0  0  0  0  0  0  # atno 10167 bound_to 10162
  157.3104  131.0887  151.1321 H   0  0  0  0  0  0  0  0  0  0  0  0  # atno 10718 bound_to 10713
  153.0413  135.5128  154.7630 H   0  0  0  0  0  0  0  0  0  0  0  0  # atno 10763 bound_to 10752
  154.6565  135.2932  154.9923 H   0  0  0  0  0  0  0  0  0  0  0  0  # atno 10764 bound_to 10752
  154.0789  135.6667  153.4887 H   0  0  0  0  0  0  0  0  0  0  0  0  # atno 10765 bound_to 10752
  141.1667  133.7099  156.8100 H   0  0  0  0  0  0  0  0  0  0  0  0  # atno 11005 bound_to 11000
  144.7130  140.4110  143.7065 LP  0  0  0  0  0  0  0  0  0  0  0  0  # atno 17320 bound_to 7965
  145.6699  139.1597  143.2761 LP  0  0  0  0  0  0  0  0  0  0  0  0  # atno 17321 bound_to 7965
  140.1538  144.5090  150.6672 LP  0  0  0  0  0  0  0  0  0  0  0  0  # atno 17342 bound_to 10162
  140.6808  143.2326  151.5388 LP  0  0  0  0  0  0  0  0  0  0  0  0  # atno 17343 bound_to 10162
  157.2645  130.6675  149.5990 LP  0  0  0  0  0  0  0  0  0  0  0  0  # atno 17370 bound_to 10713
  155.9677  130.4498  150.5673 LP  0  0  0  0  0  0  0  0  0  0  0  0  # atno 17371 bound_to 10713
  140.2194  134.8768  157.3361 LP  0  0  0  0  0  0  0  0  0  0  0  0  # atno 17394 bound_to 11000
  140.2003  134.4263  155.7666 LP  0  0  0  0  0  0  0  0  0  0  0  0  # atno 17395 bound_to 11000

$$$$
