AV-unprocessed.smi:249|AV-procd|sdf|1909|dock6
  -GOLD-   2262020593D 1   1.00000     0.00000
 Structure written by MMmdl.
 64 67  0  0  0  0  0  0  0  0  2 V2000
  145.2709  135.1794  151.2996 C   0  0  0  0  0  0  0  0  0  0  0  0
  145.9386  133.8516  151.6870 C   0  0  0  0  0  0  0  0  0  0  0  0
  146.9593  133.9964  152.7595 N   0  3  1  0  0  0  0  0  0  0  0  0
  146.3799  134.5497  154.0132 C   0  0  0  0  0  0  0  0  0  0  0  0
  147.4771  134.9247  155.0212 C   0  0  0  0  0  0  0  0  0  0  0  0
  148.3894  133.7178  155.3151 C   0  0  2  0  0  0  0  0  0  0  0  0
  149.4139  133.9832  156.3358 N   0  0  0  0  0  0  0  0  0  0  0  0
  149.6523  132.9546  157.3432 C   0  0  0  0  0  0  0  0  0  0  0  0
  149.7324  135.2401  156.7465 C   0  0  0  0  0  0  0  0  0  0  0  0
  149.5787  135.5971  158.0485 N   0  0  0  0  0  0  0  0  0  0  0  0
  149.9058  136.8255  158.4594 C   0  0  0  0  0  0  0  0  0  0  0  0
  150.4042  137.8370  157.7477 N   0  0  0  0  0  0  0  0  0  0  0  0
  150.5705  137.4860  156.4411 C   0  0  0  0  0  0  0  0  0  0  0  0
  150.2612  136.2227  155.8616 C   0  0  0  0  0  0  0  0  0  0  0  0
  150.5487  136.2457  154.5019 N   0  0  0  0  0  0  0  0  0  0  0  0
  151.0078  137.4488  154.2914 C   0  0  0  0  0  0  0  0  0  0  0  0
  151.0761  138.2534  155.4064 N   0  0  0  0  0  0  0  0  0  0  0  0
  151.5385  139.6294  155.4566 C   0  0  0  0  0  0  0  0  0  0  0  0
  150.5424  140.6325  156.1040 C   0  0  2  0  0  0  0  0  0  0  0  0
  149.7145  141.3146  154.9877 C   0  0  0  0  0  0  0  0  0  0  0  0
  149.1363  140.3614  154.1196 O   0  0  0  0  0  0  0  0  0  0  0  0
  151.2385  141.6837  157.0202 C   0  0  1  0  0  0  0  0  0  0  0  0
  150.2939  142.5385  157.8532 C   0  0  0  0  0  0  0  0  0  0  0  0
  151.2151  143.0862  158.9327 C   0  0  0  0  0  0  0  0  0  0  0  0
  152.0787  142.0038  159.2381 O   0  0  0  0  0  0  0  0  0  0  0  0
  152.1425  141.1134  158.1279 C   0  0  0  0  0  0  0  0  0  0  0  0
  148.9465  133.1350  153.9973 C   0  0  0  0  0  0  0  0  0  0  0  0
  147.8239  132.7972  152.9944 C   0  0  1  0  0  0  0  0  0  0  0  0
  147.0365  131.5318  153.3978 C   0  0  0  0  0  0  0  0  0  0  0  0
  144.4376  135.0026  150.6194 H   0  0  0  0  0  0  0  0  0  0  0  0
  145.9615  135.8507  150.7898 H   0  0  0  0  0  0  0  0  0  0  0  0
  144.8772  135.6954  152.1757 H   0  0  0  0  0  0  0  0  0  0  0  0
  145.1553  133.1839  152.0477 H   0  0  0  0  0  0  0  0  0  0  0  0
  146.3652  133.3650  150.8097 H   0  0  0  0  0  0  0  0  0  0  0  0
  145.7982  135.4434  153.7843 H   0  0  0  0  0  0  0  0  0  0  0  0
  145.6845  133.8349  154.4540 H   0  0  0  0  0  0  0  0  0  0  0  0
  148.0504  135.7596  154.6199 H   0  0  0  0  0  0  0  0  0  0  0  0
  147.0156  135.2843  155.9413 H   0  0  0  0  0  0  0  0  0  0  0  0
  147.7578  132.9438  155.7522 H   0  0  0  0  0  0  0  0  0  0  0  0
  150.6889  132.6194  157.3062 H   0  0  0  0  0  0  0  0  0  0  0  0
  149.0191  132.0826  157.1774 H   0  0  0  0  0  0  0  0  0  0  0  0
  149.4463  133.3281  158.3475 H   0  0  0  0  0  0  0  0  0  0  0  0
  149.7482  137.0261  159.5089 H   0  0  0  0  0  0  0  0  0  0  0  0
  151.3231  137.7796  153.3124 H   0  0  0  0  0  0  0  0  0  0  0  0
  152.4893  139.6562  155.9904 H   0  0  0  0  0  0  0  0  0  0  0  0
  151.7608  139.9199  154.4296 H   0  0  0  0  0  0  0  0  0  0  0  0
  149.8384  140.0741  156.7225 H   0  0  0  0  0  0  0  0  0  0  0  0
  148.8890  141.8945  155.3980 H   0  0  0  0  0  0  0  0  0  0  0  0
  150.3335  142.0017  154.4099 H   0  0  0  0  0  0  0  0  0  0  0  0
  149.4448  140.5270  153.2417 H   0  0  0  0  0  0  0  0  0  0  0  0
  151.8335  142.3569  156.4006 H   0  0  0  0  0  0  0  0  0  0  0  0
  149.8158  143.3357  157.2834 H   0  0  0  0  0  0  0  0  0  0  0  0
  149.5155  141.9215  158.3048 H   0  0  0  0  0  0  0  0  0  0  0  0
  151.8079  143.9157  158.5453 H   0  0  0  0  0  0  0  0  0  0  0  0
  150.6753  143.4316  159.8146 H   0  0  0  0  0  0  0  0  0  0  0  0
  151.7928  140.1366  158.4635 H   0  0  0  0  0  0  0  0  0  0  0  0
  153.1756  141.0087  157.7990 H   0  0  0  0  0  0  0  0  0  0  0  0
  149.6209  133.8415  153.5154 H   0  0  0  0  0  0  0  0  0  0  0  0
  149.5428  132.2455  154.2049 H   0  0  0  0  0  0  0  0  0  0  0  0
  148.3294  132.5656  152.0575 H   0  0  0  0  0  0  0  0  0  0  0  0
  147.7163  130.6975  153.5723 H   0  0  0  0  0  0  0  0  0  0  0  0
  146.3495  131.2152  152.6135 H   0  0  0  0  0  0  0  0  0  0  0  0
  146.4581  131.6723  154.3102 H   0  0  0  0  0  0  0  0  0  0  0  0
  147.5879  134.7136  152.4267 H   0  0  0  0  0  0  0  0  0  0  0  0
  1  2  1  0  0  0  0
  1 30  1  0  0  0  0
  1 31  1  0  0  0  0
  1 32  1  0  0  0  0
  2  3  1  0  0  0  0
  2 33  1  0  0  0  0
  2 34  1  0  0  0  0
  3 28  1  0  0  0  0
  3  4  1  0  0  0  0
  3 64  1  0  0  0  0
  4  5  1  0  0  0  0
  4 35  1  0  0  0  0
  4 36  1  0  0  0  0
  5  6  1  0  0  0  0
  5 37  1  0  0  0  0
  5 38  1  0  0  0  0
  6  7  1  0  0  0  0
  6 27  1  0  0  0  0
  6 39  1  0  0  0  0
  7  8  1  0  0  0  0
  7  9  1  0  0  0  0
  8 40  1  0  0  0  0
  8 41  1  0  0  0  0
  8 42  1  0  0  0  0
  9 14  1  0  0  0  0
  9 10  2  0  0  0  0
 10 11  1  0  0  0  0
 11 12  2  0  0  0  0
 11 43  1  0  0  0  0
 12 13  1  0  0  0  0
 13 17  1  0  0  0  0
 13 14  2  0  0  0  0
 14 15  1  0  0  0  0
 15 16  2  0  0  0  0
 16 17  1  0  0  0  0
 16 44  1  0  0  0  0
 17 18  1  0  0  0  0
 18 19  1  0  0  0  0
 18 45  1  0  0  0  0
 18 46  1  0  0  0  0
 19 20  1  0  0  0  0
 19 22  1  0  0  0  0
 19 47  1  0  0  0  0
 20 21  1  0  0  0  0
 20 48  1  0  0  0  0
 20 49  1  0  0  0  0
 21 50  1  0  0  0  0
 22 26  1  0  0  0  0
 22 23  1  0  0  0  0
 22 51  1  0  0  0  0
 23 24  1  0  0  0  0
 23 52  1  0  0  0  0
 23 53  1  0  0  0  0
 24 25  1  0  0  0  0
 24 54  1  0  0  0  0
 24 55  1  0  0  0  0
 25 26  1  0  0  0  0
 26 56  1  0  0  0  0
 26 57  1  0  0  0  0
 27 28  1  0  0  0  0
 27 58  1  0  0  0  0
 27 59  1  0  0  0  0
 28 29  1  0  0  0  0
 28 60  1  0  0  0  0
 29 61  1  0  0  0  0
 29 62  1  0  0  0  0
 29 63  1  0  0  0  0
M  CHG  1   3   1
M  END
> <s_m_source_file>
AV-unprocessed.smi

> <i_m_source_file_index>
249

> <i_lp_mmshare_version>
43012

> <i_f3d_flags>
0

> <s_epik_input>
W0NIM11bQ0gyXU4xW0NIMl1bQ0gyXVtDQEhdKFtDSDJdW0NASF0xW0NIM10pTihbQ0gzXSljKG5bY0hdbjIpYyhjMjMpbltjSF1uM1tDSDJdW0NASF0oW0NIMl1bT0hdKVtDQEBIXTRbQ0gyXVtDSDJdT1tDSDJdNA==

> <s_epik_cmdline>
J2VwaWtfcHl0aG9uJywgJy1waCcsICc3LjAnLCAnLXRuJywgJzgnLCAnLW1hJywgJzIwMCcsICctbWV0YWxfYmluZGluZycsICctaW1hZScsICc8aW5maWxlLm1hZT4nLCAnLW9tYWUnLCAnPG91dGZpbGUubWFlPic=

> <r_lp_tautomer_probability>
1

> <r_epik_Ionization_Penalty>
0.00294688

> <r_epik_Ionization_Penalty_Charging>
0.00169971

> <r_epik_Ionization_Penalty_Neutral>
0.00124717

> <r_epik_State_Penalty>
-0

> <r_epik_Charging_Adjusted_Penalty>
0.00169971

> <i_epik_Tot_Q>
1

> <i_epik_Tot_abs_Q>
1

> <r_epik_Metal_State_Penalty>
-0

> <b_epik_Metal_Only>
0

> <s_lp_Force_Field>
OPLS_2005

> <r_lp_Energy>
54.5732

> <b_lp_Chiralities_Consistent>
1

> <s_lp_Variant>
AV-unprocessed.smi:249-12

> <Gold.Version>
5.8.1

> <Gold.Id.Protein>
6NUR|6NUR_protein|mol2

> <Gold.PLP.Fitness>
55.3992

> <Gold.PLP.PLP>
-43.5683

> <Gold.PLP.part.hbond>
-4.1748

> <Gold.PLP.part.metal>
0.0000

> <Gold.PLP.part.buried>
-2.4596

> <Gold.PLP.part.nonpolar>
-37.0729

> <Gold.PLP.part.repulsive>
1.2781

> <Gold.PLP.ligand.clash>
0.0000

> <Gold.PLP.ligand.torsion>
1.8835

> <Gold.PLP.Chemscore.Hbond>
4.3588

> <Gold.PLP.Chemscore.CHOScore>
0.4783

> <Gold.PLP.Chemscore.Metal>
0.0000

> <Gold.Chemscore.Hbonds>
donor molecule, donor type, donor heavy atom, donor atom, acceptor molecule, acceptor atom, score
      L1  H     3    64       P1  7948  1.76
      L1  H    21    50       P1  7957  0.71
      P1  H  6896  6908       L1    10  0.60
      L1  C    16    44       P1  7949  0.65

> <Gold.PLP.Chemscore.Internal.Correction>
1.0865

> <Gold.Rescore>
     Score         DG    S(hbond)    S(metal)    S(lipo)     H(rot)  DE(clash)    DE(int)     intcor
     14.14     -17.63       2.32        0.00      95.67       2.65       1.33       2.16       ----

> <Gold.Chemscore.Fitness>
14.1423

> <Gold.Chemscore.DG>
-17.6330

> <Gold.Chemscore.ZeroCoef>
-5.4800

> <Gold.Chemscore.Hbond>
2.3197

> <Gold.Chemscore.Metal>
0.0000

> <Gold.Chemscore.Lipo>
95.6675

> <Gold.Chemscore.Internal_Hbond>
0.0000

> <Gold.Chemscore.DEClash>
1.3319

> <Gold.Chemscore.DEInternal>
2.1588

> <Gold.Chemscore.Rot>
2.6515

> <Gold.Chemscore.Internal.Correction>
   9.000000E+99

> <Gold.Chemscore.Hbonds>
donor molecule, donor type, donor heavy atom, donor atom, acceptor molecule, acceptor atom, score
      L1  H     3    64       P1  7948  0.75
      L1  H    21    50       P1  7957  0.71
      P1  H  6896  6908       L1    10  0.07

> <Gold.Chemscore.Hbond.Weighted>
-7.7478

> <Gold.Chemscore.Metal.Weighted>
-0.0000

> <Gold.Chemscore.Lipo.Weighted>
-11.1931

> <Gold.Chemscore.Internal_Hbond.Weighted>
0.0000

> <Gold.Chemscore.DEClash.Weighted>
1.3319

> <Gold.Chemscore.DEInternal.Weighted>
2.1588

> <Gold.Chemscore.Rot.Weighted>
6.7880

> <Gold.Chemscore.Internal.Correction.Weighted>
   9.000000E+99

> <Gold.Protein.RotatedTorsions>
[ 6907 6896 6895 6894 ] final  169.93 input  -60.11 | X-H torsion
[ 7974 7965 7964 7962 ] final  -11.55 input  175.53 | X-H torsion
[ 8008 7997 7996 7995 ] final  124.31 input   59.86 | X-H torsion
[ 10167 10162 10161 10158 ] final  -11.97 input  -65.29 | X-H torsion
[ 10718 10713 10712 10709 ] final    4.23 input   66.30 | X-H torsion
[ 10763 10752 10751 10750 ] final   49.39 input  -60.55 | X-H torsion
[ 11005 11000 10999 10996 ] final -169.04 input  -57.11 | X-H torsion

> <Gold.Protein.ActiveResidues>
 VAL166  LYS551  ARG553  GLY616  TRP617  ASP618  TYR619  PRO620  LYS621  CYS622 
 ASP623  PHE694  ASN695  SER759  ASP760  ASP761  ALA762  ILE779  LEU786  VAL792 
 PHE793  MET794  SER795  GLU796  ALA797  LYS798  CYS799  TRP800  GLU811  SER814 

> <Gold.Protein.RotatedAtoms>
  151.8242  133.3399  159.3593 H   0  0  0  0  0  0  0  0  0  0  0  0  # atno 6907 bound_to 6896
  150.7285  134.5545  159.5820 H   0  0  0  0  0  0  0  0  0  0  0  0  # atno 6908 bound_to 6896
  152.2984  134.7641  160.0414 H   0  0  0  0  0  0  0  0  0  0  0  0  # atno 6909 bound_to 6896
  146.2183  140.2928  142.8369 H   0  0  0  0  0  0  0  0  0  0  0  0  # atno 7974 bound_to 7965
  156.2797  140.2743  156.1767 H   0  0  0  0  0  0  0  0  0  0  0  0  # atno 8008 bound_to 7997
  155.0598  140.0386  157.2591 H   0  0  0  0  0  0  0  0  0  0  0  0  # atno 8009 bound_to 7997
  154.7126  140.2672  155.6620 H   0  0  0  0  0  0  0  0  0  0  0  0  # atno 8010 bound_to 7997
  140.7151  143.5583  150.9224 H   0  0  0  0  0  0  0  0  0  0  0  0  # atno 10167 bound_to 10162
  156.8896  130.5682  149.5650 H   0  0  0  0  0  0  0  0  0  0  0  0  # atno 10718 bound_to 10713
  152.9787  135.5913  154.4082 H   0  0  0  0  0  0  0  0  0  0  0  0  # atno 10763 bound_to 10752
  154.3720  135.2767  155.2263 H   0  0  0  0  0  0  0  0  0  0  0  0  # atno 10764 bound_to 10752
  154.4214  135.6058  153.6067 H   0  0  0  0  0  0  0  0  0  0  0  0  # atno 10765 bound_to 10752
  140.5353  134.5576  157.5085 H   0  0  0  0  0  0  0  0  0  0  0  0  # atno 11005 bound_to 11000
  144.9114  140.7762  143.5805 LP  0  0  0  0  0  0  0  0  0  0  0  0  # atno 17320 bound_to 7965
  145.2859  139.1901  143.4766 LP  0  0  0  0  0  0  0  0  0  0  0  0  # atno 17321 bound_to 7965
  139.9308  143.6496  152.3077 LP  0  0  0  0  0  0  0  0  0  0  0  0  # atno 17342 bound_to 10162
  139.6946  144.7643  151.1379 LP  0  0  0  0  0  0  0  0  0  0  0  0  # atno 17343 bound_to 10162
  156.0636  130.5684  150.9243 LP  0  0  0  0  0  0  0  0  0  0  0  0  # atno 17370 bound_to 10713
  157.6092  131.0937  150.8825 LP  0  0  0  0  0  0  0  0  0  0  0  0  # atno 17371 bound_to 10713
  139.9533  134.7579  156.0399 LP  0  0  0  0  0  0  0  0  0  0  0  0  # atno 17394 bound_to 11000
  141.1258  133.6599  156.3334 LP  0  0  0  0  0  0  0  0  0  0  0  0  # atno 17395 bound_to 11000

$$$$
