AV-unprocessed.smi:2413|AV-procd|sdf|9537|dock3
  -GOLD-   2272013173D 1   1.00000     0.00000
 Structure written by MMmdl.
 46 47  0  0  0  0  0  0  0  0  2 V2000
  151.9201  144.6790  158.5028 C   0  0  0  0  0  0  0  0  0  0  0  0
  151.9414  143.2938  159.1409 C   0  0  0  0  0  0  0  0  0  0  0  0
  152.2317  143.1713  160.3303 O   0  0  0  0  0  0  0  0  0  0  0  0
  151.6282  142.2607  158.3442 N   0  0  0  0  0  0  0  0  0  0  0  0
  151.5832  140.8622  158.7592 C   0  0  0  0  0  0  0  0  0  0  0  0
  151.3693  139.8998  157.5761 C   0  0  1  0  0  0  0  0  0  0  0  0
  150.1393  140.2593  156.7149 C   0  0  0  0  0  0  0  0  0  0  0  0
  150.0584  139.3697  155.5641 N   0  0  0  0  0  0  0  0  0  0  0  0
  148.8970  139.5460  154.8027 C   0  0  0  0  0  0  0  0  0  0  0  0
  148.5339  140.7920  154.2569 C   0  0  0  0  0  0  0  0  0  0  0  0
  147.3436  140.8308  153.5090 C   0  0  0  0  0  0  0  0  0  0  0  0
  146.6036  139.7082  153.3384 N   0  3  0  0  0  0  0  0  0  0  0  0
  147.0038  138.5457  153.8844 C   0  0  0  0  0  0  0  0  0  0  0  0
  146.1314  137.2988  153.6732 C   0  0  0  0  0  0  0  0  0  0  0  0
  146.7535  136.0388  154.3223 C   0  0  0  0  0  0  0  0  0  0  0  0
  145.9880  137.0149  152.1642 C   0  0  0  0  0  0  0  0  0  0  0  0
  144.7479  137.5175  154.3169 C   0  0  0  0  0  0  0  0  0  0  0  0
  148.1291  138.4553  154.6111 N   0  0  0  0  0  0  0  0  0  0  0  0
  151.2816  139.3615  154.7731 C   0  0  0  0  0  0  0  0  0  0  0  0
  152.4832  139.0288  155.6727 C   0  0  0  0  0  0  0  0  0  0  0  0
  152.5350  139.9533  156.7558 O   0  0  0  0  0  0  0  0  0  0  0  0
  151.7877  144.6209  157.4216 H   0  0  0  0  0  0  0  0  0  0  0  0
  152.8565  145.2000  158.7029 H   0  0  0  0  0  0  0  0  0  0  0  0
  151.1030  145.2703  158.9166 H   0  0  0  0  0  0  0  0  0  0  0  0
  151.4102  142.4570  157.3780 H   0  0  0  0  0  0  0  0  0  0  0  0
  152.5232  140.6291  159.2601 H   0  0  0  0  0  0  0  0  0  0  0  0
  150.7967  140.7244  159.5031 H   0  0  0  0  0  0  0  0  0  0  0  0
  151.2602  138.8840  157.9609 H   0  0  0  0  0  0  0  0  0  0  0  0
  149.2252  140.1713  157.3037 H   0  0  0  0  0  0  0  0  0  0  0  0
  150.2086  141.2947  156.3781 H   0  0  0  0  0  0  0  0  0  0  0  0
  149.1351  141.6779  154.4012 H   0  0  0  0  0  0  0  0  0  0  0  0
  146.9582  141.7244  153.0399 H   0  0  0  0  0  0  0  0  0  0  0  0
  146.1258  135.1609  154.1637 H   0  0  0  0  0  0  0  0  0  0  0  0
  146.8717  136.1562  155.4004 H   0  0  0  0  0  0  0  0  0  0  0  0
  147.7345  135.8112  153.9030 H   0  0  0  0  0  0  0  0  0  0  0  0
  146.9611  136.8591  151.6968 H   0  0  0  0  0  0  0  0  0  0  0  0
  145.5007  137.8386  151.6417 H   0  0  0  0  0  0  0  0  0  0  0  0
  145.3902  136.1210  151.9831 H   0  0  0  0  0  0  0  0  0  0  0  0
  144.1127  136.6384  154.2015 H   0  0  0  0  0  0  0  0  0  0  0  0
  144.2201  138.3578  153.8647 H   0  0  0  0  0  0  0  0  0  0  0  0
  144.8361  137.7209  155.3848 H   0  0  0  0  0  0  0  0  0  0  0  0
  151.1993  138.6276  153.9704 H   0  0  0  0  0  0  0  0  0  0  0  0
  151.4291  140.3365  154.3070 H   0  0  0  0  0  0  0  0  0  0  0  0
  152.4154  138.0084  156.0536 H   0  0  0  0  0  0  0  0  0  0  0  0
  153.4099  139.0962  155.1028 H   0  0  0  0  0  0  0  0  0  0  0  0
  145.7424  139.7530  152.7927 H   0  0  0  0  0  0  0  0  0  0  0  0
  1  2  1  0  0  0  0
  1 22  1  0  0  0  0
  1 23  1  0  0  0  0
  1 24  1  0  0  0  0
  2  3  2  0  0  0  0
  2  4  1  0  0  0  0
  4  5  1  0  0  0  0
  4 25  1  0  0  0  0
  5  6  1  0  0  0  0
  5 26  1  0  0  0  0
  5 27  1  0  0  0  0
  6 21  1  0  0  0  0
  6  7  1  0  0  0  0
  6 28  1  0  0  0  0
  7  8  1  0  0  0  0
  7 29  1  0  0  0  0
  7 30  1  0  0  0  0
  8  9  1  0  0  0  0
  8 19  1  0  0  0  0
  9 18  1  0  0  0  0
  9 10  2  0  0  0  0
 10 11  1  0  0  0  0
 10 31  1  0  0  0  0
 11 12  2  0  0  0  0
 11 32  1  0  0  0  0
 12 13  1  0  0  0  0
 12 46  1  0  0  0  0
 13 14  1  0  0  0  0
 13 18  2  0  0  0  0
 14 15  1  0  0  0  0
 14 16  1  0  0  0  0
 14 17  1  0  0  0  0
 15 33  1  0  0  0  0
 15 34  1  0  0  0  0
 15 35  1  0  0  0  0
 16 36  1  0  0  0  0
 16 37  1  0  0  0  0
 16 38  1  0  0  0  0
 17 39  1  0  0  0  0
 17 40  1  0  0  0  0
 17 41  1  0  0  0  0
 19 20  1  0  0  0  0
 19 42  1  0  0  0  0
 19 43  1  0  0  0  0
 20 21  1  0  0  0  0
 20 44  1  0  0  0  0
 20 45  1  0  0  0  0
M  CHG  1  12   1
M  END
> <s_m_source_file>
AV-unprocessed.smi

> <i_m_source_file_index>
2413

> <i_lp_mmshare_version>
43012

> <i_f3d_flags>
0

> <s_epik_input>
W0NIM11DKD1PKVtOSF1bQ0gyXVtDQEBIXTFbQ0gyXU4oW0NIMl1bQ0gyXU8xKWMyW2NIXVtjSF1uYyhuMilDKFtDSDNdKShbQ0gzXSlbQ0gzXQ==

> <s_epik_cmdline>
J2VwaWtfcHl0aG9uJywgJy1waCcsICc3LjAnLCAnLXRuJywgJzgnLCAnLW1hJywgJzIwMCcsICctbWV0YWxfYmluZGluZycsICctaW1hZScsICc8aW5maWxlLm1hZT4nLCAnLW9tYWUnLCAnPG91dGZpbGUubWFlPic=

> <r_lp_tautomer_probability>
0.999336

> <r_epik_Ionization_Penalty>
2.26127

> <r_epik_Ionization_Penalty_Charging>
2.26127

> <r_epik_Ionization_Penalty_Neutral>
4.08984e-07

> <r_epik_State_Penalty>
2.40914

> <r_epik_Charging_Adjusted_Penalty>
4.67041

> <i_epik_Tot_Q>
1

> <i_epik_Tot_abs_Q>
1

> <r_epik_Metal_State_Penalty>
2.42208

> <b_epik_Metal_Only>
0

> <s_lp_Force_Field>
OPLS_2005

> <r_lp_Energy>
19.627

> <b_lp_Chiralities_Consistent>
1

> <s_lp_Variant>
AV-unprocessed.smi:2413-4

> <Gold.Version>
5.8.1

> <Gold.Id.Protein>
6NUR|6NUR_protein|mol2

> <Gold.PLP.Fitness>
42.1382

> <Gold.PLP.PLP>
-33.5329

> <Gold.PLP.part.hbond>
-2.0000

> <Gold.PLP.part.metal>
0.0000

> <Gold.PLP.part.buried>
-3.5960

> <Gold.PLP.part.nonpolar>
-28.5767

> <Gold.PLP.part.repulsive>
0.1966

> <Gold.PLP.ligand.clash>
0.0000

> <Gold.PLP.ligand.torsion>
0.2659

> <Gold.PLP.Chemscore.Hbond>
3.0000

> <Gold.PLP.Chemscore.CHOScore>
0.0000

> <Gold.PLP.Chemscore.Metal>
0.0000

> <Gold.Chemscore.Hbonds>
donor molecule, donor type, donor heavy atom, donor atom, acceptor molecule, acceptor atom, score
      L1  H    12    46       P1 10175  1.14
      P1  H  7997  8010       L1    21  0.50

> <Gold.PLP.Chemscore.Internal.Correction>
0.1372

> <Gold.Rescore>
     Score         DG    S(hbond)    S(metal)    S(lipo)     H(rot)  DE(clash)    DE(int)     intcor
     15.51     -16.01       1.97        0.00      72.43       1.77       0.12       0.38       ----

> <Gold.Chemscore.Fitness>
15.5144

> <Gold.Chemscore.DG>
-16.0081

> <Gold.Chemscore.ZeroCoef>
-5.4800

> <Gold.Chemscore.Hbond>
1.9729

> <Gold.Chemscore.Metal>
0.0000

> <Gold.Chemscore.Lipo>
72.4321

> <Gold.Chemscore.Internal_Hbond>
0.0000

> <Gold.Chemscore.DEClash>
0.1181

> <Gold.Chemscore.DEInternal>
0.3756

> <Gold.Chemscore.Rot>
1.7719

> <Gold.Chemscore.Internal.Correction>
   9.000000E+99

> <Gold.Chemscore.Hbonds>
donor molecule, donor type, donor heavy atom, donor atom, acceptor molecule, acceptor atom, score
      L1  H    12    46       P1 10175  0.54
      P1  H  7997  8010       L1    21  0.02

> <Gold.Chemscore.Hbond.Weighted>
-6.5896

> <Gold.Chemscore.Metal.Weighted>
-0.0000

> <Gold.Chemscore.Lipo.Weighted>
-8.4746

> <Gold.Chemscore.Internal_Hbond.Weighted>
0.0000

> <Gold.Chemscore.DEClash.Weighted>
0.1181

> <Gold.Chemscore.DEInternal.Weighted>
0.3756

> <Gold.Chemscore.Rot.Weighted>
4.5361

> <Gold.Chemscore.Internal.Correction.Weighted>
   9.000000E+99

> <Gold.Protein.RotatedTorsions>
[ 6907 6896 6895 6894 ] final    8.66 input  -60.11 | X-H torsion
[ 7974 7965 7964 7962 ] final  -64.73 input  175.53 | X-H torsion
[ 8008 7997 7996 7995 ] final   65.62 input   59.86 | X-H torsion
[ 10167 10162 10161 10158 ] final -148.51 input  -65.29 | X-H torsion
[ 10718 10713 10712 10709 ] final   51.15 input   66.30 | X-H torsion
[ 10763 10752 10751 10750 ] final   97.73 input  -60.55 | X-H torsion
[ 11005 11000 10999 10996 ] final  -32.49 input  -57.11 | X-H torsion

> <Gold.Protein.ActiveResidues>
 VAL166  LYS551  ARG553  GLY616  TRP617  ASP618  TYR619  PRO620  LYS621  CYS622 
 ASP623  PHE694  ASN695  SER759  ASP760  ASP761  ALA762  ILE779  LEU786  VAL792 
 PHE793  MET794  SER795  GLU796  ALA797  LYS798  CYS799  TRP800  GLU811  SER814 

> <Gold.Protein.RotatedAtoms>
  151.7095  135.0915  160.0265 H   0  0  0  0  0  0  0  0  0  0  0  0  # atno 6907 bound_to 6896
  152.3670  133.6365  159.6066 H   0  0  0  0  0  0  0  0  0  0  0  0  # atno 6908 bound_to 6896
  150.7645  133.9248  159.3450 H   0  0  0  0  0  0  0  0  0  0  0  0  # atno 6909 bound_to 6896
  145.7631  140.8851  143.0419 H   0  0  0  0  0  0  0  0  0  0  0  0  # atno 7974 bound_to 7965
  155.6646  140.3497  155.4795 H   0  0  0  0  0  0  0  0  0  0  0  0  # atno 8008 bound_to 7997
  155.9739  140.1161  157.0810 H   0  0  0  0  0  0  0  0  0  0  0  0  # atno 8009 bound_to 7997
  154.4173  140.1151  156.5330 H   0  0  0  0  0  0  0  0  0  0  0  0  # atno 8010 bound_to 7997
  139.7525  143.8497  152.2590 H   0  0  0  0  0  0  0  0  0  0  0  0  # atno 10167 bound_to 10162
  157.4953  130.8403  149.8252 H   0  0  0  0  0  0  0  0  0  0  0  0  # atno 10718 bound_to 10713
  153.2804  135.4173  155.1073 H   0  0  0  0  0  0  0  0  0  0  0  0  # atno 10763 bound_to 10752
  154.8487  135.3494  154.6120 H   0  0  0  0  0  0  0  0  0  0  0  0  # atno 10764 bound_to 10752
  153.6540  135.7051  153.5257 H   0  0  0  0  0  0  0  0  0  0  0  0  # atno 10765 bound_to 10752
  140.9557  133.7194  156.1289 H   0  0  0  0  0  0  0  0  0  0  0  0  # atno 11005 bound_to 11000
  144.6826  139.9751  143.7482 LP  0  0  0  0  0  0  0  0  0  0  0  0  # atno 17320 bound_to 7965
  146.0244  139.3279  143.0793 LP  0  0  0  0  0  0  0  0  0  0  0  0  # atno 17321 bound_to 7965
  139.8479  144.7178  150.9250 LP  0  0  0  0  0  0  0  0  0  0  0  0  # atno 17342 bound_to 10162
  140.7799  143.3925  151.1286 LP  0  0  0  0  0  0  0  0  0  0  0  0  # atno 17343 bound_to 10162
  156.0197  130.3800  150.2000 LP  0  0  0  0  0  0  0  0  0  0  0  0  # atno 17370 bound_to 10713
  157.0189  130.9973  151.3345 LP  0  0  0  0  0  0  0  0  0  0  0  0  # atno 17371 bound_to 10713
  140.7540  134.4013  157.5537 LP  0  0  0  0  0  0  0  0  0  0  0  0  # atno 17394 bound_to 11000
  139.8861  134.8918  156.2603 LP  0  0  0  0  0  0  0  0  0  0  0  0  # atno 17395 bound_to 11000

$$$$
