AV-unprocessed.smi:190|AV-procd|sdf|1492|dock5
  -GOLD-   2262019313D 1   1.00000     0.00000
 Structure written by MMmdl.
 54 58  0  0  0  0  0  0  0  0  1 V2000
  151.1262  134.2521  154.2300 O   0  0  0  0  0  0  0  0  0  0  0  0
  149.9546  134.9204  154.6546 C   0  0  0  0  0  0  0  0  0  0  0  0
  150.2311  136.3907  155.0689 C   0  0  0  0  0  0  0  0  0  0  0  0
  148.9984  137.0094  155.8026 C   0  0  0  0  0  0  0  0  0  0  0  0
  148.6885  136.4168  157.0968 N   0  0  0  0  0  0  0  0  0  0  0  0
  149.5031  136.3864  158.2070 C   0  0  0  0  0  0  0  0  0  0  0  0
  149.0001  135.7915  159.2535 N   0  0  0  0  0  0  0  0  0  0  0  0
  147.7548  135.3508  158.8252 C   0  0  0  0  0  0  0  0  0  0  0  0
  146.6967  134.6287  159.4400 C   0  0  0  0  0  0  0  0  0  0  0  0
  146.7680  134.1909  160.7212 N   0  0  0  0  0  0  0  0  0  0  0  0
  147.9132  133.3594  161.0791 C   0  0  0  0  0  0  0  0  0  0  0  0
  147.9872  133.3718  162.6125 C   0  0  0  0  0  0  0  0  0  0  0  0
  146.8070  134.2412  163.0547 C   0  0  0  0  0  0  0  0  0  0  0  0
  146.5195  135.1192  161.8304 C   0  0  2  0  0  0  0  0  0  0  0  0
  145.1292  135.7468  161.8487 C   0  0  0  0  0  0  0  0  0  0  0  0
  145.2944  137.0815  161.1155 C   0  0  0  0  0  0  0  0  0  0  0  0
  146.6950  137.3077  160.9904 O   0  0  0  0  0  0  0  0  0  0  0  0
  147.4080  136.3748  161.7914 C   0  0  0  0  0  0  0  0  0  0  0  0
  145.5853  134.3841  158.6965 N   0  0  0  0  0  0  0  0  0  0  0  0
  145.5225  134.7967  157.4277 C   0  0  0  0  0  0  0  0  0  0  0  0
  146.4358  135.4662  156.7223 N   0  0  0  0  0  0  0  0  0  0  0  0
  147.5443  135.7322  157.4704 C   0  0  0  0  0  0  0  0  0  0  0  0
  151.4958  136.3954  155.9646 C   0  0  0  0  0  0  0  0  0  0  0  0
  152.0634  137.8087  156.1901 C   0  0  0  0  0  0  0  0  0  0  0  0
  152.3500  138.4190  154.9389 O   0  0  0  0  0  0  0  0  0  0  0  0
  151.1907  138.5905  154.1344 C   0  0  0  0  0  0  0  0  0  0  0  0
  150.5713  137.2198  153.8046 C   0  0  0  0  0  0  0  0  0  0  0  0
  151.0602  134.0922  153.3008 H   0  0  0  0  0  0  0  0  0  0  0  0
  149.2118  134.8684  153.8587 H   0  0  0  0  0  0  0  0  0  0  0  0
  149.5380  134.3592  155.4918 H   0  0  0  0  0  0  0  0  0  0  0  0
  149.1292  138.0798  155.9548 H   0  0  0  0  0  0  0  0  0  0  0  0
  148.1089  136.9187  155.1782 H   0  0  0  0  0  0  0  0  0  0  0  0
  150.4880  136.8302  158.2198 H   0  0  0  0  0  0  0  0  0  0  0  0
  147.7565  132.3471  160.7055 H   0  0  0  0  0  0  0  0  0  0  0  0
  148.8462  133.7314  160.6545 H   0  0  0  0  0  0  0  0  0  0  0  0
  147.9347  132.3693  163.0378 H   0  0  0  0  0  0  0  0  0  0  0  0
  148.9282  133.8212  162.9325 H   0  0  0  0  0  0  0  0  0  0  0  0
  145.9474  133.6002  163.2573 H   0  0  0  0  0  0  0  0  0  0  0  0
  147.0137  134.8083  163.9630 H   0  0  0  0  0  0  0  0  0  0  0  0
  144.3525  135.1108  161.4267 H   0  0  0  0  0  0  0  0  0  0  0  0
  144.8386  135.9556  162.8793 H   0  0  0  0  0  0  0  0  0  0  0  0
  144.8477  137.0490  160.1216 H   0  0  0  0  0  0  0  0  0  0  0  0
  144.8245  137.8959  161.6674 H   0  0  0  0  0  0  0  0  0  0  0  0
  147.5075  136.8057  162.7885 H   0  0  0  0  0  0  0  0  0  0  0  0
  148.4137  136.1957  161.4101 H   0  0  0  0  0  0  0  0  0  0  0  0
  144.6099  134.5564  156.9028 H   0  0  0  0  0  0  0  0  0  0  0  0
  151.3010  135.9115  156.9214 H   0  0  0  0  0  0  0  0  0  0  0  0
  152.2765  135.7984  155.4908 H   0  0  0  0  0  0  0  0  0  0  0  0
  151.3786  138.4344  156.7622 H   0  0  0  0  0  0  0  0  0  0  0  0
  152.9860  137.7486  156.7675 H   0  0  0  0  0  0  0  0  0  0  0  0
  150.4768  139.2454  154.6349 H   0  0  0  0  0  0  0  0  0  0  0  0
  151.4809  139.0961  153.2133 H   0  0  0  0  0  0  0  0  0  0  0  0
  151.2827  136.6692  153.1877 H   0  0  0  0  0  0  0  0  0  0  0  0
  149.6833  137.3587  153.1871 H   0  0  0  0  0  0  0  0  0  0  0  0
  1  2  1  0  0  0  0
  1 28  1  0  0  0  0
  2  3  1  0  0  0  0
  2 29  1  0  0  0  0
  2 30  1  0  0  0  0
  3 27  1  0  0  0  0
  3  4  1  0  0  0  0
  3 23  1  0  0  0  0
  4  5  1  0  0  0  0
  4 31  1  0  0  0  0
  4 32  1  0  0  0  0
  5 22  1  0  0  0  0
  5  6  1  0  0  0  0
  6  7  2  0  0  0  0
  6 33  1  0  0  0  0
  7  8  1  0  0  0  0
  8 22  2  0  0  0  0
  8  9  1  0  0  0  0
  9 10  1  0  0  0  0
  9 19  2  0  0  0  0
 10 14  1  0  0  0  0
 10 11  1  0  0  0  0
 11 12  1  0  0  0  0
 11 34  1  0  0  0  0
 11 35  1  0  0  0  0
 12 13  1  0  0  0  0
 12 36  1  0  0  0  0
 12 37  1  0  0  0  0
 13 14  1  0  0  0  0
 13 38  1  0  0  0  0
 13 39  1  0  0  0  0
 14 18  1  0  0  0  0
 14 15  1  0  0  0  0
 15 16  1  0  0  0  0
 15 40  1  0  0  0  0
 15 41  1  0  0  0  0
 16 17  1  0  0  0  0
 16 42  1  0  0  0  0
 16 43  1  0  0  0  0
 17 18  1  0  0  0  0
 18 44  1  0  0  0  0
 18 45  1  0  0  0  0
 19 20  1  0  0  0  0
 20 21  2  0  0  0  0
 20 46  1  0  0  0  0
 21 22  1  0  0  0  0
 23 24  1  0  0  0  0
 23 47  1  0  0  0  0
 23 48  1  0  0  0  0
 24 25  1  0  0  0  0
 24 49  1  0  0  0  0
 24 50  1  0  0  0  0
 25 26  1  0  0  0  0
 26 27  1  0  0  0  0
 26 51  1  0  0  0  0
 26 52  1  0  0  0  0
 27 53  1  0  0  0  0
 27 54  1  0  0  0  0
M  END
> <s_m_source_file>
AV-unprocessed.smi

> <i_m_source_file_index>
190

> <i_lp_mmshare_version>
43012

> <i_f3d_flags>
0

> <s_epik_input>
W0NIMl0xW0NIMl1PW0NIMl1bQ0gyXUMxKFtDSDJdW09IXSlbQ0gyXW4oW2NIXW4yKWMoYzIzKW5bY0hdbmMzTihbQ0gyXVtDSDJdW0NIMl00KVtDQF00NVtDSDJdW0NIMl1PW0NIMl01

> <s_epik_cmdline>
J2VwaWtfcHl0aG9uJywgJy1waCcsICc3LjAnLCAnLXRuJywgJzgnLCAnLW1hJywgJzIwMCcsICctbWV0YWxfYmluZGluZycsICctaW1hZScsICc8aW5maWxlLm1hZT4nLCAnLW9tYWUnLCAnPG91dGZpbGUubWFlPic=

> <r_lp_tautomer_probability>
1

> <r_epik_Ionization_Penalty>
0.00423054

> <r_epik_Ionization_Penalty_Charging>
0

> <r_epik_Ionization_Penalty_Neutral>
0.00423054

> <r_epik_State_Penalty>
0.00298851

> <r_epik_Charging_Adjusted_Penalty>
0.00298851

> <i_epik_Tot_Q>
0

> <i_epik_Tot_abs_Q>
0

> <r_epik_Metal_State_Penalty>
-0

> <b_epik_Metal_Only>
0

> <s_lp_Force_Field>
OPLS_2005

> <r_lp_Energy>
69.5451

> <b_lp_Chiralities_Consistent>
1

> <s_lp_Variant>
AV-unprocessed.smi:190-2

> <Gold.Version>
5.8.1

> <Gold.Id.Protein>
6NUR|6NUR_protein|mol2

> <Gold.PLP.Fitness>
49.4724

> <Gold.PLP.PLP>
-36.5189

> <Gold.PLP.part.hbond>
-6.1273

> <Gold.PLP.part.metal>
0.0000

> <Gold.PLP.part.buried>
-3.7918

> <Gold.PLP.part.nonpolar>
-27.5641

> <Gold.PLP.part.repulsive>
0.0000

> <Gold.PLP.ligand.clash>
0.0032

> <Gold.PLP.ligand.torsion>
0.4478

> <Gold.PLP.Chemscore.Hbond>
4.5463

> <Gold.PLP.Chemscore.CHOScore>
0.0000

> <Gold.PLP.Chemscore.Metal>
0.0000

> <Gold.Chemscore.Hbonds>
donor molecule, donor type, donor heavy atom, donor atom, acceptor molecule, acceptor atom, score
      P1  H  6896  6908       L1     7  0.64
      P1  H  6934  6947       L1    17  1.00
      P1  H 10752 10763       L1     1  0.17

> <Gold.PLP.Chemscore.Internal.Correction>
0.2133

> <Gold.Rescore>
     Score         DG    S(hbond)    S(metal)    S(lipo)     H(rot)  DE(clash)    DE(int)     intcor
     19.16     -21.20       3.51        0.00      86.09       2.37       0.03       2.01       ----

> <Gold.Chemscore.Fitness>
19.1582

> <Gold.Chemscore.DG>
-21.2037

> <Gold.Chemscore.ZeroCoef>
-5.4800

> <Gold.Chemscore.Hbond>
3.5061

> <Gold.Chemscore.Metal>
0.0000

> <Gold.Chemscore.Lipo>
86.0864

> <Gold.Chemscore.Internal_Hbond>
0.0000

> <Gold.Chemscore.DEClash>
0.0331

> <Gold.Chemscore.DEInternal>
2.0124

> <Gold.Chemscore.Rot>
2.3666

> <Gold.Chemscore.Internal.Correction>
   9.000000E+99

> <Gold.Chemscore.Hbonds>
donor molecule, donor type, donor heavy atom, donor atom, acceptor molecule, acceptor atom, score
      P1  H  6896  6908       L1     7  0.06
      P1  H  6934  6947       L1    17  0.87
      P1  H 10752 10763       L1     1  0.04

> <Gold.Chemscore.Hbond.Weighted>
-11.7102

> <Gold.Chemscore.Metal.Weighted>
-0.0000

> <Gold.Chemscore.Lipo.Weighted>
-10.0721

> <Gold.Chemscore.Internal_Hbond.Weighted>
0.0000

> <Gold.Chemscore.DEClash.Weighted>
0.0331

> <Gold.Chemscore.DEInternal.Weighted>
2.0124

> <Gold.Chemscore.Rot.Weighted>
6.0586

> <Gold.Chemscore.Internal.Correction.Weighted>
   9.000000E+99

> <Gold.Protein.RotatedTorsions>
[ 6907 6896 6895 6894 ] final  178.10 input  -60.11 | X-H torsion
[ 7974 7965 7964 7962 ] final -131.60 input  175.53 | X-H torsion
[ 8008 7997 7996 7995 ] final  159.86 input   59.86 | X-H torsion
[ 10167 10162 10161 10158 ] final   -6.58 input  -65.29 | X-H torsion
[ 10718 10713 10712 10709 ] final  -62.91 input   66.30 | X-H torsion
[ 10763 10752 10751 10750 ] final   44.30 input  -60.55 | X-H torsion
[ 11005 11000 10999 10996 ] final  155.16 input  -57.11 | X-H torsion

> <Gold.Protein.ActiveResidues>
 VAL166  LYS551  ARG553  GLY616  TRP617  ASP618  TYR619  PRO620  LYS621  CYS622 
 ASP623  PHE694  ASN695  SER759  ASP760  ASP761  ALA762  ILE779  LEU786  VAL792 
 PHE793  MET794  SER795  GLU796  ALA797  LYS798  CYS799  TRP800  GLU811  SER814 

> <Gold.Protein.RotatedAtoms>
  151.6933  133.3311  159.3248 H   0  0  0  0  0  0  0  0  0  0  0  0  # atno 6907 bound_to 6896
  150.7769  134.6679  159.6385 H   0  0  0  0  0  0  0  0  0  0  0  0  # atno 6908 bound_to 6896
  152.3814  134.6588  160.0193 H   0  0  0  0  0  0  0  0  0  0  0  0  # atno 6909 bound_to 6896
  144.9363  140.7188  143.4874 H   0  0  0  0  0  0  0  0  0  0  0  0  # atno 7974 bound_to 7965
  156.2211  140.1820  156.7475 H   0  0  0  0  0  0  0  0  0  0  0  0  # atno 8008 bound_to 7997
  154.5867  140.0657  156.9209 H   0  0  0  0  0  0  0  0  0  0  0  0  # atno 8009 bound_to 7997
  155.2408  140.3322  155.4295 H   0  0  0  0  0  0  0  0  0  0  0  0  # atno 8010 bound_to 7997
  140.7001  143.6178  150.8641 H   0  0  0  0  0  0  0  0  0  0  0  0  # atno 10167 bound_to 10162
  156.0824  130.4214  150.1203 H   0  0  0  0  0  0  0  0  0  0  0  0  # atno 10718 bound_to 10713
  152.9844  135.6075  154.3252 H   0  0  0  0  0  0  0  0  0  0  0  0  # atno 10763 bound_to 10752
  154.2959  135.2774  155.2635 H   0  0  0  0  0  0  0  0  0  0  0  0  # atno 10764 bound_to 10752
  154.4910  135.5892  153.6515 H   0  0  0  0  0  0  0  0  0  0  0  0  # atno 10765 bound_to 10752
  140.1556  134.8645  157.2510 H   0  0  0  0  0  0  0  0  0  0  0  0  # atno 11005 bound_to 11000
  145.3061  139.1834  143.4664 LP  0  0  0  0  0  0  0  0  0  0  0  0  # atno 17320 bound_to 7965
  146.3268  140.3059  142.8623 LP  0  0  0  0  0  0  0  0  0  0  0  0  # atno 17321 bound_to 7965
  139.9900  143.5858  152.2913 LP  0  0  0  0  0  0  0  0  0  0  0  0  # atno 17342 bound_to 10162
  139.6509  144.7660  151.2149 LP  0  0  0  0  0  0  0  0  0  0  0  0  # atno 17343 bound_to 10162
  156.9231  130.9689  151.3545 LP  0  0  0  0  0  0  0  0  0  0  0  0  # atno 17370 bound_to 10713
  157.5946  130.8468  149.8710 LP  0  0  0  0  0  0  0  0  0  0  0  0  # atno 17371 bound_to 10713
  140.2552  134.3636  155.7427 LP  0  0  0  0  0  0  0  0  0  0  0  0  # atno 17394 bound_to 11000
  141.2204  133.7338  156.8996 LP  0  0  0  0  0  0  0  0  0  0  0  0  # atno 17395 bound_to 11000

$$$$
