AV-unprocessed.smi:1566|AV-procd|sdf|6304|dock1
  -GOLD-   22720 6503D 1   1.00000     0.00000
 Structure written by MMmdl.
 42 43  0  0  0  0  0  0  0  0  1 V2000
  145.7886  137.1386  151.9411 C   0  0  0  0  0  0  0  0  0  0  0  0
  146.4567  138.5100  151.7770 C   0  0  0  0  0  0  0  0  0  0  0  0
  147.7205  138.5778  152.5014 N   0  0  0  0  0  0  0  0  0  0  0  0
  147.9901  139.4276  153.5026 C   0  0  0  0  0  0  0  0  0  0  0  0
  147.1811  140.2493  153.9334 O   0  0  0  0  0  0  0  0  0  0  0  0
  149.2502  139.2730  153.9435 N   0  0  0  0  0  0  0  0  0  0  0  0
  149.9193  139.9912  154.9703 C   0  0  0  0  0  0  0  0  0  0  0  0
  151.2621  139.7639  155.3550 C   0  0  0  0  0  0  0  0  0  0  0  0
  151.8200  140.5560  156.3767 C   0  0  0  0  0  0  0  0  0  0  0  0
  151.0233  141.5515  156.9782 C   0  0  0  0  0  0  0  0  0  0  0  0
  151.5757  142.3409  157.9965 N   0  0  0  0  0  0  0  0  0  0  0  0
  150.6125  143.2489  158.6051 C   0  0  0  0  0  0  0  0  0  0  0  0
  151.3068  144.1849  159.6146 C   0  0  2  0  0  0  0  0  0  0  0  0
  152.1405  145.2940  158.9488 C   0  0  0  0  0  0  0  0  0  0  0  0
  152.0751  143.4198  160.5479 O   0  0  0  0  0  0  0  0  0  0  0  0
  153.0349  142.5413  159.9588 C   0  0  1  0  0  0  0  0  0  0  0  0
  153.7481  141.7897  161.0874 C   0  0  0  0  0  0  0  0  0  0  0  0
  152.3230  141.5813  158.9892 C   0  0  0  0  0  0  0  0  0  0  0  0
  149.7429  141.7846  156.6043 N   0  0  0  0  0  0  0  0  0  0  0  0
  149.2152  141.0241  155.6224 C   0  0  0  0  0  0  0  0  0  0  0  0
  144.8343  137.1076  151.4150 H   0  0  0  0  0  0  0  0  0  0  0  0
  145.5965  136.9169  152.9913 H   0  0  0  0  0  0  0  0  0  0  0  0
  146.4139  136.3412  151.5384 H   0  0  0  0  0  0  0  0  0  0  0  0
  146.6113  138.7330  150.7201 H   0  0  0  0  0  0  0  0  0  0  0  0
  145.7989  139.2878  152.1654 H   0  0  0  0  0  0  0  0  0  0  0  0
  148.4462  137.9391  152.2109 H   0  0  0  0  0  0  0  0  0  0  0  0
  149.8205  138.6131  153.4351 H   0  0  0  0  0  0  0  0  0  0  0  0
  151.8752  139.0129  154.8813 H   0  0  0  0  0  0  0  0  0  0  0  0
  152.8422  140.4019  156.6901 H   0  0  0  0  0  0  0  0  0  0  0  0
  150.1052  143.8305  157.8343 H   0  0  0  0  0  0  0  0  0  0  0  0
  149.8467  142.6655  159.1190 H   0  0  0  0  0  0  0  0  0  0  0  0
  150.5290  144.6815  160.1949 H   0  0  0  0  0  0  0  0  0  0  0  0
  151.5075  145.9365  158.3362 H   0  0  0  0  0  0  0  0  0  0  0  0
  152.9186  144.8944  158.2991 H   0  0  0  0  0  0  0  0  0  0  0  0
  152.6204  145.9227  159.6990 H   0  0  0  0  0  0  0  0  0  0  0  0
  153.7807  143.1229  159.4164 H   0  0  0  0  0  0  0  0  0  0  0  0
  154.5018  141.1096  160.6900 H   0  0  0  0  0  0  0  0  0  0  0  0
  153.0443  141.2022  161.6777 H   0  0  0  0  0  0  0  0  0  0  0  0
  154.2500  142.4845  161.7612 H   0  0  0  0  0  0  0  0  0  0  0  0
  151.6445  140.9285  159.5407 H   0  0  0  0  0  0  0  0  0  0  0  0
  153.0523  140.9416  158.4905 H   0  0  0  0  0  0  0  0  0  0  0  0
  148.1924  141.2450  155.3538 H   0  0  0  0  0  0  0  0  0  0  0  0
  1  2  1  0  0  0  0
  1 21  1  0  0  0  0
  1 22  1  0  0  0  0
  1 23  1  0  0  0  0
  2  3  1  0  0  0  0
  2 24  1  0  0  0  0
  2 25  1  0  0  0  0
  3  4  1  0  0  0  0
  3 26  1  0  0  0  0
  4  5  2  0  0  0  0
  4  6  1  0  0  0  0
  6  7  1  0  0  0  0
  6 27  1  0  0  0  0
  7 20  1  0  0  0  0
  7  8  2  0  0  0  0
  8  9  1  0  0  0  0
  8 28  1  0  0  0  0
  9 10  2  0  0  0  0
  9 29  1  0  0  0  0
 10 11  1  0  0  0  0
 10 19  1  0  0  0  0
 11 18  1  0  0  0  0
 11 12  1  0  0  0  0
 12 13  1  0  0  0  0
 12 30  1  0  0  0  0
 12 31  1  0  0  0  0
 13 14  1  0  0  0  0
 13 15  1  0  0  0  0
 13 32  1  0  0  0  0
 14 33  1  0  0  0  0
 14 34  1  0  0  0  0
 14 35  1  0  0  0  0
 15 16  1  0  0  0  0
 16 17  1  0  0  0  0
 16 18  1  0  0  0  0
 16 36  1  0  0  0  0
 17 37  1  0  0  0  0
 17 38  1  0  0  0  0
 17 39  1  0  0  0  0
 18 40  1  0  0  0  0
 18 41  1  0  0  0  0
 19 20  2  0  0  0  0
 20 42  1  0  0  0  0
M  END
> <s_m_source_file>
AV-unprocessed.smi

> <i_m_source_file_index>
1566

> <i_lp_mmshare_version>
43012

> <i_f3d_flags>
0

> <s_epik_input>
W0NIM11bQ0gyXVtOSF1DKD1PKVtOSF1jMVtjSF1bY0hdYyhuW2NIXTEpTjJbQ0gyXVtDQEBIXShbQ0gzXSlPW0NAQEhdKFtDSDNdKVtDSDJdMg==

> <s_epik_cmdline>
J2VwaWtfcHl0aG9uJywgJy1waCcsICc3LjAnLCAnLXRuJywgJzgnLCAnLW1hJywgJzIwMCcsICctbWV0YWxfYmluZGluZycsICctaW1hZScsICc8aW5maWxlLm1hZT4nLCAnLW9tYWUnLCAnPG91dGZpbGUubWFlPic=

> <r_lp_tautomer_probability>
1

> <r_epik_Ionization_Penalty>
0.0027066

> <r_epik_Ionization_Penalty_Charging>
0

> <r_epik_Ionization_Penalty_Neutral>
0.0027066

> <r_epik_State_Penalty>
0.00185803

> <r_epik_Charging_Adjusted_Penalty>
0.00185803

> <i_epik_Tot_Q>
0

> <i_epik_Tot_abs_Q>
0

> <r_epik_Metal_State_Penalty>
-0

> <b_epik_Metal_Only>
0

> <s_lp_Force_Field>
OPLS_2005

> <r_lp_Energy>
23.2007

> <b_lp_Chiralities_Consistent>
1

> <s_lp_Variant>
AV-unprocessed.smi:1566-2

> <Gold.Version>
5.8.1

> <Gold.Id.Protein>
6NUR|6NUR_protein|mol2

> <Gold.PLP.Fitness>
44.8920

> <Gold.PLP.PLP>
-42.2210

> <Gold.PLP.part.hbond>
-3.0000

> <Gold.PLP.part.metal>
0.0000

> <Gold.PLP.part.buried>
-3.0081

> <Gold.PLP.part.nonpolar>
-37.5518

> <Gold.PLP.part.repulsive>
0.5273

> <Gold.PLP.ligand.clash>
0.0000

> <Gold.PLP.ligand.torsion>
0.2135

> <Gold.PLP.Chemscore.Hbond>
1.0000

> <Gold.PLP.Chemscore.CHOScore>
0.0000

> <Gold.PLP.Chemscore.Metal>
0.0000

> <Gold.Chemscore.Hbonds>
donor molecule, donor type, donor heavy atom, donor atom, acceptor molecule, acceptor atom, score
      L1  H     3    26       P1  7948  0.99

> <Gold.PLP.Chemscore.Internal.Correction>
0.0981

> <Gold.Rescore>
     Score         DG    S(hbond)    S(metal)    S(lipo)     H(rot)  DE(clash)    DE(int)     intcor
     16.11     -18.10       1.00        0.00     105.35       1.19       0.17       1.82       ----

> <Gold.Chemscore.Fitness>
16.1116

> <Gold.Chemscore.DG>
-18.1015

> <Gold.Chemscore.ZeroCoef>
-5.4800

> <Gold.Chemscore.Hbond>
0.9986

> <Gold.Chemscore.Metal>
0.0000

> <Gold.Chemscore.Lipo>
105.3493

> <Gold.Chemscore.Internal_Hbond>
0.0000

> <Gold.Chemscore.DEClash>
0.1722

> <Gold.Chemscore.DEInternal>
1.8177

> <Gold.Chemscore.Rot>
1.1873

> <Gold.Chemscore.Internal.Correction>
   9.000000E+99

> <Gold.Chemscore.Hbonds>
donor molecule, donor type, donor heavy atom, donor atom, acceptor molecule, acceptor atom, score
      L1  H     3    26       P1  7948  0.94

> <Gold.Chemscore.Hbond.Weighted>
-3.3352

> <Gold.Chemscore.Metal.Weighted>
-0.0000

> <Gold.Chemscore.Lipo.Weighted>
-12.3259

> <Gold.Chemscore.Internal_Hbond.Weighted>
0.0000

> <Gold.Chemscore.DEClash.Weighted>
0.1722

> <Gold.Chemscore.DEInternal.Weighted>
1.8177

> <Gold.Chemscore.Rot.Weighted>
3.0396

> <Gold.Chemscore.Internal.Correction.Weighted>
   9.000000E+99

> <Gold.Protein.RotatedTorsions>
[ 6907 6896 6895 6894 ] final  -96.75 input  -60.11 | X-H torsion
[ 7974 7965 7964 7962 ] final  -14.07 input  175.53 | X-H torsion
[ 8008 7997 7996 7995 ] final  -46.18 input   59.86 | X-H torsion
[ 10167 10162 10161 10158 ] final  151.69 input  -65.29 | X-H torsion
[ 10718 10713 10712 10709 ] final  179.75 input   66.30 | X-H torsion
[ 10763 10752 10751 10750 ] final  -93.09 input  -60.55 | X-H torsion
[ 11005 11000 10999 10996 ] final -157.31 input  -57.11 | X-H torsion

> <Gold.Protein.ActiveResidues>
 VAL166  LYS551  ARG553  GLY616  TRP617  ASP618  TYR619  PRO620  LYS621  CYS622 
 ASP623  PHE694  ASN695  SER759  ASP760  ASP761  ALA762  ILE779  LEU786  VAL792 
 PHE793  MET794  SER795  GLU796  ALA797  LYS798  CYS799  TRP800  GLU811  SER814 

> <Gold.Protein.RotatedAtoms>
  150.6997  134.1454  159.4120 H   0  0  0  0  0  0  0  0  0  0  0  0  # atno 6907 bound_to 6896
  151.9438  135.0199  160.0547 H   0  0  0  0  0  0  0  0  0  0  0  0  # atno 6908 bound_to 6896
  152.2071  133.4848  159.5126 H   0  0  0  0  0  0  0  0  0  0  0  0  # atno 6909 bound_to 6896
  146.2089  140.3295  142.8397 H   0  0  0  0  0  0  0  0  0  0  0  0  # atno 7974 bound_to 7965
  154.4005  140.1378  156.3969 H   0  0  0  0  0  0  0  0  0  0  0  0  # atno 8008 bound_to 7997
  155.7861  140.3480  155.5303 H   0  0  0  0  0  0  0  0  0  0  0  0  # atno 8009 bound_to 7997
  155.8626  140.0959  157.1594 H   0  0  0  0  0  0  0  0  0  0  0  0  # atno 8010 bound_to 7997
  139.4838  144.5420  151.7549 H   0  0  0  0  0  0  0  0  0  0  0  0  # atno 10167 bound_to 10162
  156.8711  130.9784  151.3073 H   0  0  0  0  0  0  0  0  0  0  0  0  # atno 10718 bound_to 10713
  154.6925  135.5207  153.8412 H   0  0  0  0  0  0  0  0  0  0  0  0  # atno 10763 bound_to 10752
  153.0642  135.6579  154.0401 H   0  0  0  0  0  0  0  0  0  0  0  0  # atno 10764 bound_to 10752
  154.0273  135.2988  155.3353 H   0  0  0  0  0  0  0  0  0  0  0  0  # atno 10765 bound_to 10752
  140.6660  134.4298  157.5233 H   0  0  0  0  0  0  0  0  0  0  0  0  # atno 11005 bound_to 11000
  144.8862  140.7465  143.5955 LP  0  0  0  0  0  0  0  0  0  0  0  0  # atno 17320 bound_to 7965
  145.3216  139.1786  143.4585 LP  0  0  0  0  0  0  0  0  0  0  0  0  # atno 17321 bound_to 7965
  140.4960  144.1239  150.5960 LP  0  0  0  0  0  0  0  0  0  0  0  0  # atno 17342 bound_to 10162
  140.4116  143.2654  151.9825 LP  0  0  0  0  0  0  0  0  0  0  0  0  # atno 17343 bound_to 10162
  157.6195  130.8644  149.9085 LP  0  0  0  0  0  0  0  0  0  0  0  0  # atno 17370 bound_to 10713
  156.0726  130.3683  150.0744 LP  0  0  0  0  0  0  0  0  0  0  0  0  # atno 17371 bound_to 10713
  139.8997  134.8585  156.1949 LP  0  0  0  0  0  0  0  0  0  0  0  0  # atno 17394 bound_to 11000
  141.0429  133.6928  156.1630 LP  0  0  0  0  0  0  0  0  0  0  0  0  # atno 17395 bound_to 11000

$$$$
