#       Name:                AV-unprocessed.smi:1803
#       Creating user name   scv26
#       Creation time:       Fri Mar 27 08:54:39 2020


#       File generated by GOLD software.
#

@<TRIPOS>MOLECULE
AV-unprocessed.smi:1803
    40    42     1
SMALL
NO_CHARGES


@<TRIPOS>ATOM
      1 ****        -2.1150  -2.3976   1.0836 O.2            1 S1                 0.0000
      2 ****        -0.8884  -2.4733   1.1424 C.2            1 S1                 0.0000
      3 ****        -0.2104  -3.6500   1.1203 N.pl3          1 S1                -1.0000
      4 ****         1.1336  -3.7136   1.1612 C.2            1 S1                 0.0000
      5 ****         1.8915  -3.6706   0.0532 N.2            1 S1                 0.0000
      6 ****         3.2519  -3.7400   0.3199 N.2            1 S1                 0.0000
      7 ****         3.4859  -3.8489   1.6275 C.2            1 S1                 0.0000
      8 ****         2.0658  -3.8687   2.6519 S.3            1 S1                 0.0000
      9 ****        -0.1709  -1.3363   1.2218 N.am           1 S1                 0.0000
     10 ****        -0.7134   0.0184   1.2006 C.3            1 S1                 0.0000
     11 ****         0.3037   1.0823   1.6339 C.3            1 S1                 0.0000
     12 ****        -0.0568   2.3368   0.8186 C.3            1 S1                 0.0000
     13 ****        -1.2057   1.9578  -0.0336 N.4            1 S1                 1.0000
     14 ****        -1.3923   2.7417  -1.2812 C.3            1 S1                 0.0000
     15 ****        -0.4361   2.3080  -2.4052 C.3            1 S1                 0.0000
     16 ****        -0.5339   0.7984  -2.6467 C.3            1 S1                 0.0000
     17 ****        -0.2232   0.0502  -1.3463 C.3            1 S1                 0.0000
     18 ****        -1.1630   0.4876  -0.1930 C.3            1 S1                 0.0000
     19 ****         4.5004  -3.9160   1.9910 H              1 S1                 0.0000
     20 ****         0.8338  -1.4247   1.2682 H              1 S1                 0.0000
     21 ****        -1.5659   0.0742   1.8810 H              1 S1                 0.0000
     22 ****         0.2606   1.2627   2.7085 H              1 S1                 0.0000
     23 ****         1.3216   0.7699   1.3947 H              1 S1                 0.0000
     24 ****        -0.3272   3.1764   1.4594 H              1 S1                 0.0000
     25 ****         0.7958   2.6425   0.2111 H              1 S1                 0.0000
     26 ****        -2.4213   2.5988  -1.6131 H              1 S1                 0.0000
     27 ****        -1.2810   3.8056  -1.0687 H              1 S1                 0.0000
     28 ****        -0.6748   2.8471  -3.3224 H              1 S1                 0.0000
     29 ****         0.5903   2.5750  -2.1516 H              1 S1                 0.0000
     30 ****        -1.5335   0.5384  -2.9974 H              1 S1                 0.0000
     31 ****         0.1625   0.4962  -3.4292 H              1 S1                 0.0000
     32 ****        -0.3113  -1.0234  -1.5163 H              1 S1                 0.0000
     33 ****         0.8176   0.2301  -1.0744 H              1 S1                 0.0000
     34 ****        -2.1703   0.1279  -0.4076 H              1 S1                 0.0000
     35 ****        -2.0190   2.1382   0.5375 H              1 S1                 0.0000
     36 ****        -2.6647  -3.2303   1.0156 LP             1 S1                 0.0000
     37 ****        -2.5624  -1.5035   1.1039 LP             1 S1                 0.0000
     38 ****        -0.7303  -4.5029   1.0717 LP             1 S1                 0.0000
     39 ****         1.5141  -3.5962  -0.8699 LP             1 S1                 0.0000
     40 ****         3.9656  -3.7119  -0.3800 LP             1 S1                 0.0000
@<TRIPOS>BOND
    1    1    2 2     
    2    2    3 1     
    3    2    9 am    
    4    3    4 1     
    5    4    8 1     
    6    4    5 2     
    7    5    6 1     
    8    6    7 2     
    9    7    8 1     
   10    7   19 1     
   11    9   10 1     
   12    9   20 1     
   13   10   18 1     
   14   10   11 1     
   15   10   21 1     
   16   11   12 1     
   17   11   22 1     
   18   11   23 1     
   19   12   13 1     
   20   12   24 1     
   21   12   25 1     
   22   13   18 1     
   23   13   14 1     
   24   13   35 1     
   25   14   15 1     
   26   14   26 1     
   27   14   27 1     
   28   15   16 1     
   29   15   28 1     
   30   15   29 1     
   31   16   17 1     
   32   16   30 1     
   33   16   31 1     
   34   17   18 1     
   35   17   32 1     
   36   17   33 1     
   37   18   34 1     
   38    1   36 1     
   39    1   37 1     
   40    3   38 1     
   41    5   39 1     
   42    6   40 1     
@<TRIPOS>SUBSTRUCTURE
      1 S1             1
@<TRIPOS>SET
LONE_PAIRS      STATIC     ATOMS    <user>   **** ""
5 36 37 38 39 40
DONOR_HYDROGENS      STATIC     ATOMS    <user>   **** ""
2 20 35
ATOM$BLUE        STATIC     ATOMS    COLORGROUP SYSTEM
5 36 37 38 39 40
ATOM$RED        STATIC     ATOMS    COLORGROUP SYSTEM
2 20 35
