AV-unprocessed.smi:3321|AV-procd|sdf|12772|dock7
  -GOLD-   2272019113D 1   1.00000     0.00000
 Structure written by MMmdl.
 40 41  0  0  0  0  0  0  0  0  1 V2000
  151.0325  140.2334  155.3627 C   0  0  0  0  0  0  0  0  0  0  0  0
  149.8278  141.0536  155.8504 C   0  0  1  0  0  0  0  0  0  0  0  0
  150.3094  142.2944  156.4849 N   0  0  0  0  0  0  0  0  0  0  0  0
  150.2816  142.2619  157.9446 C   0  0  0  0  0  0  0  0  0  0  0  0
  150.9705  143.5126  158.5162 C   0  0  0  0  0  0  0  0  0  0  0  0
  151.7625  143.2208  159.6980 N   0  0  0  0  0  0  0  0  0  0  0  0
  152.9436  142.5142  159.7841 C   0  0  0  0  0  0  0  0  0  0  0  0
  153.3111  142.4958  161.0990 C   0  0  0  0  0  0  0  0  0  0  0  0
  152.2788  143.2293  161.7481 C   0  0  0  0  0  0  0  0  0  0  0  0
  151.3540  143.6633  160.9068 N   0  0  0  0  0  0  0  0  0  0  0  0
  148.8478  141.3006  154.6791 C   0  0  0  0  0  0  0  0  0  0  0  0
  149.3226  141.4778  153.5552 O   0  0  0  0  0  0  0  0  0  0  0  0
  147.5085  141.3157  154.8996 N   0  0  0  0  0  0  0  0  0  0  0  0
  146.5435  141.6854  153.8550 C   0  0  0  0  0  0  0  0  0  0  0  0
  145.9385  143.0569  154.2102 C   0  0  0  0  0  0  0  0  0  0  0  0
  145.3034  143.0375  155.6145 C   0  0  0  0  0  0  0  0  0  0  0  0
  146.2614  142.4477  156.6682 C   0  0  0  0  0  0  0  0  0  0  0  0
  146.8334  141.1023  156.1873 C   0  0  0  0  0  0  0  0  0  0  0  0
  150.7214  139.2904  154.9119 H   0  0  0  0  0  0  0  0  0  0  0  0
  151.7007  139.9920  156.1901 H   0  0  0  0  0  0  0  0  0  0  0  0
  151.6124  140.7805  154.6181 H   0  0  0  0  0  0  0  0  0  0  0  0
  149.3249  140.4910  156.6358 H   0  0  0  0  0  0  0  0  0  0  0  0
  149.8091  143.1036  156.1455 H   0  0  0  0  0  0  0  0  0  0  0  0
  149.2528  142.2310  158.3034 H   0  0  0  0  0  0  0  0  0  0  0  0
  150.7757  141.3607  158.3110 H   0  0  0  0  0  0  0  0  0  0  0  0
  151.6134  143.9746  157.7658 H   0  0  0  0  0  0  0  0  0  0  0  0
  150.2207  144.2586  158.7833 H   0  0  0  0  0  0  0  0  0  0  0  0
  153.4157  142.0853  158.9126 H   0  0  0  0  0  0  0  0  0  0  0  0
  154.1832  142.0284  161.5313 H   0  0  0  0  0  0  0  0  0  0  0  0
  152.1745  143.4574  162.7985 H   0  0  0  0  0  0  0  0  0  0  0  0
  146.9855  141.7246  152.8588 H   0  0  0  0  0  0  0  0  0  0  0  0
  145.7582  140.9302  153.7987 H   0  0  0  0  0  0  0  0  0  0  0  0
  146.7199  143.8173  154.1746 H   0  0  0  0  0  0  0  0  0  0  0  0
  145.1938  143.3435  153.4673 H   0  0  0  0  0  0  0  0  0  0  0  0
  144.9955  144.0425  155.9040 H   0  0  0  0  0  0  0  0  0  0  0  0
  144.3950  142.4343  155.5839 H   0  0  0  0  0  0  0  0  0  0  0  0
  147.0787  143.1456  156.8552 H   0  0  0  0  0  0  0  0  0  0  0  0
  145.7394  142.3181  157.6165 H   0  0  0  0  0  0  0  0  0  0  0  0
  146.0212  140.3873  156.0485 H   0  0  0  0  0  0  0  0  0  0  0  0
  147.4640  140.6567  156.9536 H   0  0  0  0  0  0  0  0  0  0  0  0
  1  2  1  0  0  0  0
  1 19  1  0  0  0  0
  1 20  1  0  0  0  0
  1 21  1  0  0  0  0
  2  3  1  0  0  0  0
  2 11  1  0  0  0  0
  2 22  1  0  0  0  0
  3  4  1  0  0  0  0
  3 23  1  0  0  0  0
  4  5  1  0  0  0  0
  4 24  1  0  0  0  0
  4 25  1  0  0  0  0
  5  6  1  0  0  0  0
  5 26  1  0  0  0  0
  5 27  1  0  0  0  0
  6 10  1  0  0  0  0
  6  7  1  0  0  0  0
  7  8  2  0  0  0  0
  7 28  1  0  0  0  0
  8  9  1  0  0  0  0
  8 29  1  0  0  0  0
  9 10  2  0  0  0  0
  9 30  1  0  0  0  0
 11 12  2  0  0  0  0
 11 13  1  0  0  0  0
 13 18  1  0  0  0  0
 13 14  1  0  0  0  0
 14 15  1  0  0  0  0
 14 31  1  0  0  0  0
 14 32  1  0  0  0  0
 15 16  1  0  0  0  0
 15 33  1  0  0  0  0
 15 34  1  0  0  0  0
 16 17  1  0  0  0  0
 16 35  1  0  0  0  0
 16 36  1  0  0  0  0
 17 18  1  0  0  0  0
 17 37  1  0  0  0  0
 17 38  1  0  0  0  0
 18 39  1  0  0  0  0
 18 40  1  0  0  0  0
M  END
> <s_m_source_file>
AV-unprocessed.smi

> <i_m_source_file_index>
3321

> <i_lp_mmshare_version>
43012

> <i_f3d_flags>
0

> <s_epik_input>
W0NIMl0xW0NIMl1bQ0gyXVtDSDJdW0NIMl1OMUMoPU8pW0NASF0oW0NIM10pW05IXVtDSDJdW0NIMl1uMltjSF1bY0hdW2NIXW4y

> <s_epik_cmdline>
J2VwaWtfcHl0aG9uJywgJy1waCcsICc3LjAnLCAnLXRuJywgJzgnLCAnLW1hJywgJzIwMCcsICctbWV0YWxfYmluZGluZycsICctaW1hZScsICc8aW5maWxlLm1hZT4nLCAnLW9tYWUnLCAnPG91dGZpbGUubWFlPic=

> <r_lp_tautomer_probability>
1

> <r_epik_Ionization_Penalty>
0.736446

> <r_epik_Ionization_Penalty_Charging>
0

> <r_epik_Ionization_Penalty_Neutral>
0.736446

> <r_epik_State_Penalty>
0.761204

> <r_epik_Charging_Adjusted_Penalty>
0.761204

> <i_epik_Tot_Q>
0

> <i_epik_Tot_abs_Q>
0

> <r_epik_Metal_State_Penalty>
0.760551

> <b_epik_Metal_Only>
0

> <s_lp_Force_Field>
OPLS_2005

> <r_lp_Energy>
28.7251

> <b_lp_Chiralities_Consistent>
1

> <s_lp_Variant>
AV-unprocessed.smi:3321-4

> <Gold.Version>
5.8.1

> <Gold.Id.Protein>
6NUR|6NUR_protein|mol2

> <Gold.PLP.Fitness>
43.4945

> <Gold.PLP.PLP>
-41.2889

> <Gold.PLP.part.hbond>
-3.1199

> <Gold.PLP.part.metal>
0.0000

> <Gold.PLP.part.buried>
-5.7984

> <Gold.PLP.part.nonpolar>
-34.9629

> <Gold.PLP.part.repulsive>
2.2454

> <Gold.PLP.ligand.clash>
0.0000

> <Gold.PLP.ligand.torsion>
1.7227

> <Gold.PLP.Chemscore.Hbond>
1.8527

> <Gold.PLP.Chemscore.CHOScore>
0.0000

> <Gold.PLP.Chemscore.Metal>
0.0000

> <Gold.Chemscore.Hbonds>
donor molecule, donor type, donor heavy atom, donor atom, acceptor molecule, acceptor atom, score
      L1  H     3    23       P1  8028  1.00
      P1  H  7989  7998       L1    12  0.02
      P1  H  8011  8017       L1    12  0.85

> <Gold.PLP.Chemscore.Internal.Correction>
0.0930

> <Gold.Rescore>
     Score         DG    S(hbond)    S(metal)    S(lipo)     H(rot)  DE(clash)    DE(int)     intcor
     14.50     -17.67       1.93        0.00      86.79       1.73       1.47       1.70       ----

> <Gold.Chemscore.Fitness>
14.5003

> <Gold.Chemscore.DG>
-17.6743

> <Gold.Chemscore.ZeroCoef>
-5.4800

> <Gold.Chemscore.Hbond>
1.9349

> <Gold.Chemscore.Metal>
0.0000

> <Gold.Chemscore.Lipo>
86.7895

> <Gold.Chemscore.Internal_Hbond>
0.0000

> <Gold.Chemscore.DEClash>
1.4728

> <Gold.Chemscore.DEInternal>
1.7011

> <Gold.Chemscore.Rot>
1.7277

> <Gold.Chemscore.Internal.Correction>
   9.000000E+99

> <Gold.Chemscore.Hbonds>
donor molecule, donor type, donor heavy atom, donor atom, acceptor molecule, acceptor atom, score
      L1  H     3    23       P1  8028  1.00
      P1  H  7989  7998       L1    12  0.03
      P1  H  8011  8017       L1    12  0.82

> <Gold.Chemscore.Hbond.Weighted>
-6.4627

> <Gold.Chemscore.Metal.Weighted>
-0.0000

> <Gold.Chemscore.Lipo.Weighted>
-10.1544

> <Gold.Chemscore.Internal_Hbond.Weighted>
0.0000

> <Gold.Chemscore.DEClash.Weighted>
1.4728

> <Gold.Chemscore.DEInternal.Weighted>
1.7011

> <Gold.Chemscore.Rot.Weighted>
4.4228

> <Gold.Chemscore.Internal.Correction.Weighted>
   9.000000E+99

> <Gold.Protein.RotatedTorsions>
[ 6907 6896 6895 6894 ] final -111.23 input  -60.11 | X-H torsion
[ 7974 7965 7964 7962 ] final  -90.64 input  175.53 | X-H torsion
[ 8008 7997 7996 7995 ] final    8.31 input   59.86 | X-H torsion
[ 10167 10162 10161 10158 ] final   28.51 input  -65.29 | X-H torsion
[ 10718 10713 10712 10709 ] final    8.94 input   66.30 | X-H torsion
[ 10763 10752 10751 10750 ] final -178.34 input  -60.55 | X-H torsion
[ 11005 11000 10999 10996 ] final   88.10 input  -57.11 | X-H torsion

> <Gold.Protein.ActiveResidues>
 VAL166  LYS551  ARG553  GLY616  TRP617  ASP618  TYR619  PRO620  LYS621  CYS622 
 ASP623  PHE694  ASN695  SER759  ASP760  ASP761  ALA762  ILE779  LEU786  VAL792 
 PHE793  MET794  SER795  GLU796  ALA797  LYS798  CYS799  TRP800  GLU811  SER814 

> <Gold.Protein.RotatedAtoms>
  150.7677  133.9265  159.3413 H   0  0  0  0  0  0  0  0  0  0  0  0  # atno 6907 bound_to 6896
  151.7159  135.0902  160.0285 H   0  0  0  0  0  0  0  0  0  0  0  0  # atno 6908 bound_to 6896
  152.3680  133.6344  159.6101 H   0  0  0  0  0  0  0  0  0  0  0  0  # atno 6909 bound_to 6896
  145.4237  140.9552  143.2166 H   0  0  0  0  0  0  0  0  0  0  0  0  # atno 7974 bound_to 7965
  154.7652  140.2792  155.6182 H   0  0  0  0  0  0  0  0  0  0  0  0  # atno 8008 bound_to 7997
  156.2923  140.2652  156.2368 H   0  0  0  0  0  0  0  0  0  0  0  0  # atno 8009 bound_to 7997
  154.9968  140.0373  157.2333 H   0  0  0  0  0  0  0  0  0  0  0  0  # atno 8010 bound_to 7997
  140.4846  144.0562  150.6276 H   0  0  0  0  0  0  0  0  0  0  0  0  # atno 10167 bound_to 10162
  156.9591  130.5926  149.5661 H   0  0  0  0  0  0  0  0  0  0  0  0  # atno 10718 bound_to 10713
  154.5490  135.2811  155.1026 H   0  0  0  0  0  0  0  0  0  0  0  0  # atno 10763 bound_to 10752
  154.2480  135.6345  153.5234 H   0  0  0  0  0  0  0  0  0  0  0  0  # atno 10764 bound_to 10752
  152.9998  135.5576  154.6050 H   0  0  0  0  0  0  0  0  0  0  0  0  # atno 10765 bound_to 10752
  139.8904  134.8466  156.2953 H   0  0  0  0  0  0  0  0  0  0  0  0  # atno 11005 bound_to 11000
  144.8228  139.5762  143.6979 LP  0  0  0  0  0  0  0  0  0  0  0  0  # atno 17320 bound_to 7965
  146.2643  139.6483  142.9340 LP  0  0  0  0  0  0  0  0  0  0  0  0  # atno 17321 bound_to 7965
  140.3814  143.2801  152.0166 LP  0  0  0  0  0  0  0  0  0  0  0  0  # atno 17342 bound_to 10162
  139.4839  144.6151  151.7360 LP  0  0  0  0  0  0  0  0  0  0  0  0  # atno 17343 bound_to 10162
  156.0330  130.5420  150.8582 LP  0  0  0  0  0  0  0  0  0  0  0  0  # atno 17370 bound_to 10713
  157.5670  131.0946  150.9475 LP  0  0  0  0  0  0  0  0  0  0  0  0  # atno 17371 bound_to 10713
  140.9949  133.7186  156.0870 LP  0  0  0  0  0  0  0  0  0  0  0  0  # atno 17394 bound_to 11000
  140.7576  134.3975  157.5531 LP  0  0  0  0  0  0  0  0  0  0  0  0  # atno 17395 bound_to 11000

$$$$
