AV-unprocessed.smi:1439|AV-procd|sdf|5869|dock8
  -GOLD-   22720 5543D 1   1.00000     0.00000
 Structure written by MMmdl.
 36 37  0  0  0  0  0  0  0  0  1 V2000
  142.7219  132.5040  150.6217 N   0  0  0  0  0  0  0  0  0  0  0  0
  143.8093  132.7006  149.8711 C   0  0  0  0  0  0  0  0  0  0  0  0
  144.0086  132.0812  148.8282 O   0  0  0  0  0  0  0  0  0  0  0  0
  144.8216  133.7368  150.3633 C   0  0  0  0  0  0  0  0  0  0  0  0
  145.7017  133.1449  151.4263 C   0  0  0  0  0  0  0  0  0  0  0  0
  145.6490  131.8628  151.9196 C   0  0  0  0  0  0  0  0  0  0  0  0
  146.8524  131.5825  153.1481 S   0  0  0  0  0  0  0  0  0  0  0  0
  147.3850  133.2527  152.9468 C   0  0  0  0  0  0  0  0  0  0  0  0
  148.4258  133.9150  153.6441 N   0  0  0  0  0  0  0  0  0  0  0  0
  149.0988  133.4877  154.7268 C   0  0  0  0  0  0  0  0  0  0  0  0
  148.8991  132.4132  155.2931 O   0  0  0  0  0  0  0  0  0  0  0  0
  150.1731  134.4414  155.2587 C   0  0  0  0  0  0  0  0  0  0  0  0
  149.6065  135.8129  155.6686 C   0  0  0  0  0  0  0  0  0  0  0  0
  150.6971  136.8855  155.8029 C   0  0  2  0  0  0  0  0  0  0  0  0
  150.1563  138.3048  155.9462 C   0  0  0  0  0  0  0  0  0  0  0  0
  151.3358  139.1577  155.5149 C   0  0  0  0  0  0  0  0  0  0  0  0
  152.1667  138.2193  154.6328 C   0  0  0  0  0  0  0  0  0  0  0  0
  151.4694  136.9787  154.6162 O   0  0  0  0  0  0  0  0  0  0  0  0
  146.6952  133.9280  152.0259 N   0  0  0  0  0  0  0  0  0  0  0  0
  142.0254  131.8344  150.3286 H   0  0  0  0  0  0  0  0  0  0  0  0
  142.5959  133.0299  151.4745 H   0  0  0  0  0  0  0  0  0  0  0  0
  145.4116  134.0947  149.5181 H   0  0  0  0  0  0  0  0  0  0  0  0
  144.2869  134.6044  150.7516 H   0  0  0  0  0  0  0  0  0  0  0  0
  144.9783  131.0673  151.6300 H   0  0  0  0  0  0  0  0  0  0  0  0
  148.6920  134.8162  153.2753 H   0  0  0  0  0  0  0  0  0  0  0  0
  150.6748  133.9845  156.1132 H   0  0  0  0  0  0  0  0  0  0  0  0
  150.9303  134.5674  154.4841 H   0  0  0  0  0  0  0  0  0  0  0  0
  148.8623  136.1448  154.9432 H   0  0  0  0  0  0  0  0  0  0  0  0
  149.0859  135.7161  156.6226 H   0  0  0  0  0  0  0  0  0  0  0  0
  151.3582  136.6563  156.6408 H   0  0  0  0  0  0  0  0  0  0  0  0
  149.3212  138.4619  155.2620 H   0  0  0  0  0  0  0  0  0  0  0  0
  149.8138  138.5299  156.9567 H   0  0  0  0  0  0  0  0  0  0  0  0
  151.0143  140.0530  154.9820 H   0  0  0  0  0  0  0  0  0  0  0  0
  151.9187  139.4728  156.3812 H   0  0  0  0  0  0  0  0  0  0  0  0
  152.2816  138.6008  153.6179 H   0  0  0  0  0  0  0  0  0  0  0  0
  153.1617  138.0744  155.0552 H   0  0  0  0  0  0  0  0  0  0  0  0
  1  2  1  0  0  0  0
  1 20  1  0  0  0  0
  1 21  1  0  0  0  0
  2  3  2  0  0  0  0
  2  4  1  0  0  0  0
  4  5  1  0  0  0  0
  4 22  1  0  0  0  0
  4 23  1  0  0  0  0
  5 19  1  0  0  0  0
  5  6  2  0  0  0  0
  6  7  1  0  0  0  0
  6 24  1  0  0  0  0
  7  8  1  0  0  0  0
  8  9  1  0  0  0  0
  8 19  2  0  0  0  0
  9 10  1  0  0  0  0
  9 25  1  0  0  0  0
 10 11  2  0  0  0  0
 10 12  1  0  0  0  0
 12 13  1  0  0  0  0
 12 26  1  0  0  0  0
 12 27  1  0  0  0  0
 13 14  1  0  0  0  0
 13 28  1  0  0  0  0
 13 29  1  0  0  0  0
 14 18  1  0  0  0  0
 14 15  1  0  0  0  0
 14 30  1  0  0  0  0
 15 16  1  0  0  0  0
 15 31  1  0  0  0  0
 15 32  1  0  0  0  0
 16 17  1  0  0  0  0
 16 33  1  0  0  0  0
 16 34  1  0  0  0  0
 17 18  1  0  0  0  0
 17 35  1  0  0  0  0
 17 36  1  0  0  0  0
M  END
> <s_m_source_file>
AV-unprocessed.smi

> <i_m_source_file_index>
1439

> <i_lp_mmshare_version>
43012

> <i_f3d_flags>
0

> <s_epik_input>
W05IMl1DKD1PKVtDSDJdYzFbY0hdc2MobjEpW05IXUMoPU8pW0NIMl1bQ0gyXVtDQEBIXTJbQ0gyXVtDSDJdW0NIMl1PMg==

> <s_epik_cmdline>
J2VwaWtfcHl0aG9uJywgJy1waCcsICc3LjAnLCAnLXRuJywgJzgnLCAnLW1hJywgJzIwMCcsICctbWV0YWxfYmluZGluZycsICctaW1hZScsICc8aW5maWxlLm1hZT4nLCAnLW9tYWUnLCAnPG91dGZpbGUubWFlPic=

> <r_lp_tautomer_probability>
1

> <r_epik_Ionization_Penalty>
0.000300833

> <r_epik_Ionization_Penalty_Charging>
0

> <r_epik_Ionization_Penalty_Neutral>
0.000300833

> <r_epik_State_Penalty>
-0

> <r_epik_Charging_Adjusted_Penalty>
0

> <i_epik_Tot_Q>
0

> <i_epik_Tot_abs_Q>
0

> <r_epik_Metal_State_Penalty>
0.167159

> <b_epik_Metal_Only>
0

> <s_lp_Force_Field>
OPLS_2005

> <r_lp_Energy>
15.8288

> <b_lp_Chiralities_Consistent>
1

> <s_lp_Variant>
AV-unprocessed.smi:1439-1

> <Gold.Version>
5.8.1

> <Gold.Id.Protein>
6NUR|6NUR_protein|mol2

> <Gold.PLP.Fitness>
44.8246

> <Gold.PLP.PLP>
-35.2018

> <Gold.PLP.part.hbond>
-5.0000

> <Gold.PLP.part.metal>
0.0000

> <Gold.PLP.part.buried>
-7.3619

> <Gold.PLP.part.nonpolar>
-24.1151

> <Gold.PLP.part.repulsive>
1.0381

> <Gold.PLP.ligand.clash>
0.0000

> <Gold.PLP.ligand.torsion>
0.4233

> <Gold.PLP.Chemscore.Hbond>
3.4736

> <Gold.PLP.Chemscore.CHOScore>
0.0000

> <Gold.PLP.Chemscore.Metal>
0.0000

> <Gold.Chemscore.Hbonds>
donor molecule, donor type, donor heavy atom, donor atom, acceptor molecule, acceptor atom, score
      L1  H     1    20       P1 10952  0.96
      L1  H     9    25       P1  7948  1.00
      P1  H 10752 10763       L1    18  1.00
      P1  H 10785 10796       L1     3  0.53

> <Gold.PLP.Chemscore.Internal.Correction>
0.0486

> <Gold.Rescore>
     Score         DG    S(hbond)    S(metal)    S(lipo)     H(rot)  DE(clash)    DE(int)     intcor
     11.13     -11.70       1.78        0.00      58.46       2.56       0.08       0.49       ----

> <Gold.Chemscore.Fitness>
11.1286

> <Gold.Chemscore.DG>
-11.7009

> <Gold.Chemscore.ZeroCoef>
-5.4800

> <Gold.Chemscore.Hbond>
1.7768

> <Gold.Chemscore.Metal>
0.0000

> <Gold.Chemscore.Lipo>
58.4569

> <Gold.Chemscore.Internal_Hbond>
0.0000

> <Gold.Chemscore.DEClash>
0.0823

> <Gold.Chemscore.DEInternal>
0.4900

> <Gold.Chemscore.Rot>
2.5598

> <Gold.Chemscore.Internal.Correction>
   9.000000E+99

> <Gold.Chemscore.Hbonds>
donor molecule, donor type, donor heavy atom, donor atom, acceptor molecule, acceptor atom, score
      L1  H     1    20       P1 10952  0.50
      L1  H     9    25       P1  7948  0.43
      P1  H 10752 10763       L1    18  0.32
      P1  H 10785 10796       L1     3  0.48

> <Gold.Chemscore.Hbond.Weighted>
-5.9346

> <Gold.Chemscore.Metal.Weighted>
-0.0000

> <Gold.Chemscore.Lipo.Weighted>
-6.8395

> <Gold.Chemscore.Internal_Hbond.Weighted>
0.0000

> <Gold.Chemscore.DEClash.Weighted>
0.0823

> <Gold.Chemscore.DEInternal.Weighted>
0.4900

> <Gold.Chemscore.Rot.Weighted>
6.5532

> <Gold.Chemscore.Internal.Correction.Weighted>
   9.000000E+99

> <Gold.Protein.RotatedTorsions>
[ 6907 6896 6895 6894 ] final -141.26 input  -60.11 | X-H torsion
[ 7974 7965 7964 7962 ] final  -79.96 input  175.53 | X-H torsion
[ 8008 7997 7996 7995 ] final   -4.09 input   59.86 | X-H torsion
[ 10167 10162 10161 10158 ] final  -75.54 input  -65.29 | X-H torsion
[ 10718 10713 10712 10709 ] final -135.12 input   66.30 | X-H torsion
[ 10763 10752 10751 10750 ] final   39.91 input  -60.55 | X-H torsion
[ 11005 11000 10999 10996 ] final -163.35 input  -57.11 | X-H torsion

> <Gold.Protein.ActiveResidues>
 VAL166  LYS551  ARG553  GLY616  TRP617  ASP618  TYR619  PRO620  LYS621  CYS622 
 ASP623  PHE694  ASN695  SER759  ASP760  ASP761  ALA762  ILE779  LEU786  VAL792 
 PHE793  MET794  SER795  GLU796  ALA797  LYS798  CYS799  TRP800  GLU811  SER814 

> <Gold.Protein.RotatedAtoms>
  151.0714  133.5463  159.2626 H   0  0  0  0  0  0  0  0  0  0  0  0  # atno 6907 bound_to 6896
  151.2401  135.0585  159.9031 H   0  0  0  0  0  0  0  0  0  0  0  0  # atno 6908 bound_to 6896
  152.5412  134.0490  159.8155 H   0  0  0  0  0  0  0  0  0  0  0  0  # atno 6909 bound_to 6896
  145.5662  140.9474  143.1420 H   0  0  0  0  0  0  0  0  0  0  0  0  # atno 7974 bound_to 7965
  154.6180  140.2493  155.7585 H   0  0  0  0  0  0  0  0  0  0  0  0  # atno 8008 bound_to 7997
  156.2410  140.2932  156.0394 H   0  0  0  0  0  0  0  0  0  0  0  0  # atno 8009 bound_to 7997
  155.1943  140.0392  157.2896 H   0  0  0  0  0  0  0  0  0  0  0  0  # atno 8010 bound_to 7997
  140.4934  143.2375  151.7870 H   0  0  0  0  0  0  0  0  0  0  0  0  # atno 10167 bound_to 10162
  156.2628  130.7219  151.1159 H   0  0  0  0  0  0  0  0  0  0  0  0  # atno 10718 bound_to 10713
  152.9952  135.6207  154.2542 H   0  0  0  0  0  0  0  0  0  0  0  0  # atno 10763 bound_to 10752
  154.2280  135.2793  155.2902 H   0  0  0  0  0  0  0  0  0  0  0  0  # atno 10764 bound_to 10752
  154.5474  135.5743  153.6950 H   0  0  0  0  0  0  0  0  0  0  0  0  # atno 10765 bound_to 10752
  140.5990  134.4966  157.5203 H   0  0  0  0  0  0  0  0  0  0  0  0  # atno 11005 bound_to 11000
  144.7459  139.7322  143.7292 LP  0  0  0  0  0  0  0  0  0  0  0  0  # atno 17320 bound_to 7965
  146.1816  139.5011  142.9863 LP  0  0  0  0  0  0  0  0  0  0  0  0  # atno 17321 bound_to 7965
  139.4856  144.4619  151.9531 LP  0  0  0  0  0  0  0  0  0  0  0  0  # atno 17342 bound_to 10162
  140.3706  144.2860  150.5920 LP  0  0  0  0  0  0  0  0  0  0  0  0  # atno 17343 bound_to 10162
  157.7256  131.0652  150.5944 LP  0  0  0  0  0  0  0  0  0  0  0  0  # atno 17370 bound_to 10713
  156.6033  130.4360  149.5888 LP  0  0  0  0  0  0  0  0  0  0  0  0  # atno 17371 bound_to 10713
  139.9240  134.8091  156.1123 LP  0  0  0  0  0  0  0  0  0  0  0  0  # atno 17394 bound_to 11000
  141.0885  133.6724  156.2488 LP  0  0  0  0  0  0  0  0  0  0  0  0  # atno 17395 bound_to 11000

$$$$
