AV-unprocessed.smi:91|AV-procd|sdf|836|dock4
  -GOLD-   2262017263D 1   1.00000     0.00000
 Structure written by MMmdl.
 60 63  0  0  0  0  0  0  0  0  1 V2000
  154.7627  140.2427  162.4371 C   0  0  0  0  0  0  0  0  0  0  0  0
  154.3029  140.6717  161.1675 O   0  0  0  0  0  0  0  0  0  0  0  0
  153.3747  141.7402  161.2579 C   0  0  0  0  0  0  0  0  0  0  0  0
  152.9968  142.2067  159.8461 C   0  0  1  0  0  0  0  0  0  0  0  0
  152.3247  141.0908  159.0278 C   0  0  0  0  0  0  0  0  0  0  0  0
  151.8466  141.6171  157.7534 N   0  0  0  0  0  0  0  0  0  0  0  0
  151.5855  140.6980  156.7871 C   0  0  0  0  0  0  0  0  0  0  0  0
  152.6393  139.9828  156.3125 N   0  0  0  0  0  0  0  0  0  0  0  0
  152.4656  139.0628  155.3602 C   0  0  0  0  0  0  0  0  0  0  0  0
  151.3377  138.6978  154.7503 N   0  0  0  0  0  0  0  0  0  0  0  0
  150.2727  139.4076  155.2190 C   0  0  0  0  0  0  0  0  0  0  0  0
  150.3025  140.4192  156.2231 C   0  0  0  0  0  0  0  0  0  0  0  0
  149.0130  140.9012  156.4294 N   0  0  0  0  0  0  0  0  0  0  0  0
  148.2719  140.2228  155.5976 C   0  0  0  0  0  0  0  0  0  0  0  0
  148.9477  139.2967  154.8385 N   0  0  0  0  0  0  0  0  0  0  0  0
  148.3783  138.3983  153.8498 C   0  0  0  0  0  0  0  0  0  0  0  0
  146.9031  138.7244  153.5066 C   0  0  1  0  0  0  0  0  0  0  0  0
  146.6834  138.9925  151.9976 C   0  0  0  0  0  0  0  0  0  0  0  0
  147.4076  138.0784  151.1996 O   0  0  0  0  0  0  0  0  0  0  0  0
  145.9408  137.6440  154.0610 C   0  0  2  0  0  0  0  0  0  0  0  0
  146.1072  136.2623  153.4531 C   0  0  0  0  0  0  0  0  0  0  0  0
  144.7883  135.5897  153.8170 C   0  0  0  0  0  0  0  0  0  0  0  0
  143.8158  136.6288  153.8234 O   0  0  0  0  0  0  0  0  0  0  0  0
  144.4588  137.8982  153.7656 C   0  0  0  0  0  0  0  0  0  0  0  0
  150.9700  142.7734  157.8950 C   0  0  0  0  0  0  0  0  0  0  0  0
  151.6332  143.8788  158.7460 C   0  0  0  0  0  0  0  0  0  0  0  0
  152.7750  144.5852  157.9846 C   0  0  0  0  0  0  0  0  0  0  0  0
  150.5796  144.9206  159.1527 C   0  0  0  0  0  0  0  0  0  0  0  0
  152.1025  143.3125  159.9746 O   0  0  0  0  0  0  0  0  0  0  0  0
  155.4736  139.4260  162.3122 H   0  0  0  0  0  0  0  0  0  0  0  0
  153.9384  139.8802  163.0527 H   0  0  0  0  0  0  0  0  0  0  0  0
  155.2678  141.0506  162.9679 H   0  0  0  0  0  0  0  0  0  0  0  0
  152.4845  141.4350  161.8105 H   0  0  0  0  0  0  0  0  0  0  0  0
  153.8316  142.5658  161.8061 H   0  0  0  0  0  0  0  0  0  0  0  0
  153.9078  142.5354  159.3460 H   0  0  0  0  0  0  0  0  0  0  0  0
  153.0319  140.2731  158.8869 H   0  0  0  0  0  0  0  0  0  0  0  0
  151.4746  140.6822  159.5756 H   0  0  0  0  0  0  0  0  0  0  0  0
  153.3580  138.5439  155.0434 H   0  0  0  0  0  0  0  0  0  0  0  0
  147.2043  140.3712  155.5232 H   0  0  0  0  0  0  0  0  0  0  0  0
  148.9932  138.4419  152.9501 H   0  0  0  0  0  0  0  0  0  0  0  0
  148.4685  137.3825  154.2353 H   0  0  0  0  0  0  0  0  0  0  0  0
  146.6610  139.6581  154.0168 H   0  0  0  0  0  0  0  0  0  0  0  0
  145.6270  138.9215  151.7399 H   0  0  0  0  0  0  0  0  0  0  0  0
  146.9850  140.0057  151.7316 H   0  0  0  0  0  0  0  0  0  0  0  0
  147.7315  137.3860  151.7551 H   0  0  0  0  0  0  0  0  0  0  0  0
  146.0670  137.5620  155.1420 H   0  0  0  0  0  0  0  0  0  0  0  0
  146.2057  136.3313  152.3686 H   0  0  0  0  0  0  0  0  0  0  0  0
  146.9699  135.7207  153.8417 H   0  0  0  0  0  0  0  0  0  0  0  0
  144.5197  134.7939  153.1221 H   0  0  0  0  0  0  0  0  0  0  0  0
  144.8441  135.1611  154.8184 H   0  0  0  0  0  0  0  0  0  0  0  0
  144.0065  138.5970  154.4697 H   0  0  0  0  0  0  0  0  0  0  0  0
  144.3277  138.3012  152.7604 H   0  0  0  0  0  0  0  0  0  0  0  0
  150.7095  143.1750  156.9150 H   0  0  0  0  0  0  0  0  0  0  0  0
  150.0441  142.4469  158.3705 H   0  0  0  0  0  0  0  0  0  0  0  0
  152.3899  145.1238  157.1180 H   0  0  0  0  0  0  0  0  0  0  0  0
  153.5237  143.8865  157.6128 H   0  0  0  0  0  0  0  0  0  0  0  0
  153.2842  145.3084  158.6222 H   0  0  0  0  0  0  0  0  0  0  0  0
  150.1414  145.4043  158.2791 H   0  0  0  0  0  0  0  0  0  0  0  0
  151.0159  145.6990  159.7795 H   0  0  0  0  0  0  0  0  0  0  0  0
  149.7678  144.4617  159.7183 H   0  0  0  0  0  0  0  0  0  0  0  0
  1  2  1  0  0  0  0
  1 30  1  0  0  0  0
  1 31  1  0  0  0  0
  1 32  1  0  0  0  0
  2  3  1  0  0  0  0
  3  4  1  0  0  0  0
  3 33  1  0  0  0  0
  3 34  1  0  0  0  0
  4 29  1  0  0  0  0
  4  5  1  0  0  0  0
  4 35  1  0  0  0  0
  5  6  1  0  0  0  0
  5 36  1  0  0  0  0
  5 37  1  0  0  0  0
  6  7  1  0  0  0  0
  6 25  1  0  0  0  0
  7 12  1  0  0  0  0
  7  8  2  0  0  0  0
  8  9  1  0  0  0  0
  9 10  2  0  0  0  0
  9 38  1  0  0  0  0
 10 11  1  0  0  0  0
 11 15  1  0  0  0  0
 11 12  2  0  0  0  0
 12 13  1  0  0  0  0
 13 14  2  0  0  0  0
 14 15  1  0  0  0  0
 14 39  1  0  0  0  0
 15 16  1  0  0  0  0
 16 17  1  0  0  0  0
 16 40  1  0  0  0  0
 16 41  1  0  0  0  0
 17 18  1  0  0  0  0
 17 20  1  0  0  0  0
 17 42  1  0  0  0  0
 18 19  1  0  0  0  0
 18 43  1  0  0  0  0
 18 44  1  0  0  0  0
 19 45  1  0  0  0  0
 20 24  1  0  0  0  0
 20 21  1  0  0  0  0
 20 46  1  0  0  0  0
 21 22  1  0  0  0  0
 21 47  1  0  0  0  0
 21 48  1  0  0  0  0
 22 23  1  0  0  0  0
 22 49  1  0  0  0  0
 22 50  1  0  0  0  0
 23 24  1  0  0  0  0
 24 51  1  0  0  0  0
 24 52  1  0  0  0  0
 25 26  1  0  0  0  0
 25 53  1  0  0  0  0
 25 54  1  0  0  0  0
 26 27  1  0  0  0  0
 26 28  1  0  0  0  0
 26 29  1  0  0  0  0
 27 55  1  0  0  0  0
 27 56  1  0  0  0  0
 27 57  1  0  0  0  0
 28 58  1  0  0  0  0
 28 59  1  0  0  0  0
 28 60  1  0  0  0  0
M  END
> <s_m_source_file>
AV-unprocessed.smi

> <i_m_source_file_index>
91

> <i_lp_mmshare_version>
43012

> <i_f3d_flags>
0

> <s_epik_input>
W0NIM11PW0NIMl1bQ0BASF0oTzEpW0NIMl1OKFtDSDJdQzEoW0NIM10pW0NIM10pYyhuW2NIXW4yKWMoYzIzKW5bY0hdbjNbQ0gyXVtDQEhdKFtDSDJdW09IXSlbQ0BASF00W0NIMl1bQ0gyXU9bQ0gyXTQ=

> <s_epik_cmdline>
J2VwaWtfcHl0aG9uJywgJy1waCcsICc3LjAnLCAnLXRuJywgJzgnLCAnLW1hJywgJzIwMCcsICctbWV0YWxfYmluZGluZycsICctaW1hZScsICc8aW5maWxlLm1hZT4nLCAnLW9tYWUnLCAnPG91dGZpbGUubWFlPic=

> <r_lp_tautomer_probability>
1

> <r_epik_Ionization_Penalty>
8.63591e-05

> <r_epik_Ionization_Penalty_Charging>
0

> <r_epik_Ionization_Penalty_Neutral>
8.63591e-05

> <r_epik_State_Penalty>
-0

> <r_epik_Charging_Adjusted_Penalty>
0

> <i_epik_Tot_Q>
0

> <i_epik_Tot_abs_Q>
0

> <r_epik_Metal_State_Penalty>
-0

> <b_epik_Metal_Only>
0

> <s_lp_Force_Field>
OPLS_2005

> <r_lp_Energy>
46.7978

> <b_lp_Chiralities_Consistent>
1

> <s_lp_Variant>
AV-unprocessed.smi:91-4

> <Gold.Version>
5.8.1

> <Gold.Id.Protein>
6NUR|6NUR_protein|mol2

> <Gold.PLP.Fitness>
52.5373

> <Gold.PLP.PLP>
-46.2307

> <Gold.PLP.part.hbond>
-3.8579

> <Gold.PLP.part.metal>
0.0000

> <Gold.PLP.part.buried>
-0.4036

> <Gold.PLP.part.nonpolar>
-41.1852

> <Gold.PLP.part.repulsive>
0.2493

> <Gold.PLP.ligand.clash>
0.0000

> <Gold.PLP.ligand.torsion>
1.4532

> <Gold.PLP.Chemscore.Hbond>
2.8810

> <Gold.PLP.Chemscore.CHOScore>
0.0000

> <Gold.PLP.Chemscore.Metal>
0.0000

> <Gold.Chemscore.Hbonds>
donor molecule, donor type, donor heavy atom, donor atom, acceptor molecule, acceptor atom, score
      L1  H    19    45       P1  7948  0.80
      P1  H  7954  7966       L1    19  0.98
      P1  H  7997  8009       L1     8  1.00

> <Gold.PLP.Chemscore.Internal.Correction>
0.5700

> <Gold.Rescore>
     Score         DG    S(hbond)    S(metal)    S(lipo)     H(rot)  DE(clash)    DE(int)     intcor
     15.49     -17.77       2.05        0.00     112.86       3.03       0.79       1.48       ----

> <Gold.Chemscore.Fitness>
15.4900

> <Gold.Chemscore.DG>
-17.7676

> <Gold.Chemscore.ZeroCoef>
-5.4800

> <Gold.Chemscore.Hbond>
2.0465

> <Gold.Chemscore.Metal>
0.0000

> <Gold.Chemscore.Lipo>
112.8649

> <Gold.Chemscore.Internal_Hbond>
0.0000

> <Gold.Chemscore.DEClash>
0.7934

> <Gold.Chemscore.DEInternal>
1.4842

> <Gold.Chemscore.Rot>
3.0284

> <Gold.Chemscore.Internal.Correction>
   9.000000E+99

> <Gold.Chemscore.Hbonds>
donor molecule, donor type, donor heavy atom, donor atom, acceptor molecule, acceptor atom, score
      L1  H    19    45       P1  7948  0.79
      P1  H  7954  7966       L1    19  0.36
      P1  H  7997  8009       L1     8  0.30

> <Gold.Chemscore.Hbond.Weighted>
-6.8352

> <Gold.Chemscore.Metal.Weighted>
-0.0000

> <Gold.Chemscore.Lipo.Weighted>
-13.2052

> <Gold.Chemscore.Internal_Hbond.Weighted>
0.0000

> <Gold.Chemscore.DEClash.Weighted>
0.7934

> <Gold.Chemscore.DEInternal.Weighted>
1.4842

> <Gold.Chemscore.Rot.Weighted>
7.7528

> <Gold.Chemscore.Internal.Correction.Weighted>
   9.000000E+99

> <Gold.Protein.RotatedTorsions>
[ 6907 6896 6895 6894 ] final  -20.17 input  -60.11 | X-H torsion
[ 7974 7965 7964 7962 ] final  112.55 input  175.53 | X-H torsion
[ 8008 7997 7996 7995 ] final -159.90 input   59.86 | X-H torsion
[ 10167 10162 10161 10158 ] final -152.71 input  -65.29 | X-H torsion
[ 10718 10713 10712 10709 ] final  171.15 input   66.30 | X-H torsion
[ 10763 10752 10751 10750 ] final  -67.97 input  -60.55 | X-H torsion
[ 11005 11000 10999 10996 ] final -177.20 input  -57.11 | X-H torsion

> <Gold.Protein.ActiveResidues>
 VAL166  LYS551  ARG553  GLY616  TRP617  ASP618  TYR619  PRO620  LYS621  CYS622 
 ASP623  PHE694  ASN695  SER759  ASP760  ASP761  ALA762  ILE779  LEU786  VAL792 
 PHE793  MET794  SER795  GLU796  ALA797  LYS798  CYS799  TRP800  GLU811  SER814 

> <Gold.Protein.RotatedAtoms>
  151.2522  135.0626  159.9065 H   0  0  0  0  0  0  0  0  0  0  0  0  # atno 6907 bound_to 6896
  152.5378  134.0320  159.8039 H   0  0  0  0  0  0  0  0  0  0  0  0  # atno 6908 bound_to 6896
  151.0530  133.5559  159.2672 H   0  0  0  0  0  0  0  0  0  0  0  0  # atno 6909 bound_to 6896
  145.2281  139.2831  143.4182 H   0  0  0  0  0  0  0  0  0  0  0  0  # atno 7974 bound_to 7965
  155.7695  140.0850  157.2115 H   0  0  0  0  0  0  0  0  0  0  0  0  # atno 8008 bound_to 7997
  154.3997  140.1528  156.2982 H   0  0  0  0  0  0  0  0  0  0  0  0  # atno 8009 bound_to 7997
  155.8761  140.3423  155.5858 H   0  0  0  0  0  0  0  0  0  0  0  0  # atno 8010 bound_to 7997
  139.7159  143.9035  152.2485 H   0  0  0  0  0  0  0  0  0  0  0  0  # atno 10167 bound_to 10162
  156.9977  131.0167  151.2839 H   0  0  0  0  0  0  0  0  0  0  0  0  # atno 10718 bound_to 10713
  154.3822  135.6071  153.5797 H   0  0  0  0  0  0  0  0  0  0  0  0  # atno 10763 bound_to 10752
  152.9788  135.5863  154.4397 H   0  0  0  0  0  0  0  0  0  0  0  0  # atno 10764 bound_to 10752
  154.4168  135.2845  155.1979 H   0  0  0  0  0  0  0  0  0  0  0  0  # atno 10765 bound_to 10752
  140.4436  134.6409  157.4769 H   0  0  0  0  0  0  0  0  0  0  0  0  # atno 11005 bound_to 11000
  146.3359  140.2608  142.8602 LP  0  0  0  0  0  0  0  0  0  0  0  0  # atno 17320 bound_to 7965
  144.9702  140.8361  143.5460 LP  0  0  0  0  0  0  0  0  0  0  0  0  # atno 17321 bound_to 7965
  139.8917  144.6962  150.8763 LP  0  0  0  0  0  0  0  0  0  0  0  0  # atno 17342 bound_to 10162
  140.7743  143.3581  151.1881 LP  0  0  0  0  0  0  0  0  0  0  0  0  # atno 17343 bound_to 10162
  157.5413  130.8121  149.8032 LP  0  0  0  0  0  0  0  0  0  0  0  0  # atno 17370 bound_to 10713
  156.0183  130.3805  150.2042 LP  0  0  0  0  0  0  0  0  0  0  0  0  # atno 17371 bound_to 10713
  140.0053  134.6773  155.9464 LP  0  0  0  0  0  0  0  0  0  0  0  0  # atno 17394 bound_to 11000
  141.1695  133.6537  156.4599 LP  0  0  0  0  0  0  0  0  0  0  0  0  # atno 17395 bound_to 11000

$$$$
