#       Name:                AV-unprocessed.smi:1694
#       Creating user name   scv26
#       Creation time:       Fri Mar 27 07:54:58 2020


#       File generated by GOLD software.
#

@<TRIPOS>MOLECULE
AV-unprocessed.smi:1694
    39    40     1
SMALL
NO_CHARGES


@<TRIPOS>ATOM
      1 ****        -1.9368  -3.5258   0.5776 C.3            1 S1                 0.0000
      2 ****        -0.5835  -4.1717   0.3278 C.ar           1 S1                 0.0000
      3 ****        -0.4800  -5.5789   0.3420 C.ar           1 S1                 0.0000
      4 ****         0.7703  -6.1775   0.1129 C.ar           1 S1                 0.0000
      5 ****         1.8714  -5.3374  -0.1215 C.ar           1 S1                 0.0000
      6 ****         1.7807  -3.9920  -0.1381 N.ar           1 S1                 0.0000
      7 ****         0.5799  -3.3952   0.0760 C.ar           1 S1                 0.0000
      8 ****         0.3986  -1.9777   0.0926 N.am           1 S1                 0.0000
      9 ****         1.2219  -0.9641  -0.2509 C.2            1 S1                 0.0000
     10 ****         2.3630  -1.1826  -0.6545 O.2            1 S1                 0.0000
     11 ****         0.7265   0.2762  -0.1108 N.am           1 S1                 0.0000
     12 ****         1.4370   1.5145  -0.4082 C.3            1 S1                 0.0000
     13 ****         0.8210   2.6676   0.3931 C.3            1 S1                 0.0000
     14 ****         1.5587   3.9870   0.1170 C.3            1 S1                 0.0000
     15 ****         1.8149   4.2414  -1.3757 C.2            1 S1                 0.0000
     16 ****         2.0871   5.3775  -1.7566 O.2            1 S1                 0.0000
     17 ****         1.7704   3.2053  -2.2318 N.am           1 S1                 0.0000
     18 ****         1.3746   1.8332  -1.9153 C.3            1 S1                 0.0000
     19 ****        -2.7086  -4.2749   0.7568 H              1 S1                 0.0000
     20 ****        -2.2405  -2.9318  -0.2848 H              1 S1                 0.0000
     21 ****        -1.8944  -2.8738   1.4506 H              1 S1                 0.0000
     22 ****        -1.3474  -6.1957   0.5268 H              1 S1                 0.0000
     23 ****         0.8822  -7.2517   0.1184 H              1 S1                 0.0000
     24 ****         2.8514  -5.7548  -0.2997 H              1 S1                 0.0000
     25 ****        -0.4978  -1.6807   0.4496 H              1 S1                 0.0000
     26 ****        -0.2224   0.3650   0.2252 H              1 S1                 0.0000
     27 ****         2.4812   1.4110  -0.1062 H              1 S1                 0.0000
     28 ****        -0.2342   2.7777   0.1376 H              1 S1                 0.0000
     29 ****         0.8583   2.4461   1.4605 H              1 S1                 0.0000
     30 ****         0.9997   4.8228   0.5390 H              1 S1                 0.0000
     31 ****         2.5262   3.9737   0.6199 H              1 S1                 0.0000
     32 ****         1.9758   3.3987  -3.2013 H              1 S1                 0.0000
     33 ****         2.0056   1.1435  -2.4767 H              1 S1                 0.0000
     34 ****         0.3571   1.6965  -2.2840 H              1 S1                 0.0000
     35 ****         2.5945  -3.4361  -0.3073 LP             1 S1                 0.0000
     36 ****         2.6942  -2.1229  -0.7325 LP             1 S1                 0.0000
     37 ****         2.9595  -0.4200  -0.9046 LP             1 S1                 0.0000
     38 ****         2.1402   6.1268  -1.0965 LP             1 S1                 0.0000
     39 ****         2.2555   5.5527  -2.7266 LP             1 S1                 0.0000
@<TRIPOS>BOND
    1    1    2 1     
    2    1   19 1     
    3    1   20 1     
    4    1   21 1     
    5    2    7 ar    
    6    2    3 ar    
    7    3    4 ar    
    8    3   22 1     
    9    4    5 ar    
   10    4   23 1     
   11    5    6 ar    
   12    5   24 1     
   13    6    7 ar    
   14    7    8 1     
   15    8    9 am    
   16    8   25 1     
   17    9   10 2     
   18    9   11 am    
   19   11   12 1     
   20   11   26 1     
   21   12   18 1     
   22   12   13 1     
   23   12   27 1     
   24   13   14 1     
   25   13   28 1     
   26   13   29 1     
   27   14   15 1     
   28   14   30 1     
   29   14   31 1     
   30   15   16 2     
   31   15   17 am    
   32   17   18 1     
   33   17   32 1     
   34   18   33 1     
   35   18   34 1     
   36    6   35 1     
   37   10   36 1     
   38   10   37 1     
   39   16   38 1     
   40   16   39 1     
@<TRIPOS>SUBSTRUCTURE
      1 S1             1
@<TRIPOS>SET
LONE_PAIRS      STATIC     ATOMS    <user>   **** ""
5 35 36 37 38 39
DONOR_HYDROGENS      STATIC     ATOMS    <user>   **** ""
3 25 26 32
ATOM$BLUE        STATIC     ATOMS    COLORGROUP SYSTEM
5 35 36 37 38 39
ATOM$RED        STATIC     ATOMS    COLORGROUP SYSTEM
3 25 26 32
