AV-unprocessed.smi:109|AV-procd|sdf|1038|dock6
  -GOLD-   2262018 63D 1   1.00000     0.00000
 Structure written by MMmdl.
 58 61  0  0  0  0  0  0  0  0  1 V2000
  142.9418  133.1714  157.2440 O   0  0  0  0  0  0  0  0  0  0  0  0
  144.1320  133.3711  157.9752 C   0  0  0  0  0  0  0  0  0  0  0  0
  144.6995  134.7704  157.6794 C   0  0  0  0  0  0  0  0  0  0  0  0
  146.2412  134.8094  157.5414 C   0  0  1  0  0  0  0  0  0  0  0  0
  146.6258  135.9722  156.7377 N   0  0  0  0  0  0  0  0  0  0  0  0
  146.1599  136.1677  155.4835 C   0  0  0  0  0  0  0  0  0  0  0  0
  145.5946  137.3455  155.1106 N   0  0  0  0  0  0  0  0  0  0  0  0
  145.1487  137.5099  153.8614 C   0  0  0  0  0  0  0  0  0  0  0  0
  145.1705  136.6431  152.8463 N   0  0  0  0  0  0  0  0  0  0  0  0
  145.7369  135.4589  153.2181 C   0  0  0  0  0  0  0  0  0  0  0  0
  146.2512  135.1440  154.5057 C   0  0  0  0  0  0  0  0  0  0  0  0
  146.7549  133.8495  154.5058 N   0  0  0  0  0  0  0  0  0  0  0  0
  146.5502  133.4300  153.2852 C   0  0  0  0  0  0  0  0  0  0  0  0
  145.9315  134.3345  152.4478 N   0  0  0  0  0  0  0  0  0  0  0  0
  145.5559  134.1954  151.0059 C   0  0  1  0  0  0  0  0  0  0  0  0
  146.3149  133.1642  150.4367 O   0  0  0  0  0  0  0  0  0  0  0  0
  145.4846  132.1267  149.9114 C   0  0  1  0  0  0  0  0  0  0  0  0
  145.4086  130.9699  150.9318 C   0  0  0  0  0  0  0  0  0  0  0  0
  146.6768  130.7641  151.5162 O   0  0  0  0  0  0  0  0  0  0  0  0
  144.1631  132.8622  149.6503 C   0  0  1  0  0  0  0  0  0  0  0  0
  143.0243  132.0344  149.4990 O   0  0  0  0  0  0  0  0  0  0  0  0
  144.0669  133.8488  150.8026 C   0  0  1  0  0  0  0  0  0  0  0  0
  143.4423  133.2897  151.9483 O   0  0  0  0  0  0  0  0  0  0  0  0
  146.9927  134.8503  158.9027 C   0  0  0  0  0  0  0  0  0  0  0  0
  146.6575  133.6017  159.7585 C   0  0  0  0  0  0  0  0  0  0  0  0
  147.3794  133.6047  161.1147 C   0  0  0  0  0  0  0  0  0  0  0  0
  147.0588  134.8754  161.9106 C   0  0  0  0  0  0  0  0  0  0  0  0
  147.4059  136.1246  161.0923 C   0  0  0  0  0  0  0  0  0  0  0  0
  146.6907  136.1245  159.7309 C   0  0  0  0  0  0  0  0  0  0  0  0
  145.8407  135.1462  150.5532 H   0  0  0  0  0  0  0  0  0  0  0  0
  145.8924  131.7580  148.9690 H   0  0  0  0  0  0  0  0  0  0  0  0
  144.2744  133.4324  148.7267 H   0  0  0  0  0  0  0  0  0  0  0  0
  143.5179  134.7474  150.5191 H   0  0  0  0  0  0  0  0  0  0  0  0
  143.1399  132.6441  156.4854 H   0  0  0  0  0  0  0  0  0  0  0  0
  143.9178  133.2601  159.0386 H   0  0  0  0  0  0  0  0  0  0  0  0
  144.8400  132.5893  157.6999 H   0  0  0  0  0  0  0  0  0  0  0  0
  144.2385  135.1720  156.7760 H   0  0  0  0  0  0  0  0  0  0  0  0
  144.3853  135.4148  158.4987 H   0  0  0  0  0  0  0  0  0  0  0  0
  146.5438  133.8837  157.0533 H   0  0  0  0  0  0  0  0  0  0  0  0
  147.1789  136.6655  157.2211 H   0  0  0  0  0  0  0  0  0  0  0  0
  144.7126  138.4738  153.6449 H   0  0  0  0  0  0  0  0  0  0  0  0
  146.8516  132.4433  152.9655 H   0  0  0  0  0  0  0  0  0  0  0  0
  144.6649  131.1489  151.7069 H   0  0  0  0  0  0  0  0  0  0  0  0
  145.1353  130.0378  150.4383 H   0  0  0  0  0  0  0  0  0  0  0  0
  147.3289  130.7810  150.8323 H   0  0  0  0  0  0  0  0  0  0  0  0
  142.2535  132.5814  149.5040 H   0  0  0  0  0  0  0  0  0  0  0  0
  143.6350  133.8427  152.6902 H   0  0  0  0  0  0  0  0  0  0  0  0
  148.0643  134.8388  158.6964 H   0  0  0  0  0  0  0  0  0  0  0  0
  145.5800  133.5500  159.9224 H   0  0  0  0  0  0  0  0  0  0  0  0
  146.9276  132.6874  159.2301 H   0  0  0  0  0  0  0  0  0  0  0  0
  147.0915  132.7245  161.6902 H   0  0  0  0  0  0  0  0  0  0  0  0
  148.4560  133.5325  160.9559 H   0  0  0  0  0  0  0  0  0  0  0  0
  146.0002  134.8890  162.1732 H   0  0  0  0  0  0  0  0  0  0  0  0
  147.6130  134.8782  162.8496 H   0  0  0  0  0  0  0  0  0  0  0  0
  147.1365  137.0207  161.6522 H   0  0  0  0  0  0  0  0  0  0  0  0
  148.4846  136.1708  160.9369 H   0  0  0  0  0  0  0  0  0  0  0  0
  147.0093  137.0183  159.1972 H   0  0  0  0  0  0  0  0  0  0  0  0
  145.6146  136.2186  159.8834 H   0  0  0  0  0  0  0  0  0  0  0  0
  1  2  1  0  0  0  0
  1 34  1  0  0  0  0
  2  3  1  0  0  0  0
  2 35  1  0  0  0  0
  2 36  1  0  0  0  0
  3  4  1  0  0  0  0
  3 37  1  0  0  0  0
  3 38  1  0  0  0  0
  4  5  1  0  0  0  0
  4 24  1  0  0  0  0
  4 39  1  0  0  0  0
  5  6  1  0  0  0  0
  5 40  1  0  0  0  0
  6 11  1  0  0  0  0
  6  7  2  0  0  0  0
  7  8  1  0  0  0  0
  8  9  2  0  0  0  0
  8 41  1  0  0  0  0
  9 10  1  0  0  0  0
 10 14  1  0  0  0  0
 10 11  2  0  0  0  0
 11 12  1  0  0  0  0
 12 13  2  0  0  0  0
 13 14  1  0  0  0  0
 13 42  1  0  0  0  0
 14 15  1  0  0  0  0
 15 30  1  0  0  0  0
 15 22  1  0  0  0  0
 15 16  1  0  0  0  0
 16 17  1  0  0  0  0
 17 31  1  0  0  0  0
 17 18  1  0  0  0  0
 17 20  1  0  0  0  0
 18 19  1  0  0  0  0
 18 43  1  0  0  0  0
 18 44  1  0  0  0  0
 19 45  1  0  0  0  0
 20 32  1  0  0  0  0
 20 21  1  0  0  0  0
 20 22  1  0  0  0  0
 21 46  1  0  0  0  0
 22 33  1  0  0  0  0
 22 23  1  0  0  0  0
 23 47  1  0  0  0  0
 24 29  1  0  0  0  0
 24 25  1  0  0  0  0
 24 48  1  0  0  0  0
 25 26  1  0  0  0  0
 25 49  1  0  0  0  0
 25 50  1  0  0  0  0
 26 27  1  0  0  0  0
 26 51  1  0  0  0  0
 26 52  1  0  0  0  0
 27 28  1  0  0  0  0
 27 53  1  0  0  0  0
 27 54  1  0  0  0  0
 28 29  1  0  0  0  0
 28 55  1  0  0  0  0
 28 56  1  0  0  0  0
 29 57  1  0  0  0  0
 29 58  1  0  0  0  0
M  END
> <s_m_source_file>
AV-unprocessed.smi

> <i_m_source_file_index>
109

> <i_lp_mmshare_version>
43012

> <i_f3d_flags>
0

> <s_epik_input>
W0NIMl0xW0NIMl1bQ0gyXVtDSDJdW0NIMl1bQ0hdMVtDQEhdKFtDSDJdW0NIMl1bT0hdKVtOSF1jKG5bY0hdbjIpYyhjMjMpbltjSF1uM1tDQEBIXTRPW0NASF0oW0NIMl1bT0hdKVtDQEBIXShbT0hdKVtDQEhdNFtPSF0=

> <s_epik_cmdline>
J2VwaWtfcHl0aG9uJywgJy1waCcsICc3LjAnLCAnLXRuJywgJzgnLCAnLW1hJywgJzIwMCcsICctbWV0YWxfYmluZGluZycsICctaW1hZScsICc8aW5maWxlLm1hZT4nLCAnLW9tYWUnLCAnPG91dGZpbGUubWFlPic=

> <r_lp_tautomer_probability>
1

> <r_epik_Ionization_Penalty>
0.000793976

> <r_epik_Ionization_Penalty_Charging>
0

> <r_epik_Ionization_Penalty_Neutral>
0.000793976

> <r_epik_State_Penalty>
-0

> <r_epik_Charging_Adjusted_Penalty>
0

> <i_epik_Tot_Q>
0

> <i_epik_Tot_abs_Q>
0

> <r_epik_Metal_State_Penalty>
-0

> <b_epik_Metal_Only>
0

> <s_epik_Chemistry_Notes>
This compound contains an acetal/aminal-like group ( X-CH(R)-Y where X, Y are N, S, or O) that may be acid/base labile, releasing an aldehyde.

> <s_lp_Force_Field>
OPLS_2005

> <r_lp_Energy>
62.3675

> <b_lp_Chiralities_Consistent>
1

> <s_lp_Variant>
AV-unprocessed.smi:109-8

> <Gold.Version>
5.8.1

> <Gold.Id.Protein>
6NUR|6NUR_protein|mol2

> <Gold.PLP.Fitness>
50.4695

> <Gold.PLP.PLP>
-37.3360

> <Gold.PLP.part.hbond>
-5.7889

> <Gold.PLP.part.metal>
0.0000

> <Gold.PLP.part.buried>
-8.8609

> <Gold.PLP.part.nonpolar>
-23.4479

> <Gold.PLP.part.repulsive>
0.4771

> <Gold.PLP.ligand.clash>
0.0000

> <Gold.PLP.ligand.torsion>
1.8100

> <Gold.PLP.Chemscore.Hbond>
4.5763

> <Gold.PLP.Chemscore.CHOScore>
0.9680

> <Gold.PLP.Chemscore.Metal>
0.0000

> <Gold.Chemscore.Hbonds>
donor molecule, donor type, donor heavy atom, donor atom, acceptor molecule, acceptor atom, score
      L1  H     1    34       P1 10957  1.00
      L1  H    19    45       P1 10747  1.00
      L1  H    21    46       P1 10186  0.55
      P1  H 10785 10796       L1    21  0.96
      P1  H 11000 11005       L1     1  1.00
      L1  C     8    41       P1 10175  1.00

> <Gold.PLP.Chemscore.Internal.Correction>
0.1206

> <Gold.Rescore>
     Score         DG    S(hbond)    S(metal)    S(lipo)     H(rot)  DE(clash)    DE(int)     intcor
     12.98     -14.96       4.51        0.00      71.80       5.47       0.02       1.95       ----

> <Gold.Chemscore.Fitness>
12.9829

> <Gold.Chemscore.DG>
-14.9550

> <Gold.Chemscore.ZeroCoef>
-5.4800

> <Gold.Chemscore.Hbond>
4.5112

> <Gold.Chemscore.Metal>
0.0000

> <Gold.Chemscore.Lipo>
71.8038

> <Gold.Chemscore.Internal_Hbond>
0.0000

> <Gold.Chemscore.DEClash>
0.0202

> <Gold.Chemscore.DEInternal>
1.9519

> <Gold.Chemscore.Rot>
5.4662

> <Gold.Chemscore.Internal.Correction>
   9.000000E+99

> <Gold.Chemscore.Hbonds>
donor molecule, donor type, donor heavy atom, donor atom, acceptor molecule, acceptor atom, score
      L1  H     1    34       P1 10957  0.96
      L1  H    19    45       P1 10747  0.97
      L1  H    21    46       P1 10186  0.54
      P1  H 10785 10796       L1    21  0.90
      P1  H 11000 11005       L1     1  0.40

> <Gold.Chemscore.Hbond.Weighted>
-15.0675

> <Gold.Chemscore.Metal.Weighted>
-0.0000

> <Gold.Chemscore.Lipo.Weighted>
-8.4010

> <Gold.Chemscore.Internal_Hbond.Weighted>
0.0000

> <Gold.Chemscore.DEClash.Weighted>
0.0202

> <Gold.Chemscore.DEInternal.Weighted>
1.9519

> <Gold.Chemscore.Rot.Weighted>
13.9935

> <Gold.Chemscore.Internal.Correction.Weighted>
   9.000000E+99

> <Gold.Protein.RotatedTorsions>
[ 6907 6896 6895 6894 ] final   78.89 input  -60.11 | X-H torsion
[ 7974 7965 7964 7962 ] final  125.66 input  175.53 | X-H torsion
[ 8008 7997 7996 7995 ] final -132.95 input   59.86 | X-H torsion
[ 10167 10162 10161 10158 ] final  116.87 input  -65.29 | X-H torsion
[ 10718 10713 10712 10709 ] final  137.66 input   66.30 | X-H torsion
[ 10763 10752 10751 10750 ] final -141.33 input  -60.55 | X-H torsion
[ 11005 11000 10999 10996 ] final  -86.83 input  -57.11 | X-H torsion

> <Gold.Protein.ActiveResidues>
 VAL166  LYS551  ARG553  GLY616  TRP617  ASP618  TYR619  PRO620  LYS621  CYS622 
 ASP623  PHE694  ASN695  SER759  ASP760  ASP761  ALA762  ILE779  LEU786  VAL792 
 PHE793  MET794  SER795  GLU796  ALA797  LYS798  CYS799  TRP800  GLU811  SER814 

> <Gold.Protein.RotatedAtoms>
  152.5177  134.3595  159.9279 H   0  0  0  0  0  0  0  0  0  0  0  0  # atno 6907 bound_to 6896
  151.3547  133.3905  159.2691 H   0  0  0  0  0  0  0  0  0  0  0  0  # atno 6908 bound_to 6896
  150.9699  134.9092  159.7839 H   0  0  0  0  0  0  0  0  0  0  0  0  # atno 6909 bound_to 6896
  145.0705  139.3734  143.4960 H   0  0  0  0  0  0  0  0  0  0  0  0  # atno 7974 bound_to 7965
  155.3374  140.0470  157.3044 H   0  0  0  0  0  0  0  0  0  0  0  0  # atno 8008 bound_to 7997
  154.5296  140.2252  155.8794 H   0  0  0  0  0  0  0  0  0  0  0  0  # atno 8009 bound_to 7997
  156.1774  140.3082  155.9091 H   0  0  0  0  0  0  0  0  0  0  0  0  # atno 8010 bound_to 7997
  139.6217  144.7102  151.2620 H   0  0  0  0  0  0  0  0  0  0  0  0  # atno 10167 bound_to 10162
  157.4336  131.1051  151.0222 H   0  0  0  0  0  0  0  0  0  0  0  0  # atno 10718 bound_to 10713
  154.8549  135.3527  154.5850 H   0  0  0  0  0  0  0  0  0  0  0  0  # atno 10763 bound_to 10752
  153.6460  135.6996  153.5229 H   0  0  0  0  0  0  0  0  0  0  0  0  # atno 10764 bound_to 10752
  153.2932  135.4228  155.1144 H   0  0  0  0  0  0  0  0  0  0  0  0  # atno 10765 bound_to 10752
  141.1625  133.7476  156.9218 H   0  0  0  0  0  0  0  0  0  0  0  0  # atno 11005 bound_to 11000
  146.3528  140.0447  142.8640 LP  0  0  0  0  0  0  0  0  0  0  0  0  # atno 17320 bound_to 7965
  145.1298  140.9511  143.4551 LP  0  0  0  0  0  0  0  0  0  0  0  0  # atno 17321 bound_to 7965
  140.7386  143.6643  150.8137 LP  0  0  0  0  0  0  0  0  0  0  0  0  # atno 17342 bound_to 10162
  140.0255  143.5498  152.2782 LP  0  0  0  0  0  0  0  0  0  0  0  0  # atno 17343 bound_to 10162
  157.1110  130.6021  149.5482 LP  0  0  0  0  0  0  0  0  0  0  0  0  # atno 17370 bound_to 10713
  155.9922  130.4979  150.7332 LP  0  0  0  0  0  0  0  0  0  0  0  0  # atno 17371 bound_to 10713
  140.1446  134.9271  157.2512 LP  0  0  0  0  0  0  0  0  0  0  0  0  # atno 17394 bound_to 11000
  140.2795  134.3366  155.7347 LP  0  0  0  0  0  0  0  0  0  0  0  0  # atno 17395 bound_to 11000

$$$$
