#       Name:                AV-unprocessed.smi:38
#       Creating user name   scv26
#       Creation time:       Thu Mar 26 16:17:25 2020


#       File generated by GOLD software.
#

@<TRIPOS>MOLECULE
AV-unprocessed.smi:38
    38    39     1
SMALL
NO_CHARGES


@<TRIPOS>ATOM
      1 ****         0.8130   4.7152  -1.5697 O.2            1 S1                 0.0000
      2 ****         0.3907   3.6472  -1.1309 C.2            1 S1                 0.0000
      3 ****        -0.6499   2.9812  -1.7839 N.am           1 S1                 0.0000
      4 ****        -1.2104   1.7661  -1.3864 C.2            1 S1                 0.0000
      5 ****        -2.1401   1.2792  -2.0284 O.2            1 S1                 0.0000
      6 ****        -0.6694   1.1468  -0.2374 N.am           1 S1                 0.0000
      7 ****        -1.2752  -0.1636   0.2244 C.3            1 S1                 0.0000
      8 ****        -1.0257  -1.2864  -0.7937 C.3            1 S1                 0.0000
      9 ****        -0.7423  -2.4620   0.1158 C.3            1 S1                 0.0000
     10 ****        -0.0383  -3.4940  -0.5458 O.3            1 S1                 0.0000
     11 ****         0.0184  -1.8084   1.2756 C.3            1 S1                 0.0000
     12 ****         1.5120  -1.5242   0.9995 C.3            1 S1                 0.0000
     13 ****         2.1641  -1.1799   2.2029 O.3            1 S1                 0.0000
     14 ****        -0.6776  -0.5694   1.4262 O.3            1 S1                 0.0000
     15 ****         0.3500   1.7879   0.4589 C.2            1 S1                 0.0000
     16 ****         0.8822   2.9691   0.0647 C.2            1 S1                 0.0000
     17 ****         1.8690   3.5259   0.7874 F              1 S1                 0.0000
     18 ****        -1.0321   3.4190  -2.6095 H              1 S1                 0.0000
     19 ****        -2.3322   0.0461   0.3996 H              1 S1                 0.0000
     20 ****        -1.6866  -2.8642   0.4858 H              1 S1                 0.0000
     21 ****        -0.0824  -2.4144   2.1771 H              1 S1                 0.0000
     22 ****        -1.8879  -1.4350  -1.4444 H              1 S1                 0.0000
     23 ****        -0.1533  -1.0473  -1.4045 H              1 S1                 0.0000
     24 ****         0.1075  -4.1991   0.0667 H              1 S1                 0.0000
     25 ****         2.0107  -2.4158   0.6198 H              1 S1                 0.0000
     26 ****         1.6534  -0.7411   0.2553 H              1 S1                 0.0000
     27 ****         3.0787  -1.0298   2.0170 H              1 S1                 0.0000
     28 ****         0.7550   1.3500   1.3585 H              1 S1                 0.0000
     29 ****         1.5546   5.1916  -1.0975 LP             1 S1                 0.0000
     30 ****         0.4148   5.1076  -2.3989 LP             1 S1                 0.0000
     31 ****        -2.4938   1.7539  -2.8344 LP             1 S1                 0.0000
     32 ****        -2.5422   0.4088  -1.7443 LP             1 S1                 0.0000
     33 ****         0.8396  -3.1461  -0.8746 LP             1 S1                 0.0000
     34 ****        -0.5764  -3.8262  -1.3205 LP             1 S1                 0.0000
     35 ****         2.0721  -1.9265   2.8617 LP             1 S1                 0.0000
     36 ****         1.7562  -0.3490   2.5816 LP             1 S1                 0.0000
     37 ****        -1.3882  -0.6787   2.1212 LP             1 S1                 0.0000
     38 ****        -0.0295   0.1333   1.7198 LP             1 S1                 0.0000
@<TRIPOS>BOND
    1    1    2 2     
    2    2   16 1     
    3    2    3 1     
    4    3   18 1     
    5    3    4 1     
    6    4    5 2     
    7    4    6 1     
    8    6    7 1     
    9    6   15 1     
   10    7   19 1     
   11    7   14 1     
   12    7    8 1     
   13    8    9 1     
   14    8   22 1     
   15    8   23 1     
   16    9   20 1     
   17    9   10 1     
   18    9   11 1     
   19   10   24 1     
   20   11   21 1     
   21   11   12 1     
   22   11   14 1     
   23   12   13 1     
   24   12   25 1     
   25   12   26 1     
   26   13   27 1     
   27   15   16 2     
   28   15   28 1     
   29   16   17 1     
   30    1   29 1     
   31    1   30 1     
   32    5   31 1     
   33    5   32 1     
   34   10   33 1     
   35   10   34 1     
   36   13   35 1     
   37   13   36 1     
   38   14   37 1     
   39   14   38 1     
@<TRIPOS>SUBSTRUCTURE
      1 S1             1
@<TRIPOS>SET
LONE_PAIRS      STATIC     ATOMS    <user>   **** ""
10 29 30 31 32 33 34 35 36 37 38
DONOR_HYDROGENS      STATIC     ATOMS    <user>   **** ""
3 18 24 27
ATOM$BLUE        STATIC     ATOMS    COLORGROUP SYSTEM
10 29 30 31 32 33 34 35 36 37 38
ATOM$RED        STATIC     ATOMS    COLORGROUP SYSTEM
3 18 24 27
