AV-unprocessed.smi:2068|AV-procd|sdf|8430|dock2
  -GOLD-   2272011123D 1   1.00000     0.00000
 Structure written by MMmdl.
 32 33  0  0  0  0  0  0  0  0  2 V2000
  148.1976  135.5541  154.2581 N   0  0  0  0  0  0  0  0  0  0  0  0
  149.0227  135.0539  155.1831 C   0  0  0  0  0  0  0  0  0  0  0  0
  148.6120  134.4258  156.1570 O   0  0  0  0  0  0  0  0  0  0  0  0
  150.5220  135.3076  155.0011 C   0  0  0  0  0  0  0  0  0  0  0  0
  150.8611  136.7410  155.2944 C   0  0  0  0  0  0  0  0  0  0  0  0
  151.3332  137.6766  154.4100 C   0  0  0  0  0  0  0  0  0  0  0  0
  151.5791  139.2200  155.1761 S   0  0  0  0  0  0  0  0  0  0  0  0
  151.0230  138.5372  156.7049 C   0  0  0  0  0  0  0  0  0  0  0  0
  150.9334  139.2107  157.8620 N   0  5  0  0  0  0  0  0  0  0  0  0
  151.9190  140.0732  158.2094 C   0  0  0  0  0  0  0  0  0  0  0  0
  153.1000  140.0780  157.8586 O   0  0  0  0  0  0  0  0  0  0  0  0
  151.4198  141.1722  159.1579 C   0  0  0  0  0  0  0  0  0  0  0  0
  152.3798  142.3792  159.2428 C   0  0  1  0  0  0  0  0  0  0  0  0
  152.1832  143.3970  158.1450 C   0  0  0  0  0  0  0  0  0  0  0  0
  152.0249  144.6330  158.6126 C   0  0  0  0  0  0  0  0  0  0  0  0
  152.0824  144.6922  160.1137 C   0  0  0  0  0  0  0  0  0  0  0  0
  152.2044  143.2117  160.5387 C   0  0  0  0  0  0  0  0  0  0  0  0
  150.7060  137.2431  156.5897 N   0  0  0  0  0  0  0  0  0  0  0  0
  147.2037  135.3912  154.3280 H   0  0  0  0  0  0  0  0  0  0  0  0
  148.5751  136.0754  153.4792 H   0  0  0  0  0  0  0  0  0  0  0  0
  151.0762  134.6333  155.6557 H   0  0  0  0  0  0  0  0  0  0  0  0
  150.8103  135.0507  153.9810 H   0  0  0  0  0  0  0  0  0  0  0  0
  151.5443  137.5544  153.3584 H   0  0  0  0  0  0  0  0  0  0  0  0
  150.4221  141.5107  158.8699 H   0  0  0  0  0  0  0  0  0  0  0  0
  151.3089  140.7301  160.1486 H   0  0  0  0  0  0  0  0  0  0  0  0
  153.4111  142.0292  159.1765 H   0  0  0  0  0  0  0  0  0  0  0  0
  152.1889  143.1268  157.0988 H   0  0  0  0  0  0  0  0  0  0  0  0
  151.8818  145.5148  158.0056 H   0  0  0  0  0  0  0  0  0  0  0  0
  152.9485  145.2754  160.4281 H   0  0  0  0  0  0  0  0  0  0  0  0
  151.1821  145.1573  160.5161 H   0  0  0  0  0  0  0  0  0  0  0  0
  151.3013  142.9111  161.0717 H   0  0  0  0  0  0  0  0  0  0  0  0
  153.0412  143.0616  161.2216 H   0  0  0  0  0  0  0  0  0  0  0  0
  1  2  1  0  0  0  0
  1 19  1  0  0  0  0
  1 20  1  0  0  0  0
  2  3  2  0  0  0  0
  2  4  1  0  0  0  0
  4  5  1  0  0  0  0
  4 21  1  0  0  0  0
  4 22  1  0  0  0  0
  5 18  1  0  0  0  0
  5  6  2  0  0  0  0
  6  7  1  0  0  0  0
  6 23  1  0  0  0  0
  7  8  1  0  0  0  0
  8  9  1  0  0  0  0
  8 18  2  0  0  0  0
  9 10  1  0  0  0  0
 10 11  2  0  0  0  0
 10 12  1  0  0  0  0
 12 13  1  0  0  0  0
 12 24  1  0  0  0  0
 12 25  1  0  0  0  0
 13 17  1  0  0  0  0
 13 14  1  0  0  0  0
 13 26  1  0  0  0  0
 14 15  2  0  0  0  0
 14 27  1  0  0  0  0
 15 16  1  0  0  0  0
 15 28  1  0  0  0  0
 16 17  1  0  0  0  0
 16 29  1  0  0  0  0
 16 30  1  0  0  0  0
 17 31  1  0  0  0  0
 17 32  1  0  0  0  0
M  CHG  1   9  -1
M  END
> <s_m_source_file>
AV-unprocessed.smi

> <i_m_source_file_index>
2068

> <i_lp_mmshare_version>
43012

> <i_f3d_flags>
0

> <s_epik_input>
W05IMl1DKD1PKVtDSDJdYzFbY0hdc2MobjEpW05IXUMoPU8pW0NIMl1bQ0BASF0yW0NIXT1bQ0hdW0NIMl1bQ0gyXTI=

> <s_epik_cmdline>
J2VwaWtfcHl0aG9uJywgJy1waCcsICc3LjAnLCAnLXRuJywgJzgnLCAnLW1hJywgJzIwMCcsICctbWV0YWxfYmluZGluZycsICctaW1hZScsICc8aW5maWxlLm1hZT4nLCAnLW9tYWUnLCAnPG91dGZpbGUubWFlPic=

> <r_lp_tautomer_probability>
1

> <r_epik_Ionization_Penalty>
4.99584

> <r_epik_Ionization_Penalty_Charging>
4.63763

> <r_epik_Ionization_Penalty_Neutral>
0.358213

> <r_epik_State_Penalty>
4.63739

> <r_epik_Charging_Adjusted_Penalty>
9.27502

> <i_epik_Tot_Q>
-1

> <i_epik_Tot_abs_Q>
1

> <r_epik_Metal_State_Penalty>
0.891949

> <b_epik_Metal_Only>
1

> <s_lp_Force_Field>
OPLS_2005

> <r_lp_Energy>
14.2455

> <b_lp_Chiralities_Consistent>
1

> <s_lp_Variant>
AV-unprocessed.smi:2068-4

> <Gold.Version>
5.8.1

> <Gold.Id.Protein>
6NUR|6NUR_protein|mol2

> <Gold.PLP.Fitness>
41.9198

> <Gold.PLP.PLP>
-34.9627

> <Gold.PLP.part.hbond>
-2.0000

> <Gold.PLP.part.metal>
0.0000

> <Gold.PLP.part.buried>
-3.0490

> <Gold.PLP.part.nonpolar>
-30.5434

> <Gold.PLP.part.repulsive>
0.0164

> <Gold.PLP.ligand.clash>
0.0000

> <Gold.PLP.ligand.torsion>
1.1063

> <Gold.PLP.Chemscore.Hbond>
1.9920

> <Gold.PLP.Chemscore.CHOScore>
1.0000

> <Gold.PLP.Chemscore.Metal>
0.0000

> <Gold.Chemscore.Hbonds>
donor molecule, donor type, donor heavy atom, donor atom, acceptor molecule, acceptor atom, score
      L1  H     1    20       P1  7948  1.00
      P1  H  7997  8008       L1    11  1.00
      L1  C     6    23       P1  7949  1.00

> <Gold.PLP.Chemscore.Internal.Correction>
0.1936

> <Gold.Rescore>
     Score         DG    S(hbond)    S(metal)    S(lipo)     H(rot)  DE(clash)    DE(int)     intcor
     16.27     -17.46       1.98        0.00      93.17       2.17       0.02       1.17       ----

> <Gold.Chemscore.Fitness>
16.2720

> <Gold.Chemscore.DG>
-17.4618

> <Gold.Chemscore.ZeroCoef>
-5.4800

> <Gold.Chemscore.Hbond>
1.9829

> <Gold.Chemscore.Metal>
0.0000

> <Gold.Chemscore.Lipo>
93.1738

> <Gold.Chemscore.Internal_Hbond>
0.0000

> <Gold.Chemscore.DEClash>
0.0158

> <Gold.Chemscore.DEInternal>
1.1740

> <Gold.Chemscore.Rot>
2.1650

> <Gold.Chemscore.Internal.Correction>
   9.000000E+99

> <Gold.Chemscore.Hbonds>
donor molecule, donor type, donor heavy atom, donor atom, acceptor molecule, acceptor atom, score
      L1  H     1    20       P1  7948  0.95
      P1  H  7997  8008       L1    11  0.95

> <Gold.Chemscore.Hbond.Weighted>
-6.6229

> <Gold.Chemscore.Metal.Weighted>
-0.0000

> <Gold.Chemscore.Lipo.Weighted>
-10.9013

> <Gold.Chemscore.Internal_Hbond.Weighted>
0.0000

> <Gold.Chemscore.DEClash.Weighted>
0.0158

> <Gold.Chemscore.DEInternal.Weighted>
1.1740

> <Gold.Chemscore.Rot.Weighted>
5.5425

> <Gold.Chemscore.Internal.Correction.Weighted>
   9.000000E+99

> <Gold.Protein.RotatedTorsions>
[ 6907 6896 6895 6894 ] final  -43.52 input  -60.11 | X-H torsion
[ 7974 7965 7964 7962 ] final  -36.86 input  175.53 | X-H torsion
[ 8008 7997 7996 7995 ] final  -69.95 input   59.86 | X-H torsion
[ 10167 10162 10161 10158 ] final  132.24 input  -65.29 | X-H torsion
[ 10718 10713 10712 10709 ] final  153.92 input   66.30 | X-H torsion
[ 10763 10752 10751 10750 ] final   66.04 input  -60.55 | X-H torsion
[ 11005 11000 10999 10996 ] final   62.78 input  -57.11 | X-H torsion

> <Gold.Protein.ActiveResidues>
 VAL166  LYS551  ARG553  GLY616  TRP617  ASP618  TYR619  PRO620  LYS621  CYS622 
 ASP623  PHE694  ASN695  SER759  ASP760  ASP761  ALA762  ILE779  LEU786  VAL792 
 PHE793  MET794  SER795  GLU796  ALA797  LYS798  CYS799  TRP800  GLU811  SER814 

> <Gold.Protein.RotatedAtoms>
  150.9430  134.8837  159.7623 H   0  0  0  0  0  0  0  0  0  0  0  0  # atno 6907 bound_to 6896
  152.5088  134.3914  159.9395 H   0  0  0  0  0  0  0  0  0  0  0  0  # atno 6908 bound_to 6896
  151.3934  133.3741  159.2758 H   0  0  0  0  0  0  0  0  0  0  0  0  # atno 6909 bound_to 6896
  146.0625  140.6328  142.8990 H   0  0  0  0  0  0  0  0  0  0  0  0  # atno 7974 bound_to 7965
  154.4976  140.0843  156.7729 H   0  0  0  0  0  0  0  0  0  0  0  0  # atno 8008 bound_to 7997
  155.4080  140.3440  155.4243 H   0  0  0  0  0  0  0  0  0  0  0  0  # atno 8009 bound_to 7997
  156.1414  140.1530  156.8902 H   0  0  0  0  0  0  0  0  0  0  0  0  # atno 8010 bound_to 7997
  139.5348  144.6671  151.4823 H   0  0  0  0  0  0  0  0  0  0  0  0  # atno 10167 bound_to 10162
  157.2384  131.0754  151.1808 H   0  0  0  0  0  0  0  0  0  0  0  0  # atno 10718 bound_to 10713
  153.0122  135.5335  154.6762 H   0  0  0  0  0  0  0  0  0  0  0  0  # atno 10763 bound_to 10752
  154.5934  135.2861  155.0614 H   0  0  0  0  0  0  0  0  0  0  0  0  # atno 10764 bound_to 10752
  154.1698  135.6534  153.5059 H   0  0  0  0  0  0  0  0  0  0  0  0  # atno 10765 bound_to 10752
  140.0069  134.6356  155.9841 H   0  0  0  0  0  0  0  0  0  0  0  0  # atno 11005 bound_to 11000
  144.7183  140.4287  143.7027 LP  0  0  0  0  0  0  0  0  0  0  0  0  # atno 17320 bound_to 7965
  145.6535  139.1569  143.2849 LP  0  0  0  0  0  0  0  0  0  0  0  0  # atno 17321 bound_to 7965
  140.6548  143.8621  150.6824 LP  0  0  0  0  0  0  0  0  0  0  0  0  # atno 17342 bound_to 10162
  140.1997  143.3969  152.1801 LP  0  0  0  0  0  0  0  0  0  0  0  0  # atno 17343 bound_to 10162
  157.3405  130.7031  149.6378 LP  0  0  0  0  0  0  0  0  0  0  0  0  # atno 17370 bound_to 10713
  155.9671  130.4281  150.4774 LP  0  0  0  0  0  0  0  0  0  0  0  0  # atno 17371 bound_to 10713
  141.1683  133.6537  156.4559 LP  0  0  0  0  0  0  0  0  0  0  0  0  # atno 17394 bound_to 11000
  140.4625  134.6828  157.5092 LP  0  0  0  0  0  0  0  0  0  0  0  0  # atno 17395 bound_to 11000

$$$$
