AV-unprocessed.smi:189|AV-procd|sdf|1489|dock7
  -GOLD-   2262019313D 1   1.00000     0.00000
 Structure written by MMmdl.
 53 57  0  0  0  0  0  0  0  0  1 V2000
  150.4918  137.5770  154.8067 C   0  0  0  0  0  0  0  0  0  0  0  0
  150.1379  139.0399  155.1385 C   0  0  2  0  0  0  0  0  0  0  0  0
  151.3379  139.9740  155.3356 C   0  0  0  0  0  0  0  0  0  0  0  0
  150.7201  141.1845  156.0509 C   0  0  2  0  0  0  0  0  0  0  0  0
  151.5737  141.7748  157.1871 C   0  0  0  0  0  0  0  0  0  0  0  0
  150.8386  142.9097  157.9333 C   0  0  0  0  0  0  0  0  0  0  0  0
  149.3178  142.6769  158.0891 C   0  0  0  0  0  0  0  0  0  0  0  0
  148.9354  141.1965  157.9472 C   0  0  0  0  0  0  0  0  0  0  0  0
  149.3420  140.6847  156.5416 C   0  0  2  0  0  0  0  0  0  0  0  0
  149.2878  139.2374  156.3136 N   0  0  0  0  0  0  0  0  0  0  0  0
  149.4986  138.4224  157.3782 C   0  0  0  0  0  0  0  0  0  0  0  0
  150.7373  138.2795  157.9212 N   0  0  0  0  0  0  0  0  0  0  0  0
  150.9197  137.4680  158.9670 C   0  0  0  0  0  0  0  0  0  0  0  0
  150.0211  136.7172  159.6078 N   0  0  0  0  0  0  0  0  0  0  0  0
  148.7787  136.8578  159.0621 C   0  0  0  0  0  0  0  0  0  0  0  0
  148.4333  137.6890  157.9608 C   0  0  0  0  0  0  0  0  0  0  0  0
  147.0749  137.5874  157.6912 N   0  0  0  0  0  0  0  0  0  0  0  0
  146.6409  136.7367  158.5808 C   0  0  0  0  0  0  0  0  0  0  0  0
  147.5993  136.2366  159.4344 N   0  0  0  0  0  0  0  0  0  0  0  0
  147.3960  135.2654  160.4978 C   0  0  0  0  0  0  0  0  0  0  0  0
  146.6694  135.8521  161.7311 C   0  0  2  0  0  0  0  0  0  0  0  0
  146.2946  134.7917  162.5933 O   0  0  0  0  0  0  0  0  0  0  0  0
  145.4205  136.6631  161.3949 C   0  0  0  0  0  0  0  0  0  0  0  0
  145.3962  137.7200  162.4899 C   0  0  0  0  0  0  0  0  0  0  0  0
  146.7676  138.0492  162.6276 O   0  0  0  0  0  0  0  0  0  0  0  0
  147.5301  136.8501  162.5314 C   0  0  0  0  0  0  0  0  0  0  0  0
  151.0229  137.5167  153.8567 H   0  0  0  0  0  0  0  0  0  0  0  0
  149.5924  136.9666  154.7204 H   0  0  0  0  0  0  0  0  0  0  0  0
  151.1326  137.1251  155.5641 H   0  0  0  0  0  0  0  0  0  0  0  0
  149.5591  139.4191  154.2945 H   0  0  0  0  0  0  0  0  0  0  0  0
  152.0949  139.4991  155.9604 H   0  0  0  0  0  0  0  0  0  0  0  0
  151.8132  140.2439  154.3923 H   0  0  0  0  0  0  0  0  0  0  0  0
  150.5472  141.9708  155.3146 H   0  0  0  0  0  0  0  0  0  0  0  0
  151.8169  140.9849  157.8986 H   0  0  0  0  0  0  0  0  0  0  0  0
  152.5271  142.1363  156.8010 H   0  0  0  0  0  0  0  0  0  0  0  0
  151.2945  143.0314  158.9164 H   0  0  0  0  0  0  0  0  0  0  0  0
  150.9967  143.8548  157.4126 H   0  0  0  0  0  0  0  0  0  0  0  0
  148.9782  143.0679  159.0487 H   0  0  0  0  0  0  0  0  0  0  0  0
  148.7865  143.2476  157.3261 H   0  0  0  0  0  0  0  0  0  0  0  0
  149.4339  140.6473  158.7455 H   0  0  0  0  0  0  0  0  0  0  0  0
  147.8648  141.0592  158.0996 H   0  0  0  0  0  0  0  0  0  0  0  0
  148.6031  141.0960  155.8519 H   0  0  0  0  0  0  0  0  0  0  0  0
  151.9307  137.4100  159.3422 H   0  0  0  0  0  0  0  0  0  0  0  0
  145.6030  136.4418  158.6326 H   0  0  0  0  0  0  0  0  0  0  0  0
  146.8388  134.4189  160.0945 H   0  0  0  0  0  0  0  0  0  0  0  0
  148.3731  134.8776  160.7894 H   0  0  0  0  0  0  0  0  0  0  0  0
  146.4423  133.9732  162.1448 H   0  0  0  0  0  0  0  0  0  0  0  0
  145.5415  137.1616  160.4323 H   0  0  0  0  0  0  0  0  0  0  0  0
  144.5070  136.0685  161.3486 H   0  0  0  0  0  0  0  0  0  0  0  0
  144.7959  138.5903  162.2240 H   0  0  0  0  0  0  0  0  0  0  0  0
  145.0179  137.3082  163.4271 H   0  0  0  0  0  0  0  0  0  0  0  0
  147.7595  136.4833  163.5332 H   0  0  0  0  0  0  0  0  0  0  0  0
  148.4789  137.0688  162.0403 H   0  0  0  0  0  0  0  0  0  0  0  0
  1  2  1  0  0  0  0
  1 27  1  0  0  0  0
  1 28  1  0  0  0  0
  1 29  1  0  0  0  0
  2 10  1  0  0  0  0
  2  3  1  0  0  0  0
  2 30  1  0  0  0  0
  3  4  1  0  0  0  0
  3 31  1  0  0  0  0
  3 32  1  0  0  0  0
  4  9  1  0  0  0  0
  4  5  1  0  0  0  0
  4 33  1  0  0  0  0
  5  6  1  0  0  0  0
  5 34  1  0  0  0  0
  5 35  1  0  0  0  0
  6  7  1  0  0  0  0
  6 36  1  0  0  0  0
  6 37  1  0  0  0  0
  7  8  1  0  0  0  0
  7 38  1  0  0  0  0
  7 39  1  0  0  0  0
  8  9  1  0  0  0  0
  8 40  1  0  0  0  0
  8 41  1  0  0  0  0
  9 10  1  0  0  0  0
  9 42  1  0  0  0  0
 10 11  1  0  0  0  0
 11 16  1  0  0  0  0
 11 12  2  0  0  0  0
 12 13  1  0  0  0  0
 13 14  2  0  0  0  0
 13 43  1  0  0  0  0
 14 15  1  0  0  0  0
 15 19  1  0  0  0  0
 15 16  2  0  0  0  0
 16 17  1  0  0  0  0
 17 18  2  0  0  0  0
 18 19  1  0  0  0  0
 18 44  1  0  0  0  0
 19 20  1  0  0  0  0
 20 21  1  0  0  0  0
 20 45  1  0  0  0  0
 20 46  1  0  0  0  0
 21 26  1  0  0  0  0
 21 22  1  0  0  0  0
 21 23  1  0  0  0  0
 22 47  1  0  0  0  0
 23 24  1  0  0  0  0
 23 48  1  0  0  0  0
 23 49  1  0  0  0  0
 24 25  1  0  0  0  0
 24 50  1  0  0  0  0
 24 51  1  0  0  0  0
 25 26  1  0  0  0  0
 26 52  1  0  0  0  0
 26 53  1  0  0  0  0
M  END
> <s_m_source_file>
AV-unprocessed.smi

> <i_m_source_file_index>
189

> <i_lp_mmshare_version>
43012

> <i_f3d_flags>
0

> <s_epik_input>
W0NIMl0xW0NIMl1bQ0gyXVtDSDJdW0NASF0oW0NASF0xMilOKFtDQEhdKFtDSDNdKVtDSDJdMiljKG5bY0hdbjMpYyhjMzQpbltjSF1uNFtDSDJdW0NAQF01KFtPSF0pW0NIMl1bQ0gyXU9bQ0gyXTU=

> <s_epik_cmdline>
J2VwaWtfcHl0aG9uJywgJy1waCcsICc3LjAnLCAnLXRuJywgJzgnLCAnLW1hJywgJzIwMCcsICctbWV0YWxfYmluZGluZycsICctaW1hZScsICc8aW5maWxlLm1hZT4nLCAnLW9tYWUnLCAnPG91dGZpbGUubWFlPic=

> <r_lp_tautomer_probability>
1

> <r_epik_Ionization_Penalty>
0.00594261

> <r_epik_Ionization_Penalty_Charging>
0

> <r_epik_Ionization_Penalty_Neutral>
0.00594261

> <r_epik_State_Penalty>
0.00429776

> <r_epik_Charging_Adjusted_Penalty>
0.00429776

> <i_epik_Tot_Q>
0

> <i_epik_Tot_abs_Q>
0

> <r_epik_Metal_State_Penalty>
-0

> <b_epik_Metal_Only>
0

> <s_lp_Force_Field>
OPLS_2005

> <r_lp_Energy>
67.2452

> <b_lp_Chiralities_Consistent>
1

> <s_lp_Variant>
AV-unprocessed.smi:189-15

> <Gold.Version>
5.8.1

> <Gold.Id.Protein>
6NUR|6NUR_protein|mol2

> <Gold.PLP.Fitness>
40.9684

> <Gold.PLP.PLP>
-37.8806

> <Gold.PLP.part.hbond>
-3.0000

> <Gold.PLP.part.metal>
0.0000

> <Gold.PLP.part.buried>
-4.0086

> <Gold.PLP.part.nonpolar>
-30.1395

> <Gold.PLP.part.repulsive>
0.0000

> <Gold.PLP.ligand.clash>
0.0000

> <Gold.PLP.ligand.torsion>
0.4377

> <Gold.PLP.Chemscore.Hbond>
1.3120

> <Gold.PLP.Chemscore.CHOScore>
0.0000

> <Gold.PLP.Chemscore.Metal>
0.0000

> <Gold.Chemscore.Hbonds>
donor molecule, donor type, donor heavy atom, donor atom, acceptor molecule, acceptor atom, score
      P1  H  6896  6909       L1    14  1.00
      P1  H  6934  6947       L1    25  0.32

> <Gold.PLP.Chemscore.Internal.Correction>
0.0272

> <Gold.Rescore>
     Score         DG    S(hbond)    S(metal)    S(lipo)     H(rot)  DE(clash)    DE(int)     intcor
     13.56     -14.03       1.07        0.00      86.95       2.03       0.13       0.34       ----

> <Gold.Chemscore.Fitness>
13.5575

> <Gold.Chemscore.DG>
-14.0257

> <Gold.Chemscore.ZeroCoef>
-5.4800

> <Gold.Chemscore.Hbond>
1.0685

> <Gold.Chemscore.Metal>
0.0000

> <Gold.Chemscore.Lipo>
86.9473

> <Gold.Chemscore.Internal_Hbond>
0.0000

> <Gold.Chemscore.DEClash>
0.1251

> <Gold.Chemscore.DEInternal>
0.3432

> <Gold.Chemscore.Rot>
2.0297

> <Gold.Chemscore.Internal.Correction>
   9.000000E+99

> <Gold.Chemscore.Hbonds>
donor molecule, donor type, donor heavy atom, donor atom, acceptor molecule, acceptor atom, score
      P1  H  6896  6909       L1    14  0.29
      P1  H  6934  6947       L1    25  0.07

> <Gold.Chemscore.Hbond.Weighted>
-3.5689

> <Gold.Chemscore.Metal.Weighted>
-0.0000

> <Gold.Chemscore.Lipo.Weighted>
-10.1728

> <Gold.Chemscore.Internal_Hbond.Weighted>
0.0000

> <Gold.Chemscore.DEClash.Weighted>
0.1251

> <Gold.Chemscore.DEInternal.Weighted>
0.3432

> <Gold.Chemscore.Rot.Weighted>
5.1960

> <Gold.Chemscore.Internal.Correction.Weighted>
   9.000000E+99

> <Gold.Protein.RotatedTorsions>
[ 6907 6896 6895 6894 ] final   84.57 input  -60.11 | X-H torsion
[ 7974 7965 7964 7962 ] final -101.04 input  175.53 | X-H torsion
[ 8008 7997 7996 7995 ] final -149.25 input   59.86 | X-H torsion
[ 10167 10162 10161 10158 ] final -172.12 input  -65.29 | X-H torsion
[ 10718 10713 10712 10709 ] final -160.16 input   66.30 | X-H torsion
[ 10763 10752 10751 10750 ] final   75.55 input  -60.55 | X-H torsion
[ 11005 11000 10999 10996 ] final   -5.83 input  -57.11 | X-H torsion

> <Gold.Protein.ActiveResidues>
 VAL166  LYS551  ARG553  GLY616  TRP617  ASP618  TYR619  PRO620  LYS621  CYS622 
 ASP623  PHE694  ASN695  SER759  ASP760  ASP761  ALA762  ILE779  LEU786  VAL792 
 PHE793  MET794  SER795  GLU796  ALA797  LYS798  CYS799  TRP800  GLU811  SER814 

> <Gold.Protein.RotatedAtoms>
  152.5355  134.2720  159.8974 H   0  0  0  0  0  0  0  0  0  0  0  0  # atno 6907 bound_to 6896
  151.2677  133.4264  159.2627 H   0  0  0  0  0  0  0  0  0  0  0  0  # atno 6908 bound_to 6896
  151.0396  134.9612  159.8211 H   0  0  0  0  0  0  0  0  0  0  0  0  # atno 6909 bound_to 6896
  145.2867  140.9341  143.2901 H   0  0  0  0  0  0  0  0  0  0  0  0  # atno 7974 bound_to 7965
  155.6046  140.0665  157.2723 H   0  0  0  0  0  0  0  0  0  0  0  0  # atno 8008 bound_to 7997
  154.4270  140.1812  156.1256 H   0  0  0  0  0  0  0  0  0  0  0  0  # atno 8009 bound_to 7997
  156.0133  140.3324  155.6966 H   0  0  0  0  0  0  0  0  0  0  0  0  # atno 8010 bound_to 7997
  139.5763  144.1525  152.1454 H   0  0  0  0  0  0  0  0  0  0  0  0  # atno 10167 bound_to 10162
  156.5783  130.8718  151.2857 H   0  0  0  0  0  0  0  0  0  0  0  0  # atno 10718 bound_to 10713
  153.0663  135.4984  154.8206 H   0  0  0  0  0  0  0  0  0  0  0  0  # atno 10763 bound_to 10752
  154.6957  135.2992  154.9417 H   0  0  0  0  0  0  0  0  0  0  0  0  # atno 10764 bound_to 10752
  154.0156  135.6748  153.4821 H   0  0  0  0  0  0  0  0  0  0  0  0  # atno 10765 bound_to 10752
  140.6954  133.9035  155.8646 H   0  0  0  0  0  0  0  0  0  0  0  0  # atno 11005 bound_to 11000
  144.9207  139.4415  143.6542 LP  0  0  0  0  0  0  0  0  0  0  0  0  # atno 17320 bound_to 7965
  146.3198  139.8066  142.8954 LP  0  0  0  0  0  0  0  0  0  0  0  0  # atno 17321 bound_to 7965
  140.1069  144.5491  150.6951 LP  0  0  0  0  0  0  0  0  0  0  0  0  # atno 17342 bound_to 10162
  140.7045  143.2458  151.4767 LP  0  0  0  0  0  0  0  0  0  0  0  0  # atno 17343 bound_to 10162
  157.7332  130.9727  150.1968 LP  0  0  0  0  0  0  0  0  0  0  0  0  # atno 17370 bound_to 10713
  156.2654  130.3715  149.8087 LP  0  0  0  0  0  0  0  0  0  0  0  0  # atno 17371 bound_to 10713
  141.0207  134.0892  157.4123 LP  0  0  0  0  0  0  0  0  0  0  0  0  # atno 17394 bound_to 11000
  139.8911  135.0117  156.6776 LP  0  0  0  0  0  0  0  0  0  0  0  0  # atno 17395 bound_to 11000

$$$$
