AV-unprocessed.smi:2395|AV-procd|sdf|9491|dock7
  -GOLD-   2272013123D 1   1.00000     0.00000
 Structure written by MMmdl.
 39 40  0  0  0  0  0  0  0  0  1 V2000
  150.5428  137.5835  154.5854 C   0  0  0  0  0  0  0  0  0  0  0  0
  150.0378  138.9851  154.7745 C   0  0  0  0  0  0  0  0  0  0  0  0
  150.8682  139.9191  155.2061 N   0  0  0  0  0  0  0  0  0  0  0  0
  150.1264  141.0447  155.2594 N   0  0  0  0  0  0  0  0  0  0  0  0
  150.7515  142.2850  155.6979 C   0  0  0  0  0  0  0  0  0  0  0  0
  150.9384  142.3490  157.2186 C   0  0  0  0  0  0  0  0  0  0  0  0
  151.4511  141.4139  157.8356 O   0  0  0  0  0  0  0  0  0  0  0  0
  150.5154  143.4748  157.8125 N   0  0  0  0  0  0  0  0  0  0  0  0
  150.6190  143.7580  159.2379 C   0  0  0  0  0  0  0  0  0  0  0  0
  152.0269  143.6981  159.7992 C   0  0  0  0  0  0  0  0  0  0  0  0
  152.6153  142.3811  160.2473 C   0  0  0  0  0  0  0  0  0  0  0  0
  152.2697  143.4397  161.2676 C   0  0  0  0  0  0  0  0  0  0  0  0
  148.8196  140.8161  154.8660 C   0  0  0  0  0  0  0  0  0  0  0  0
  147.7920  141.9021  154.8291 C   0  0  0  0  0  0  0  0  0  0  0  0
  148.7235  139.4879  154.5478 C   0  0  0  0  0  0  0  0  0  0  0  0
  147.5228  138.7207  154.0612 C   0  0  0  0  0  0  0  0  0  0  0  0
  147.1174  139.1534  152.6462 C   0  0  0  0  0  0  0  0  0  0  0  0
  147.7651  138.3418  151.6905 O   0  0  0  0  0  0  0  0  0  0  0  0
  150.1011  137.1240  153.7009 H   0  0  0  0  0  0  0  0  0  0  0  0
  150.2916  136.9606  155.4438 H   0  0  0  0  0  0  0  0  0  0  0  0
  151.6261  137.5594  154.4612 H   0  0  0  0  0  0  0  0  0  0  0  0
  151.7165  142.3813  155.1984 H   0  0  0  0  0  0  0  0  0  0  0  0
  150.1422  143.1317  155.3781 H   0  0  0  0  0  0  0  0  0  0  0  0
  150.1020  144.1914  157.2336 H   0  0  0  0  0  0  0  0  0  0  0  0
  150.2043  144.7506  159.4160 H   0  0  0  0  0  0  0  0  0  0  0  0
  149.9907  143.0617  159.7957 H   0  0  0  0  0  0  0  0  0  0  0  0
  152.7241  144.3765  159.3105 H   0  0  0  0  0  0  0  0  0  0  0  0
  151.9786  141.4996  160.2051 H   0  0  0  0  0  0  0  0  0  0  0  0
  153.6690  142.2057  160.0404 H   0  0  0  0  0  0  0  0  0  0  0  0
  153.0932  143.9707  161.7409 H   0  0  0  0  0  0  0  0  0  0  0  0
  151.4032  143.2628  161.9018 H   0  0  0  0  0  0  0  0  0  0  0  0
  146.8302  141.5259  154.4810 H   0  0  0  0  0  0  0  0  0  0  0  0
  148.0974  142.7022  154.1548 H   0  0  0  0  0  0  0  0  0  0  0  0
  147.6441  142.3314  155.8200 H   0  0  0  0  0  0  0  0  0  0  0  0
  147.7267  137.6492  154.0646 H   0  0  0  0  0  0  0  0  0  0  0  0
  146.6786  138.8583  154.7378 H   0  0  0  0  0  0  0  0  0  0  0  0
  146.0386  139.0689  152.5113 H   0  0  0  0  0  0  0  0  0  0  0  0
  147.3889  140.1947  152.4700 H   0  0  0  0  0  0  0  0  0  0  0  0
  148.1577  137.6075  152.1373 H   0  0  0  0  0  0  0  0  0  0  0  0
  1  2  1  0  0  0  0
  1 19  1  0  0  0  0
  1 20  1  0  0  0  0
  1 21  1  0  0  0  0
  2 15  1  0  0  0  0
  2  3  2  0  0  0  0
  3  4  1  0  0  0  0
  4  5  1  0  0  0  0
  4 13  1  0  0  0  0
  5  6  1  0  0  0  0
  5 22  1  0  0  0  0
  5 23  1  0  0  0  0
  6  7  2  0  0  0  0
  6  8  1  0  0  0  0
  8  9  1  0  0  0  0
  8 24  1  0  0  0  0
  9 10  1  0  0  0  0
  9 25  1  0  0  0  0
  9 26  1  0  0  0  0
 10 12  1  0  0  0  0
 10 11  1  0  0  0  0
 10 27  1  0  0  0  0
 11 12  1  0  0  0  0
 11 28  1  0  0  0  0
 11 29  1  0  0  0  0
 12 30  1  0  0  0  0
 12 31  1  0  0  0  0
 13 14  1  0  0  0  0
 13 15  2  0  0  0  0
 14 32  1  0  0  0  0
 14 33  1  0  0  0  0
 14 34  1  0  0  0  0
 15 16  1  0  0  0  0
 16 17  1  0  0  0  0
 16 35  1  0  0  0  0
 16 36  1  0  0  0  0
 17 18  1  0  0  0  0
 17 37  1  0  0  0  0
 17 38  1  0  0  0  0
 18 39  1  0  0  0  0
M  END
> <s_m_source_file>
AV-unprocessed.smi

> <i_m_source_file_index>
2395

> <i_lp_mmshare_version>
43012

> <i_f3d_flags>
0

> <s_epik_input>
W09IXVtDSDJdW0NIMl1jMWMoW0NIM10pbihuYzFbQ0gzXSlbQ0gyXUMoPU8pW05IXVtDSDJdW0NIXTJbQ0gyXVtDSDJdMg==

> <s_epik_cmdline>
J2VwaWtfcHl0aG9uJywgJy1waCcsICc3LjAnLCAnLXRuJywgJzgnLCAnLW1hJywgJzIwMCcsICctbWV0YWxfYmluZGluZycsICctaW1hZScsICc8aW5maWxlLm1hZT4nLCAnLW9tYWUnLCAnPG91dGZpbGUubWFlPic=

> <r_lp_tautomer_probability>
1

> <r_epik_Ionization_Penalty>
0.000725848

> <r_epik_Ionization_Penalty_Charging>
0

> <r_epik_Ionization_Penalty_Neutral>
0.000725848

> <r_epik_State_Penalty>
-0

> <r_epik_Charging_Adjusted_Penalty>
0

> <i_epik_Tot_Q>
0

> <i_epik_Tot_abs_Q>
0

> <r_epik_Metal_State_Penalty>
-0

> <b_epik_Metal_Only>
0

> <s_lp_Force_Field>
OPLS_2005

> <r_lp_Energy>
10.6696

> <b_lp_Chiralities_Consistent>
1

> <s_lp_Variant>
AV-unprocessed.smi:2395-1

> <Gold.Version>
5.8.1

> <Gold.Id.Protein>
6NUR|6NUR_protein|mol2

> <Gold.PLP.Fitness>
45.3955

> <Gold.PLP.PLP>
-37.5388

> <Gold.PLP.part.hbond>
-4.8085

> <Gold.PLP.part.metal>
0.0000

> <Gold.PLP.part.buried>
0.3378

> <Gold.PLP.part.nonpolar>
-31.2071

> <Gold.PLP.part.repulsive>
0.0799

> <Gold.PLP.ligand.clash>
0.0000

> <Gold.PLP.ligand.torsion>
0.8794

> <Gold.PLP.Chemscore.Hbond>
3.0120

> <Gold.PLP.Chemscore.CHOScore>
0.0000

> <Gold.PLP.Chemscore.Metal>
0.0000

> <Gold.Chemscore.Hbonds>
donor molecule, donor type, donor heavy atom, donor atom, acceptor molecule, acceptor atom, score
      L1  H     8    24       P1  8028  0.99
      L1  H    18    39       P1  7948  0.80
      P1  H  7954  7966       L1    18  0.95
      P1  H  7989  7998       L1     3  0.08

> <Gold.PLP.Chemscore.Internal.Correction>
0.5795

> <Gold.Rescore>
     Score         DG    S(hbond)    S(metal)    S(lipo)     H(rot)  DE(clash)    DE(int)     intcor
     14.07     -17.11       2.03        0.00      96.90       2.53       1.85       1.19       ----

> <Gold.Chemscore.Fitness>
14.0702

> <Gold.Chemscore.DG>
-17.1121

> <Gold.Chemscore.ZeroCoef>
-5.4800

> <Gold.Chemscore.Hbond>
2.0279

> <Gold.Chemscore.Metal>
0.0000

> <Gold.Chemscore.Lipo>
96.9048

> <Gold.Chemscore.Internal_Hbond>
0.0000

> <Gold.Chemscore.DEClash>
1.8498

> <Gold.Chemscore.DEInternal>
1.1922

> <Gold.Chemscore.Rot>
2.5309

> <Gold.Chemscore.Internal.Correction>
   9.000000E+99

> <Gold.Chemscore.Hbonds>
donor molecule, donor type, donor heavy atom, donor atom, acceptor molecule, acceptor atom, score
      L1  H     8    24       P1  8028  0.66
      L1  H    18    39       P1  7948  0.78
      P1  H  7954  7966       L1    18  0.20

> <Gold.Chemscore.Hbond.Weighted>
-6.7733

> <Gold.Chemscore.Metal.Weighted>
-0.0000

> <Gold.Chemscore.Lipo.Weighted>
-11.3379

> <Gold.Chemscore.Internal_Hbond.Weighted>
0.0000

> <Gold.Chemscore.DEClash.Weighted>
1.8498

> <Gold.Chemscore.DEInternal.Weighted>
1.1922

> <Gold.Chemscore.Rot.Weighted>
6.4790

> <Gold.Chemscore.Internal.Correction.Weighted>
   9.000000E+99

> <Gold.Protein.RotatedTorsions>
[ 6907 6896 6895 6894 ] final  -76.38 input  -60.11 | X-H torsion
[ 7974 7965 7964 7962 ] final   50.34 input  175.53 | X-H torsion
[ 8008 7997 7996 7995 ] final   12.27 input   59.86 | X-H torsion
[ 10167 10162 10161 10158 ] final  124.85 input  -65.29 | X-H torsion
[ 10718 10713 10712 10709 ] final  173.98 input   66.30 | X-H torsion
[ 10763 10752 10751 10750 ] final  -68.41 input  -60.55 | X-H torsion
[ 11005 11000 10999 10996 ] final  174.92 input  -57.11 | X-H torsion

> <Gold.Protein.ActiveResidues>
 VAL166  LYS551  ARG553  GLY616  TRP617  ASP618  TYR619  PRO620  LYS621  CYS622 
 ASP623  PHE694  ASN695  SER759  ASP760  ASP761  ALA762  ILE779  LEU786  VAL792 
 PHE793  MET794  SER795  GLU796  ALA797  LYS798  CYS799  TRP800  GLU811  SER814 

> <Gold.Protein.RotatedAtoms>
  150.7029  134.4580  159.5366 H   0  0  0  0  0  0  0  0  0  0  0  0  # atno 6907 bound_to 6896
  152.2260  134.8365  160.0489 H   0  0  0  0  0  0  0  0  0  0  0  0  # atno 6908 bound_to 6896
  151.9198  133.3547  159.3930 H   0  0  0  0  0  0  0  0  0  0  0  0  # atno 6909 bound_to 6896
  146.0021  139.4450  143.0008 H   0  0  0  0  0  0  0  0  0  0  0  0  # atno 7974 bound_to 7965
  154.8183  140.2879  155.5805 H   0  0  0  0  0  0  0  0  0  0  0  0  # atno 8008 bound_to 7997
  156.2995  140.2555  156.3015 H   0  0  0  0  0  0  0  0  0  0  0  0  # atno 8009 bound_to 7997
  154.9368  140.0382  157.2066 H   0  0  0  0  0  0  0  0  0  0  0  0  # atno 8010 bound_to 7997
  139.5718  144.6943  151.3757 H   0  0  0  0  0  0  0  0  0  0  0  0  # atno 10167 bound_to 10162
  156.9563  131.0047  151.2937 H   0  0  0  0  0  0  0  0  0  0  0  0  # atno 10718 bound_to 10713
  154.3886  135.6058  153.5830 H   0  0  0  0  0  0  0  0  0  0  0  0  # atno 10763 bound_to 10752
  152.9787  135.5878  154.4324 H   0  0  0  0  0  0  0  0  0  0  0  0  # atno 10764 bound_to 10752
  154.4105  135.2844  155.2018 H   0  0  0  0  0  0  0  0  0  0  0  0  # atno 10765 bound_to 10752
  140.3565  134.7150  157.4303 H   0  0  0  0  0  0  0  0  0  0  0  0  # atno 11005 bound_to 11000
  145.7471  140.9986  143.1270 LP  0  0  0  0  0  0  0  0  0  0  0  0  # atno 17320 bound_to 7965
  144.6923  139.9170  143.7466 LP  0  0  0  0  0  0  0  0  0  0  0  0  # atno 17321 bound_to 7965
  140.7002  143.7649  150.7391 LP  0  0  0  0  0  0  0  0  0  0  0  0  # atno 17342 bound_to 10162
  140.1158  143.4657  152.2343 LP  0  0  0  0  0  0  0  0  0  0  0  0  # atno 17343 bound_to 10162
  157.5688  130.8296  149.8363 LP  0  0  0  0  0  0  0  0  0  0  0  0  # atno 17370 bound_to 10713
  156.0341  130.3756  150.1607 LP  0  0  0  0  0  0  0  0  0  0  0  0  # atno 17371 bound_to 10713
  140.0661  134.5928  155.8694 LP  0  0  0  0  0  0  0  0  0  0  0  0  # atno 17394 bound_to 11000
  141.1997  133.6608  156.5856 LP  0  0  0  0  0  0  0  0  0  0  0  0  # atno 17395 bound_to 11000

$$$$
