AV-unprocessed.smi:1033|AV-procd|sdf|4513|dock4
  -GOLD-   22720 2523D 1   1.00000     0.00000
 Structure written by MMmdl.
 57 59  0  0  0  0  0  0  0  0  3 V2000
  153.6374  143.1981  163.3425 C   0  0  0  0  0  0  0  0  0  0  0  0
  153.0662  142.8752  161.9729 C   0  0  0  0  0  0  0  0  0  0  0  0
  152.1671  143.7847  161.3720 C   0  0  0  0  0  0  0  0  0  0  0  0
  151.6126  143.5215  160.1004 C   0  0  0  0  0  0  0  0  0  0  0  0
  150.7278  144.2616  159.3350 N   0  0  0  0  0  0  0  0  0  0  0  0
  150.5936  143.4912  158.2598 C   0  0  0  0  0  0  0  0  0  0  0  0
  151.2920  142.3398  158.2348 N   0  0  0  0  0  0  0  0  0  0  0  0
  151.3050  141.3492  157.1730 C   0  0  0  0  0  0  0  0  0  0  0  0
  150.0736  141.4551  156.2530 C   0  0  1  0  0  0  0  0  0  0  0  0
  150.4228  141.0297  154.9495 O   0  0  0  0  0  0  0  0  0  0  0  0
  148.9082  140.5805  156.7562 C   0  0  0  0  0  0  0  0  0  0  0  0
  147.7473  140.5878  155.8288 N   0  3  2  0  0  0  0  0  0  0  0  0
  147.5501  141.8861  155.1344 C   0  0  0  0  0  0  0  0  0  0  0  0
  146.3966  141.7977  154.1169 C   0  0  0  0  0  0  0  0  0  0  0  0
  145.1317  141.3481  154.7515 N   0  3  2  0  0  0  0  0  0  0  0  0
  144.4495  142.4122  155.5372 C   0  0  0  0  0  0  0  0  0  0  0  0
  143.0152  142.0237  155.9498 C   0  0  1  0  0  0  0  0  0  0  0  0
  142.1835  143.2525  156.3396 C   0  0  0  0  0  0  0  0  0  0  0  0
  142.3683  141.3917  154.8636 O   0  0  0  0  0  0  0  0  0  0  0  0
  145.3261  140.0661  155.4796 C   0  0  0  0  0  0  0  0  0  0  0  0
  146.4955  140.1333  156.4840 C   0  0  0  0  0  0  0  0  0  0  0  0
  151.9851  142.3138  159.4406 C   0  0  0  0  0  0  0  0  0  0  0  0
  152.8799  141.4017  160.0276 C   0  0  0  0  0  0  0  0  0  0  0  0
  153.4238  141.6798  161.2991 C   0  0  0  0  0  0  0  0  0  0  0  0
  154.3887  140.6882  161.9250 C   0  0  0  0  0  0  0  0  0  0  0  0
  153.3048  144.1757  163.6922 H   0  0  0  0  0  0  0  0  0  0  0  0
  154.7270  143.2084  163.3108 H   0  0  0  0  0  0  0  0  0  0  0  0
  153.3185  142.4544  164.0730 H   0  0  0  0  0  0  0  0  0  0  0  0
  151.8946  144.6954  161.8851 H   0  0  0  0  0  0  0  0  0  0  0  0
  149.9518  143.7819  157.4408 H   0  0  0  0  0  0  0  0  0  0  0  0
  152.2254  141.4644  156.5989 H   0  0  0  0  0  0  0  0  0  0  0  0
  151.3479  140.3605  157.6320 H   0  0  0  0  0  0  0  0  0  0  0  0
  149.7718  142.5009  156.2003 H   0  0  0  0  0  0  0  0  0  0  0  0
  149.6658  140.6241  154.5522 H   0  0  0  0  0  0  0  0  0  0  0  0
  149.2745  139.5597  156.8786 H   0  0  0  0  0  0  0  0  0  0  0  0
  148.5828  140.9050  157.7458 H   0  0  0  0  0  0  0  0  0  0  0  0
  147.3487  142.6682  155.8682 H   0  0  0  0  0  0  0  0  0  0  0  0
  148.4600  142.1768  154.6106 H   0  0  0  0  0  0  0  0  0  0  0  0
  146.2522  142.7542  153.6132 H   0  0  0  0  0  0  0  0  0  0  0  0
  146.6596  141.0837  153.3353 H   0  0  0  0  0  0  0  0  0  0  0  0
  145.0418  142.6573  156.4187 H   0  0  0  0  0  0  0  0  0  0  0  0
  144.3991  143.3304  154.9494 H   0  0  0  0  0  0  0  0  0  0  0  0
  143.0217  141.3355  156.7942 H   0  0  0  0  0  0  0  0  0  0  0  0
  142.6258  143.7698  157.1914 H   0  0  0  0  0  0  0  0  0  0  0  0
  141.1687  142.9678  156.6201 H   0  0  0  0  0  0  0  0  0  0  0  0
  142.1136  143.9655  155.5171 H   0  0  0  0  0  0  0  0  0  0  0  0
  143.0140  140.9603  154.3256 H   0  0  0  0  0  0  0  0  0  0  0  0
  144.4112  139.7585  155.9847 H   0  0  0  0  0  0  0  0  0  0  0  0
  145.5353  139.2902  154.7416 H   0  0  0  0  0  0  0  0  0  0  0  0
  146.6492  139.1433  156.9155 H   0  0  0  0  0  0  0  0  0  0  0  0
  146.2549  140.7996  157.3135 H   0  0  0  0  0  0  0  0  0  0  0  0
  153.1461  140.4956  159.5039 H   0  0  0  0  0  0  0  0  0  0  0  0
  154.5067  139.8008  161.3022 H   0  0  0  0  0  0  0  0  0  0  0  0
  154.0274  140.3643  162.9012 H   0  0  0  0  0  0  0  0  0  0  0  0
  155.3716  141.1419  162.0521 H   0  0  0  0  0  0  0  0  0  0  0  0
  144.5022  141.1514  153.9861 H   0  0  0  0  0  0  0  0  0  0  0  0
  147.9579  139.8999  155.1190 H   0  0  0  0  0  0  0  0  0  0  0  0
  1  2  1  0  0  0  0
  1 26  1  0  0  0  0
  1 27  1  0  0  0  0
  1 28  1  0  0  0  0
  2 24  1  0  0  0  0
  2  3  2  0  0  0  0
  3  4  1  0  0  0  0
  3 29  1  0  0  0  0
  4 22  2  0  0  0  0
  4  5  1  0  0  0  0
  5  6  2  0  0  0  0
  6  7  1  0  0  0  0
  6 30  1  0  0  0  0
  7  8  1  0  0  0  0
  7 22  1  0  0  0  0
  8  9  1  0  0  0  0
  8 31  1  0  0  0  0
  8 32  1  0  0  0  0
  9 10  1  0  0  0  0
  9 11  1  0  0  0  0
  9 33  1  0  0  0  0
 10 34  1  0  0  0  0
 11 12  1  0  0  0  0
 11 35  1  0  0  0  0
 11 36  1  0  0  0  0
 12 21  1  0  0  0  0
 12 13  1  0  0  0  0
 12 57  1  0  0  0  0
 13 14  1  0  0  0  0
 13 37  1  0  0  0  0
 13 38  1  0  0  0  0
 14 15  1  0  0  0  0
 14 39  1  0  0  0  0
 14 40  1  0  0  0  0
 15 16  1  0  0  0  0
 15 20  1  0  0  0  0
 15 56  1  0  0  0  0
 16 17  1  0  0  0  0
 16 41  1  0  0  0  0
 16 42  1  0  0  0  0
 17 18  1  0  0  0  0
 17 19  1  0  0  0  0
 17 43  1  0  0  0  0
 18 44  1  0  0  0  0
 18 45  1  0  0  0  0
 18 46  1  0  0  0  0
 19 47  1  0  0  0  0
 20 21  1  0  0  0  0
 20 48  1  0  0  0  0
 20 49  1  0  0  0  0
 21 50  1  0  0  0  0
 21 51  1  0  0  0  0
 22 23  1  0  0  0  0
 23 24  2  0  0  0  0
 23 52  1  0  0  0  0
 24 25  1  0  0  0  0
 25 53  1  0  0  0  0
 25 54  1  0  0  0  0
 25 55  1  0  0  0  0
M  CHG  1  12   1
M  CHG  1  15   1
M  END
> <s_m_source_file>
AV-unprocessed.smi

> <i_m_source_file_index>
1033

> <i_lp_mmshare_version>
43012

> <i_f3d_flags>
0

> <s_epik_input>
W0NIM11jKFtjSF0xKWMoW0NIM10pW2NIXWMoYzEyKW4oW2NIXW4yKVtDSDJdW0NASF0oW09IXSlbQ0gyXU4zW0NIMl1bQ0gyXU4oW0NIMl1bQ0gyXTMpW0NIMl1bQ0BIXShbQ0gzXSlbT0hd

> <s_epik_cmdline>
J2VwaWtfcHl0aG9uJywgJy1waCcsICc3LjAnLCAnLXRuJywgJzgnLCAnLW1hJywgJzIwMCcsICctbWV0YWxfYmluZGluZycsICctaW1hZScsICc8aW5maWxlLm1hZT4nLCAnLW9tYWUnLCAnPG91dGZpbGUubWFlPic=

> <r_epik_Ionization_Penalty>
3.16016

> <r_epik_Ionization_Penalty_Charging>
3.07679

> <r_epik_Ionization_Penalty_Neutral>
0.083365

> <r_epik_State_Penalty>
2.09701

> <r_epik_Charging_Adjusted_Penalty>
5.1738

> <i_epik_Tot_Q>
2

> <i_epik_Tot_abs_Q>
2

> <r_epik_Metal_State_Penalty>
2.02534

> <b_epik_Metal_Only>
0

> <s_lp_Force_Field>
OPLS_2005

> <r_lp_Energy>
29.7728

> <b_lp_Chiralities_Consistent>
1

> <s_lp_Variant>
AV-unprocessed.smi:1033-24

> <Gold.Version>
5.8.1

> <Gold.Id.Protein>
6NUR|6NUR_protein|mol2

> <Gold.PLP.Fitness>
57.6443

> <Gold.PLP.PLP>
-45.7102

> <Gold.PLP.part.hbond>
-4.0000

> <Gold.PLP.part.metal>
0.0000

> <Gold.PLP.part.buried>
-3.6742

> <Gold.PLP.part.nonpolar>
-38.2908

> <Gold.PLP.part.repulsive>
0.1174

> <Gold.PLP.ligand.clash>
0.0000

> <Gold.PLP.ligand.torsion>
1.0954

> <Gold.PLP.Chemscore.Hbond>
3.6456

> <Gold.PLP.Chemscore.CHOScore>
1.0000

> <Gold.PLP.Chemscore.Metal>
0.0000

> <Gold.Chemscore.Hbonds>
donor molecule, donor type, donor heavy atom, donor atom, acceptor molecule, acceptor atom, score
      L1  H    15    56       P1 10175  2.00
      L1  H    19    47       P1 10175  0.93
      P1  H  7989  7998       L1    10  0.65
      L1  C     6    30       P1  8028  1.00

> <Gold.PLP.Chemscore.Internal.Correction>
0.1881

> <Gold.Rescore>
     Score         DG    S(hbond)    S(metal)    S(lipo)     H(rot)  DE(clash)    DE(int)     intcor
     17.01     -17.96       2.13        0.00     114.66       3.14       0.04       0.91       ----

> <Gold.Chemscore.Fitness>
17.0103

> <Gold.Chemscore.DG>
-17.9623

> <Gold.Chemscore.ZeroCoef>
-5.4800

> <Gold.Chemscore.Hbond>
2.1258

> <Gold.Chemscore.Metal>
0.0000

> <Gold.Chemscore.Lipo>
114.6602

> <Gold.Chemscore.Internal_Hbond>
0.0000

> <Gold.Chemscore.DEClash>
0.0384

> <Gold.Chemscore.DEInternal>
0.9135

> <Gold.Chemscore.Rot>
3.1380

> <Gold.Chemscore.Internal.Correction>
   9.000000E+99

> <Gold.Chemscore.Hbonds>
donor molecule, donor type, donor heavy atom, donor atom, acceptor molecule, acceptor atom, score
      L1  H    15    56       P1 10175  0.65
      L1  H    19    47       P1 10175  0.54
      P1  H  7989  7998       L1    10  0.15

> <Gold.Chemscore.Hbond.Weighted>
-7.1002

> <Gold.Chemscore.Metal.Weighted>
-0.0000

> <Gold.Chemscore.Lipo.Weighted>
-13.4152

> <Gold.Chemscore.Internal_Hbond.Weighted>
0.0000

> <Gold.Chemscore.DEClash.Weighted>
0.0384

> <Gold.Chemscore.DEInternal.Weighted>
0.9135

> <Gold.Chemscore.Rot.Weighted>
8.0332

> <Gold.Chemscore.Internal.Correction.Weighted>
   9.000000E+99

> <Gold.Protein.RotatedTorsions>
[ 6907 6896 6895 6894 ] final   17.63 input  -60.11 | X-H torsion
[ 7974 7965 7964 7962 ] final   22.64 input  175.53 | X-H torsion
[ 8008 7997 7996 7995 ] final  -35.40 input   59.86 | X-H torsion
[ 10167 10162 10161 10158 ] final   80.39 input  -65.29 | X-H torsion
[ 10718 10713 10712 10709 ] final   60.24 input   66.30 | X-H torsion
[ 10763 10752 10751 10750 ] final   39.74 input  -60.55 | X-H torsion
[ 11005 11000 10999 10996 ] final  -18.15 input  -57.11 | X-H torsion

> <Gold.Protein.ActiveResidues>
 VAL166  LYS551  ARG553  GLY616  TRP617  ASP618  TYR619  PRO620  LYS621  CYS622 
 ASP623  PHE694  ASN695  SER759  ASP760  ASP761  ALA762  ILE779  LEU786  VAL792 
 PHE793  MET794  SER795  GLU796  ALA797  LYS798  CYS799  TRP800  GLU811  SER814 

> <Gold.Protein.RotatedAtoms>
  151.8526  135.0552  160.0460 H   0  0  0  0  0  0  0  0  0  0  0  0  # atno 6907 bound_to 6896
  152.2725  133.5391  159.5456 H   0  0  0  0  0  0  0  0  0  0  0  0  # atno 6908 bound_to 6896
  150.7157  134.0594  159.3868 H   0  0  0  0  0  0  0  0  0  0  0  0  # atno 6909 bound_to 6896
  146.2020  139.7856  142.8754 H   0  0  0  0  0  0  0  0  0  0  0  0  # atno 7974 bound_to 7965
  154.4096  140.1658  156.2206 H   0  0  0  0  0  0  0  0  0  0  0  0  # atno 8008 bound_to 7997
  155.9367  140.3411  155.6270 H   0  0  0  0  0  0  0  0  0  0  0  0  # atno 8009 bound_to 7997
  155.7040  140.0748  157.2389 H   0  0  0  0  0  0  0  0  0  0  0  0  # atno 8010 bound_to 7997
  139.9503  144.6031  150.8167 H   0  0  0  0  0  0  0  0  0  0  0  0  # atno 10167 bound_to 10162
  157.5738  130.8928  149.9312 H   0  0  0  0  0  0  0  0  0  0  0  0  # atno 10718 bound_to 10713
  152.9958  135.6212  154.2514 H   0  0  0  0  0  0  0  0  0  0  0  0  # atno 10763 bound_to 10752
  154.2252  135.2794  155.2912 H   0  0  0  0  0  0  0  0  0  0  0  0  # atno 10764 bound_to 10752
  154.5495  135.5737  153.6968 H   0  0  0  0  0  0  0  0  0  0  0  0  # atno 10765 bound_to 10752
  140.8239  133.8048  155.9688 H   0  0  0  0  0  0  0  0  0  0  0  0  # atno 11005 bound_to 11000
  145.3452  141.0296  143.3370 LP  0  0  0  0  0  0  0  0  0  0  0  0  # atno 17320 bound_to 7965
  144.8704  139.5046  143.6770 LP  0  0  0  0  0  0  0  0  0  0  0  0  # atno 17321 bound_to 7965
  140.7585  143.3108  151.2849 LP  0  0  0  0  0  0  0  0  0  0  0  0  # atno 17342 bound_to 10162
  139.6634  144.0149  152.2707 LP  0  0  0  0  0  0  0  0  0  0  0  0  # atno 17343 bound_to 10162
  156.0783  130.3676  150.0633 LP  0  0  0  0  0  0  0  0  0  0  0  0  # atno 17370 bound_to 10713
  156.8782  130.9547  151.3602 LP  0  0  0  0  0  0  0  0  0  0  0  0  # atno 17371 bound_to 10713
  140.9070  134.2308  157.5008 LP  0  0  0  0  0  0  0  0  0  0  0  0  # atno 17394 bound_to 11000
  139.8707  134.9733  156.4803 LP  0  0  0  0  0  0  0  0  0  0  0  0  # atno 17395 bound_to 11000

$$$$
