#       Name:                AV-unprocessed.smi:3145
#       Creating user name   scv26
#       Creation time:       Fri Mar 27 17:38:55 2020


#       File generated by GOLD software.
#

@<TRIPOS>MOLECULE
AV-unprocessed.smi:3145
    39    39     1
SMALL
NO_CHARGES


@<TRIPOS>ATOM
      1 ****        -2.6198   1.7501  -2.2993 C.3            1 S1                 0.0000
      2 ****        -1.6971   1.4774  -1.1041 C.3            1 S1                 0.0000
      3 ****        -2.4676   1.6109   0.2264 C.3            1 S1                 0.0000
      4 ****        -1.6102   1.4666   1.3890 N.pl3          1 S1                 0.0000
      5 ****        -0.8215   2.4206   1.9965 C.2            1 S1                 0.0000
      6 ****        -0.1774   1.8123   3.0354 C.2            1 S1                 0.0000
      7 ****        -0.6464   0.4696   2.9854 C.2            1 S1                 0.0000
      8 ****        -1.5067   0.2667   2.0005 N.2            1 S1                 0.0000
      9 ****        -1.0986   0.1307  -1.2410 N.4            1 S1                 1.0000
     10 ****         0.3521   0.0624  -0.9662 C.3            1 S1                 0.0000
     11 ****         0.8229  -1.3952  -0.9115 C.2            1 S1                 0.0000
     12 ****        -0.0050  -2.2951  -0.7268 O.2            1 S1                 0.0000
     13 ****         2.1718  -1.4591  -1.0699 N.pl3          1 S1                -1.0000
     14 ****         2.9415  -2.7019  -1.0425 C.3            1 S1                 0.0000
     15 ****         3.1598  -3.1771   0.4043 C.3            1 S1                 0.0000
     16 ****         4.0014  -2.2812   1.2168 C.1            1 S1                 0.0000
     17 ****         4.6627  -1.5798   1.8597 N.1            1 S1                 0.0000
     18 ****        -3.0515   2.7497  -2.2419 H              1 S1                 0.0000
     19 ****        -3.4417   1.0342  -2.3400 H              1 S1                 0.0000
     20 ****        -2.0725   1.6837  -3.2404 H              1 S1                 0.0000
     21 ****        -0.9038   2.2265  -1.1307 H              1 S1                 0.0000
     22 ****        -2.9455   2.5897   0.2847 H              1 S1                 0.0000
     23 ****        -3.2694   0.8726   0.2821 H              1 S1                 0.0000
     24 ****        -0.7796   3.4389   1.6387 H              1 S1                 0.0000
     25 ****         0.5240   2.2575   3.7253 H              1 S1                 0.0000
     26 ****        -0.3880  -0.3577   3.6299 H              1 S1                 0.0000
     27 ****        -1.5723  -0.5007  -0.6105 H              1 S1                 0.0000
     28 ****         0.8834   0.6141  -1.7440 H              1 S1                 0.0000
     29 ****         0.5826   0.5361  -0.0120 H              1 S1                 0.0000
     30 ****         2.4461  -3.4959  -1.6028 H              1 S1                 0.0000
     31 ****         3.9119  -2.5745  -1.5222 H              1 S1                 0.0000
     32 ****         2.2074  -3.3062   0.9190 H              1 S1                 0.0000
     33 ****         3.6471  -4.1521   0.3977 H              1 S1                 0.0000
     34 ****        -1.2408  -0.1954  -2.1859 H              1 S1                 0.0000
     35 ****        -1.9751  -0.5841   1.7624 LP             1 S1                 0.0000
     36 ****        -0.9726  -2.0689  -0.6146 LP             1 S1                 0.0000
     37 ****         0.2932  -3.2488  -0.6897 LP             1 S1                 0.0000
     38 ****         2.6682  -0.6030  -1.2141 LP             1 S1                 0.0000
     39 ****         5.2334  -0.9744   2.4146 LP             1 S1                 0.0000
@<TRIPOS>BOND
    1    1    2 1     
    2    1   18 1     
    3    1   19 1     
    4    1   20 1     
    5    2    3 1     
    6    2    9 1     
    7    2   21 1     
    8    3    4 1     
    9    3   22 1     
   10    3   23 1     
   11    4    8 1     
   12    4    5 1     
   13    5    6 2     
   14    5   24 1     
   15    6    7 1     
   16    6   25 1     
   17    7    8 2     
   18    7   26 1     
   19    9   10 1     
   20    9   27 1     
   21    9   34 1     
   22   10   11 1     
   23   10   28 1     
   24   10   29 1     
   25   11   12 2     
   26   11   13 1     
   27   13   14 1     
   28   14   15 1     
   29   14   30 1     
   30   14   31 1     
   31   15   16 1     
   32   15   32 1     
   33   15   33 1     
   34   16   17 3     
   35    8   35 1     
   36   12   36 1     
   37   12   37 1     
   38   13   38 1     
   39   17   39 1     
@<TRIPOS>SUBSTRUCTURE
      1 S1             1
@<TRIPOS>SET
LONE_PAIRS      STATIC     ATOMS    <user>   **** ""
5 35 36 37 38 39
DONOR_HYDROGENS      STATIC     ATOMS    <user>   **** ""
2 27 34
ATOM$BLUE        STATIC     ATOMS    COLORGROUP SYSTEM
5 35 36 37 38 39
ATOM$RED        STATIC     ATOMS    COLORGROUP SYSTEM
2 27 34
