AV-unprocessed.smi:1429|AV-procd|sdf|5820|dock9
  -GOLD-   22720 5473D 1   1.00000     0.00000
 Structure written by MMmdl.
 29 30  0  0  0  0  0  0  0  0  2 V2000
  144.0756  134.3252  162.9940 C   0  0  0  0  0  0  0  0  0  0  0  0
  145.3013  134.8799  162.3527 C   0  0  0  0  0  0  0  0  0  0  0  0
  146.4802  134.2566  162.3764 N   0  0  0  0  0  0  0  0  0  0  0  0
  147.4619  134.9751  161.7118 N   0  0  0  0  0  0  0  0  0  0  0  0
  147.0218  136.1355  161.1899 C   0  0  0  0  0  0  0  0  0  0  0  0
  147.7564  137.0313  160.4924 N   0  5  0  0  0  0  0  0  0  0  0  0
  148.5704  136.7389  159.4459 C   0  0  0  0  0  0  0  0  0  0  0  0
  149.0237  135.6366  159.1313 O   0  0  0  0  0  0  0  0  0  0  0  0
  148.8827  137.8115  158.7062 N   0  0  0  0  0  0  0  0  0  0  0  0
  149.7365  137.7992  157.5247 C   0  0  0  0  0  0  0  0  0  0  0  0
  149.7641  139.1804  156.8505 C   0  0  2  0  0  0  0  0  0  0  0  0
  148.5601  139.4871  155.9813 C   0  0  0  0  0  0  0  0  0  0  0  0
  149.0824  140.6255  155.1103 C   0  0  0  0  0  0  0  0  0  0  0  0
  150.4820  140.3982  154.9666 O   0  0  0  0  0  0  0  0  0  0  0  0
  150.9016  139.3586  155.8458 C   0  0  0  0  0  0  0  0  0  0  0  0
  145.3084  136.4136  161.5025 S   0  0  0  0  0  0  0  0  0  0  0  0
  144.2903  133.3690  163.4722 H   0  0  0  0  0  0  0  0  0  0  0  0
  143.2987  134.1744  162.2444 H   0  0  0  0  0  0  0  0  0  0  0  0
  143.7051  135.0182  163.7495 H   0  0  0  0  0  0  0  0  0  0  0  0
  148.4967  138.7011  158.9862 H   0  0  0  0  0  0  0  0  0  0  0  0
  150.7473  137.5105  157.8167 H   0  0  0  0  0  0  0  0  0  0  0  0
  149.3766  137.0427  156.8253 H   0  0  0  0  0  0  0  0  0  0  0  0
  149.8514  139.9555  157.6141 H   0  0  0  0  0  0  0  0  0  0  0  0
  148.3097  138.6254  155.3607 H   0  0  0  0  0  0  0  0  0  0  0  0
  147.6745  139.7639  156.5539 H   0  0  0  0  0  0  0  0  0  0  0  0
  148.5837  140.6706  154.1418 H   0  0  0  0  0  0  0  0  0  0  0  0
  148.9373  141.5840  155.6102 H   0  0  0  0  0  0  0  0  0  0  0  0
  151.8492  139.6021  156.3271 H   0  0  0  0  0  0  0  0  0  0  0  0
  151.0449  138.4503  155.2589 H   0  0  0  0  0  0  0  0  0  0  0  0
  1  2  1  0  0  0  0
  1 17  1  0  0  0  0
  1 18  1  0  0  0  0
  1 19  1  0  0  0  0
  2 16  1  0  0  0  0
  2  3  2  0  0  0  0
  3  4  1  0  0  0  0
  4  5  2  0  0  0  0
  5  6  1  0  0  0  0
  5 16  1  0  0  0  0
  6  7  1  0  0  0  0
  7  8  2  0  0  0  0
  7  9  1  0  0  0  0
  9 10  1  0  0  0  0
  9 20  1  0  0  0  0
 10 11  1  0  0  0  0
 10 21  1  0  0  0  0
 10 22  1  0  0  0  0
 11 15  1  0  0  0  0
 11 12  1  0  0  0  0
 11 23  1  0  0  0  0
 12 13  1  0  0  0  0
 12 24  1  0  0  0  0
 12 25  1  0  0  0  0
 13 14  1  0  0  0  0
 13 26  1  0  0  0  0
 13 27  1  0  0  0  0
 14 15  1  0  0  0  0
 15 28  1  0  0  0  0
 15 29  1  0  0  0  0
M  CHG  1   6  -1
M  END
> <s_m_source_file>
AV-unprocessed.smi

> <i_m_source_file_index>
1429

> <i_lp_mmshare_version>
43012

> <i_f3d_flags>
0

> <s_epik_input>
W0NIM11jMW5uYyhzMSlbTkhdQyg9TylbTkhdW0NIMl1bQ0BASF0yW0NIMl1bQ0gyXU9bQ0gyXTI=

> <s_epik_cmdline>
J2VwaWtfcHl0aG9uJywgJy1waCcsICc3LjAnLCAnLXRuJywgJzgnLCAnLW1hJywgJzIwMCcsICctbWV0YWxfYmluZGluZycsICctaW1hZScsICc8aW5maWxlLm1hZT4nLCAnLW9tYWUnLCAnPG91dGZpbGUubWFlPic=

> <r_lp_tautomer_probability>
1

> <r_epik_Ionization_Penalty>
4.4122

> <r_epik_Ionization_Penalty_Charging>
4.26477

> <r_epik_Ionization_Penalty_Neutral>
0.147429

> <r_epik_State_Penalty>
4.26433

> <r_epik_Charging_Adjusted_Penalty>
8.5291

> <i_epik_Tot_Q>
-1

> <i_epik_Tot_abs_Q>
1

> <r_epik_Metal_State_Penalty>
0.713483

> <b_epik_Metal_Only>
1

> <s_lp_Force_Field>
OPLS_2005

> <r_lp_Energy>
20.5351

> <b_lp_Chiralities_Consistent>
1

> <s_lp_Variant>
AV-unprocessed.smi:1429-3

> <Gold.Version>
5.8.1

> <Gold.Id.Protein>
6NUR|6NUR_protein|mol2

> <Gold.PLP.Fitness>
36.8453

> <Gold.PLP.PLP>
-22.3712

> <Gold.PLP.part.hbond>
-4.0000

> <Gold.PLP.part.metal>
0.0000

> <Gold.PLP.part.buried>
-5.6478

> <Gold.PLP.part.nonpolar>
-13.5463

> <Gold.PLP.part.repulsive>
0.2779

> <Gold.PLP.ligand.clash>
0.0000

> <Gold.PLP.ligand.torsion>
0.6661

> <Gold.PLP.Chemscore.Hbond>
5.2640

> <Gold.PLP.Chemscore.CHOScore>
0.0000

> <Gold.PLP.Chemscore.Metal>
0.0000

> <Gold.Chemscore.Hbonds>
donor molecule, donor type, donor heavy atom, donor atom, acceptor molecule, acceptor atom, score
      P1  H  6896  6907       L1     8  1.00
      P1  H  6931  6943       L1     6  0.72
      P1  H  6934  6947       L1     6  1.45
      P1  H  7989  7998       L1    14  1.00

> <Gold.PLP.Chemscore.Internal.Correction>
0.0143

> <Gold.Rescore>
     Score         DG    S(hbond)    S(metal)    S(lipo)     H(rot)  DE(clash)    DE(int)     intcor
     15.46     -16.17       2.84        0.00      38.62       1.30       0.01       0.69       ----

> <Gold.Chemscore.Fitness>
15.4648

> <Gold.Chemscore.DG>
-16.1671

> <Gold.Chemscore.ZeroCoef>
-5.4800

> <Gold.Chemscore.Hbond>
2.8418

> <Gold.Chemscore.Metal>
0.0000

> <Gold.Chemscore.Lipo>
38.6201

> <Gold.Chemscore.Internal_Hbond>
0.0000

> <Gold.Chemscore.DEClash>
0.0089

> <Gold.Chemscore.DEInternal>
0.6935

> <Gold.Chemscore.Rot>
1.2980

> <Gold.Chemscore.Internal.Correction>
   9.000000E+99

> <Gold.Chemscore.Hbonds>
donor molecule, donor type, donor heavy atom, donor atom, acceptor molecule, acceptor atom, score
      P1  H  6896  6907       L1     8  0.95
      P1  H  6931  6943       L1     6  0.14
      P1  H  6934  6947       L1     6  0.57
      P1  H  7989  7998       L1    14  0.93

> <Gold.Chemscore.Hbond.Weighted>
-9.4915

> <Gold.Chemscore.Metal.Weighted>
-0.0000

> <Gold.Chemscore.Lipo.Weighted>
-4.5186

> <Gold.Chemscore.Internal_Hbond.Weighted>
0.0000

> <Gold.Chemscore.DEClash.Weighted>
0.0089

> <Gold.Chemscore.DEInternal.Weighted>
0.6935

> <Gold.Chemscore.Rot.Weighted>
3.3229

> <Gold.Chemscore.Internal.Correction.Weighted>
   9.000000E+99

> <Gold.Protein.RotatedTorsions>
[ 6907 6896 6895 6894 ] final  -56.12 input  -60.11 | X-H torsion
[ 7974 7965 7964 7962 ] final -177.40 input  175.53 | X-H torsion
[ 8008 7997 7996 7995 ] final  -36.47 input   59.86 | X-H torsion
[ 10167 10162 10161 10158 ] final  -41.12 input  -65.29 | X-H torsion
[ 10718 10713 10712 10709 ] final  109.58 input   66.30 | X-H torsion
[ 10763 10752 10751 10750 ] final    1.80 input  -60.55 | X-H torsion
[ 11005 11000 10999 10996 ] final  174.28 input  -57.11 | X-H torsion

> <Gold.Protein.ActiveResidues>
 VAL166  LYS551  ARG553  GLY616  TRP617  ASP618  TYR619  PRO620  LYS621  CYS622 
 ASP623  PHE694  ASN695  SER759  ASP760  ASP761  ALA762  ILE779  LEU786  VAL792 
 PHE793  MET794  SER795  GLU796  ALA797  LYS798  CYS799  TRP800  GLU811  SER814 

> <Gold.Protein.RotatedAtoms>
  150.8194  134.7394  159.6758 H   0  0  0  0  0  0  0  0  0  0  0  0  # atno 6907 bound_to 6896
  152.4311  134.5773  159.9948 H   0  0  0  0  0  0  0  0  0  0  0  0  # atno 6908 bound_to 6896
  151.5961  133.3324  159.3073 H   0  0  0  0  0  0  0  0  0  0  0  0  # atno 6909 bound_to 6896
  144.7127  140.1025  143.6415 H   0  0  0  0  0  0  0  0  0  0  0  0  # atno 7974 bound_to 7965
  154.4072  140.1630  156.2379 H   0  0  0  0  0  0  0  0  0  0  0  0  # atno 8008 bound_to 7997
  155.9226  140.3420  155.6162 H   0  0  0  0  0  0  0  0  0  0  0  0  # atno 8009 bound_to 7997
  155.7203  140.0767  157.2324 H   0  0  0  0  0  0  0  0  0  0  0  0  # atno 8010 bound_to 7997
  140.7013  143.3113  151.3021 H   0  0  0  0  0  0  0  0  0  0  0  0  # atno 10167 bound_to 10162
  157.6535  131.0916  150.6475 H   0  0  0  0  0  0  0  0  0  0  0  0  # atno 10718 bound_to 10713
  153.3034  135.6957  153.7181 H   0  0  0  0  0  0  0  0  0  0  0  0  # atno 10763 bound_to 10752
  153.6087  135.3448  155.2972 H   0  0  0  0  0  0  0  0  0  0  0  0  # atno 10764 bound_to 10752
  154.8557  135.4358  154.2152 H   0  0  0  0  0  0  0  0  0  0  0  0  # atno 10765 bound_to 10752
  140.3496  134.7206  157.4259 H   0  0  0  0  0  0  0  0  0  0  0  0  # atno 11005 bound_to 11000
  145.9525  139.2743  143.1204 LP  0  0  0  0  0  0  0  0  0  0  0  0  # atno 17320 bound_to 7965
  145.9308  140.9050  143.0357 LP  0  0  0  0  0  0  0  0  0  0  0  0  # atno 17321 bound_to 7965
  139.6537  144.0316  152.2644 LP  0  0  0  0  0  0  0  0  0  0  0  0  # atno 17342 bound_to 10162
  139.9860  144.6395  150.7857 LP  0  0  0  0  0  0  0  0  0  0  0  0  # atno 17343 bound_to 10162
  156.6784  130.4560  149.5635 LP  0  0  0  0  0  0  0  0  0  0  0  0  # atno 17370 bound_to 10713
  156.1947  130.6582  151.1101 LP  0  0  0  0  0  0  0  0  0  0  0  0  # atno 17371 bound_to 10713
  140.0714  134.5857  155.8638 LP  0  0  0  0  0  0  0  0  0  0  0  0  # atno 17394 bound_to 11000
  141.2016  133.6619  156.5958 LP  0  0  0  0  0  0  0  0  0  0  0  0  # atno 17395 bound_to 11000

$$$$
