AV-unprocessed.smi:37|AV-procd|sdf|311|dock2
  -GOLD-   2262016123D 1   1.00000     0.00000
 Structure written by MMmdl.
 44 45  0  0  0  0  0  0  0  0  1 V2000
  152.3072  143.6281  161.8379 C   0  0  0  0  0  0  0  0  0  0  0  0
  151.4610  144.5744  160.9756 C   0  0  0  0  0  0  0  0  0  0  0  0
  151.6207  144.2912  159.4835 C   0  0  0  0  0  0  0  0  0  0  0  0
  152.0864  145.1342  158.7164 O   0  0  0  0  0  0  0  0  0  0  0  0
  151.2007  143.0632  159.1420 O   0  0  0  0  0  0  0  0  0  0  0  0
  151.6887  142.4596  157.9561 C   0  0  0  0  0  0  0  0  0  0  0  0
  150.5023  141.9462  157.1312 C   0  0  2  0  0  0  0  0  0  0  0  0
  149.6090  141.1830  157.9344 O   0  0  0  0  0  0  0  0  0  0  0  0
  148.9107  140.2716  157.1368 C   0  0  1  0  0  0  0  0  0  0  0  0
  147.4368  140.6095  157.1452 N   0  0  0  0  0  0  0  0  0  0  0  0
  146.9291  141.6902  157.8572 C   0  0  0  0  0  0  0  0  0  0  0  0
  145.6126  142.0058  157.8734 C   0  0  0  0  0  0  0  0  0  0  0  0
  145.1946  143.0689  158.5811 F   0  0  0  0  0  0  0  0  0  0  0  0
  144.6448  141.2065  157.1273 C   0  0  0  0  0  0  0  0  0  0  0  0
  143.4334  141.4118  157.0834 O   0  0  0  0  0  0  0  0  0  0  0  0
  145.2018  140.1353  156.4226 N   0  0  0  0  0  0  0  0  0  0  0  0
  146.5566  139.8007  156.3943 C   0  0  0  0  0  0  0  0  0  0  0  0
  146.9430  138.8410  155.7284 O   0  0  0  0  0  0  0  0  0  0  0  0
  149.5358  140.3109  155.7246 C   0  0  1  0  0  0  0  0  0  0  0  0
  148.5141  141.4389  154.4273 Br  0  0  0  0  0  0  0  0  0  0  0  0
  150.8665  140.9882  155.9936 C   0  0  2  0  0  0  0  0  0  0  0  0
  151.8114  140.0167  156.4368 O   0  0  0  0  0  0  0  0  0  0  0  0
  152.4988  139.2650  155.5576 C   0  0  0  0  0  0  0  0  0  0  0  0
  152.3362  139.2506  154.3364 O   0  0  0  0  0  0  0  0  0  0  0  0
  153.5487  138.3962  156.2534 C   0  0  0  0  0  0  0  0  0  0  0  0
  153.5968  138.5901  157.7763 C   0  0  0  0  0  0  0  0  0  0  0  0
  144.5704  139.5576  155.8868 H   0  0  0  0  0  0  0  0  0  0  0  0
  152.2090  143.8802  162.8937 H   0  0  0  0  0  0  0  0  0  0  0  0
  153.3644  143.6954  161.5794 H   0  0  0  0  0  0  0  0  0  0  0  0
  151.9956  142.5900  161.7170 H   0  0  0  0  0  0  0  0  0  0  0  0
  150.4081  144.4823  161.2422 H   0  0  0  0  0  0  0  0  0  0  0  0
  151.7476  145.6081  161.1708 H   0  0  0  0  0  0  0  0  0  0  0  0
  152.2452  143.2030  157.3839 H   0  0  0  0  0  0  0  0  0  0  0  0
  152.3734  141.6439  158.1931 H   0  0  0  0  0  0  0  0  0  0  0  0
  149.9552  142.7919  156.7112 H   0  0  0  0  0  0  0  0  0  0  0  0
  149.0034  139.2969  157.6200 H   0  0  0  0  0  0  0  0  0  0  0  0
  147.5967  142.3245  158.4211 H   0  0  0  0  0  0  0  0  0  0  0  0
  149.6253  139.3086  155.3041 H   0  0  0  0  0  0  0  0  0  0  0  0
  151.2210  141.5274  155.1144 H   0  0  0  0  0  0  0  0  0  0  0  0
  153.3389  137.3512  156.0235 H   0  0  0  0  0  0  0  0  0  0  0  0
  154.5249  138.6231  155.8242 H   0  0  0  0  0  0  0  0  0  0  0  0
  154.3603  137.9511  158.2201 H   0  0  0  0  0  0  0  0  0  0  0  0
  152.6435  138.3352  158.2405 H   0  0  0  0  0  0  0  0  0  0  0  0
  153.8369  139.6210  158.0394 H   0  0  0  0  0  0  0  0  0  0  0  0
  1  2  1  0  0  0  0
  1 28  1  0  0  0  0
  1 29  1  0  0  0  0
  1 30  1  0  0  0  0
  2  3  1  0  0  0  0
  2 31  1  0  0  0  0
  2 32  1  0  0  0  0
  3  4  2  0  0  0  0
  3  5  1  0  0  0  0
  5  6  1  0  0  0  0
  6  7  1  0  0  0  0
  6 33  1  0  0  0  0
  6 34  1  0  0  0  0
  7 21  1  0  0  0  0
  7  8  1  0  0  0  0
  7 35  1  0  0  0  0
  8  9  1  0  0  0  0
  9 10  1  0  0  0  0
  9 19  1  0  0  0  0
  9 36  1  0  0  0  0
 10 17  1  0  0  0  0
 10 11  1  0  0  0  0
 11 12  2  0  0  0  0
 11 37  1  0  0  0  0
 12 13  1  0  0  0  0
 12 14  1  0  0  0  0
 14 15  2  0  0  0  0
 14 16  1  0  0  0  0
 16 27  1  0  0  0  0
 16 17  1  0  0  0  0
 17 18  2  0  0  0  0
 19 20  1  0  0  0  0
 19 21  1  0  0  0  0
 19 38  1  0  0  0  0
 21 22  1  0  0  0  0
 21 39  1  0  0  0  0
 22 23  1  0  0  0  0
 23 24  2  0  0  0  0
 23 25  1  0  0  0  0
 25 26  1  0  0  0  0
 25 40  1  0  0  0  0
 25 41  1  0  0  0  0
 26 42  1  0  0  0  0
 26 43  1  0  0  0  0
 26 44  1  0  0  0  0
M  END
> <s_m_source_file>
AV-unprocessed.smi

> <i_m_source_file_index>
37

> <i_lp_mmshare_version>
43012

> <i_f3d_flags>
0

> <s_epik_input>
W0NIM11bQ0gyXUMoPU8pT1tDSDJdW0NAQEhdMU9bQ0BASF0objJbY0hdYyhGKWMoPU8pW25IXWMyPU8pW0NAQEhdKEJyKVtDQEhdMU9DKD1PKVtDSDJdW0NIM10=

> <s_epik_cmdline>
J2VwaWtfcHl0aG9uJywgJy1waCcsICc3LjAnLCAnLXRuJywgJzgnLCAnLW1hJywgJzIwMCcsICctbWV0YWxfYmluZGluZycsICctaW1hZScsICc8aW5maWxlLm1hZT4nLCAnLW9tYWUnLCAnPG91dGZpbGUubWFlPic=

> <r_lp_tautomer_probability>
0.999537

> <r_epik_Ionization_Penalty>
0.104106

> <r_epik_Ionization_Penalty_Charging>
0.104106

> <r_epik_Ionization_Penalty_Neutral>
3.94675e-16

> <r_epik_State_Penalty>
0.0940182

> <r_epik_Charging_Adjusted_Penalty>
0.198124

> <i_epik_Tot_Q>
0

> <i_epik_Tot_abs_Q>
0

> <r_epik_Metal_State_Penalty>
3.05314

> <b_epik_Metal_Only>
0

> <s_epik_Chemistry_Notes>
This compound has an ester and may undergo hydrolysis at high or low pH. This compound contains an acetal/aminal-like group ( X-CH(R)-Y where X, Y are N, S, or O) that may be acid/base labile, releasing an aldehyde.

> <s_lp_Force_Field>
OPLS_2005

> <r_lp_Energy>
26.7513

> <b_lp_Chiralities_Consistent>
1

> <s_lp_Variant>
AV-unprocessed.smi:37-9

> <Gold.Version>
5.8.1

> <Gold.Id.Protein>
6NUR|6NUR_protein|mol2

> <Gold.PLP.Fitness>
36.1406

> <Gold.PLP.PLP>
-35.1631

> <Gold.PLP.part.hbond>
-1.0000

> <Gold.PLP.part.metal>
0.0000

> <Gold.PLP.part.buried>
-4.5837

> <Gold.PLP.part.nonpolar>
-29.4352

> <Gold.PLP.part.repulsive>
0.2461

> <Gold.PLP.ligand.clash>
0.0000

> <Gold.PLP.ligand.torsion>
0.9680

> <Gold.PLP.Chemscore.Hbond>
0.8580

> <Gold.PLP.Chemscore.CHOScore>
0.0000

> <Gold.PLP.Chemscore.Metal>
0.0000

> <Gold.Chemscore.Hbonds>
donor molecule, donor type, donor heavy atom, donor atom, acceptor molecule, acceptor atom, score
      P1  H  7989  7998       L1    24  0.67

> <Gold.PLP.Chemscore.Internal.Correction>
0.3395

> <Gold.Rescore>
     Score         DG    S(hbond)    S(metal)    S(lipo)     H(rot)  DE(clash)    DE(int)     intcor
      5.65      -7.78       0.71        0.00      72.26       3.33       0.05       2.08       ----

> <Gold.Chemscore.Fitness>
5.6533

> <Gold.Chemscore.DG>
-7.7819

> <Gold.Chemscore.ZeroCoef>
-5.4800

> <Gold.Chemscore.Hbond>
0.7105

> <Gold.Chemscore.Metal>
0.0000

> <Gold.Chemscore.Lipo>
72.2594

> <Gold.Chemscore.Internal_Hbond>
0.0000

> <Gold.Chemscore.DEClash>
0.0519

> <Gold.Chemscore.DEInternal>
2.0766

> <Gold.Chemscore.Rot>
3.3303

> <Gold.Chemscore.Internal.Correction>
   9.000000E+99

> <Gold.Chemscore.Hbonds>
donor molecule, donor type, donor heavy atom, donor atom, acceptor molecule, acceptor atom, score
      P1  H  7989  7998       L1    24  0.65

> <Gold.Chemscore.Hbond.Weighted>
-2.3731

> <Gold.Chemscore.Metal.Weighted>
-0.0000

> <Gold.Chemscore.Lipo.Weighted>
-8.4544

> <Gold.Chemscore.Internal_Hbond.Weighted>
0.0000

> <Gold.Chemscore.DEClash.Weighted>
0.0519

> <Gold.Chemscore.DEInternal.Weighted>
2.0766

> <Gold.Chemscore.Rot.Weighted>
8.5256

> <Gold.Chemscore.Internal.Correction.Weighted>
   9.000000E+99

> <Gold.Protein.RotatedTorsions>
[ 6907 6896 6895 6894 ] final -133.16 input  -60.11 | X-H torsion
[ 7974 7965 7964 7962 ] final   -1.30 input  175.53 | X-H torsion
[ 8008 7997 7996 7995 ] final -101.61 input   59.86 | X-H torsion
[ 10167 10162 10161 10158 ] final  -15.24 input  -65.29 | X-H torsion
[ 10718 10713 10712 10709 ] final -117.46 input   66.30 | X-H torsion
[ 10763 10752 10751 10750 ] final   87.68 input  -60.55 | X-H torsion
[ 11005 11000 10999 10996 ] final   39.07 input  -57.11 | X-H torsion

> <Gold.Protein.ActiveResidues>
 VAL166  LYS551  ARG553  GLY616  TRP617  ASP618  TYR619  PRO620  LYS621  CYS622 
 ASP623  PHE694  ASN695  SER759  ASP760  ASP761  ALA762  ILE779  LEU786  VAL792 
 PHE793  MET794  SER795  GLU796  ALA797  LYS798  CYS799  TRP800  GLU811  SER814 

> <Gold.Protein.RotatedAtoms>
  150.9708  133.6346  159.2738 H   0  0  0  0  0  0  0  0  0  0  0  0  # atno 6907 bound_to 6896
  151.3636  135.0907  159.9452 H   0  0  0  0  0  0  0  0  0  0  0  0  # atno 6908 bound_to 6896
  152.5182  133.9277  159.7619 H   0  0  0  0  0  0  0  0  0  0  0  0  # atno 6909 bound_to 6896
  146.2418  140.1400  142.8336 H   0  0  0  0  0  0  0  0  0  0  0  0  # atno 7974 bound_to 7965
  154.8449  140.0433  157.1566 H   0  0  0  0  0  0  0  0  0  0  0  0  # atno 8008 bound_to 7997
  154.9006  140.2999  155.5300 H   0  0  0  0  0  0  0  0  0  0  0  0  # atno 8009 bound_to 7997
  156.2994  140.2376  156.4033 H   0  0  0  0  0  0  0  0  0  0  0  0  # atno 8010 bound_to 7997
  140.7215  143.5238  150.9601 H   0  0  0  0  0  0  0  0  0  0  0  0  # atno 10167 bound_to 10162
  156.1035  130.6192  150.9167 H   0  0  0  0  0  0  0  0  0  0  0  0  # atno 10718 bound_to 10713
  153.1693  135.4534  154.9880 H   0  0  0  0  0  0  0  0  0  0  0  0  # atno 10763 bound_to 10752
  154.7954  135.3236  154.7681 H   0  0  0  0  0  0  0  0  0  0  0  0  # atno 10764 bound_to 10752
  153.8159  135.6951  153.4889 H   0  0  0  0  0  0  0  0  0  0  0  0  # atno 10765 bound_to 10752
  140.2064  134.3808  155.8070 H   0  0  0  0  0  0  0  0  0  0  0  0  # atno 11005 bound_to 11000
  145.0255  140.8828  143.5141 LP  0  0  0  0  0  0  0  0  0  0  0  0  # atno 17320 bound_to 7965
  145.1455  139.2546  143.5468 LP  0  0  0  0  0  0  0  0  0  0  0  0  # atno 17321 bound_to 7965
  139.8956  143.6899  152.3139 LP  0  0  0  0  0  0  0  0  0  0  0  0  # atno 17342 bound_to 10162
  139.7230  144.7598  151.0924 LP  0  0  0  0  0  0  0  0  0  0  0  0  # atno 17343 bound_to 10162
  157.6209  131.0930  150.8624 LP  0  0  0  0  0  0  0  0  0  0  0  0  # atno 17370 bound_to 10713
  156.8747  130.5158  149.5294 LP  0  0  0  0  0  0  0  0  0  0  0  0  # atno 17371 bound_to 10713
  141.2227  133.7120  156.8344 LP  0  0  0  0  0  0  0  0  0  0  0  0  # atno 17394 bound_to 11000
  140.1998  134.8905  157.3156 LP  0  0  0  0  0  0  0  0  0  0  0  0  # atno 17395 bound_to 11000

$$$$
