AV-unprocessed.smi:790|AV-procd|sdf|3742|dock4
  -GOLD-   22720 1173D 1   1.00000     0.00000
 Structure written by MMmdl.
 38 40  0  0  0  0  0  0  0  0  1 V2000
  150.8326  140.6487  156.2483 O   0  0  0  0  0  0  0  0  0  0  0  0
  150.2523  141.7176  156.0600 C   0  0  0  0  0  0  0  0  0  0  0  0
  150.4737  142.8553  156.7398 N   0  0  0  0  0  0  0  0  0  0  0  0
  151.3472  143.0782  157.8386 C   0  0  0  0  0  0  0  0  0  0  0  0
  151.8529  142.0557  158.6780 C   0  0  0  0  0  0  0  0  0  0  0  0
  152.6945  142.4107  159.7496 C   0  0  0  0  0  0  0  0  0  0  0  0
  152.9945  143.7725  159.9476 C   0  0  0  0  0  0  0  0  0  0  0  0
  152.5106  144.7582  159.1630 N   0  0  0  0  0  0  0  0  0  0  0  0
  151.7038  144.4104  158.1379 C   0  0  0  0  0  0  0  0  0  0  0  0
  149.3139  141.8928  155.1198 N   0  0  0  0  0  0  0  0  0  0  0  0
  148.8248  140.8525  154.2185 C   0  0  2  0  0  0  0  0  0  0  0  0
  147.4253  141.2193  153.6771 C   0  0  1  0  0  0  0  0  0  0  0  0
  147.1226  140.3369  152.4529 C   0  0  0  0  0  0  0  0  0  0  0  0
  146.8691  138.9583  153.0915 C   0  0  0  0  0  0  0  0  0  0  0  0
  147.0790  139.2292  154.5972 C   0  0  2  0  0  0  0  0  0  0  0  0
  146.4858  140.6265  154.7243 C   0  0  0  0  0  0  0  0  0  0  0  0
  148.5640  139.5058  154.9410 C   0  0  1  0  0  0  0  0  0  0  0  0
  149.5651  138.3910  154.5796 C   0  0  0  0  0  0  0  0  0  0  0  0
  149.8604  138.4247  153.1995 O   0  0  0  0  0  0  0  0  0  0  0  0
  149.9790  143.6714  156.4103 H   0  0  0  0  0  0  0  0  0  0  0  0
  151.6041  141.0162  158.5343 H   0  0  0  0  0  0  0  0  0  0  0  0
  153.0971  141.6558  160.4085 H   0  0  0  0  0  0  0  0  0  0  0  0
  153.6353  144.0787  160.7614 H   0  0  0  0  0  0  0  0  0  0  0  0
  151.3320  145.2255  157.5341 H   0  0  0  0  0  0  0  0  0  0  0  0
  148.8943  142.8064  155.0292 H   0  0  0  0  0  0  0  0  0  0  0  0
  149.5281  140.7398  153.3908 H   0  0  0  0  0  0  0  0  0  0  0  0
  147.2882  142.2838  153.4822 H   0  0  0  0  0  0  0  0  0  0  0  0
  146.2310  140.6870  151.9312 H   0  0  0  0  0  0  0  0  0  0  0  0
  147.9439  140.3207  151.7355 H   0  0  0  0  0  0  0  0  0  0  0  0
  145.8422  138.6422  152.9040 H   0  0  0  0  0  0  0  0  0  0  0  0
  147.5202  138.1808  152.6942 H   0  0  0  0  0  0  0  0  0  0  0  0
  146.6158  138.4818  155.2420 H   0  0  0  0  0  0  0  0  0  0  0  0
  146.6090  141.0630  155.7169 H   0  0  0  0  0  0  0  0  0  0  0  0
  145.4328  140.6785  154.4412 H   0  0  0  0  0  0  0  0  0  0  0  0
  148.6249  139.6610  156.0204 H   0  0  0  0  0  0  0  0  0  0  0  0
  150.4877  138.4661  155.1534 H   0  0  0  0  0  0  0  0  0  0  0  0
  149.1347  137.4166  154.8108 H   0  0  0  0  0  0  0  0  0  0  0  0
  149.6813  137.5720  152.8333 H   0  0  0  0  0  0  0  0  0  0  0  0
  1  2  2  0  0  0  0
  2  3  1  0  0  0  0
  2 10  1  0  0  0  0
  3  4  1  0  0  0  0
  3 20  1  0  0  0  0
  4  9  1  0  0  0  0
  4  5  2  0  0  0  0
  5  6  1  0  0  0  0
  5 21  1  0  0  0  0
  6  7  2  0  0  0  0
  6 22  1  0  0  0  0
  7  8  1  0  0  0  0
  7 23  1  0  0  0  0
  8  9  2  0  0  0  0
  9 24  1  0  0  0  0
 10 11  1  0  0  0  0
 10 25  1  0  0  0  0
 11 17  1  0  0  0  0
 11 12  1  0  0  0  0
 11 26  1  0  0  0  0
 12 16  1  0  0  0  0
 12 13  1  0  0  0  0
 12 27  1  0  0  0  0
 13 14  1  0  0  0  0
 13 28  1  0  0  0  0
 13 29  1  0  0  0  0
 14 15  1  0  0  0  0
 14 30  1  0  0  0  0
 14 31  1  0  0  0  0
 15 16  1  0  0  0  0
 15 17  1  0  0  0  0
 15 32  1  0  0  0  0
 16 33  1  0  0  0  0
 16 34  1  0  0  0  0
 17 18  1  0  0  0  0
 17 35  1  0  0  0  0
 18 19  1  0  0  0  0
 18 36  1  0  0  0  0
 18 37  1  0  0  0  0
 19 38  1  0  0  0  0
M  END
> <s_m_source_file>
AV-unprocessed.smi

> <i_m_source_file_index>
790

> <i_lp_mmshare_version>
43012

> <i_f3d_flags>
0

> <s_epik_input>
W0NIMl0xW0NIMl1bQ0BASF0oW0NIMl0yKVtDQEBIXShbQ0gyXVtPSF0pW0NAQEhdKFtDQEhdMTIpW05IXUMoPU8pW05IXWMzW2NIXVtjSF1bY0hdbltjSF0z

> <s_epik_cmdline>
J2VwaWtfcHl0aG9uJywgJy1waCcsICc3LjAnLCAnLXRuJywgJzgnLCAnLW1hJywgJzIwMCcsICctbWV0YWxfYmluZGluZycsICctaW1hZScsICc8aW5maWxlLm1hZT4nLCAnLW9tYWUnLCAnPG91dGZpbGUubWFlPic=

> <r_epik_Ionization_Penalty>
0.00497582

> <r_epik_Ionization_Penalty_Charging>
0

> <r_epik_Ionization_Penalty_Neutral>
0.00497582

> <r_epik_State_Penalty>
0.00358602

> <r_epik_Charging_Adjusted_Penalty>
0.00358602

> <i_epik_Tot_Q>
0

> <i_epik_Tot_abs_Q>
0

> <r_epik_Metal_State_Penalty>
-0

> <b_epik_Metal_Only>
0

> <s_lp_Force_Field>
OPLS_2005

> <r_lp_Energy>
52.0716

> <b_lp_Chiralities_Consistent>
1

> <s_lp_Variant>
AV-unprocessed.smi:790-3

> <Gold.Version>
5.8.1

> <Gold.Id.Protein>
6NUR|6NUR_protein|mol2

> <Gold.PLP.Fitness>
45.6347

> <Gold.PLP.PLP>
-37.7241

> <Gold.PLP.part.hbond>
-4.2254

> <Gold.PLP.part.metal>
0.0000

> <Gold.PLP.part.buried>
-3.9959

> <Gold.PLP.part.nonpolar>
-30.2879

> <Gold.PLP.part.repulsive>
0.2587

> <Gold.PLP.ligand.clash>
0.0000

> <Gold.PLP.ligand.torsion>
0.5182

> <Gold.PLP.Chemscore.Hbond>
2.9760

> <Gold.PLP.Chemscore.CHOScore>
0.0000

> <Gold.PLP.Chemscore.Metal>
0.0000

> <Gold.Chemscore.Hbonds>
donor molecule, donor type, donor heavy atom, donor atom, acceptor molecule, acceptor atom, score
      L1  H     3    20       P1  8028  1.00
      L1  H    10    25       P1  8028  0.94
      L1  H    19    38       P1  7948  1.00

> <Gold.PLP.Chemscore.Internal.Correction>
0.0189

> <Gold.Rescore>
     Score         DG    S(hbond)    S(metal)    S(lipo)     H(rot)  DE(clash)    DE(int)     intcor
     18.75     -22.33       2.83        0.00     102.03       1.78       0.23       3.35       ----

> <Gold.Chemscore.Fitness>
18.7491

> <Gold.Chemscore.DG>
-22.3298

> <Gold.Chemscore.ZeroCoef>
-5.4800

> <Gold.Chemscore.Hbond>
2.8337

> <Gold.Chemscore.Metal>
0.0000

> <Gold.Chemscore.Lipo>
102.0321

> <Gold.Chemscore.Internal_Hbond>
0.0000

> <Gold.Chemscore.DEClash>
0.2298

> <Gold.Chemscore.DEInternal>
3.3508

> <Gold.Chemscore.Rot>
1.7783

> <Gold.Chemscore.Internal.Correction>
   9.000000E+99

> <Gold.Chemscore.Hbonds>
donor molecule, donor type, donor heavy atom, donor atom, acceptor molecule, acceptor atom, score
      L1  H     3    20       P1  8028  1.00
      L1  H    10    25       P1  8028  0.89
      L1  H    19    38       P1  7948  0.55

> <Gold.Chemscore.Hbond.Weighted>
-9.4645

> <Gold.Chemscore.Metal.Weighted>
-0.0000

> <Gold.Chemscore.Lipo.Weighted>
-11.9378

> <Gold.Chemscore.Internal_Hbond.Weighted>
0.0000

> <Gold.Chemscore.DEClash.Weighted>
0.2298

> <Gold.Chemscore.DEInternal.Weighted>
3.3508

> <Gold.Chemscore.Rot.Weighted>
4.5525

> <Gold.Chemscore.Internal.Correction.Weighted>
   9.000000E+99

> <Gold.Protein.RotatedTorsions>
[ 6907 6896 6895 6894 ] final   65.55 input  -60.11 | X-H torsion
[ 7974 7965 7964 7962 ] final   46.20 input  175.53 | X-H torsion
[ 8008 7997 7996 7995 ] final -105.14 input   59.86 | X-H torsion
[ 10167 10162 10161 10158 ] final -176.77 input  -65.29 | X-H torsion
[ 10718 10713 10712 10709 ] final   72.57 input   66.30 | X-H torsion
[ 10763 10752 10751 10750 ] final   68.42 input  -60.55 | X-H torsion
[ 11005 11000 10999 10996 ] final  -23.26 input  -57.11 | X-H torsion

> <Gold.Protein.ActiveResidues>
 VAL166  LYS551  ARG553  GLY616  TRP617  ASP618  TYR619  PRO620  LYS621  CYS622 
 ASP623  PHE694  ASN695  SER759  ASP760  ASP761  ALA762  ILE779  LEU786  VAL792 
 PHE793  MET794  SER795  GLU796  ALA797  LYS798  CYS799  TRP800  GLU811  SER814 

> <Gold.Protein.RotatedAtoms>
  152.4416  134.5579  159.9885 H   0  0  0  0  0  0  0  0  0  0  0  0  # atno 6907 bound_to 6896
  151.5675  133.3389  159.2991 H   0  0  0  0  0  0  0  0  0  0  0  0  # atno 6908 bound_to 6896
  150.8323  134.7615  159.6928 H   0  0  0  0  0  0  0  0  0  0  0  0  # atno 6909 bound_to 6896
  146.0411  139.4882  142.9777 H   0  0  0  0  0  0  0  0  0  0  0  0  # atno 7974 bound_to 7965
  154.8956  140.0414  157.1863 H   0  0  0  0  0  0  0  0  0  0  0  0  # atno 8008 bound_to 7997
  154.8496  140.2927  155.5585 H   0  0  0  0  0  0  0  0  0  0  0  0  # atno 8009 bound_to 7997
  156.2995  140.2467  156.3453 H   0  0  0  0  0  0  0  0  0  0  0  0  # atno 8010 bound_to 7997
  139.5513  144.2103  152.1081 H   0  0  0  0  0  0  0  0  0  0  0  0  # atno 10167 bound_to 10162
  157.6507  130.9585  150.0947 H   0  0  0  0  0  0  0  0  0  0  0  0  # atno 10718 bound_to 10713
  153.0234  135.5248  154.7131 H   0  0  0  0  0  0  0  0  0  0  0  0  # atno 10763 bound_to 10752
  154.6208  135.2888  155.0331 H   0  0  0  0  0  0  0  0  0  0  0  0  # atno 10764 bound_to 10752
  154.1318  135.6592  153.4976 H   0  0  0  0  0  0  0  0  0  0  0  0  # atno 10765 bound_to 10752
  140.8735  133.7703  156.0215 H   0  0  0  0  0  0  0  0  0  0  0  0  # atno 11005 bound_to 11000
  145.6882  141.0172  143.1569 LP  0  0  0  0  0  0  0  0  0  0  0  0  # atno 17320 bound_to 7965
  144.7075  139.8502  143.7425 LP  0  0  0  0  0  0  0  0  0  0  0  0  # atno 17321 bound_to 7965
  140.1598  144.5036  150.6639 LP  0  0  0  0  0  0  0  0  0  0  0  0  # atno 17342 bound_to 10162
  140.6776  143.2312  151.5468 LP  0  0  0  0  0  0  0  0  0  0  0  0  # atno 17343 bound_to 10162
  156.1886  130.3653  149.8939 LP  0  0  0  0  0  0  0  0  0  0  0  0  # atno 17370 bound_to 10713
  156.6873  130.8882  151.3584 LP  0  0  0  0  0  0  0  0  0  0  0  0  # atno 17371 bound_to 10713
  140.8545  134.2914  157.5261 LP  0  0  0  0  0  0  0  0  0  0  0  0  # atno 17394 bound_to 11000
  139.8714  134.9485  156.3999 LP  0  0  0  0  0  0  0  0  0  0  0  0  # atno 17395 bound_to 11000

$$$$
