AV-unprocessed.smi:523|AV-procd|sdf|2803|dock6
  -GOLD-   2262023283D 1   1.00000     0.00000
 Structure written by MMmdl.
 41 43  0  0  0  0  0  0  0  0  1 V2000
  153.3717  137.9608  159.1262 C   0  0  0  0  0  0  0  0  0  0  0  0
  153.3463  138.3801  157.7740 O   0  0  0  0  0  0  0  0  0  0  0  0
  152.0549  138.7908  157.3548 C   0  0  0  0  0  0  0  0  0  0  0  0
  152.1757  139.7638  156.1739 C   0  0  0  0  0  0  0  0  0  0  0  0
  150.9411  140.5183  155.9643 N   0  0  0  0  0  0  0  0  0  0  0  0
  150.4540  141.5634  156.6884 C   0  0  0  0  0  0  0  0  0  0  0  0
  151.1449  142.1049  157.7727 N   0  0  0  0  0  0  0  0  0  0  0  0
  151.2631  143.5183  158.1199 C   0  0  0  0  0  0  0  0  0  0  0  0
  152.7249  143.8835  158.4341 C   0  0  0  0  0  0  0  0  0  0  0  0
  153.1823  143.0832  159.5185 O   0  0  0  0  0  0  0  0  0  0  0  0
  153.0941  141.6930  159.2263 C   0  0  0  0  0  0  0  0  0  0  0  0
  151.6336  141.3260  158.9052 C   0  0  0  0  0  0  0  0  0  0  0  0
  149.2459  141.9883  156.3093 N   0  0  0  0  0  0  0  0  0  0  0  0
  148.9453  141.1649  155.2358 C   0  0  0  0  0  0  0  0  0  0  0  0
  149.9442  140.2720  155.0165 C   0  0  0  0  0  0  0  0  0  0  0  0
  149.8635  139.2471  153.9649 C   0  0  0  0  0  0  0  0  0  0  0  0
  150.7442  138.4167  153.7529 O   0  0  0  0  0  0  0  0  0  0  0  0
  148.7119  139.3040  153.2531 N   0  0  0  0  0  0  0  0  0  0  0  0
  147.6734  140.1780  153.4193 C   0  0  0  0  0  0  0  0  0  0  0  0
  146.6824  140.1011  152.6933 O   0  0  0  0  0  0  0  0  0  0  0  0
  147.7853  141.1188  154.4107 N   0  0  0  0  0  0  0  0  0  0  0  0
  146.7006  142.0756  154.6373 C   0  0  0  0  0  0  0  0  0  0  0  0
  148.6061  138.6194  152.5186 H   0  0  0  0  0  0  0  0  0  0  0  0
  154.3833  137.6580  159.3961 H   0  0  0  0  0  0  0  0  0  0  0  0
  152.7108  137.1081  159.2868 H   0  0  0  0  0  0  0  0  0  0  0  0
  153.0717  138.7685  159.7950 H   0  0  0  0  0  0  0  0  0  0  0  0
  151.4669  137.9208  157.0585 H   0  0  0  0  0  0  0  0  0  0  0  0
  151.5291  139.2736  158.1794 H   0  0  0  0  0  0  0  0  0  0  0  0
  153.0073  140.4424  156.3384 H   0  0  0  0  0  0  0  0  0  0  0  0
  152.4361  139.2252  155.2656 H   0  0  0  0  0  0  0  0  0  0  0  0
  150.8657  144.1459  157.3235 H   0  0  0  0  0  0  0  0  0  0  0  0
  150.6389  143.7196  158.9915 H   0  0  0  0  0  0  0  0  0  0  0  0
  153.3644  143.7375  157.5624 H   0  0  0  0  0  0  0  0  0  0  0  0
  152.7999  144.9341  158.7143 H   0  0  0  0  0  0  0  0  0  0  0  0
  153.7507  141.4432  158.3913 H   0  0  0  0  0  0  0  0  0  0  0  0
  153.4444  141.1264  160.0890 H   0  0  0  0  0  0  0  0  0  0  0  0
  150.9957  141.5024  159.7722 H   0  0  0  0  0  0  0  0  0  0  0  0
  151.5655  140.2623  158.6751 H   0  0  0  0  0  0  0  0  0  0  0  0
  146.4490  142.6021  153.7154 H   0  0  0  0  0  0  0  0  0  0  0  0
  146.9566  142.8315  155.3792 H   0  0  0  0  0  0  0  0  0  0  0  0
  145.8070  141.5579  154.9886 H   0  0  0  0  0  0  0  0  0  0  0  0
  1  2  1  0  0  0  0
  1 24  1  0  0  0  0
  1 25  1  0  0  0  0
  1 26  1  0  0  0  0
  2  3  1  0  0  0  0
  3  4  1  0  0  0  0
  3 27  1  0  0  0  0
  3 28  1  0  0  0  0
  4  5  1  0  0  0  0
  4 29  1  0  0  0  0
  4 30  1  0  0  0  0
  5 15  1  0  0  0  0
  5  6  1  0  0  0  0
  6  7  1  0  0  0  0
  6 13  2  0  0  0  0
  7 12  1  0  0  0  0
  7  8  1  0  0  0  0
  8  9  1  0  0  0  0
  8 31  1  0  0  0  0
  8 32  1  0  0  0  0
  9 10  1  0  0  0  0
  9 33  1  0  0  0  0
  9 34  1  0  0  0  0
 10 11  1  0  0  0  0
 11 12  1  0  0  0  0
 11 35  1  0  0  0  0
 11 36  1  0  0  0  0
 12 37  1  0  0  0  0
 12 38  1  0  0  0  0
 13 14  1  0  0  0  0
 14 21  1  0  0  0  0
 14 15  2  0  0  0  0
 15 16  1  0  0  0  0
 16 17  2  0  0  0  0
 16 18  1  0  0  0  0
 18 23  1  0  0  0  0
 18 19  1  0  0  0  0
 19 20  2  0  0  0  0
 19 21  1  0  0  0  0
 21 22  1  0  0  0  0
 22 39  1  0  0  0  0
 22 40  1  0  0  0  0
 22 41  1  0  0  0  0
M  END
> <s_m_source_file>
AV-unprocessed.smi

> <i_m_source_file_index>
523

> <i_lp_mmshare_version>
43012

> <i_f3d_flags>
0

> <s_epik_input>
W0NIM11uMWMoPU8pW25IXWMoPU8pYyhjMTIpbihbQ0gyXVtDSDJdT1tDSDNdKWMobjIpTjNbQ0gyXVtDSDJdT1tDSDJdW0NIMl0z

> <s_epik_cmdline>
J2VwaWtfcHl0aG9uJywgJy1waCcsICc3LjAnLCAnLXRuJywgJzgnLCAnLW1hJywgJzIwMCcsICctbWV0YWxfYmluZGluZycsICctaW1hZScsICc8aW5maWxlLm1hZT4nLCAnLW9tYWUnLCAnPG91dGZpbGUubWFlPic=

> <r_lp_tautomer_probability>
1

> <r_epik_Ionization_Penalty>
0.000208431

> <r_epik_Ionization_Penalty_Charging>
0.000208146

> <r_epik_Ionization_Penalty_Neutral>
2.85359e-07

> <r_epik_State_Penalty>
-0

> <r_epik_Charging_Adjusted_Penalty>
0.000208146

> <i_epik_Tot_Q>
0

> <i_epik_Tot_abs_Q>
0

> <r_epik_Metal_State_Penalty>
0.136977

> <b_epik_Metal_Only>
0

> <s_lp_Force_Field>
OPLS_2005

> <r_lp_Energy>
38.6509

> <b_lp_Chiralities_Consistent>
1

> <s_lp_Variant>
AV-unprocessed.smi:523-1

> <Gold.Version>
5.8.1

> <Gold.Id.Protein>
6NUR|6NUR_protein|mol2

> <Gold.PLP.Fitness>
43.2124

> <Gold.PLP.PLP>
-39.2919

> <Gold.PLP.part.hbond>
-3.0000

> <Gold.PLP.part.metal>
0.0000

> <Gold.PLP.part.buried>
-0.9210

> <Gold.PLP.part.nonpolar>
-38.1761

> <Gold.PLP.part.repulsive>
3.4676

> <Gold.PLP.ligand.clash>
0.0000

> <Gold.PLP.ligand.torsion>
1.2700

> <Gold.PLP.Chemscore.Hbond>
2.0000

> <Gold.PLP.Chemscore.CHOScore>
0.0000

> <Gold.PLP.Chemscore.Metal>
0.0000

> <Gold.Chemscore.Hbonds>
donor molecule, donor type, donor heavy atom, donor atom, acceptor molecule, acceptor atom, score
      P1  H  7997  8010       L1     2  0.60

> <Gold.PLP.Chemscore.Internal.Correction>
0.4605

> <Gold.Rescore>
     Score         DG    S(hbond)    S(metal)    S(lipo)     H(rot)  DE(clash)    DE(int)     intcor
     11.19     -13.43       1.01        0.00      72.75       1.53       1.18       1.06       ----

> <Gold.Chemscore.Fitness>
11.1906

> <Gold.Chemscore.DG>
-13.4337

> <Gold.Chemscore.ZeroCoef>
-5.4800

> <Gold.Chemscore.Hbond>
1.0092

> <Gold.Chemscore.Metal>
0.0000

> <Gold.Chemscore.Lipo>
72.7528

> <Gold.Chemscore.Internal_Hbond>
0.0000

> <Gold.Chemscore.DEClash>
1.1829

> <Gold.Chemscore.DEInternal>
1.0603

> <Gold.Chemscore.Rot>
1.5348

> <Gold.Chemscore.Internal.Correction>
   9.000000E+99

> <Gold.Chemscore.Hbonds>
donor molecule, donor type, donor heavy atom, donor atom, acceptor molecule, acceptor atom, score
      L1  H    18    23       P1  7948  0.03
      P1  H  7997  8010       L1     2  0.15

> <Gold.Chemscore.Hbond.Weighted>
-3.3707

> <Gold.Chemscore.Metal.Weighted>
-0.0000

> <Gold.Chemscore.Lipo.Weighted>
-8.5121

> <Gold.Chemscore.Internal_Hbond.Weighted>
0.0000

> <Gold.Chemscore.DEClash.Weighted>
1.1829

> <Gold.Chemscore.DEInternal.Weighted>
1.0603

> <Gold.Chemscore.Rot.Weighted>
3.9290

> <Gold.Chemscore.Internal.Correction.Weighted>
   9.000000E+99

> <Gold.Protein.RotatedTorsions>
[ 6907 6896 6895 6894 ] final -166.41 input  -60.11 | X-H torsion
[ 7974 7965 7964 7962 ] final  155.65 input  175.53 | X-H torsion
[ 8008 7997 7996 7995 ] final   40.17 input   59.86 | X-H torsion
[ 10167 10162 10161 10158 ] final   68.09 input  -65.29 | X-H torsion
[ 10718 10713 10712 10709 ] final  175.20 input   66.30 | X-H torsion
[ 10763 10752 10751 10750 ] final  -87.50 input  -60.55 | X-H torsion
[ 11005 11000 10999 10996 ] final  -27.01 input  -57.11 | X-H torsion

> <Gold.Protein.ActiveResidues>
 VAL166  LYS551  ARG553  GLY616  TRP617  ASP618  TYR619  PRO620  LYS621  CYS622 
 ASP623  PHE694  ASN695  SER759  ASP760  ASP761  ALA762  ILE779  LEU786  VAL792 
 PHE793  MET794  SER795  GLU796  ALA797  LYS798  CYS799  TRP800  GLU811  SER814 

> <Gold.Protein.RotatedAtoms>
  151.4432  133.3637  159.2784 H   0  0  0  0  0  0  0  0  0  0  0  0  # atno 6907 bound_to 6896
  150.9143  134.8562  159.7457 H   0  0  0  0  0  0  0  0  0  0  0  0  # atno 6908 bound_to 6896
  152.4948  134.4365  159.9581 H   0  0  0  0  0  0  0  0  0  0  0  0  # atno 6909 bound_to 6896
  144.8012  139.7097  143.6181 H   0  0  0  0  0  0  0  0  0  0  0  0  # atno 7974 bound_to 7965
  155.2488  140.3351  155.4284 H   0  0  0  0  0  0  0  0  0  0  0  0  # atno 8008 bound_to 7997
  156.2225  140.1815  156.7488 H   0  0  0  0  0  0  0  0  0  0  0  0  # atno 8009 bound_to 7997
  154.5846  140.0648  156.9138 H   0  0  0  0  0  0  0  0  0  0  0  0  # atno 8010 bound_to 7997
  140.0824  144.5059  150.7153 H   0  0  0  0  0  0  0  0  0  0  0  0  # atno 10167 bound_to 10162
  156.9383  130.9993  151.2973 H   0  0  0  0  0  0  0  0  0  0  0  0  # atno 10718 bound_to 10713
  154.6342  135.5411  153.7715 H   0  0  0  0  0  0  0  0  0  0  0  0  # atno 10763 bound_to 10752
  153.0300  135.6443  154.1255 H   0  0  0  0  0  0  0  0  0  0  0  0  # atno 10764 bound_to 10752
  154.1184  135.2922  155.3194 H   0  0  0  0  0  0  0  0  0  0  0  0  # atno 10765 bound_to 10752
  140.9080  133.7479  156.0633 H   0  0  0  0  0  0  0  0  0  0  0  0  # atno 11005 bound_to 11000
  146.2293  139.5783  142.9566 LP  0  0  0  0  0  0  0  0  0  0  0  0  # atno 17320 bound_to 7965
  145.5550  141.0410  143.2258 LP  0  0  0  0  0  0  0  0  0  0  0  0  # atno 17321 bound_to 7965
  140.7071  143.2476  151.4695 LP  0  0  0  0  0  0  0  0  0  0  0  0  # atno 17342 bound_to 10162
  139.5771  144.1793  152.1919 LP  0  0  0  0  0  0  0  0  0  0  0  0  # atno 17343 bound_to 10162
  157.5802  130.8371  149.8511 LP  0  0  0  0  0  0  0  0  0  0  0  0  # atno 17370 bound_to 10713
  156.0416  130.3737  150.1422 LP  0  0  0  0  0  0  0  0  0  0  0  0  # atno 17371 bound_to 10713
  140.8146  134.3360  157.5401 LP  0  0  0  0  0  0  0  0  0  0  0  0  # atno 17394 bound_to 11000
  139.8753  134.9274  156.3424 LP  0  0  0  0  0  0  0  0  0  0  0  0  # atno 17395 bound_to 11000

$$$$
