AV-unprocessed.smi:1340|AV-procd|sdf|5504|dock3
  -GOLD-   22720 5 83D 1   1.00000     0.00000
 Structure written by MMmdl.
 40 41  0  0  0  0  0  0  0  0  1 V2000
  153.6669  142.4517  162.1824 C   0  0  0  0  0  0  0  0  0  0  0  0
  152.7083  143.2723  161.3126 C   0  0  0  0  0  0  0  0  0  0  0  0
  152.6487  142.7638  159.8615 C   0  0  0  0  0  0  0  0  0  0  0  0
  151.4268  143.2720  159.0724 C   0  0  1  0  0  0  0  0  0  0  0  0
  151.6063  144.7379  158.6439 C   0  0  0  0  0  0  0  0  0  0  0  0
  151.1945  142.4295  157.9010 N   0  0  0  0  0  0  0  0  0  0  0  0
  150.1323  141.6305  157.7135 C   0  0  0  0  0  0  0  0  0  0  0  0
  149.2133  141.5298  158.5277 O   0  0  0  0  0  0  0  0  0  0  0  0
  150.1079  140.8432  156.3975 C   0  0  0  0  0  0  0  0  0  0  0  0
  148.8793  141.1503  155.5883 C   0  0  0  0  0  0  0  0  0  0  0  0
  148.7787  141.1622  154.2184 C   0  0  0  0  0  0  0  0  0  0  0  0
  147.1717  141.5691  153.6840 S   0  0  0  0  0  0  0  0  0  0  0  0
  146.6801  141.7035  155.3750 C   0  0  0  0  0  0  0  0  0  0  0  0
  145.3788  142.0392  155.8536 N   0  0  0  0  0  0  0  0  0  0  0  0
  144.4422  142.8158  155.0475 C   0  0  0  0  0  0  0  0  0  0  0  0
  143.2036  142.9277  155.9311 C   0  0  0  0  0  0  0  0  0  0  0  0
  143.6084  142.2053  157.1140 N   0  0  0  0  0  0  0  0  0  0  0  0
  144.8468  141.7112  157.0479 C   0  0  0  0  0  0  0  0  0  0  0  0
  145.3790  141.0692  157.9514 O   0  0  0  0  0  0  0  0  0  0  0  0
  147.6753  141.4545  156.2332 N   0  0  0  0  0  0  0  0  0  0  0  0
  153.6909  142.8357  163.2024 H   0  0  0  0  0  0  0  0  0  0  0  0
  154.6834  142.4877  161.7898 H   0  0  0  0  0  0  0  0  0  0  0  0
  153.3610  141.4062  162.2275 H   0  0  0  0  0  0  0  0  0  0  0  0
  151.7144  143.2451  161.7601 H   0  0  0  0  0  0  0  0  0  0  0  0
  153.0222  144.3167  161.3214 H   0  0  0  0  0  0  0  0  0  0  0  0
  153.5571  143.0755  159.3440 H   0  0  0  0  0  0  0  0  0  0  0  0
  152.6587  141.6730  159.8584 H   0  0  0  0  0  0  0  0  0  0  0  0
  150.5569  143.2123  159.7294 H   0  0  0  0  0  0  0  0  0  0  0  0
  151.7719  145.3809  159.5086 H   0  0  0  0  0  0  0  0  0  0  0  0
  150.7232  145.1117  158.1249 H   0  0  0  0  0  0  0  0  0  0  0  0
  152.4595  144.8546  157.9749 H   0  0  0  0  0  0  0  0  0  0  0  0
  151.8995  142.4536  157.1786 H   0  0  0  0  0  0  0  0  0  0  0  0
  151.0073  141.0912  155.8334 H   0  0  0  0  0  0  0  0  0  0  0  0
  150.1631  139.7743  156.6099 H   0  0  0  0  0  0  0  0  0  0  0  0
  149.5536  140.9625  153.4933 H   0  0  0  0  0  0  0  0  0  0  0  0
  144.8558  143.7982  154.8151 H   0  0  0  0  0  0  0  0  0  0  0  0
  144.2196  142.3005  154.1120 H   0  0  0  0  0  0  0  0  0  0  0  0
  142.9654  143.9634  156.1755 H   0  0  0  0  0  0  0  0  0  0  0  0
  142.3309  142.4589  155.4757 H   0  0  0  0  0  0  0  0  0  0  0  0
  143.0008  142.0916  157.9126 H   0  0  0  0  0  0  0  0  0  0  0  0
  1  2  1  0  0  0  0
  1 21  1  0  0  0  0
  1 22  1  0  0  0  0
  1 23  1  0  0  0  0
  2  3  1  0  0  0  0
  2 24  1  0  0  0  0
  2 25  1  0  0  0  0
  3  4  1  0  0  0  0
  3 26  1  0  0  0  0
  3 27  1  0  0  0  0
  4  5  1  0  0  0  0
  4  6  1  0  0  0  0
  4 28  1  0  0  0  0
  5 29  1  0  0  0  0
  5 30  1  0  0  0  0
  5 31  1  0  0  0  0
  6  7  1  0  0  0  0
  6 32  1  0  0  0  0
  7  8  2  0  0  0  0
  7  9  1  0  0  0  0
  9 10  1  0  0  0  0
  9 33  1  0  0  0  0
  9 34  1  0  0  0  0
 10 20  1  0  0  0  0
 10 11  2  0  0  0  0
 11 12  1  0  0  0  0
 11 35  1  0  0  0  0
 12 13  1  0  0  0  0
 13 14  1  0  0  0  0
 13 20  2  0  0  0  0
 14 18  1  0  0  0  0
 14 15  1  0  0  0  0
 15 16  1  0  0  0  0
 15 36  1  0  0  0  0
 15 37  1  0  0  0  0
 16 17  1  0  0  0  0
 16 38  1  0  0  0  0
 16 39  1  0  0  0  0
 17 18  1  0  0  0  0
 17 40  1  0  0  0  0
 18 19  2  0  0  0  0
M  END
> <s_m_source_file>
AV-unprocessed.smi

> <i_m_source_file_index>
1340

> <i_lp_mmshare_version>
43012

> <i_f3d_flags>
0

> <s_epik_input>
W0NIM11bQ0gyXVtDSDJdW0NASF0oW0NIM10pW05IXUMoPU8pW0NIMl1jMVtjSF1zYyhuMSlOMltDSDJdW0NIMl1bTkhdQzI9Tw==

> <s_epik_cmdline>
J2VwaWtfcHl0aG9uJywgJy1waCcsICc3LjAnLCAnLXRuJywgJzgnLCAnLW1hJywgJzIwMCcsICctbWV0YWxfYmluZGluZycsICctaW1hZScsICc8aW5maWxlLm1hZT4nLCAnLW9tYWUnLCAnPG91dGZpbGUubWFlPic=

> <r_lp_tautomer_probability>
1

> <r_epik_Ionization_Penalty>
0.00012151

> <r_epik_Ionization_Penalty_Charging>
0

> <r_epik_Ionization_Penalty_Neutral>
0.00012151

> <r_epik_State_Penalty>
-0

> <r_epik_Charging_Adjusted_Penalty>
0

> <i_epik_Tot_Q>
0

> <i_epik_Tot_abs_Q>
0

> <r_epik_Metal_State_Penalty>
-0

> <b_epik_Metal_Only>
0

> <s_lp_Force_Field>
OPLS_2005

> <r_lp_Energy>
32.5305

> <b_lp_Chiralities_Consistent>
1

> <s_lp_Variant>
AV-unprocessed.smi:1340-2

> <Gold.Version>
5.8.1

> <Gold.Id.Protein>
6NUR|6NUR_protein|mol2

> <Gold.PLP.Fitness>
42.3890

> <Gold.PLP.PLP>
-41.3177

> <Gold.PLP.part.hbond>
0.0000

> <Gold.PLP.part.metal>
0.0000

> <Gold.PLP.part.buried>
-5.9174

> <Gold.PLP.part.nonpolar>
-35.8787

> <Gold.PLP.part.repulsive>
1.3075

> <Gold.PLP.ligand.clash>
0.0000

> <Gold.PLP.ligand.torsion>
0.8863

> <Gold.PLP.Chemscore.Hbond>
0.0000

> <Gold.PLP.Chemscore.CHOScore>
0.9298

> <Gold.PLP.Chemscore.Metal>
0.0000

> <Gold.Chemscore.Hbonds>
donor molecule, donor type, donor heavy atom, donor atom, acceptor molecule, acceptor atom, score
      L1  C    11    35       P1  7957  1.00

> <Gold.PLP.Chemscore.Internal.Correction>
0.0545

> <Gold.Rescore>
     Score         DG    S(hbond)    S(metal)    S(lipo)     H(rot)  DE(clash)    DE(int)     intcor
      7.84     -11.19       0.00        0.00      90.76       1.92       0.05       3.29       ----

> <Gold.Chemscore.Fitness>
7.8405

> <Gold.Chemscore.DG>
-11.1894

> <Gold.Chemscore.ZeroCoef>
-5.4800

> <Gold.Chemscore.Hbond>
0.0000

> <Gold.Chemscore.Metal>
0.0000

> <Gold.Chemscore.Lipo>
90.7564

> <Gold.Chemscore.Internal_Hbond>
0.0000

> <Gold.Chemscore.DEClash>
0.0542

> <Gold.Chemscore.DEInternal>
3.2947

> <Gold.Chemscore.Rot>
1.9176

> <Gold.Chemscore.Internal.Correction>
   9.000000E+99

> <Gold.Chemscore.Hbond.Weighted>
-0.0000

> <Gold.Chemscore.Metal.Weighted>
-0.0000

> <Gold.Chemscore.Lipo.Weighted>
-10.6185

> <Gold.Chemscore.Internal_Hbond.Weighted>
0.0000

> <Gold.Chemscore.DEClash.Weighted>
0.0542

> <Gold.Chemscore.DEInternal.Weighted>
3.2947

> <Gold.Chemscore.Rot.Weighted>
4.9091

> <Gold.Chemscore.Internal.Correction.Weighted>
   9.000000E+99

> <Gold.Protein.RotatedTorsions>
[ 6907 6896 6895 6894 ] final  -75.63 input  -60.11 | X-H torsion
[ 7974 7965 7964 7962 ] final -167.54 input  175.53 | X-H torsion
[ 8008 7997 7996 7995 ] final   32.76 input   59.86 | X-H torsion
[ 10167 10162 10161 10158 ] final -137.57 input  -65.29 | X-H torsion
[ 10718 10713 10712 10709 ] final  -83.83 input   66.30 | X-H torsion
[ 10763 10752 10751 10750 ] final -152.62 input  -60.55 | X-H torsion
[ 11005 11000 10999 10996 ] final  -72.38 input  -57.11 | X-H torsion

> <Gold.Protein.ActiveResidues>
 VAL166  LYS551  ARG553  GLY616  TRP617  ASP618  TYR619  PRO620  LYS621  CYS622 
 ASP623  PHE694  ASN695  SER759  ASP760  ASP761  ALA762  ILE779  LEU786  VAL792 
 PHE793  MET794  SER795  GLU796  ALA797  LYS798  CYS799  TRP800  GLU811  SER814 

> <Gold.Protein.RotatedAtoms>
  150.7053  134.4693  159.5417 H   0  0  0  0  0  0  0  0  0  0  0  0  # atno 6907 bound_to 6896
  152.2352  134.8280  160.0477 H   0  0  0  0  0  0  0  0  0  0  0  0  # atno 6908 bound_to 6896
  151.9081  133.3519  159.3891 H   0  0  0  0  0  0  0  0  0  0  0  0  # atno 6909 bound_to 6896
  144.7221  140.2504  143.6279 H   0  0  0  0  0  0  0  0  0  0  0  0  # atno 7974 bound_to 7965
  155.1276  140.3254  155.4482 H   0  0  0  0  0  0  0  0  0  0  0  0  # atno 8008 bound_to 7997
  156.2644  140.2016  156.6345 H   0  0  0  0  0  0  0  0  0  0  0  0  # atno 8009 bound_to 7997
  154.6637  140.0544  157.0076 H   0  0  0  0  0  0  0  0  0  0  0  0  # atno 8010 bound_to 7997
  139.8564  143.7133  152.2654 H   0  0  0  0  0  0  0  0  0  0  0  0  # atno 10167 bound_to 10162
  156.0013  130.4678  150.4317 H   0  0  0  0  0  0  0  0  0  0  0  0  # atno 10718 bound_to 10713
  154.7982  135.3232  154.7616 H   0  0  0  0  0  0  0  0  0  0  0  0  # atno 10763 bound_to 10752
  153.8290  135.6881  153.4821 H   0  0  0  0  0  0  0  0  0  0  0  0  # atno 10764 bound_to 10752
  153.1684  135.4633  154.9811 H   0  0  0  0  0  0  0  0  0  0  0  0  # atno 10765 bound_to 10752
  141.1607  133.6845  156.7050 H   0  0  0  0  0  0  0  0  0  0  0  0  # atno 11005 bound_to 11000
  145.8234  139.2053  143.1925 LP  0  0  0  0  0  0  0  0  0  0  0  0  # atno 17320 bound_to 7965
  146.0494  140.8084  142.9789 LP  0  0  0  0  0  0  0  0  0  0  0  0  # atno 17321 bound_to 7965
  139.7416  144.7558  151.0644 LP  0  0  0  0  0  0  0  0  0  0  0  0  # atno 17342 bound_to 10162
  140.7781  143.4966  150.9824 LP  0  0  0  0  0  0  0  0  0  0  0  0  # atno 17343 bound_to 10162
  157.2366  131.0516  151.2461 LP  0  0  0  0  0  0  0  0  0  0  0  0  # atno 17370 bound_to 10713
  157.3661  130.7156  149.6533 LP  0  0  0  0  0  0  0  0  0  0  0  0  # atno 17371 bound_to 10713
  140.2930  134.8225  157.4033 LP  0  0  0  0  0  0  0  0  0  0  0  0  # atno 17394 bound_to 11000
  140.1330  134.5071  155.8091 LP  0  0  0  0  0  0  0  0  0  0  0  0  # atno 17395 bound_to 11000

$$$$
