AV-unprocessed.smi:3183|AV-procd|sdf|12154|dock8
  -GOLD-   2272017593D 1   1.00000     0.00000
 Structure written by MMmdl.
 43 44  0  0  0  0  0  0  0  0  2 V2000
  152.0598  143.1431  161.3384 C   0  0  0  0  0  0  0  0  0  0  0  0
  152.8787  143.5057  160.0829 C   0  0  1  0  0  0  0  0  0  0  0  0
  153.1624  142.2648  159.2105 C   0  0  0  0  0  0  0  0  0  0  0  0
  151.9118  141.7808  158.4567 C   0  0  0  0  0  0  0  0  0  0  0  0
  151.3048  142.9069  157.6024 C   0  0  1  0  0  0  0  0  0  0  0  0
  150.0779  142.4344  156.9256 N   0  3  0  0  0  0  0  0  0  0  0  0
  149.0472  141.8865  157.8302 C   0  0  0  0  0  0  0  0  0  0  0  0
  147.6400  142.0716  157.2442 C   0  0  0  0  0  0  0  0  0  0  0  0
  147.5394  141.7774  155.7776 C   0  0  0  0  0  0  0  0  0  0  0  0
  148.3166  140.9973  154.9648 C   0  0  0  0  0  0  0  0  0  0  0  0
  147.7152  141.1199  153.6823 C   0  0  0  0  0  0  0  0  0  0  0  0
  146.6555  141.9082  153.6942 N   0  0  0  0  0  0  0  0  0  0  0  0
  146.5446  142.3133  154.9766 N   0  0  0  0  0  0  0  0  0  0  0  0
  145.4569  143.2080  155.3252 C   0  0  0  0  0  0  0  0  0  0  0  0
  150.9985  144.1440  158.4663 C   0  0  0  0  0  0  0  0  0  0  0  0
  152.2527  144.6325  159.2204 C   0  0  1  0  0  0  0  0  0  0  0  0
  151.9789  145.9226  160.0108 C   0  0  0  0  0  0  0  0  0  0  0  0
  151.0442  142.8338  161.0939 H   0  0  0  0  0  0  0  0  0  0  0  0
  151.9928  143.9845  162.0281 H   0  0  0  0  0  0  0  0  0  0  0  0
  152.5288  142.3245  161.8847 H   0  0  0  0  0  0  0  0  0  0  0  0
  153.8436  143.8665  160.4422 H   0  0  0  0  0  0  0  0  0  0  0  0
  153.9402  142.5084  158.4853 H   0  0  0  0  0  0  0  0  0  0  0  0
  153.5655  141.4563  159.8215 H   0  0  0  0  0  0  0  0  0  0  0  0
  152.1760  140.9344  157.8217 H   0  0  0  0  0  0  0  0  0  0  0  0
  151.1720  141.4099  159.1671 H   0  0  0  0  0  0  0  0  0  0  0  0
  152.0426  143.1952  156.8512 H   0  0  0  0  0  0  0  0  0  0  0  0
  149.6781  143.2095  156.4161 H   0  0  0  0  0  0  0  0  0  0  0  0
  149.2469  140.8266  157.9953 H   0  0  0  0  0  0  0  0  0  0  0  0
  149.1197  142.3886  158.7962 H   0  0  0  0  0  0  0  0  0  0  0  0
  146.9426  141.4281  157.7826 H   0  0  0  0  0  0  0  0  0  0  0  0
  147.3120  143.0966  157.4224 H   0  0  0  0  0  0  0  0  0  0  0  0
  149.1875  140.4214  155.2404 H   0  0  0  0  0  0  0  0  0  0  0  0
  148.0147  140.6632  152.7504 H   0  0  0  0  0  0  0  0  0  0  0  0
  145.4811  143.4594  156.3849 H   0  0  0  0  0  0  0  0  0  0  0  0
  144.5027  142.7304  155.1008 H   0  0  0  0  0  0  0  0  0  0  0  0
  145.5384  144.1278  154.7455 H   0  0  0  0  0  0  0  0  0  0  0  0
  150.6209  144.9456  157.8298 H   0  0  0  0  0  0  0  0  0  0  0  0
  150.2007  143.9176  159.1749 H   0  0  0  0  0  0  0  0  0  0  0  0
  152.9940  144.8938  158.4633 H   0  0  0  0  0  0  0  0  0  0  0  0
  151.1800  145.7891  160.7403 H   0  0  0  0  0  0  0  0  0  0  0  0
  151.6783  146.7310  159.3441 H   0  0  0  0  0  0  0  0  0  0  0  0
  152.8701  146.2530  160.5449 H   0  0  0  0  0  0  0  0  0  0  0  0
  150.3373  141.7168  156.2637 H   0  0  0  0  0  0  0  0  0  0  0  0
  1  2  1  0  0  0  0
  1 18  1  0  0  0  0
  1 19  1  0  0  0  0
  1 20  1  0  0  0  0
  2 16  1  0  0  0  0
  2  3  1  0  0  0  0
  2 21  1  0  0  0  0
  3  4  1  0  0  0  0
  3 22  1  0  0  0  0
  3 23  1  0  0  0  0
  4  5  1  0  0  0  0
  4 24  1  0  0  0  0
  4 25  1  0  0  0  0
  5  6  1  0  0  0  0
  5 15  1  0  0  0  0
  5 26  1  0  0  0  0
  6  7  1  0  0  0  0
  6 27  1  0  0  0  0
  6 43  1  0  0  0  0
  7  8  1  0  0  0  0
  7 28  1  0  0  0  0
  7 29  1  0  0  0  0
  8  9  1  0  0  0  0
  8 30  1  0  0  0  0
  8 31  1  0  0  0  0
  9 13  1  0  0  0  0
  9 10  2  0  0  0  0
 10 11  1  0  0  0  0
 10 32  1  0  0  0  0
 11 12  2  0  0  0  0
 11 33  1  0  0  0  0
 12 13  1  0  0  0  0
 13 14  1  0  0  0  0
 14 34  1  0  0  0  0
 14 35  1  0  0  0  0
 14 36  1  0  0  0  0
 15 16  1  0  0  0  0
 15 37  1  0  0  0  0
 15 38  1  0  0  0  0
 16 17  1  0  0  0  0
 16 39  1  0  0  0  0
 17 40  1  0  0  0  0
 17 41  1  0  0  0  0
 17 42  1  0  0  0  0
M  CHG  1   6   1
M  END
> <s_m_source_file>
AV-unprocessed.smi

> <i_m_source_file_index>
3183

> <i_lp_mmshare_version>
43012

> <i_f3d_flags>
0

> <s_epik_input>
W0NIM11bQ0BASF0xW0NIMl1bQ0gyXVtDQEhdKFtDSDJdW0NASF0xW0NIM10pW05IXVtDSDJdW0NIMl1jMltjSF1bY0hdbm4yW0NIM10=

> <s_epik_cmdline>
J2VwaWtfcHl0aG9uJywgJy1waCcsICc3LjAnLCAnLXRuJywgJzgnLCAnLW1hJywgJzIwMCcsICctbWV0YWxfYmluZGluZycsICctaW1hZScsICc8aW5maWxlLm1hZT4nLCAnLW9tYWUnLCAnPG91dGZpbGUubWFlPic=

> <r_lp_tautomer_probability>
1

> <r_epik_Ionization_Penalty>
0.000327718

> <r_epik_Ionization_Penalty_Charging>
0.000294043

> <r_epik_Ionization_Penalty_Neutral>
3.36755e-05

> <r_epik_State_Penalty>
-0

> <r_epik_Charging_Adjusted_Penalty>
0.000294043

> <i_epik_Tot_Q>
1

> <i_epik_Tot_abs_Q>
1

> <r_epik_Metal_State_Penalty>
-0

> <b_epik_Metal_Only>
0

> <s_lp_Force_Field>
OPLS_2005

> <r_lp_Energy>
15.8905

> <b_lp_Chiralities_Consistent>
1

> <s_lp_Variant>
AV-unprocessed.smi:3183-2

> <Gold.Version>
5.8.1

> <Gold.Id.Protein>
6NUR|6NUR_protein|mol2

> <Gold.PLP.Fitness>
48.2419

> <Gold.PLP.PLP>
-40.4281

> <Gold.PLP.part.hbond>
-1.0000

> <Gold.PLP.part.metal>
0.0000

> <Gold.PLP.part.buried>
-5.4102

> <Gold.PLP.part.nonpolar>
-34.8359

> <Gold.PLP.part.repulsive>
0.2165

> <Gold.PLP.ligand.clash>
0.0000

> <Gold.PLP.ligand.torsion>
0.5980

> <Gold.PLP.Chemscore.Hbond>
2.0000

> <Gold.PLP.Chemscore.CHOScore>
1.0000

> <Gold.PLP.Chemscore.Metal>
0.0000

> <Gold.Chemscore.Hbonds>
donor molecule, donor type, donor heavy atom, donor atom, acceptor molecule, acceptor atom, score
      L1  H     6    27       P1  8028  2.00
      L1  C    11    33       P1  7957  1.00

> <Gold.PLP.Chemscore.Internal.Correction>
0.0098

> <Gold.Rescore>
     Score         DG    S(hbond)    S(metal)    S(lipo)     H(rot)  DE(clash)    DE(int)     intcor
     18.18     -18.71       1.00        0.00     114.74       1.38       0.04       0.49       ----

> <Gold.Chemscore.Fitness>
18.1783

> <Gold.Chemscore.DG>
-18.7107

> <Gold.Chemscore.ZeroCoef>
-5.4800

> <Gold.Chemscore.Hbond>
0.9974

> <Gold.Chemscore.Metal>
0.0000

> <Gold.Chemscore.Lipo>
114.7370

> <Gold.Chemscore.Internal_Hbond>
0.0000

> <Gold.Chemscore.DEClash>
0.0449

> <Gold.Chemscore.DEInternal>
0.4875

> <Gold.Chemscore.Rot>
1.3768

> <Gold.Chemscore.Internal.Correction>
   9.000000E+99

> <Gold.Chemscore.Hbonds>
donor molecule, donor type, donor heavy atom, donor atom, acceptor molecule, acceptor atom, score
      L1  H     6    27       P1  8028  1.00

> <Gold.Chemscore.Hbond.Weighted>
-3.3312

> <Gold.Chemscore.Metal.Weighted>
-0.0000

> <Gold.Chemscore.Lipo.Weighted>
-13.4242

> <Gold.Chemscore.Internal_Hbond.Weighted>
0.0000

> <Gold.Chemscore.DEClash.Weighted>
0.0449

> <Gold.Chemscore.DEInternal.Weighted>
0.4875

> <Gold.Chemscore.Rot.Weighted>
3.5247

> <Gold.Chemscore.Internal.Correction.Weighted>
   9.000000E+99

> <Gold.Protein.RotatedTorsions>
[ 6907 6896 6895 6894 ] final  113.52 input  -60.11 | X-H torsion
[ 7974 7965 7964 7962 ] final -114.01 input  175.53 | X-H torsion
[ 8008 7997 7996 7995 ] final   90.10 input   59.86 | X-H torsion
[ 10167 10162 10161 10158 ] final  130.46 input  -65.29 | X-H torsion
[ 10718 10713 10712 10709 ] final   74.76 input   66.30 | X-H torsion
[ 10763 10752 10751 10750 ] final -141.69 input  -60.55 | X-H torsion
[ 11005 11000 10999 10996 ] final  143.23 input  -57.11 | X-H torsion

> <Gold.Protein.ActiveResidues>
 VAL166  LYS551  ARG553  GLY616  TRP617  ASP618  TYR619  PRO620  LYS621  CYS622 
 ASP623  PHE694  ASN695  SER759  ASP760  ASP761  ALA762  ILE779  LEU786  VAL792 
 PHE793  MET794  SER795  GLU796  ALA797  LYS798  CYS799  TRP800  GLU811  SER814 

> <Gold.Protein.RotatedAtoms>
  152.4856  133.8364  159.7129 H   0  0  0  0  0  0  0  0  0  0  0  0  # atno 6907 bound_to 6896
  150.8940  133.7197  159.2903 H   0  0  0  0  0  0  0  0  0  0  0  0  # atno 6908 bound_to 6896
  151.4660  135.1046  159.9790 H   0  0  0  0  0  0  0  0  0  0  0  0  # atno 6909 bound_to 6896
  145.1252  140.8693  143.3790 H   0  0  0  0  0  0  0  0  0  0  0  0  # atno 7974 bound_to 7965
  156.0080  140.3353  155.6911 H   0  0  0  0  0  0  0  0  0  0  0  0  # atno 8008 bound_to 7997
  155.6198  140.0674  157.2699 H   0  0  0  0  0  0  0  0  0  0  0  0  # atno 8009 bound_to 7997
  154.4271  140.1778  156.1348 H   0  0  0  0  0  0  0  0  0  0  0  0  # atno 8010 bound_to 7997
  139.5429  144.6747  151.4567 H   0  0  0  0  0  0  0  0  0  0  0  0  # atno 10167 bound_to 10162
  157.6606  130.9693  150.1257 H   0  0  0  0  0  0  0  0  0  0  0  0  # atno 10718 bound_to 10713
  154.8536  135.3517  154.5908 H   0  0  0  0  0  0  0  0  0  0  0  0  # atno 10763 bound_to 10752
  153.6518  135.6994  153.5211 H   0  0  0  0  0  0  0  0  0  0  0  0  # atno 10764 bound_to 10752
  153.2888  135.4241  155.1105 H   0  0  0  0  0  0  0  0  0  0  0  0  # atno 10765 bound_to 10752
  140.0538  134.9241  157.1064 H   0  0  0  0  0  0  0  0  0  0  0  0  # atno 11005 bound_to 11000
  145.0696  139.3042  143.5839 LP  0  0  0  0  0  0  0  0  0  0  0  0  # atno 17320 bound_to 7965
  146.3518  140.0165  142.8662 LP  0  0  0  0  0  0  0  0  0  0  0  0  # atno 17321 bound_to 7965
  140.6666  143.8385  150.6949 LP  0  0  0  0  0  0  0  0  0  0  0  0  # atno 17342 bound_to 10162
  140.1796  143.4126  152.1943 LP  0  0  0  0  0  0  0  0  0  0  0  0  # atno 17343 bound_to 10162
  156.2117  130.3667  149.8662 LP  0  0  0  0  0  0  0  0  0  0  0  0  # atno 17370 bound_to 10713
  156.6539  130.8755  151.3536 LP  0  0  0  0  0  0  0  0  0  0  0  0  # atno 17371 bound_to 10713
  140.3876  134.2219  155.7167 LP  0  0  0  0  0  0  0  0  0  0  0  0  # atno 17394 bound_to 11000
  141.1942  133.8132  157.0765 LP  0  0  0  0  0  0  0  0  0  0  0  0  # atno 17395 bound_to 11000

$$$$
