AV-unprocessed.smi:2022|AV-procd|sdf|8188|dock1
  -GOLD-   2272010443D 1   1.00000     0.00000
 Structure written by MMmdl.
 34 35  0  0  0  0  0  0  0  0  1 V2000
  146.7990  142.6909  153.9035 C   0  0  0  0  0  0  0  0  0  0  0  0
  147.0536  141.2229  153.8700 C   0  0  0  0  0  0  0  0  0  0  0  0
  146.7902  140.2543  152.9428 C   0  0  0  0  0  0  0  0  0  0  0  0
  147.3044  139.0792  153.5528 C   0  0  0  0  0  0  0  0  0  0  0  0
  147.2273  137.8251  152.8955 N   0  0  0  0  0  0  0  0  0  0  0  0
  146.1257  137.0953  152.6509 C   0  0  0  0  0  0  0  0  0  0  0  0
  144.9787  137.4136  152.9664 O   0  0  0  0  0  0  0  0  0  0  0  0
  146.4291  135.9568  152.0103 N   0  0  0  0  0  0  0  0  0  0  0  0
  145.4772  134.9141  151.6231 C   0  0  1  0  0  0  0  0  0  0  0  0
  146.1885  133.8247  150.7891 C   0  0  0  0  0  0  0  0  0  0  0  0
  145.2438  133.0057  149.8944 C   0  0  0  0  0  0  0  0  0  0  0  0
  144.1831  132.1890  150.6478 C   0  0  0  0  0  0  0  0  0  0  0  0
  143.1634  133.0531  151.4094 C   0  0  0  0  0  0  0  0  0  0  0  0
  143.6865  133.5478  152.6768 N   0  0  0  0  0  0  0  0  0  0  0  0
  144.7264  134.3763  152.8559 C   0  0  0  0  0  0  0  0  0  0  0  0
  145.0817  134.6960  153.9902 O   0  0  0  0  0  0  0  0  0  0  0  0
  147.8307  139.3092  154.7463 N   0  0  0  0  0  0  0  0  0  0  0  0
  147.6733  140.6845  154.9551 O   0  0  0  0  0  0  0  0  0  0  0  0
  146.1794  142.9980  153.0607 H   0  0  0  0  0  0  0  0  0  0  0  0
  147.7361  143.2454  153.8538 H   0  0  0  0  0  0  0  0  0  0  0  0
  146.2845  142.9741  154.8220 H   0  0  0  0  0  0  0  0  0  0  0  0
  146.3095  140.3711  151.9830 H   0  0  0  0  0  0  0  0  0  0  0  0
  148.1061  137.4395  152.5830 H   0  0  0  0  0  0  0  0  0  0  0  0
  147.3991  135.7763  151.7963 H   0  0  0  0  0  0  0  0  0  0  0  0
  144.7245  135.3932  150.9940 H   0  0  0  0  0  0  0  0  0  0  0  0
  146.9272  134.2901  150.1354 H   0  0  0  0  0  0  0  0  0  0  0  0
  146.7542  133.1606  151.4444 H   0  0  0  0  0  0  0  0  0  0  0  0
  144.7529  133.6698  149.1820 H   0  0  0  0  0  0  0  0  0  0  0  0
  145.8449  132.3214  149.2949 H   0  0  0  0  0  0  0  0  0  0  0  0
  143.6422  131.5868  149.9170 H   0  0  0  0  0  0  0  0  0  0  0  0
  144.6595  131.4785  151.3246 H   0  0  0  0  0  0  0  0  0  0  0  0
  142.8081  133.8806  150.7936 H   0  0  0  0  0  0  0  0  0  0  0  0
  142.2871  132.4478  151.6423 H   0  0  0  0  0  0  0  0  0  0  0  0
  143.2194  133.2164  153.5084 H   0  0  0  0  0  0  0  0  0  0  0  0
  1  2  1  0  0  0  0
  1 19  1  0  0  0  0
  1 20  1  0  0  0  0
  1 21  1  0  0  0  0
  2 18  1  0  0  0  0
  2  3  2  0  0  0  0
  3  4  1  0  0  0  0
  3 22  1  0  0  0  0
  4  5  1  0  0  0  0
  4 17  2  0  0  0  0
  5  6  1  0  0  0  0
  5 23  1  0  0  0  0
  6  7  2  0  0  0  0
  6  8  1  0  0  0  0
  8  9  1  0  0  0  0
  8 24  1  0  0  0  0
  9 15  1  0  0  0  0
  9 10  1  0  0  0  0
  9 25  1  0  0  0  0
 10 11  1  0  0  0  0
 10 26  1  0  0  0  0
 10 27  1  0  0  0  0
 11 12  1  0  0  0  0
 11 28  1  0  0  0  0
 11 29  1  0  0  0  0
 12 13  1  0  0  0  0
 12 30  1  0  0  0  0
 12 31  1  0  0  0  0
 13 14  1  0  0  0  0
 13 32  1  0  0  0  0
 13 33  1  0  0  0  0
 14 15  1  0  0  0  0
 14 34  1  0  0  0  0
 15 16  2  0  0  0  0
 17 18  1  0  0  0  0
M  END
> <s_m_source_file>
AV-unprocessed.smi

> <i_m_source_file_index>
2022

> <i_lp_mmshare_version>
43012

> <i_f3d_flags>
0

> <s_epik_input>
W0NIM11jMVtjSF1jKG5vMSlbTkhdQyg9TylbTkhdW0NAQEhdMltDSDJdW0NIMl1bQ0gyXVtDSDJdW05IXUMyPU8=

> <s_epik_cmdline>
J2VwaWtfcHl0aG9uJywgJy1waCcsICc3LjAnLCAnLXRuJywgJzgnLCAnLW1hJywgJzIwMCcsICctbWV0YWxfYmluZGluZycsICctaW1hZScsICc8aW5maWxlLm1hZT4nLCAnLW9tYWUnLCAnPG91dGZpbGUubWFlPic=

> <r_lp_tautomer_probability>
1

> <r_epik_Ionization_Penalty>
2.27343e-05

> <r_epik_Ionization_Penalty_Charging>
0

> <r_epik_Ionization_Penalty_Neutral>
2.27343e-05

> <r_epik_State_Penalty>
-0

> <r_epik_Charging_Adjusted_Penalty>
0

> <i_epik_Tot_Q>
0

> <i_epik_Tot_abs_Q>
0

> <r_epik_Metal_State_Penalty>
-0

> <b_epik_Metal_Only>
0

> <s_lp_Force_Field>
OPLS_2005

> <r_lp_Energy>
7.86792

> <b_lp_Chiralities_Consistent>
1

> <s_lp_Variant>
AV-unprocessed.smi:2022-2

> <Gold.Version>
5.8.1

> <Gold.Id.Protein>
6NUR|6NUR_protein|mol2

> <Gold.PLP.Fitness>
33.7308

> <Gold.PLP.PLP>
-26.0517

> <Gold.PLP.part.hbond>
-2.9583

> <Gold.PLP.part.metal>
0.0000

> <Gold.PLP.part.buried>
-0.9293

> <Gold.PLP.part.nonpolar>
-21.7917

> <Gold.PLP.part.repulsive>
0.5578

> <Gold.PLP.ligand.clash>
0.0000

> <Gold.PLP.ligand.torsion>
0.6742

> <Gold.PLP.Chemscore.Hbond>
3.0000

> <Gold.PLP.Chemscore.CHOScore>
0.0000

> <Gold.PLP.Chemscore.Metal>
0.0000

> <Gold.Chemscore.Hbonds>
donor molecule, donor type, donor heavy atom, donor atom, acceptor molecule, acceptor atom, score
      L1  H     5    23       P1  7948  1.00
      L1  H     8    24       P1  7948  1.00
      L1  H    14    34       P1 10957  1.00

> <Gold.PLP.Chemscore.Internal.Correction>
0.0275

> <Gold.Rescore>
     Score         DG    S(hbond)    S(metal)    S(lipo)     H(rot)  DE(clash)    DE(int)     intcor
     17.16     -19.40       2.86        0.00      59.30       1.00       0.62       1.62       ----

> <Gold.Chemscore.Fitness>
17.1588

> <Gold.Chemscore.DG>
-19.4047

> <Gold.Chemscore.ZeroCoef>
-5.4800

> <Gold.Chemscore.Hbond>
2.8582

> <Gold.Chemscore.Metal>
0.0000

> <Gold.Chemscore.Lipo>
59.3008

> <Gold.Chemscore.Internal_Hbond>
0.0000

> <Gold.Chemscore.DEClash>
0.6242

> <Gold.Chemscore.DEInternal>
1.6216

> <Gold.Chemscore.Rot>
1.0000

> <Gold.Chemscore.Internal.Correction>
   9.000000E+99

> <Gold.Chemscore.Hbonds>
donor molecule, donor type, donor heavy atom, donor atom, acceptor molecule, acceptor atom, score
      L1  H     5    23       P1  7948  0.95
      L1  H     8    24       P1  7948  0.93
      L1  H    14    34       P1 10957  0.90

> <Gold.Chemscore.Hbond.Weighted>
-9.5465

> <Gold.Chemscore.Metal.Weighted>
-0.0000

> <Gold.Chemscore.Lipo.Weighted>
-6.9382

> <Gold.Chemscore.Internal_Hbond.Weighted>
0.0000

> <Gold.Chemscore.DEClash.Weighted>
0.6242

> <Gold.Chemscore.DEInternal.Weighted>
1.6216

> <Gold.Chemscore.Rot.Weighted>
2.5600

> <Gold.Chemscore.Internal.Correction.Weighted>
   9.000000E+99

> <Gold.Protein.RotatedTorsions>
[ 6907 6896 6895 6894 ] final  -59.76 input  -60.11 | X-H torsion
[ 7974 7965 7964 7962 ] final  103.51 input  175.53 | X-H torsion
[ 8008 7997 7996 7995 ] final -131.70 input   59.86 | X-H torsion
[ 10167 10162 10161 10158 ] final    4.09 input  -65.29 | X-H torsion
[ 10718 10713 10712 10709 ] final  141.72 input   66.30 | X-H torsion
[ 10763 10752 10751 10750 ] final  154.73 input  -60.55 | X-H torsion
[ 11005 11000 10999 10996 ] final   78.54 input  -57.11 | X-H torsion

> <Gold.Protein.ActiveResidues>
 VAL166  LYS551  ARG553  GLY616  TRP617  ASP618  TYR619  PRO620  LYS621  CYS622 
 ASP623  PHE694  ASN695  SER759  ASP760  ASP761  ALA762  ILE779  LEU786  VAL792 
 PHE793  MET794  SER795  GLU796  ALA797  LYS798  CYS799  TRP800  GLU811  SER814 

> <Gold.Protein.RotatedAtoms>
  150.7906  134.6926  159.6504 H   0  0  0  0  0  0  0  0  0  0  0  0  # atno 6907 bound_to 6896
  152.4010  134.6282  160.0078 H   0  0  0  0  0  0  0  0  0  0  0  0  # atno 6908 bound_to 6896
  151.6553  133.3282  159.3197 H   0  0  0  0  0  0  0  0  0  0  0  0  # atno 6909 bound_to 6896
  145.3450  139.2453  143.3589 H   0  0  0  0  0  0  0  0  0  0  0  0  # atno 7974 bound_to 7965
  155.3166  140.0460  157.3037 H   0  0  0  0  0  0  0  0  0  0  0  0  # atno 8008 bound_to 7997
  154.5403  140.2285  155.8619 H   0  0  0  0  0  0  0  0  0  0  0  0  # atno 8009 bound_to 7997
  156.1874  140.3059  155.9272 H   0  0  0  0  0  0  0  0  0  0  0  0  # atno 8010 bound_to 7997
  140.6552  143.7444  150.7642 H   0  0  0  0  0  0  0  0  0  0  0  0  # atno 10167 bound_to 10162
  157.3888  131.1002  151.0667 H   0  0  0  0  0  0  0  0  0  0  0  0  # atno 10718 bound_to 10713
  154.1569  135.2812  155.3119 H   0  0  0  0  0  0  0  0  0  0  0  0  # atno 10763 bound_to 10752
  154.6175  135.5478  153.7543 H   0  0  0  0  0  0  0  0  0  0  0  0  # atno 10764 bound_to 10752
  153.0204  135.6431  154.1712 H   0  0  0  0  0  0  0  0  0  0  0  0  # atno 10765 bound_to 10752
  139.9208  134.7772  156.1663 H   0  0  0  0  0  0  0  0  0  0  0  0  # atno 11005 bound_to 11000
  146.2992  140.4054  142.8710 LP  0  0  0  0  0  0  0  0  0  0  0  0  # atno 17320 bound_to 7965
  144.8761  140.7338  143.6016 LP  0  0  0  0  0  0  0  0  0  0  0  0  # atno 17321 bound_to 7965
  140.1102  143.4706  152.2374 LP  0  0  0  0  0  0  0  0  0  0  0  0  # atno 17342 bound_to 10162
  139.5774  144.7494  151.3729 LP  0  0  0  0  0  0  0  0  0  0  0  0  # atno 17343 bound_to 10162
  157.1708  130.6267  149.5640 LP  0  0  0  0  0  0  0  0  0  0  0  0  # atno 17370 bound_to 10713
  155.9793  130.4786  150.6708 LP  0  0  0  0  0  0  0  0  0  0  0  0  # atno 17371 bound_to 10713
  141.0727  133.6789  156.2174 LP  0  0  0  0  0  0  0  0  0  0  0  0  # atno 17394 bound_to 11000
  140.6479  134.5097  157.5575 LP  0  0  0  0  0  0  0  0  0  0  0  0  # atno 17395 bound_to 11000

$$$$
