AV-unprocessed.smi:3270|AV-procd|sdf|12514|dock8
  -GOLD-   2272018423D 1   1.00000     0.00000
 Structure written by MMmdl.
 39 40  0  0  0  0  0  0  0  0  2 V2000
  147.3014  141.9269  154.7814 C   0  0  0  0  0  0  0  0  0  0  0  0
  148.4957  141.1958  154.1346 C   0  0  2  0  0  0  0  0  0  0  0  0
  148.1008  139.8639  153.4709 C   0  0  0  0  0  0  0  0  0  0  0  0
  148.6266  138.8047  153.8158 O   0  0  0  0  0  0  0  0  0  0  0  0
  147.1519  139.9278  152.5225 N   0  0  0  0  0  0  0  0  0  0  0  0
  146.6339  138.7858  151.7790 C   0  0  0  0  0  0  0  0  0  0  0  0
  145.9357  137.7785  152.7124 C   0  0  0  0  0  0  0  0  0  0  0  0
  146.1491  136.3697  152.2962 N   0  3  0  0  0  0  0  0  0  0  0  0
  145.9447  135.4184  153.4151 C   0  0  0  0  0  0  0  0  0  0  0  0
  146.2222  133.9765  152.9579 C   0  0  0  0  0  0  0  0  0  0  0  0
  145.3834  133.6581  151.8549 O   0  0  0  0  0  0  0  0  0  0  0  0
  145.6308  134.5037  150.7389 C   0  0  0  0  0  0  0  0  0  0  0  0
  145.3389  135.9655  151.1197 C   0  0  0  0  0  0  0  0  0  0  0  0
  149.5876  141.0033  155.0832 N   0  0  0  0  0  0  0  0  0  0  0  0
  149.7518  141.5936  156.3201 C   0  0  0  0  0  0  0  0  0  0  0  0
  150.9287  141.1370  156.8403 C   0  0  0  0  0  0  0  0  0  0  0  0
  151.4264  140.2638  155.8338 C   0  0  0  0  0  0  0  0  0  0  0  0
  150.6267  140.1900  154.7827 N   0  0  0  0  0  0  0  0  0  0  0  0
  146.5212  142.1338  154.0479 H   0  0  0  0  0  0  0  0  0  0  0  0
  147.6132  142.8833  155.2021 H   0  0  0  0  0  0  0  0  0  0  0  0
  146.8529  141.3430  155.5864 H   0  0  0  0  0  0  0  0  0  0  0  0
  148.8728  141.8397  153.3386 H   0  0  0  0  0  0  0  0  0  0  0  0
  146.7708  140.8347  152.2939 H   0  0  0  0  0  0  0  0  0  0  0  0
  145.9382  139.1755  151.0370 H   0  0  0  0  0  0  0  0  0  0  0  0
  147.4405  138.3018  151.2253 H   0  0  0  0  0  0  0  0  0  0  0  0
  146.3354  137.9076  153.7195 H   0  0  0  0  0  0  0  0  0  0  0  0
  144.8667  137.9874  152.7763 H   0  0  0  0  0  0  0  0  0  0  0  0
  146.6067  135.6719  154.2442 H   0  0  0  0  0  0  0  0  0  0  0  0
  144.9213  135.5023  153.7845 H   0  0  0  0  0  0  0  0  0  0  0  0
  147.2708  133.8481  152.6843 H   0  0  0  0  0  0  0  0  0  0  0  0
  146.0172  133.2789  153.7701 H   0  0  0  0  0  0  0  0  0  0  0  0
  146.6615  134.3871  150.4000 H   0  0  0  0  0  0  0  0  0  0  0  0
  144.9880  134.1953  149.9141 H   0  0  0  0  0  0  0  0  0  0  0  0
  144.2781  136.0856  151.3459 H   0  0  0  0  0  0  0  0  0  0  0  0
  145.5579  136.6052  150.2656 H   0  0  0  0  0  0  0  0  0  0  0  0
  149.0248  142.2827  156.7240 H   0  0  0  0  0  0  0  0  0  0  0  0
  151.3681  141.3895  157.7939 H   0  0  0  0  0  0  0  0  0  0  0  0
  152.3399  139.6876  155.8340 H   0  0  0  0  0  0  0  0  0  0  0  0
  147.1204  136.2898  152.0305 H   0  0  0  0  0  0  0  0  0  0  0  0
  1  2  1  0  0  0  0
  1 19  1  0  0  0  0
  1 20  1  0  0  0  0
  1 21  1  0  0  0  0
  2  3  1  0  0  0  0
  2 14  1  0  0  0  0
  2 22  1  0  0  0  0
  3  4  2  0  0  0  0
  3  5  1  0  0  0  0
  5  6  1  0  0  0  0
  5 23  1  0  0  0  0
  6  7  1  0  0  0  0
  6 24  1  0  0  0  0
  6 25  1  0  0  0  0
  7  8  1  0  0  0  0
  7 26  1  0  0  0  0
  7 27  1  0  0  0  0
  8 13  1  0  0  0  0
  8  9  1  0  0  0  0
  8 39  1  0  0  0  0
  9 10  1  0  0  0  0
  9 28  1  0  0  0  0
  9 29  1  0  0  0  0
 10 11  1  0  0  0  0
 10 30  1  0  0  0  0
 10 31  1  0  0  0  0
 11 12  1  0  0  0  0
 12 13  1  0  0  0  0
 12 32  1  0  0  0  0
 12 33  1  0  0  0  0
 13 34  1  0  0  0  0
 13 35  1  0  0  0  0
 14 18  1  0  0  0  0
 14 15  1  0  0  0  0
 15 16  2  0  0  0  0
 15 36  1  0  0  0  0
 16 17  1  0  0  0  0
 16 37  1  0  0  0  0
 17 18  2  0  0  0  0
 17 38  1  0  0  0  0
M  CHG  1   8   1
M  END
> <s_m_source_file>
AV-unprocessed.smi

> <i_m_source_file_index>
3270

> <i_lp_mmshare_version>
43012

> <i_f3d_flags>
0

> <s_epik_input>
bjFbY0hdW2NIXVtjSF1uMVtDQEhdKFtDSDNdKUMoPU8pW05IXVtDSDJdW0NIMl1OMltDSDJdW0NIMl1PW0NIMl1bQ0gyXTI=

> <s_epik_cmdline>
J2VwaWtfcHl0aG9uJywgJy1waCcsICc3LjAnLCAnLXRuJywgJzgnLCAnLW1hJywgJzIwMCcsICctbWV0YWxfYmluZGluZycsICctaW1hZScsICc8aW5maWxlLm1hZT4nLCAnLW9tYWUnLCAnPG91dGZpbGUubWFlPic=

> <r_lp_tautomer_probability>
1

> <r_epik_Ionization_Penalty>
0.73255

> <r_epik_Ionization_Penalty_Charging>
0.732531

> <r_epik_Ionization_Penalty_Neutral>
1.96965e-05

> <r_epik_State_Penalty>
0.757939

> <r_epik_Charging_Adjusted_Penalty>
1.49047

> <i_epik_Tot_Q>
1

> <i_epik_Tot_abs_Q>
1

> <r_epik_Metal_State_Penalty>
0.757952

> <b_epik_Metal_Only>
0

> <s_lp_Force_Field>
OPLS_2005

> <r_lp_Energy>
19.6504

> <b_lp_Chiralities_Consistent>
1

> <s_lp_Variant>
AV-unprocessed.smi:3270-3

> <Gold.Version>
5.8.1

> <Gold.Id.Protein>
6NUR|6NUR_protein|mol2

> <Gold.PLP.Fitness>
43.8687

> <Gold.PLP.PLP>
-34.0147

> <Gold.PLP.part.hbond>
-3.0000

> <Gold.PLP.part.metal>
0.0000

> <Gold.PLP.part.buried>
0.6967

> <Gold.PLP.part.nonpolar>
-31.5536

> <Gold.PLP.part.repulsive>
0.9262

> <Gold.PLP.ligand.clash>
0.0000

> <Gold.PLP.ligand.torsion>
0.8445

> <Gold.PLP.Chemscore.Hbond>
3.0000

> <Gold.PLP.Chemscore.CHOScore>
0.8055

> <Gold.PLP.Chemscore.Metal>
0.0000

> <Gold.Chemscore.Hbonds>
donor molecule, donor type, donor heavy atom, donor atom, acceptor molecule, acceptor atom, score
      L1  H     8    39       P1  7948  2.00
      P1  H  7989  7998       L1    18  1.00
      L1  C    15    36       P1  8028  0.52

> <Gold.PLP.Chemscore.Internal.Correction>
0.1265

> <Gold.Rescore>
     Score         DG    S(hbond)    S(metal)    S(lipo)     H(rot)  DE(clash)    DE(int)     intcor
     12.10     -13.84       1.94        0.00      57.89       1.91       0.02       1.73       ----

> <Gold.Chemscore.Fitness>
12.0954

> <Gold.Chemscore.DG>
-13.8395

> <Gold.Chemscore.ZeroCoef>
-5.4800

> <Gold.Chemscore.Hbond>
1.9395

> <Gold.Chemscore.Metal>
0.0000

> <Gold.Chemscore.Lipo>
57.8934

> <Gold.Chemscore.Internal_Hbond>
0.0000

> <Gold.Chemscore.DEClash>
0.0186

> <Gold.Chemscore.DEInternal>
1.7255

> <Gold.Chemscore.Rot>
1.9109

> <Gold.Chemscore.Internal.Correction>
   9.000000E+99

> <Gold.Chemscore.Hbonds>
donor molecule, donor type, donor heavy atom, donor atom, acceptor molecule, acceptor atom, score
      L1  H     8    39       P1  7948  1.00
      P1  H  7989  7998       L1    18  0.27

> <Gold.Chemscore.Hbond.Weighted>
-6.4779

> <Gold.Chemscore.Metal.Weighted>
-0.0000

> <Gold.Chemscore.Lipo.Weighted>
-6.7735

> <Gold.Chemscore.Internal_Hbond.Weighted>
0.0000

> <Gold.Chemscore.DEClash.Weighted>
0.0186

> <Gold.Chemscore.DEInternal.Weighted>
1.7255

> <Gold.Chemscore.Rot.Weighted>
4.8919

> <Gold.Chemscore.Internal.Correction.Weighted>
   9.000000E+99

> <Gold.Protein.RotatedTorsions>
[ 6907 6896 6895 6894 ] final  -20.08 input  -60.11 | X-H torsion
[ 7974 7965 7964 7962 ] final -115.86 input  175.53 | X-H torsion
[ 8008 7997 7996 7995 ] final -154.34 input   59.86 | X-H torsion
[ 10167 10162 10161 10158 ] final  -11.51 input  -65.29 | X-H torsion
[ 10718 10713 10712 10709 ] final  -76.06 input   66.30 | X-H torsion
[ 10763 10752 10751 10750 ] final  -57.30 input  -60.55 | X-H torsion
[ 11005 11000 10999 10996 ] final  158.82 input  -57.11 | X-H torsion

> <Gold.Protein.ActiveResidues>
 VAL166  LYS551  ARG553  GLY616  TRP617  ASP618  TYR619  PRO620  LYS621  CYS622 
 ASP623  PHE694  ASN695  SER759  ASP760  ASP761  ALA762  ILE779  LEU786  VAL792 
 PHE793  MET794  SER795  GLU796  ALA797  LYS798  CYS799  TRP800  GLU811  SER814 

> <Gold.Protein.RotatedAtoms>
  151.2536  135.0630  159.9070 H   0  0  0  0  0  0  0  0  0  0  0  0  # atno 6907 bound_to 6896
  152.5376  134.0306  159.8033 H   0  0  0  0  0  0  0  0  0  0  0  0  # atno 6908 bound_to 6896
  151.0518  133.5568  159.2673 H   0  0  0  0  0  0  0  0  0  0  0  0  # atno 6909 bound_to 6896
  145.1035  140.8567  143.3912 H   0  0  0  0  0  0  0  0  0  0  0  0  # atno 7974 bound_to 7965
  155.6849  140.0748  157.2470 H   0  0  0  0  0  0  0  0  0  0  0  0  # atno 8008 bound_to 7997
  154.4099  140.1675  156.2075 H   0  0  0  0  0  0  0  0  0  0  0  0  # atno 8009 bound_to 7997
  155.9503  140.3378  155.6405 H   0  0  0  0  0  0  0  0  0  0  0  0  # atno 8010 bound_to 7997
  140.7140  143.5632  150.9173 H   0  0  0  0  0  0  0  0  0  0  0  0  # atno 10167 bound_to 10162
  156.0187  130.4456  150.3137 H   0  0  0  0  0  0  0  0  0  0  0  0  # atno 10718 bound_to 10713
  154.2203  135.6379  153.5142 H   0  0  0  0  0  0  0  0  0  0  0  0  # atno 10763 bound_to 10752
  152.9970  135.5495  154.6121 H   0  0  0  0  0  0  0  0  0  0  0  0  # atno 10764 bound_to 10752
  154.5579  135.2906  155.0920 H   0  0  0  0  0  0  0  0  0  0  0  0  # atno 10765 bound_to 10752
  140.1901  134.8413  157.2903 H   0  0  0  0  0  0  0  0  0  0  0  0  # atno 11005 bound_to 11000
  145.0929  139.2877  143.5726 LP  0  0  0  0  0  0  0  0  0  0  0  0  # atno 17320 bound_to 7965
  146.3529  140.0471  142.8638 LP  0  0  0  0  0  0  0  0  0  0  0  0  # atno 17321 bound_to 7965
  139.9357  143.6440  152.3066 LP  0  0  0  0  0  0  0  0  0  0  0  0  # atno 17342 bound_to 10162
  139.6907  144.7647  151.1443 LP  0  0  0  0  0  0  0  0  0  0  0  0  # atno 17343 bound_to 10162
  157.1238  131.0254  151.2998 LP  0  0  0  0  0  0  0  0  0  0  0  0  # atno 17370 bound_to 10713
  157.4606  130.7651  149.7233 LP  0  0  0  0  0  0  0  0  0  0  0  0  # atno 17371 bound_to 10713
  140.2169  134.4071  155.7585 LP  0  0  0  0  0  0  0  0  0  0  0  0  # atno 17394 bound_to 11000
  141.2226  133.7146  156.8428 LP  0  0  0  0  0  0  0  0  0  0  0  0  # atno 17395 bound_to 11000

$$$$
