AV-unprocessed.smi:1107|AV-procd|sdf|4781|dock4
  -GOLD-   22720 3323D 1   1.00000     0.00000
 Structure written by MMmdl.
 49 50  0  0  0  0  0  0  0  0  2 V2000
  151.2857  143.4207  157.2484 C   0  0  0  0  0  0  0  0  0  0  0  0
  150.9019  142.1553  156.5112 C   0  0  0  0  0  0  0  0  0  0  0  0
  151.3997  140.9908  156.7700 N   0  0  0  0  0  0  0  0  0  0  0  0
  150.9630  139.8886  156.0217 C   0  0  0  0  0  0  0  0  0  0  0  0
  151.5915  138.5563  156.3929 C   0  0  0  0  0  0  0  0  0  0  0  0
  150.0287  140.0203  155.0346 C   0  0  0  0  0  0  0  0  0  0  0  0
  149.5228  138.8491  154.1954 C   0  0  0  0  0  0  0  0  0  0  0  0
  148.5306  137.9183  154.8955 C   0  0  0  0  0  0  0  0  0  0  0  0
  147.9591  138.2804  155.9234 O   0  0  0  0  0  0  0  0  0  0  0  0
  148.3319  136.7197  154.3244 N   0  0  0  0  0  0  0  0  0  0  0  0
  147.4600  135.6591  154.8304 C   0  0  2  0  0  0  0  0  0  0  0  0
  147.7630  135.4296  156.3172 C   0  0  0  0  0  0  0  0  0  0  0  0
  147.6281  134.3563  154.0153 C   0  0  0  0  0  0  0  0  0  0  0  0
  146.9682  134.4106  152.6853 N   0  3  0  0  0  0  0  0  0  0  0  0
  146.9851  133.1035  151.9797 C   0  0  0  0  0  0  0  0  0  0  0  0
  146.4433  133.2441  150.5470 C   0  0  0  0  0  0  0  0  0  0  0  0
  145.0332  133.8496  150.5475 C   0  0  0  0  0  0  0  0  0  0  0  0
  145.0324  135.1771  151.3170 C   0  0  0  0  0  0  0  0  0  0  0  0
  145.5997  134.9901  152.7337 C   0  0  0  0  0  0  0  0  0  0  0  0
  149.4742  141.3556  154.7414 C   0  0  0  0  0  0  0  0  0  0  0  0
  148.6431  141.5850  153.8640 O   0  0  0  0  0  0  0  0  0  0  0  0
  149.9498  142.3579  155.5136 N   0  0  0  0  0  0  0  0  0  0  0  0
  149.5999  143.2913  155.3529 H   0  0  0  0  0  0  0  0  0  0  0  0
  151.0878  143.3080  158.3146 H   0  0  0  0  0  0  0  0  0  0  0  0
  150.7246  144.2839  156.8873 H   0  0  0  0  0  0  0  0  0  0  0  0
  152.3484  143.6245  157.1164 H   0  0  0  0  0  0  0  0  0  0  0  0
  152.0421  138.0825  155.5214 H   0  0  0  0  0  0  0  0  0  0  0  0
  150.8403  137.8830  156.8060 H   0  0  0  0  0  0  0  0  0  0  0  0
  152.3736  138.6832  157.1421 H   0  0  0  0  0  0  0  0  0  0  0  0
  149.0361  139.2260  153.2965 H   0  0  0  0  0  0  0  0  0  0  0  0
  150.3733  138.2739  153.8252 H   0  0  0  0  0  0  0  0  0  0  0  0
  148.8541  136.5114  153.4850 H   0  0  0  0  0  0  0  0  0  0  0  0
  146.4220  135.9891  154.7703 H   0  0  0  0  0  0  0  0  0  0  0  0
  147.1044  134.6697  156.7387 H   0  0  0  0  0  0  0  0  0  0  0  0
  147.6189  136.3443  156.8934 H   0  0  0  0  0  0  0  0  0  0  0  0
  148.7913  135.0995  156.4687 H   0  0  0  0  0  0  0  0  0  0  0  0
  148.6967  134.1835  153.8782 H   0  0  0  0  0  0  0  0  0  0  0  0
  147.2538  133.4980  154.5752 H   0  0  0  0  0  0  0  0  0  0  0  0
  148.0051  132.7197  151.9371 H   0  0  0  0  0  0  0  0  0  0  0  0
  146.3940  132.3774  152.5403 H   0  0  0  0  0  0  0  0  0  0  0  0
  147.1129  133.8782  149.9640 H   0  0  0  0  0  0  0  0  0  0  0  0
  146.4315  132.2712  150.0547 H   0  0  0  0  0  0  0  0  0  0  0  0
  144.6885  134.0057  149.5249 H   0  0  0  0  0  0  0  0  0  0  0  0
  144.3330  133.1536  151.0113 H   0  0  0  0  0  0  0  0  0  0  0  0
  145.6289  135.9151  150.7783 H   0  0  0  0  0  0  0  0  0  0  0  0
  144.0193  135.5769  151.3699 H   0  0  0  0  0  0  0  0  0  0  0  0
  144.9467  134.3388  153.3168 H   0  0  0  0  0  0  0  0  0  0  0  0
  145.6147  135.9547  153.2402 H   0  0  0  0  0  0  0  0  0  0  0  0
  147.5280  135.0368  152.1235 H   0  0  0  0  0  0  0  0  0  0  0  0
  1  2  1  0  0  0  0
  1 24  1  0  0  0  0
  1 25  1  0  0  0  0
  1 26  1  0  0  0  0
  2 22  1  0  0  0  0
  2  3  2  0  0  0  0
  3  4  1  0  0  0  0
  4  5  1  0  0  0  0
  4  6  2  0  0  0  0
  5 27  1  0  0  0  0
  5 28  1  0  0  0  0
  5 29  1  0  0  0  0
  6  7  1  0  0  0  0
  6 20  1  0  0  0  0
  7  8  1  0  0  0  0
  7 30  1  0  0  0  0
  7 31  1  0  0  0  0
  8  9  2  0  0  0  0
  8 10  1  0  0  0  0
 10 11  1  0  0  0  0
 10 32  1  0  0  0  0
 11 12  1  0  0  0  0
 11 13  1  0  0  0  0
 11 33  1  0  0  0  0
 12 34  1  0  0  0  0
 12 35  1  0  0  0  0
 12 36  1  0  0  0  0
 13 14  1  0  0  0  0
 13 37  1  0  0  0  0
 13 38  1  0  0  0  0
 14 19  1  0  0  0  0
 14 15  1  0  0  0  0
 14 49  1  0  0  0  0
 15 16  1  0  0  0  0
 15 39  1  0  0  0  0
 15 40  1  0  0  0  0
 16 17  1  0  0  0  0
 16 41  1  0  0  0  0
 16 42  1  0  0  0  0
 17 18  1  0  0  0  0
 17 43  1  0  0  0  0
 17 44  1  0  0  0  0
 18 19  1  0  0  0  0
 18 45  1  0  0  0  0
 18 46  1  0  0  0  0
 19 47  1  0  0  0  0
 19 48  1  0  0  0  0
 20 21  2  0  0  0  0
 20 22  1  0  0  0  0
 22 23  1  0  0  0  0
M  CHG  1  14   1
M  END
> <s_m_source_file>
AV-unprocessed.smi

> <i_m_source_file_index>
1107

> <i_lp_mmshare_version>
43012

> <i_f3d_flags>
0

> <s_epik_input>
W0NIM11jMW5jKFtDSDNdKWMoYyg9TylbbkhdMSlbQ0gyXUMoPU8pW05IXVtDQEhdKFtDSDNdKVtDSDJdTjJbQ0gyXVtDSDJdW0NIMl1bQ0gyXVtDSDJdMg==

> <s_epik_cmdline>
J2VwaWtfcHl0aG9uJywgJy1waCcsICc3LjAnLCAnLXRuJywgJzgnLCAnLW1hJywgJzIwMCcsICctbWV0YWxfYmluZGluZycsICctaW1hZScsICc8aW5maWxlLm1hZT4nLCAnLW9tYWUnLCAnPG91dGZpbGUubWFlPic=

> <r_lp_tautomer_probability>
0.839158

> <r_epik_Ionization_Penalty>
0.00280224

> <r_epik_Ionization_Penalty_Charging>
0.00277925

> <r_epik_Ionization_Penalty_Neutral>
2.29856e-05

> <r_epik_State_Penalty>
0.09125

> <r_epik_Charging_Adjusted_Penalty>
0.0940293

> <i_epik_Tot_Q>
1

> <i_epik_Tot_abs_Q>
1

> <r_epik_Metal_State_Penalty>
0.283823

> <b_epik_Metal_Only>
0

> <s_lp_Force_Field>
OPLS_2005

> <r_lp_Energy>
24.1286

> <b_lp_Chiralities_Consistent>
1

> <s_lp_Variant>
AV-unprocessed.smi:1107-1

> <Gold.Version>
5.8.1

> <Gold.Id.Protein>
6NUR|6NUR_protein|mol2

> <Gold.PLP.Fitness>
45.7088

> <Gold.PLP.PLP>
-33.0363

> <Gold.PLP.part.hbond>
-4.0000

> <Gold.PLP.part.metal>
0.0000

> <Gold.PLP.part.buried>
-0.6998

> <Gold.PLP.part.nonpolar>
-27.1925

> <Gold.PLP.part.repulsive>
0.4070

> <Gold.PLP.ligand.clash>
0.0000

> <Gold.PLP.ligand.torsion>
0.7009

> <Gold.PLP.Chemscore.Hbond>
4.6661

> <Gold.PLP.Chemscore.CHOScore>
0.0000

> <Gold.PLP.Chemscore.Metal>
0.0000

> <Gold.Chemscore.Hbonds>
donor molecule, donor type, donor heavy atom, donor atom, acceptor molecule, acceptor atom, score
      L1  H    10    32       P1  7948  1.00
      L1  H    14    49       P1  7948  2.00
      L1  H    22    23       P1  8028  1.00
      P1  H  8011  8017       L1    21  0.55

> <Gold.PLP.Chemscore.Internal.Correction>
0.0758

> <Gold.Rescore>
     Score         DG    S(hbond)    S(metal)    S(lipo)     H(rot)  DE(clash)    DE(int)     intcor
     17.71     -20.11       3.44        0.00      70.40       1.98       0.49       1.91       ----

> <Gold.Chemscore.Fitness>
17.7128

> <Gold.Chemscore.DG>
-20.1109

> <Gold.Chemscore.ZeroCoef>
-5.4800

> <Gold.Chemscore.Hbond>
3.4350

> <Gold.Chemscore.Metal>
0.0000

> <Gold.Chemscore.Lipo>
70.3957

> <Gold.Chemscore.Internal_Hbond>
0.0000

> <Gold.Chemscore.DEClash>
0.4912

> <Gold.Chemscore.DEInternal>
1.9069

> <Gold.Chemscore.Rot>
1.9837

> <Gold.Chemscore.Internal.Correction>
   9.000000E+99

> <Gold.Chemscore.Hbonds>
donor molecule, donor type, donor heavy atom, donor atom, acceptor molecule, acceptor atom, score
      L1  H    10    32       P1  7948  0.96
      L1  H    14    49       P1  7948  0.92
      L1  H    22    23       P1  8028  0.99
      P1  H  8011  8017       L1    21  0.21

> <Gold.Chemscore.Hbond.Weighted>
-11.4729

> <Gold.Chemscore.Metal.Weighted>
-0.0000

> <Gold.Chemscore.Lipo.Weighted>
-8.2363

> <Gold.Chemscore.Internal_Hbond.Weighted>
0.0000

> <Gold.Chemscore.DEClash.Weighted>
0.4912

> <Gold.Chemscore.DEInternal.Weighted>
1.9069

> <Gold.Chemscore.Rot.Weighted>
5.0783

> <Gold.Chemscore.Internal.Correction.Weighted>
   9.000000E+99

> <Gold.Protein.RotatedTorsions>
[ 6907 6896 6895 6894 ] final   29.82 input  -60.11 | X-H torsion
[ 7974 7965 7964 7962 ] final  -46.03 input  175.53 | X-H torsion
[ 8008 7997 7996 7995 ] final -161.39 input   59.86 | X-H torsion
[ 10167 10162 10161 10158 ] final  -83.12 input  -65.29 | X-H torsion
[ 10718 10713 10712 10709 ] final   36.41 input   66.30 | X-H torsion
[ 10763 10752 10751 10750 ] final   60.34 input  -60.55 | X-H torsion
[ 11005 11000 10999 10996 ] final  -23.56 input  -57.11 | X-H torsion

> <Gold.Protein.ActiveResidues>
 VAL166  LYS551  ARG553  GLY616  TRP617  ASP618  TYR619  PRO620  LYS621  CYS622 
 ASP623  PHE694  ASN695  SER759  ASP760  ASP761  ALA762  ILE779  LEU786  VAL792 
 PHE793  MET794  SER795  GLU796  ALA797  LYS798  CYS799  TRP800  GLU811  SER814 

> <Gold.Protein.RotatedAtoms>
  152.0371  134.9733  160.0573 H   0  0  0  0  0  0  0  0  0  0  0  0  # atno 6907 bound_to 6896
  152.1187  133.4336  159.4673 H   0  0  0  0  0  0  0  0  0  0  0  0  # atno 6908 bound_to 6896
  150.6847  134.2480  159.4542 H   0  0  0  0  0  0  0  0  0  0  0  0  # atno 6909 bound_to 6896
  145.9761  140.7333  142.9387 H   0  0  0  0  0  0  0  0  0  0  0  0  # atno 7974 bound_to 7965
  155.7915  140.0879  157.2006 H   0  0  0  0  0  0  0  0  0  0  0  0  # atno 8008 bound_to 7997
  154.3985  140.1489  156.3226 H   0  0  0  0  0  0  0  0  0  0  0  0  # atno 8009 bound_to 7997
  155.8554  140.3432  155.5723 H   0  0  0  0  0  0  0  0  0  0  0  0  # atno 8010 bound_to 7997
  140.4256  143.2568  151.8830 H   0  0  0  0  0  0  0  0  0  0  0  0  # atno 10167 bound_to 10162
  157.3345  130.7515  149.6870 H   0  0  0  0  0  0  0  0  0  0  0  0  # atno 10718 bound_to 10713
  152.9918  135.5540  154.5858 H   0  0  0  0  0  0  0  0  0  0  0  0  # atno 10763 bound_to 10752
  154.5230  135.2809  155.1248 H   0  0  0  0  0  0  0  0  0  0  0  0  # atno 10764 bound_to 10752
  154.2594  135.6384  153.5322 H   0  0  0  0  0  0  0  0  0  0  0  0  # atno 10765 bound_to 10752
  140.8763  133.7685  156.0247 H   0  0  0  0  0  0  0  0  0  0  0  0  # atno 11005 bound_to 11000
  144.6849  140.2829  143.7289 LP  0  0  0  0  0  0  0  0  0  0  0  0  # atno 17320 bound_to 7965
  145.7837  139.1901  143.2143 LP  0  0  0  0  0  0  0  0  0  0  0  0  # atno 17321 bound_to 7965
  139.4783  144.5390  151.8556 LP  0  0  0  0  0  0  0  0  0  0  0  0  # atno 17342 bound_to 10162
  140.4485  144.1888  150.5895 LP  0  0  0  0  0  0  0  0  0  0  0  0  # atno 17343 bound_to 10162
  155.9700  130.4185  150.4332 LP  0  0  0  0  0  0  0  0  0  0  0  0  # atno 17370 bound_to 10713
  157.2370  131.0517  151.2459 LP  0  0  0  0  0  0  0  0  0  0  0  0  # atno 17371 bound_to 10713
  140.8514  134.2950  157.5274 LP  0  0  0  0  0  0  0  0  0  0  0  0  # atno 17394 bound_to 11000
  139.8716  134.9469  156.3953 LP  0  0  0  0  0  0  0  0  0  0  0  0  # atno 17395 bound_to 11000

$$$$
