AV-unprocessed.smi:2620|AV-procd|sdf|10223|dock2
  -GOLD-   2272014233D 1   1.00000     0.00000
 Structure written by MMmdl.
 36 37  0  0  0  0  0  0  0  0  1 V2000
  152.2129  131.6572  156.6180 C   0  0  0  0  0  0  0  0  0  0  0  0
  151.4163  132.6175  155.9469 O   0  0  0  0  0  0  0  0  0  0  0  0
  151.5102  133.9053  156.5314 C   0  0  0  0  0  0  0  0  0  0  0  0
  150.5667  134.8601  155.7844 C   0  0  0  0  0  0  0  0  0  0  0  0
  150.2500  136.0439  156.5944 N   0  0  0  0  0  0  0  0  0  0  0  0
  150.7215  137.2834  156.1200 C   0  0  0  0  0  0  0  0  0  0  0  0
  150.5047  138.4345  156.7833 C   0  0  0  0  0  0  0  0  0  0  0  0
  151.0255  139.7182  156.2546 C   0  0  0  0  0  0  0  0  0  0  0  0
  151.2159  139.8782  155.0482 O   0  0  0  0  0  0  0  0  0  0  0  0
  151.2961  140.8277  157.2153 C   0  0  0  0  0  0  0  0  0  0  0  0
  152.0409  140.5278  158.3788 C   0  0  0  0  0  0  0  0  0  0  0  0
  152.3411  141.5317  159.3187 C   0  0  0  0  0  0  0  0  0  0  0  0
  151.8926  142.8479  159.1089 C   0  0  0  0  0  0  0  0  0  0  0  0
  151.1373  143.1567  157.9626 C   0  0  0  0  0  0  0  0  0  0  0  0
  150.8311  142.1564  157.0175 C   0  0  0  0  0  0  0  0  0  0  0  0
  150.0604  142.5014  155.9418 O   0  0  0  0  0  0  0  0  0  0  0  0
  149.7450  138.3683  158.0164 C   0  0  0  0  0  0  0  0  0  0  0  0
  149.2990  137.1842  158.4799 C   0  0  0  0  0  0  0  0  0  0  0  0
  148.5548  137.0971  159.6926 C   0  0  0  0  0  0  0  0  0  0  0  0
  147.9313  137.0406  160.6660 N   0  0  0  0  0  0  0  0  0  0  0  0
  149.5525  135.9255  157.7649 C   0  0  0  0  0  0  0  0  0  0  0  0
  149.1662  134.8331  158.1841 O   0  0  0  0  0  0  0  0  0  0  0  0
  152.1111  130.6893  156.1277 H   0  0  0  0  0  0  0  0  0  0  0  0
  151.9002  131.5428  157.6564 H   0  0  0  0  0  0  0  0  0  0  0  0
  153.2675  131.9345  156.5983 H   0  0  0  0  0  0  0  0  0  0  0  0
  151.2410  133.8553  157.5876 H   0  0  0  0  0  0  0  0  0  0  0  0
  152.5379  134.2674  156.4695 H   0  0  0  0  0  0  0  0  0  0  0  0
  151.0265  135.1628  154.8426 H   0  0  0  0  0  0  0  0  0  0  0  0
  149.6552  134.3336  155.4963 H   0  0  0  0  0  0  0  0  0  0  0  0
  151.2793  137.2286  155.1955 H   0  0  0  0  0  0  0  0  0  0  0  0
  152.3980  139.5229  158.5544 H   0  0  0  0  0  0  0  0  0  0  0  0
  152.9166  141.2913  160.2005 H   0  0  0  0  0  0  0  0  0  0  0  0
  152.1215  143.6189  159.8296 H   0  0  0  0  0  0  0  0  0  0  0  0
  150.7858  144.1674  157.8142 H   0  0  0  0  0  0  0  0  0  0  0  0
  149.9448  143.4353  155.8534 H   0  0  0  0  0  0  0  0  0  0  0  0
  149.5267  139.2679  158.5735 H   0  0  0  0  0  0  0  0  0  0  0  0
  1  2  1  0  0  0  0
  1 23  1  0  0  0  0
  1 24  1  0  0  0  0
  1 25  1  0  0  0  0
  2  3  1  0  0  0  0
  3  4  1  0  0  0  0
  3 26  1  0  0  0  0
  3 27  1  0  0  0  0
  4  5  1  0  0  0  0
  4 28  1  0  0  0  0
  4 29  1  0  0  0  0
  5 21  1  0  0  0  0
  5  6  1  0  0  0  0
  6  7  2  0  0  0  0
  6 30  1  0  0  0  0
  7  8  1  0  0  0  0
  7 17  1  0  0  0  0
  8  9  2  0  0  0  0
  8 10  1  0  0  0  0
 10 15  1  0  0  0  0
 10 11  2  0  0  0  0
 11 12  1  0  0  0  0
 11 31  1  0  0  0  0
 12 13  2  0  0  0  0
 12 32  1  0  0  0  0
 13 14  1  0  0  0  0
 13 33  1  0  0  0  0
 14 15  2  0  0  0  0
 14 34  1  0  0  0  0
 15 16  1  0  0  0  0
 16 35  1  0  0  0  0
 17 18  2  0  0  0  0
 17 36  1  0  0  0  0
 18 19  1  0  0  0  0
 18 21  1  0  0  0  0
 19 20  3  0  0  0  0
 21 22  2  0  0  0  0
M  END
> <s_m_source_file>
AV-unprocessed.smi

> <i_m_source_file_index>
2620

> <i_lp_mmshare_version>
43012

> <i_f3d_flags>
0

> <s_epik_input>
W0NIM11PW0NIMl1bQ0gyXW4xW2NIXWMoW2NIXWMoQyNOKWMxPU8pQyg9TyljMltjSF1bY0hdW2NIXVtjSF1jMltPSF0=

> <s_epik_cmdline>
J2VwaWtfcHl0aG9uJywgJy1waCcsICc3LjAnLCAnLXRuJywgJzgnLCAnLW1hJywgJzIwMCcsICctbWV0YWxfYmluZGluZycsICctaW1hZScsICc8aW5maWxlLm1hZT4nLCAnLW9tYWUnLCAnPG91dGZpbGUubWFlPic=

> <r_epik_Ionization_Penalty>
0.219503

> <r_epik_Ionization_Penalty_Charging>
5.62591e-11

> <r_epik_Ionization_Penalty_Neutral>
0.219503

> <r_epik_State_Penalty>
0.209817

> <r_epik_Charging_Adjusted_Penalty>
0.209817

> <i_epik_Tot_Q>
0

> <i_epik_Tot_abs_Q>
0

> <r_epik_Metal_State_Penalty>
0.209817

> <b_epik_Metal_Only>
0

> <s_lp_Force_Field>
OPLS_2005

> <r_lp_Energy>
23.6774

> <b_lp_Chiralities_Consistent>
1

> <s_lp_Variant>
AV-unprocessed.smi:2620-1

> <Gold.Version>
5.8.1

> <Gold.Id.Protein>
6NUR|6NUR_protein|mol2

> <Gold.PLP.Fitness>
44.1318

> <Gold.PLP.PLP>
-31.5240

> <Gold.PLP.part.hbond>
-4.9583

> <Gold.PLP.part.metal>
0.0000

> <Gold.PLP.part.buried>
-4.3903

> <Gold.PLP.part.nonpolar>
-22.8458

> <Gold.PLP.part.repulsive>
0.0408

> <Gold.PLP.ligand.clash>
0.0000

> <Gold.PLP.ligand.torsion>
1.2523

> <Gold.PLP.Chemscore.Hbond>
4.4577

> <Gold.PLP.Chemscore.CHOScore>
0.0000

> <Gold.PLP.Chemscore.Metal>
0.0000

> <Gold.Chemscore.Hbonds>
donor molecule, donor type, donor heavy atom, donor atom, acceptor molecule, acceptor atom, score
      L1  H    16    35       P1  8028  0.98
      P1  H  6896  6907       L1    22  1.00
      P1  H  6931  6943       L1    20  0.84
      P1  H  6934  6947       L1    20  0.62
      P1  H  7989  7998       L1     9  1.00

> <Gold.PLP.Chemscore.Internal.Correction>
1.7393

> <Gold.Rescore>
     Score         DG    S(hbond)    S(metal)    S(lipo)     H(rot)  DE(clash)    DE(int)     intcor
     20.14     -22.59       3.88        0.00      78.86       1.98       0.22       2.22       ----

> <Gold.Chemscore.Fitness>
20.1413

> <Gold.Chemscore.DG>
-22.5861

> <Gold.Chemscore.ZeroCoef>
-5.4800

> <Gold.Chemscore.Hbond>
3.8795

> <Gold.Chemscore.Metal>
0.0000

> <Gold.Chemscore.Lipo>
78.8595

> <Gold.Chemscore.Internal_Hbond>
0.0000

> <Gold.Chemscore.DEClash>
0.2217

> <Gold.Chemscore.DEInternal>
2.2231

> <Gold.Chemscore.Rot>
1.9836

> <Gold.Chemscore.Internal.Correction>
   9.000000E+99

> <Gold.Chemscore.Hbonds>
donor molecule, donor type, donor heavy atom, donor atom, acceptor molecule, acceptor atom, score
      L1  H    16    35       P1  8028  0.92
      P1  H  6896  6907       L1    22  0.48
      P1  H  6931  6943       L1    20  0.20
      P1  H  6934  6947       L1    20  0.27
      P1  H  7989  7998       L1     9  1.00

> <Gold.Chemscore.Hbond.Weighted>
-12.9576

> <Gold.Chemscore.Metal.Weighted>
-0.0000

> <Gold.Chemscore.Lipo.Weighted>
-9.2266

> <Gold.Chemscore.Internal_Hbond.Weighted>
0.0000

> <Gold.Chemscore.DEClash.Weighted>
0.2217

> <Gold.Chemscore.DEInternal.Weighted>
2.2231

> <Gold.Chemscore.Rot.Weighted>
5.0780

> <Gold.Chemscore.Internal.Correction.Weighted>
   9.000000E+99

> <Gold.Protein.RotatedTorsions>
[ 6907 6896 6895 6894 ] final  -94.95 input  -60.11 | X-H torsion
[ 7974 7965 7964 7962 ] final  -38.15 input  175.53 | X-H torsion
[ 8008 7997 7996 7995 ] final -145.99 input   59.86 | X-H torsion
[ 10167 10162 10161 10158 ] final   13.24 input  -65.29 | X-H torsion
[ 10718 10713 10712 10709 ] final  -90.02 input   66.30 | X-H torsion
[ 10763 10752 10751 10750 ] final -150.56 input  -60.55 | X-H torsion
[ 11005 11000 10999 10996 ] final   40.05 input  -57.11 | X-H torsion

> <Gold.Protein.ActiveResidues>
 VAL166  LYS551  ARG553  GLY616  TRP617  ASP618  TYR619  PRO620  LYS621  CYS622 
 ASP623  PHE694  ASN695  SER759  ASP760  ASP761  ALA762  ILE779  LEU786  VAL792 
 PHE793  MET794  SER795  GLU796  ALA797  LYS798  CYS799  TRP800  GLU811  SER814 

> <Gold.Protein.RotatedAtoms>
  150.6953  134.1734  159.4220 H   0  0  0  0  0  0  0  0  0  0  0  0  # atno 6907 bound_to 6896
  151.9711  135.0074  160.0562 H   0  0  0  0  0  0  0  0  0  0  0  0  # atno 6908 bound_to 6896
  152.1841  133.4692  159.5010 H   0  0  0  0  0  0  0  0  0  0  0  0  # atno 6909 bound_to 6896
  146.0512  140.6479  142.9041 H   0  0  0  0  0  0  0  0  0  0  0  0  # atno 7974 bound_to 7965
  155.5521  140.0617  157.2847 H   0  0  0  0  0  0  0  0  0  0  0  0  # atno 8008 bound_to 7997
  154.4417  140.1900  156.0741 H   0  0  0  0  0  0  0  0  0  0  0  0  # atno 8009 bound_to 7997
  156.0509  140.3284  155.7353 H   0  0  0  0  0  0  0  0  0  0  0  0  # atno 8010 bound_to 7997
  140.6016  143.8593  150.6971 H   0  0  0  0  0  0  0  0  0  0  0  0  # atno 10167 bound_to 10162
  155.9986  130.4894  150.5259 H   0  0  0  0  0  0  0  0  0  0  0  0  # atno 10718 bound_to 10713
  154.8111  135.3281  154.7302 H   0  0  0  0  0  0  0  0  0  0  0  0  # atno 10763 bound_to 10752
  153.7951  135.6908  153.4869 H   0  0  0  0  0  0  0  0  0  0  0  0  # atno 10764 bound_to 10752
  153.1891  135.4557  155.0073 H   0  0  0  0  0  0  0  0  0  0  0  0  # atno 10765 bound_to 10752
  140.1969  134.3918  155.8117 H   0  0  0  0  0  0  0  0  0  0  0  0  # atno 11005 bound_to 11000
  144.7123  140.4085  143.7071 LP  0  0  0  0  0  0  0  0  0  0  0  0  # atno 17320 bound_to 7965
  145.6721  139.1601  143.2748 LP  0  0  0  0  0  0  0  0  0  0  0  0  # atno 17321 bound_to 7965
  140.2140  143.3861  152.1695 LP  0  0  0  0  0  0  0  0  0  0  0  0  # atno 17342 bound_to 10162
  139.5295  144.7142  151.5108 LP  0  0  0  0  0  0  0  0  0  0  0  0  # atno 17343 bound_to 10162
  157.3215  131.0682  151.1928 LP  0  0  0  0  0  0  0  0  0  0  0  0  # atno 17370 bound_to 10713
  157.2840  130.6764  149.6080 LP  0  0  0  0  0  0  0  0  0  0  0  0  # atno 17371 bound_to 10713
  141.2227  133.7074  156.8190 LP  0  0  0  0  0  0  0  0  0  0  0  0  # atno 17394 bound_to 11000
  140.2098  134.8836  157.3261 LP  0  0  0  0  0  0  0  0  0  0  0  0  # atno 17395 bound_to 11000

$$$$
