AV-unprocessed.smi:1514|AV-procd|sdf|6115|dock3
  -GOLD-   22720 6253D 1   1.00000     0.00000
 Structure written by MMmdl.
 48 49  0  0  0  0  0  0  0  0  2 V2000
  144.0356  132.1722  150.8540 C   0  0  0  0  0  0  0  0  0  0  0  0
  144.8073  132.6659  152.0862 C   0  0  0  0  0  0  0  0  0  0  0  0
  146.1424  133.1575  151.7374 N   0  0  0  0  0  0  0  0  0  0  0  0
  146.0944  134.3305  150.8616 C   0  0  0  0  0  0  0  0  0  0  0  0
  145.6027  135.5900  151.6057 C   0  0  0  0  0  0  0  0  0  0  0  0
  146.4735  135.8836  152.7696 N   0  3  0  0  0  0  0  0  0  0  0  0
  146.0810  137.1326  153.4681 C   0  0  0  0  0  0  0  0  0  0  0  0
  146.4228  138.3955  152.6539 C   0  0  0  0  0  0  0  0  0  0  0  0
  147.7922  138.8351  152.8959 N   0  0  0  0  0  0  0  0  0  0  0  0
  148.2950  139.1433  154.1002 C   0  0  0  0  0  0  0  0  0  0  0  0
  147.6347  139.0947  155.1383 O   0  0  0  0  0  0  0  0  0  0  0  0
  149.5868  139.5052  154.0112 N   0  0  0  0  0  0  0  0  0  0  0  0
  150.4316  139.8892  155.0049 C   0  0  0  0  0  0  0  0  0  0  0  0
  150.2504  140.8437  155.9683 C   0  0  0  0  0  0  0  0  0  0  0  0
  151.4698  140.7824  156.7036 C   0  0  0  0  0  0  0  0  0  0  0  0
  151.8719  141.6003  157.8952 C   0  0  0  0  0  0  0  0  0  0  0  0
  152.3115  139.8726  156.2256 N   0  0  0  0  0  0  0  0  0  0  0  0
  151.6726  139.3164  155.1738 N   0  0  0  0  0  0  0  0  0  0  0  0
  152.3147  138.2666  154.4067 C   0  0  0  0  0  0  0  0  0  0  0  0
  146.5429  134.7001  153.6636 C   0  0  0  0  0  0  0  0  0  0  0  0
  147.0121  133.4559  152.8803 C   0  0  0  0  0  0  0  0  0  0  0  0
  143.0049  131.9380  151.1203 H   0  0  0  0  0  0  0  0  0  0  0  0
  144.4708  131.2667  150.4325 H   0  0  0  0  0  0  0  0  0  0  0  0
  144.0085  132.9324  150.0726 H   0  0  0  0  0  0  0  0  0  0  0  0
  144.2433  133.4892  152.5266 H   0  0  0  0  0  0  0  0  0  0  0  0
  144.8495  131.8828  152.8422 H   0  0  0  0  0  0  0  0  0  0  0  0
  147.0939  134.5092  150.4627 H   0  0  0  0  0  0  0  0  0  0  0  0
  145.4555  134.1232  150.0022 H   0  0  0  0  0  0  0  0  0  0  0  0
  145.6216  136.4358  150.9175 H   0  0  0  0  0  0  0  0  0  0  0  0
  144.5674  135.4771  151.9305 H   0  0  0  0  0  0  0  0  0  0  0  0
  145.0033  137.1226  153.6388 H   0  0  0  0  0  0  0  0  0  0  0  0
  146.5479  137.1592  154.4540 H   0  0  0  0  0  0  0  0  0  0  0  0
  146.2868  138.2321  151.5844 H   0  0  0  0  0  0  0  0  0  0  0  0
  145.7518  139.2091  152.9309 H   0  0  0  0  0  0  0  0  0  0  0  0
  148.4017  138.8986  152.0932 H   0  0  0  0  0  0  0  0  0  0  0  0
  149.9904  139.4944  153.0861 H   0  0  0  0  0  0  0  0  0  0  0  0
  149.4005  141.4871  156.1381 H   0  0  0  0  0  0  0  0  0  0  0  0
  151.0406  142.2068  158.2551 H   0  0  0  0  0  0  0  0  0  0  0  0
  152.6921  142.2747  157.6481 H   0  0  0  0  0  0  0  0  0  0  0  0
  152.1980  140.9639  158.7182 H   0  0  0  0  0  0  0  0  0  0  0  0
  152.4135  138.5807  153.3675 H   0  0  0  0  0  0  0  0  0  0  0  0
  151.7114  137.3597  154.4503 H   0  0  0  0  0  0  0  0  0  0  0  0
  153.3067  138.0502  154.8059 H   0  0  0  0  0  0  0  0  0  0  0  0
  147.2490  134.8850  154.4722 H   0  0  0  0  0  0  0  0  0  0  0  0
  145.5750  134.5258  154.1352 H   0  0  0  0  0  0  0  0  0  0  0  0
  147.0833  132.5946  153.5434 H   0  0  0  0  0  0  0  0  0  0  0  0
  148.0225  133.6266  152.5063 H   0  0  0  0  0  0  0  0  0  0  0  0
  147.4012  136.0323  152.3993 H   0  0  0  0  0  0  0  0  0  0  0  0
  1  2  1  0  0  0  0
  1 22  1  0  0  0  0
  1 23  1  0  0  0  0
  1 24  1  0  0  0  0
  2  3  1  0  0  0  0
  2 25  1  0  0  0  0
  2 26  1  0  0  0  0
  3 21  1  0  0  0  0
  3  4  1  0  0  0  0
  4  5  1  0  0  0  0
  4 27  1  0  0  0  0
  4 28  1  0  0  0  0
  5  6  1  0  0  0  0
  5 29  1  0  0  0  0
  5 30  1  0  0  0  0
  6  7  1  0  0  0  0
  6 20  1  0  0  0  0
  6 48  1  0  0  0  0
  7  8  1  0  0  0  0
  7 31  1  0  0  0  0
  7 32  1  0  0  0  0
  8  9  1  0  0  0  0
  8 33  1  0  0  0  0
  8 34  1  0  0  0  0
  9 10  1  0  0  0  0
  9 35  1  0  0  0  0
 10 11  2  0  0  0  0
 10 12  1  0  0  0  0
 12 13  1  0  0  0  0
 12 36  1  0  0  0  0
 13 18  1  0  0  0  0
 13 14  2  0  0  0  0
 14 15  1  0  0  0  0
 14 37  1  0  0  0  0
 15 16  1  0  0  0  0
 15 17  2  0  0  0  0
 16 38  1  0  0  0  0
 16 39  1  0  0  0  0
 16 40  1  0  0  0  0
 17 18  1  0  0  0  0
 18 19  1  0  0  0  0
 19 41  1  0  0  0  0
 19 42  1  0  0  0  0
 19 43  1  0  0  0  0
 20 21  1  0  0  0  0
 20 44  1  0  0  0  0
 20 45  1  0  0  0  0
 21 46  1  0  0  0  0
 21 47  1  0  0  0  0
M  CHG  1   6   1
M  END
> <s_m_source_file>
AV-unprocessed.smi

> <i_m_source_file_index>
1514

> <i_lp_mmshare_version>
43012

> <i_f3d_flags>
0

> <s_epik_input>
W0NIM11bQ0gyXU4xW0NIMl1bQ0gyXU4oW0NIMl1bQ0gyXTEpW0NIMl1bQ0gyXVtOSF1DKD1PKVtOSF1jMltjSF1jKFtDSDNdKW5uMltDSDNd

> <s_epik_cmdline>
J2VwaWtfcHl0aG9uJywgJy1waCcsICc3LjAnLCAnLXRuJywgJzgnLCAnLW1hJywgJzIwMCcsICctbWV0YWxfYmluZGluZycsICctaW1hZScsICc8aW5maWxlLm1hZT4nLCAnLW9tYWUnLCAnPG91dGZpbGUubWFlPic=

> <r_epik_Ionization_Penalty>
0.237948

> <r_epik_Ionization_Penalty_Charging>
0.236594

> <r_epik_Ionization_Penalty_Neutral>
0.00135429

> <r_epik_State_Penalty>
1.1865

> <r_epik_Charging_Adjusted_Penalty>
1.42309

> <i_epik_Tot_Q>
1

> <i_epik_Tot_abs_Q>
1

> <r_epik_Metal_State_Penalty>
1.18651

> <b_epik_Metal_Only>
0

> <s_lp_Force_Field>
OPLS_2005

> <r_lp_Energy>
18.1448

> <b_lp_Chiralities_Consistent>
1

> <s_lp_Variant>
AV-unprocessed.smi:1514-2

> <Gold.Version>
5.8.1

> <Gold.Id.Protein>
6NUR|6NUR_protein|mol2

> <Gold.PLP.Fitness>
50.4865

> <Gold.PLP.PLP>
-37.6832

> <Gold.PLP.part.hbond>
-4.9856

> <Gold.PLP.part.metal>
0.0000

> <Gold.PLP.part.buried>
-4.9793

> <Gold.PLP.part.nonpolar>
-27.6116

> <Gold.PLP.part.repulsive>
0.3741

> <Gold.PLP.ligand.clash>
0.0000

> <Gold.PLP.ligand.torsion>
0.7405

> <Gold.PLP.Chemscore.Hbond>
4.7440

> <Gold.PLP.Chemscore.CHOScore>
0.0000

> <Gold.PLP.Chemscore.Metal>
0.0000

> <Gold.Chemscore.Hbonds>
donor molecule, donor type, donor heavy atom, donor atom, acceptor molecule, acceptor atom, score
      L1  H     6    48       P1  7948  2.00
      L1  H     9    35       P1  7957  0.91
      L1  H    12    36       P1  7957  0.86
      P1  H  7997  8010       L1    17  0.96

> <Gold.PLP.Chemscore.Internal.Correction>
0.0524

> <Gold.Rescore>
     Score         DG    S(hbond)    S(metal)    S(lipo)     H(rot)  DE(clash)    DE(int)     intcor
     20.03     -21.93       3.71        0.00      71.78       1.69       0.02       1.88       ----

> <Gold.Chemscore.Fitness>
20.0327

> <Gold.Chemscore.DG>
-21.9293

> <Gold.Chemscore.ZeroCoef>
-5.4800

> <Gold.Chemscore.Hbond>
3.7070

> <Gold.Chemscore.Metal>
0.0000

> <Gold.Chemscore.Lipo>
71.7775

> <Gold.Chemscore.Internal_Hbond>
0.0000

> <Gold.Chemscore.DEClash>
0.0159

> <Gold.Chemscore.DEInternal>
1.8808

> <Gold.Chemscore.Rot>
1.6914

> <Gold.Chemscore.Internal.Correction>
   9.000000E+99

> <Gold.Chemscore.Hbonds>
donor molecule, donor type, donor heavy atom, donor atom, acceptor molecule, acceptor atom, score
      L1  H     6    48       P1  7948  1.00
      L1  H     9    35       P1  7957  0.85
      L1  H    12    36       P1  7957  0.79
      P1  H  7997  8010       L1    17  0.89

> <Gold.Chemscore.Hbond.Weighted>
-12.3813

> <Gold.Chemscore.Metal.Weighted>
-0.0000

> <Gold.Chemscore.Lipo.Weighted>
-8.3980

> <Gold.Chemscore.Internal_Hbond.Weighted>
0.0000

> <Gold.Chemscore.DEClash.Weighted>
0.0159

> <Gold.Chemscore.DEInternal.Weighted>
1.8808

> <Gold.Chemscore.Rot.Weighted>
4.3299

> <Gold.Chemscore.Internal.Correction.Weighted>
   9.000000E+99

> <Gold.Protein.RotatedTorsions>
[ 6907 6896 6895 6894 ] final  165.03 input  -60.11 | X-H torsion
[ 7974 7965 7964 7962 ] final   10.79 input  175.53 | X-H torsion
[ 8008 7997 7996 7995 ] final   82.71 input   59.86 | X-H torsion
[ 10167 10162 10161 10158 ] final  121.12 input  -65.29 | X-H torsion
[ 10718 10713 10712 10709 ] final  163.58 input   66.30 | X-H torsion
[ 10763 10752 10751 10750 ] final -131.59 input  -60.55 | X-H torsion
[ 11005 11000 10999 10996 ] final   -3.75 input  -57.11 | X-H torsion

> <Gold.Protein.ActiveResidues>
 VAL166  LYS551  ARG553  GLY616  TRP617  ASP618  TYR619  PRO620  LYS621  CYS622 
 ASP623  PHE694  ASN695  SER759  ASP760  ASP761  ALA762  ILE779  LEU786  VAL792 
 PHE793  MET794  SER795  GLU796  ALA797  LYS798  CYS799  TRP800  GLU811  SER814 

> <Gold.Protein.RotatedAtoms>
  151.9008  133.3537  159.3829 H   0  0  0  0  0  0  0  0  0  0  0  0  # atno 6907 bound_to 6896
  150.7080  134.4830  159.5489 H   0  0  0  0  0  0  0  0  0  0  0  0  # atno 6908 bound_to 6896
  152.2418  134.8221  160.0510 H   0  0  0  0  0  0  0  0  0  0  0  0  # atno 6909 bound_to 6896
  146.2382  139.9581  142.8462 H   0  0  0  0  0  0  0  0  0  0  0  0  # atno 7974 bound_to 7965
  155.9143  140.3425  155.6122 H   0  0  0  0  0  0  0  0  0  0  0  0  # atno 8008 bound_to 7997
  155.7350  140.0800  157.2290 H   0  0  0  0  0  0  0  0  0  0  0  0  # atno 8009 bound_to 7997
  154.4060  140.1581  156.2539 H   0  0  0  0  0  0  0  0  0  0  0  0  # atno 8010 bound_to 7997
  139.5939  144.7035  151.3222 H   0  0  0  0  0  0  0  0  0  0  0  0  # atno 10167 bound_to 10162
  157.1064  131.0456  151.2476 H   0  0  0  0  0  0  0  0  0  0  0  0  # atno 10718 bound_to 10713
  154.8749  135.3825  154.4272 H   0  0  0  0  0  0  0  0  0  0  0  0  # atno 10763 bound_to 10752
  153.4969  135.7030  153.5858 H   0  0  0  0  0  0  0  0  0  0  0  0  # atno 10764 bound_to 10752
  153.4207  135.3902  155.2076 H   0  0  0  0  0  0  0  0  0  0  0  0  # atno 10765 bound_to 10752
  140.6728  133.9222  155.8505 H   0  0  0  0  0  0  0  0  0  0  0  0  # atno 11005 bound_to 11000
  145.1797  140.9761  143.4273 LP  0  0  0  0  0  0  0  0  0  0  0  0  # atno 17320 bound_to 7965
  144.9953  139.3650  143.6194 LP  0  0  0  0  0  0  0  0  0  0  0  0  # atno 17321 bound_to 7965
  140.7196  143.7172  150.7724 LP  0  0  0  0  0  0  0  0  0  0  0  0  # atno 17342 bound_to 10162
  140.0734  143.5039  152.2568 LP  0  0  0  0  0  0  0  0  0  0  0  0  # atno 17343 bound_to 10162
  157.4597  130.7646  149.7224 LP  0  0  0  0  0  0  0  0  0  0  0  0  # atno 17370 bound_to 10713
  155.9861  130.3977  150.3229 LP  0  0  0  0  0  0  0  0  0  0  0  0  # atno 17371 bound_to 10713
  141.0379  134.0663  157.3937 LP  0  0  0  0  0  0  0  0  0  0  0  0  # atno 17394 bound_to 11000
  139.8976  135.0151  156.7109 LP  0  0  0  0  0  0  0  0  0  0  0  0  # atno 17395 bound_to 11000

$$$$
