AV-unprocessed.smi:955|AV-procd|sdf|4261|dock3
  -GOLD-   22720 2173D 1   1.00000     0.00000
 Structure written by MMmdl.
 29 29  0  0  0  0  0  0  0  0  1 V2000
  147.7040  141.5894  156.5779 C   0  0  0  0  0  0  0  0  0  0  0  0
  149.1315  141.1523  156.2098 C   0  0  2  0  0  0  0  0  0  0  0  0
  150.0590  142.1452  156.7476 N   0  0  0  0  0  0  0  0  0  0  0  0
  150.9708  141.9185  157.7077 C   0  0  0  0  0  0  0  0  0  0  0  0
  151.0854  140.8349  158.2826 O   0  0  0  0  0  0  0  0  0  0  0  0
  151.8902  143.0989  158.0586 C   0  0  1  0  0  0  0  0  0  0  0  0
  151.4099  144.4350  157.4552 C   0  0  0  0  0  0  0  0  0  0  0  0
  152.0745  143.1791  159.5035 N   0  0  0  0  0  0  0  0  0  0  0  0
  151.8749  144.2709  160.3241 C   0  0  0  0  0  0  0  0  0  0  0  0
  152.2163  143.9002  161.5929 C   0  0  0  0  0  0  0  0  0  0  0  0
  152.6329  142.5480  161.4488 C   0  0  0  0  0  0  0  0  0  0  0  0
  152.5546  142.1219  160.1991 N   0  0  0  0  0  0  0  0  0  0  0  0
  149.2324  141.1027  154.6762 C   0  0  0  0  0  0  0  0  0  0  0  0
  149.6579  139.9577  154.1375 N   0  0  0  0  0  0  0  0  0  0  0  0
  148.9180  142.0721  153.9864 O   0  0  0  0  0  0  0  0  0  0  0  0
  146.9636  140.8819  156.2023 H   0  0  0  0  0  0  0  0  0  0  0  0
  147.4612  142.5725  156.1709 H   0  0  0  0  0  0  0  0  0  0  0  0
  147.5807  141.6419  157.6600 H   0  0  0  0  0  0  0  0  0  0  0  0
  149.3384  140.1694  156.6380 H   0  0  0  0  0  0  0  0  0  0  0  0
  150.0361  143.0615  156.3245 H   0  0  0  0  0  0  0  0  0  0  0  0
  152.8674  142.8843  157.6228 H   0  0  0  0  0  0  0  0  0  0  0  0
  151.3383  144.3722  156.3689 H   0  0  0  0  0  0  0  0  0  0  0  0
  152.1077  145.2392  157.6899 H   0  0  0  0  0  0  0  0  0  0  0  0
  150.4298  144.7284  157.8337 H   0  0  0  0  0  0  0  0  0  0  0  0
  151.5116  145.2125  159.9402 H   0  0  0  0  0  0  0  0  0  0  0  0
  152.1803  144.5049  162.4867 H   0  0  0  0  0  0  0  0  0  0  0  0
  152.9917  141.8696  162.2086 H   0  0  0  0  0  0  0  0  0  0  0  0
  149.7325  139.8688  153.1345 H   0  0  0  0  0  0  0  0  0  0  0  0
  149.8939  139.1803  154.7369 H   0  0  0  0  0  0  0  0  0  0  0  0
  1  2  1  0  0  0  0
  1 16  1  0  0  0  0
  1 17  1  0  0  0  0
  1 18  1  0  0  0  0
  2  3  1  0  0  0  0
  2 13  1  0  0  0  0
  2 19  1  0  0  0  0
  3  4  1  0  0  0  0
  3 20  1  0  0  0  0
  4  5  2  0  0  0  0
  4  6  1  0  0  0  0
  6  7  1  0  0  0  0
  6  8  1  0  0  0  0
  6 21  1  0  0  0  0
  7 22  1  0  0  0  0
  7 23  1  0  0  0  0
  7 24  1  0  0  0  0
  8 12  1  0  0  0  0
  8  9  1  0  0  0  0
  9 10  2  0  0  0  0
  9 25  1  0  0  0  0
 10 11  1  0  0  0  0
 10 26  1  0  0  0  0
 11 12  2  0  0  0  0
 11 27  1  0  0  0  0
 13 14  1  0  0  0  0
 13 15  2  0  0  0  0
 14 28  1  0  0  0  0
 14 29  1  0  0  0  0
M  END
> <s_m_source_file>
AV-unprocessed.smi

> <i_m_source_file_index>
955

> <i_lp_mmshare_version>
43012

> <i_f3d_flags>
0

> <s_epik_input>
W05IMl1DKD1PKVtDQEhdKFtDSDNdKVtOSF1DKD1PKVtDQEhdKFtDSDNdKW4xW2NIXVtjSF1bY0hdbjE=

> <s_epik_cmdline>
J2VwaWtfcHl0aG9uJywgJy1waCcsICc3LjAnLCAnLXRuJywgJzgnLCAnLW1hJywgJzIwMCcsICctbWV0YWxfYmluZGluZycsICctaW1hZScsICc8aW5maWxlLm1hZT4nLCAnLW9tYWUnLCAnPG91dGZpbGUubWFlPic=

> <r_lp_tautomer_probability>
1

> <r_epik_Ionization_Penalty>
2.8146e-05

> <r_epik_Ionization_Penalty_Charging>
0

> <r_epik_Ionization_Penalty_Neutral>
2.8146e-05

> <r_epik_State_Penalty>
-0

> <r_epik_Charging_Adjusted_Penalty>
0

> <i_epik_Tot_Q>
0

> <i_epik_Tot_abs_Q>
0

> <r_epik_Metal_State_Penalty>
-0

> <b_epik_Metal_Only>
0

> <s_lp_Force_Field>
OPLS_2005

> <r_lp_Energy>
4.42999

> <b_lp_Chiralities_Consistent>
1

> <s_lp_Variant>
AV-unprocessed.smi:955-3

> <Gold.Version>
5.8.1

> <Gold.Id.Protein>
6NUR|6NUR_protein|mol2

> <Gold.PLP.Fitness>
37.9156

> <Gold.PLP.PLP>
-32.3738

> <Gold.PLP.part.hbond>
-2.9757

> <Gold.PLP.part.metal>
0.0000

> <Gold.PLP.part.buried>
-5.0887

> <Gold.PLP.part.nonpolar>
-25.9371

> <Gold.PLP.part.repulsive>
0.3925

> <Gold.PLP.ligand.clash>
0.0000

> <Gold.PLP.ligand.torsion>
0.5109

> <Gold.PLP.Chemscore.Hbond>
2.1456

> <Gold.PLP.Chemscore.CHOScore>
0.0000

> <Gold.PLP.Chemscore.Metal>
0.0000

> <Gold.Chemscore.Hbonds>
donor molecule, donor type, donor heavy atom, donor atom, acceptor molecule, acceptor atom, score
      L1  H     3    20       P1  8028  0.75
      L1  H    14    28       P1  7957  1.00
      P1  H  8011  8017       L1    15  0.38

> <Gold.PLP.Chemscore.Internal.Correction>
0.1268

> <Gold.Rescore>
     Score         DG    S(hbond)    S(metal)    S(lipo)     H(rot)  DE(clash)    DE(int)     intcor
     12.73     -15.14       2.30        0.00      67.14       2.30       0.48       1.92       ----

> <Gold.Chemscore.Fitness>
12.7335

> <Gold.Chemscore.DG>
-15.1391

> <Gold.Chemscore.ZeroCoef>
-5.4800

> <Gold.Chemscore.Hbond>
2.3009

> <Gold.Chemscore.Metal>
0.0000

> <Gold.Chemscore.Lipo>
67.1367

> <Gold.Chemscore.Internal_Hbond>
0.0000

> <Gold.Chemscore.DEClash>
0.4812

> <Gold.Chemscore.DEInternal>
1.9244

> <Gold.Chemscore.Rot>
2.2972

> <Gold.Chemscore.Internal.Correction>
   9.000000E+99

> <Gold.Chemscore.Hbonds>
donor molecule, donor type, donor heavy atom, donor atom, acceptor molecule, acceptor atom, score
      L1  H     3    20       P1  8028  0.72
      L1  H    14    28       P1  7957  0.97
      P1  H  8011  8017       L1    15  0.38

> <Gold.Chemscore.Hbond.Weighted>
-7.6850

> <Gold.Chemscore.Metal.Weighted>
-0.0000

> <Gold.Chemscore.Lipo.Weighted>
-7.8550

> <Gold.Chemscore.Internal_Hbond.Weighted>
0.0000

> <Gold.Chemscore.DEClash.Weighted>
0.4812

> <Gold.Chemscore.DEInternal.Weighted>
1.9244

> <Gold.Chemscore.Rot.Weighted>
5.8809

> <Gold.Chemscore.Internal.Correction.Weighted>
   9.000000E+99

> <Gold.Protein.RotatedTorsions>
[ 6907 6896 6895 6894 ] final  146.93 input  -60.11 | X-H torsion
[ 7974 7965 7964 7962 ] final -179.67 input  175.53 | X-H torsion
[ 8008 7997 7996 7995 ] final   70.01 input   59.86 | X-H torsion
[ 10167 10162 10161 10158 ] final  123.54 input  -65.29 | X-H torsion
[ 10718 10713 10712 10709 ] final -116.51 input   66.30 | X-H torsion
[ 10763 10752 10751 10750 ] final  171.33 input  -60.55 | X-H torsion
[ 11005 11000 10999 10996 ] final  -18.65 input  -57.11 | X-H torsion

> <Gold.Protein.ActiveResidues>
 VAL166  LYS551  ARG553  GLY616  TRP617  ASP618  TYR619  PRO620  LYS621  CYS622 
 ASP623  PHE694  ASN695  SER759  ASP760  ASP761  ALA762  ILE779  LEU786  VAL792 
 PHE793  MET794  SER795  GLU796  ALA797  LYS798  CYS799  TRP800  GLU811  SER814 

> <Gold.Protein.RotatedAtoms>
  152.1615  133.4585  159.4863 H   0  0  0  0  0  0  0  0  0  0  0  0  # atno 6907 bound_to 6896
  150.6907  134.2065  159.4352 H   0  0  0  0  0  0  0  0  0  0  0  0  # atno 6908 bound_to 6896
  151.9968  134.9949  160.0614 H   0  0  0  0  0  0  0  0  0  0  0  0  # atno 6909 bound_to 6896
  144.7138  140.0682  143.6430 H   0  0  0  0  0  0  0  0  0  0  0  0  # atno 7974 bound_to 7965
  155.7322  140.3491  155.5065 H   0  0  0  0  0  0  0  0  0  0  0  0  # atno 8008 bound_to 7997
  155.9171  140.1060  157.1256 H   0  0  0  0  0  0  0  0  0  0  0  0  # atno 8009 bound_to 7997
  154.4064  140.1256  156.4619 H   0  0  0  0  0  0  0  0  0  0  0  0  # atno 8010 bound_to 7997
  139.5793  144.6979  151.3570 H   0  0  0  0  0  0  0  0  0  0  0  0  # atno 10167 bound_to 10162
  156.0969  130.6139  150.9045 H   0  0  0  0  0  0  0  0  0  0  0  0  # atno 10718 bound_to 10713
  154.4104  135.2756  155.2040 H   0  0  0  0  0  0  0  0  0  0  0  0  # atno 10763 bound_to 10752
  154.4029  135.6040  153.5911 H   0  0  0  0  0  0  0  0  0  0  0  0  # atno 10764 bound_to 10752
  152.9831  135.5930  154.4385 H   0  0  0  0  0  0  0  0  0  0  0  0  # atno 10765 bound_to 10752
  140.8289  133.8012  155.9737 H   0  0  0  0  0  0  0  0  0  0  0  0  # atno 11005 bound_to 11000
  145.9806  139.2938  143.1044 LP  0  0  0  0  0  0  0  0  0  0  0  0  # atno 17320 bound_to 7965
  145.9015  140.9239  143.0500 LP  0  0  0  0  0  0  0  0  0  0  0  0  # atno 17321 bound_to 7965
  140.7073  143.7481  150.7504 LP  0  0  0  0  0  0  0  0  0  0  0  0  # atno 17342 bound_to 10162
  140.1009  143.4788  152.2425 LP  0  0  0  0  0  0  0  0  0  0  0  0  # atno 17343 bound_to 10162
  157.6131  131.0935  150.8758 LP  0  0  0  0  0  0  0  0  0  0  0  0  # atno 17370 bound_to 10713
  156.8894  130.5207  149.5287 LP  0  0  0  0  0  0  0  0  0  0  0  0  # atno 17371 bound_to 10713
  140.9020  134.2367  157.5036 LP  0  0  0  0  0  0  0  0  0  0  0  0  # atno 17394 bound_to 11000
  139.8705  134.9711  156.4724 LP  0  0  0  0  0  0  0  0  0  0  0  0  # atno 17395 bound_to 11000

$$$$
