AV-unprocessed.smi:1155|AV-procd|sdf|4904|dock10
  -GOLD-   22720 3483D 1   1.00000     0.00000
 Structure written by MMmdl.
 38 40  0  0  0  0  0  0  0  0  1 V2000
  153.1780  140.6996  160.1302 C   0  0  0  0  0  0  0  0  0  0  0  0
  152.3201  141.8534  159.8477 N   0  0  0  0  0  0  0  0  0  0  0  0
  151.4340  141.7617  158.7566 C   0  0  0  0  0  0  0  0  0  0  0  0
  150.6042  142.7717  158.4139 C   0  0  0  0  0  0  0  0  0  0  0  0
  149.6862  142.7456  157.3533 N   0  0  0  0  0  0  0  0  0  0  0  0
  149.0249  141.6982  156.8259 C   0  0  0  0  0  0  0  0  0  0  0  0
  149.1538  140.5220  157.1642 O   0  0  0  0  0  0  0  0  0  0  0  0
  148.1980  142.1014  155.8485 N   0  0  0  0  0  0  0  0  0  0  0  0
  147.3364  141.2541  155.0260 C   0  0  0  0  0  0  0  0  0  0  0  0
  148.0721  140.5145  153.9179 C   0  0  0  0  0  0  0  0  0  0  0  0
  147.4712  139.2977  153.2554 C   0  0  0  0  0  0  0  0  0  0  0  0
  148.6780  139.1526  154.1556 C   0  0  0  0  0  0  0  0  0  0  0  0
  146.1131  141.9747  154.4792 C   0  0  0  0  0  0  0  0  0  0  0  0
  146.2447  143.2813  153.7353 C   0  0  0  0  0  0  0  0  0  0  0  0
  145.6099  143.2524  155.1078 C   0  0  0  0  0  0  0  0  0  0  0  0
  150.6542  143.9652  159.2315 C   0  0  0  0  0  0  0  0  0  0  0  0
  151.4954  144.0590  160.2796 C   0  0  0  0  0  0  0  0  0  0  0  0
  152.3944  142.9608  160.6412 C   0  0  0  0  0  0  0  0  0  0  0  0
  153.1656  143.0311  161.5985 O   0  0  0  0  0  0  0  0  0  0  0  0
  153.0742  139.9036  159.3920 H   0  0  0  0  0  0  0  0  0  0  0  0
  152.9357  140.2749  161.1055 H   0  0  0  0  0  0  0  0  0  0  0  0
  154.2285  140.9936  160.1393 H   0  0  0  0  0  0  0  0  0  0  0  0
  151.4781  140.8137  158.2448 H   0  0  0  0  0  0  0  0  0  0  0  0
  149.5063  143.6441  156.9299 H   0  0  0  0  0  0  0  0  0  0  0  0
  148.1678  143.0899  155.6460 H   0  0  0  0  0  0  0  0  0  0  0  0
  146.9685  140.4942  155.7169 H   0  0  0  0  0  0  0  0  0  0  0  0
  148.6333  141.1692  153.2537 H   0  0  0  0  0  0  0  0  0  0  0  0
  146.5197  138.9283  153.6320 H   0  0  0  0  0  0  0  0  0  0  0  0
  147.6249  139.1834  152.1843 H   0  0  0  0  0  0  0  0  0  0  0  0
  149.6358  138.9412  153.6845 H   0  0  0  0  0  0  0  0  0  0  0  0
  148.5250  138.6918  155.1293 H   0  0  0  0  0  0  0  0  0  0  0  0
  145.3393  141.3030  154.1119 H   0  0  0  0  0  0  0  0  0  0  0  0
  147.2377  143.7181  153.6496 H   0  0  0  0  0  0  0  0  0  0  0  0
  145.5906  143.4379  152.8801 H   0  0  0  0  0  0  0  0  0  0  0  0
  144.5325  143.3924  155.1672 H   0  0  0  0  0  0  0  0  0  0  0  0
  146.1816  143.6766  155.9310 H   0  0  0  0  0  0  0  0  0  0  0  0
  150.0093  144.7999  158.9987 H   0  0  0  0  0  0  0  0  0  0  0  0
  151.5094  144.9646  160.8679 H   0  0  0  0  0  0  0  0  0  0  0  0
  1  2  1  0  0  0  0
  1 20  1  0  0  0  0
  1 21  1  0  0  0  0
  1 22  1  0  0  0  0
  2 18  1  0  0  0  0
  2  3  1  0  0  0  0
  3  4  2  0  0  0  0
  3 23  1  0  0  0  0
  4  5  1  0  0  0  0
  4 16  1  0  0  0  0
  5  6  1  0  0  0  0
  5 24  1  0  0  0  0
  6  7  2  0  0  0  0
  6  8  1  0  0  0  0
  8  9  1  0  0  0  0
  8 25  1  0  0  0  0
  9 10  1  0  0  0  0
  9 13  1  0  0  0  0
  9 26  1  0  0  0  0
 10 12  1  0  0  0  0
 10 11  1  0  0  0  0
 10 27  1  0  0  0  0
 11 12  1  0  0  0  0
 11 28  1  0  0  0  0
 11 29  1  0  0  0  0
 12 30  1  0  0  0  0
 12 31  1  0  0  0  0
 13 15  1  0  0  0  0
 13 14  1  0  0  0  0
 13 32  1  0  0  0  0
 14 15  1  0  0  0  0
 14 33  1  0  0  0  0
 14 34  1  0  0  0  0
 15 35  1  0  0  0  0
 15 36  1  0  0  0  0
 16 17  2  0  0  0  0
 16 37  1  0  0  0  0
 17 18  1  0  0  0  0
 17 38  1  0  0  0  0
 18 19  2  0  0  0  0
M  END
> <s_m_source_file>
AV-unprocessed.smi

> <i_m_source_file_index>
1155

> <i_lp_mmshare_version>
43012

> <i_f3d_flags>
0

> <s_epik_input>
Tz1jMVtjSF1bY0hdYyhbY0hdbjFbQ0gzXSlbTkhdQyg9TylbTkhdW0NIXShbQ0hdMltDSDJdW0NIMl0yKVtDSF0zW0NIMl1bQ0gyXTM=

> <s_epik_cmdline>
J2VwaWtfcHl0aG9uJywgJy1waCcsICc3LjAnLCAnLXRuJywgJzgnLCAnLW1hJywgJzIwMCcsICctbWV0YWxfYmluZGluZycsICctaW1hZScsICc8aW5maWxlLm1hZT4nLCAnLW9tYWUnLCAnPG91dGZpbGUubWFlPic=

> <r_lp_tautomer_probability>
1

> <r_epik_Ionization_Penalty>
2.79104e-05

> <r_epik_Ionization_Penalty_Charging>
6.05378e-06

> <r_epik_Ionization_Penalty_Neutral>
2.18566e-05

> <r_epik_State_Penalty>
-0

> <r_epik_Charging_Adjusted_Penalty>
6.05378e-06

> <i_epik_Tot_Q>
0

> <i_epik_Tot_abs_Q>
0

> <r_epik_Metal_State_Penalty>
-0

> <b_epik_Metal_Only>
0

> <s_lp_Force_Field>
OPLS_2005

> <r_lp_Energy>
36.9075

> <b_lp_Chiralities_Consistent>
1

> <s_lp_Variant>
AV-unprocessed.smi:1155-1

> <Gold.Version>
5.8.1

> <Gold.Id.Protein>
6NUR|6NUR_protein|mol2

> <Gold.PLP.Fitness>
41.1937

> <Gold.PLP.PLP>
-36.2723

> <Gold.PLP.part.hbond>
-2.0000

> <Gold.PLP.part.metal>
0.0000

> <Gold.PLP.part.buried>
-1.6454

> <Gold.PLP.part.nonpolar>
-32.2156

> <Gold.PLP.part.repulsive>
0.1627

> <Gold.PLP.ligand.clash>
0.0000

> <Gold.PLP.ligand.torsion>
1.6223

> <Gold.PLP.Chemscore.Hbond>
2.0000

> <Gold.PLP.Chemscore.CHOScore>
0.0000

> <Gold.PLP.Chemscore.Metal>
0.0000

> <Gold.Chemscore.Hbonds>
donor molecule, donor type, donor heavy atom, donor atom, acceptor molecule, acceptor atom, score
      L1  H     5    24       P1  8028  1.00
      L1  H     8    25       P1  8028  1.00

> <Gold.PLP.Chemscore.Internal.Correction>
2.1660

> <Gold.Rescore>
     Score         DG    S(hbond)    S(metal)    S(lipo)     H(rot)  DE(clash)    DE(int)     intcor
     16.15     -18.09       1.87        0.00      83.90       1.35       0.19       1.75       ----

> <Gold.Chemscore.Fitness>
16.1540

> <Gold.Chemscore.DG>
-18.0928

> <Gold.Chemscore.ZeroCoef>
-5.4800

> <Gold.Chemscore.Hbond>
1.8721

> <Gold.Chemscore.Metal>
0.0000

> <Gold.Chemscore.Lipo>
83.8975

> <Gold.Chemscore.Internal_Hbond>
0.0000

> <Gold.Chemscore.DEClash>
0.1887

> <Gold.Chemscore.DEInternal>
1.7501

> <Gold.Chemscore.Rot>
1.3500

> <Gold.Chemscore.Internal.Correction>
   9.000000E+99

> <Gold.Chemscore.Hbonds>
donor molecule, donor type, donor heavy atom, donor atom, acceptor molecule, acceptor atom, score
      L1  H     5    24       P1  8028  0.91
      L1  H     8    25       P1  8028  0.85

> <Gold.Chemscore.Hbond.Weighted>
-6.2528

> <Gold.Chemscore.Metal.Weighted>
-0.0000

> <Gold.Chemscore.Lipo.Weighted>
-9.8160

> <Gold.Chemscore.Internal_Hbond.Weighted>
0.0000

> <Gold.Chemscore.DEClash.Weighted>
0.1887

> <Gold.Chemscore.DEInternal.Weighted>
1.7501

> <Gold.Chemscore.Rot.Weighted>
3.4560

> <Gold.Chemscore.Internal.Correction.Weighted>
   9.000000E+99

> <Gold.Protein.RotatedTorsions>
[ 6907 6896 6895 6894 ] final  112.03 input  -60.11 | X-H torsion
[ 7974 7965 7964 7962 ] final  -29.64 input  175.53 | X-H torsion
[ 8008 7997 7996 7995 ] final  -98.90 input   59.86 | X-H torsion
[ 10167 10162 10161 10158 ] final   10.99 input  -65.29 | X-H torsion
[ 10718 10713 10712 10709 ] final -112.23 input   66.30 | X-H torsion
[ 10763 10752 10751 10750 ] final -139.51 input  -60.55 | X-H torsion
[ 11005 11000 10999 10996 ] final   46.19 input  -57.11 | X-H torsion

> <Gold.Protein.ActiveResidues>
 VAL166  LYS551  ARG553  GLY616  TRP617  ASP618  TYR619  PRO620  LYS621  CYS622 
 ASP623  PHE694  ASN695  SER759  ASP760  ASP761  ALA762  ILE779  LEU786  VAL792 
 PHE793  MET794  SER795  GLU796  ALA797  LYS798  CYS799  TRP800  GLU811  SER814 

> <Gold.Protein.RotatedAtoms>
  152.4938  133.8574  159.7232 H   0  0  0  0  0  0  0  0  0  0  0  0  # atno 6907 bound_to 6896
  150.9095  133.7007  159.2865 H   0  0  0  0  0  0  0  0  0  0  0  0  # atno 6908 bound_to 6896
  151.4421  135.1025  159.9725 H   0  0  0  0  0  0  0  0  0  0  0  0  # atno 6909 bound_to 6896
  146.1201  140.5438  142.8739 H   0  0  0  0  0  0  0  0  0  0  0  0  # atno 7974 bound_to 7965
  154.8075  140.0452  157.1318 H   0  0  0  0  0  0  0  0  0  0  0  0  # atno 8008 bound_to 7997
  154.9407  140.3052  155.5102 H   0  0  0  0  0  0  0  0  0  0  0  0  # atno 8009 bound_to 7997
  156.2968  140.2306  156.4476 H   0  0  0  0  0  0  0  0  0  0  0  0  # atno 8010 bound_to 7997
  140.6160  143.8307  150.7119 H   0  0  0  0  0  0  0  0  0  0  0  0  # atno 10167 bound_to 10162
  156.0693  130.5909  150.8481 H   0  0  0  0  0  0  0  0  0  0  0  0  # atno 10718 bound_to 10713
  154.8607  135.3580  154.5558 H   0  0  0  0  0  0  0  0  0  0  0  0  # atno 10763 bound_to 10752
  153.6175  135.7007  153.5328 H   0  0  0  0  0  0  0  0  0  0  0  0  # atno 10764 bound_to 10752
  153.3157  135.4166  155.1334 H   0  0  0  0  0  0  0  0  0  0  0  0  # atno 10765 bound_to 10752
  140.1391  134.4606  155.8463 H   0  0  0  0  0  0  0  0  0  0  0  0  # atno 11005 bound_to 11000
  144.7589  140.5375  143.6749 LP  0  0  0  0  0  0  0  0  0  0  0  0  # atno 17320 bound_to 7965
  145.5483  139.1476  143.3408 LP  0  0  0  0  0  0  0  0  0  0  0  0  # atno 17321 bound_to 7965
  140.1886  143.4055  152.1880 LP  0  0  0  0  0  0  0  0  0  0  0  0  # atno 17342 bound_to 10162
  139.5399  144.7246  151.4769 LP  0  0  0  0  0  0  0  0  0  0  0  0  # atno 17343 bound_to 10162
  157.5755  131.0946  150.9352 LP  0  0  0  0  0  0  0  0  0  0  0  0  # atno 17370 bound_to 10713
  156.9559  130.5437  149.5284 LP  0  0  0  0  0  0  0  0  0  0  0  0  # atno 17371 bound_to 10713
  141.2183  133.6826  156.7214 LP  0  0  0  0  0  0  0  0  0  0  0  0  # atno 17394 bound_to 11000
  140.2744  134.8366  157.3877 LP  0  0  0  0  0  0  0  0  0  0  0  0  # atno 17395 bound_to 11000

$$$$
