#       Name:                AV-unprocessed.smi:7
#       Creating user name   scv26
#       Creation time:       Thu Mar 26 15:16:08 2020


#       File generated by GOLD software.
#

@<TRIPOS>MOLECULE
AV-unprocessed.smi:7
    53    56     1
SMALL
NO_CHARGES


@<TRIPOS>ATOM
      1 ****        -0.4994   0.2141   3.0850 O.2            1 S1                 0.0000
      2 ****        -0.7328   0.5148   1.9138 C.2            1 S1                 0.0000
      3 ****        -1.2311   1.8538   1.5222 C.2            1 S1                 0.0000
      4 ****        -1.5455   2.9668   2.3009 N.2            1 S1                 0.0000
      5 ****        -1.9431   3.8587   1.3943 C.2            1 S1                 0.0000
      6 ****        -1.9050   3.4023   0.1283 N.pl3          1 S1                 0.0000
      7 ****        -2.2850   4.2343  -0.9504 C.ar           1 S1                 0.0000
      8 ****        -3.4612   5.0146  -0.8805 C.ar           1 S1                 0.0000
      9 ****        -3.8315   5.8359  -1.9635 C.ar           1 S1                 0.0000
     10 ****        -3.0306   5.8807  -3.1209 C.ar           1 S1                 0.0000
     11 ****        -1.8592   5.1029  -3.1960 C.ar           1 S1                 0.0000
     12 ****        -1.4874   4.2809  -2.1142 C.ar           1 S1                 0.0000
     13 ****        -1.4390   2.0968   0.1921 C.2            1 S1                 0.0000
     14 ****        -1.2481   1.2493  -0.8754 N.2            1 S1                 0.0000
     15 ****        -0.8166   0.0741  -0.4975 C.2            1 S1                 0.0000
     16 ****        -0.5692  -0.3273   0.8507 N.am           1 S1                 0.0000
     17 ****        -0.1045  -1.7080   1.0495 C.3            1 S1                 0.0000
     18 ****         1.4403  -1.8163   0.9741 C.3            1 S1                 0.0000
     19 ****         1.9407  -1.7293   2.2955 O.3            1 S1                 0.0000
     20 ****         1.9341  -3.1358   0.3196 C.3            1 S1                 0.0000
     21 ****         1.5132  -3.1253  -1.0346 O.3            1 S1                 0.0000
     22 ****         3.4608  -3.3184   0.3061 C.3            1 S1                 0.0000
     23 ****         3.6817  -4.8151   0.0614 C.3            1 S1                 0.0000
     24 ****         2.4335  -5.5265   0.6059 C.3            1 S1                 0.0000
     25 ****         1.4232  -4.4300   0.9767 C.3            1 S1                 0.0000
     26 ****        -2.2571   4.8569   1.6638 H              1 S1                 0.0000
     27 ****        -4.0874   4.9834  -0.0008 H              1 S1                 0.0000
     28 ****        -4.7315   6.4304  -1.9067 H              1 S1                 0.0000
     29 ****        -3.3152   6.5105  -3.9512 H              1 S1                 0.0000
     30 ****        -1.2448   5.1368  -4.0837 H              1 S1                 0.0000
     31 ****        -0.5854   3.6905  -2.1795 H              1 S1                 0.0000
     32 ****        -0.6071  -0.7064  -1.2312 H              1 S1                 0.0000
     33 ****        -0.4787  -2.1227   1.9880 H              1 S1                 0.0000
     34 ****        -0.5680  -2.3415   0.2914 H              1 S1                 0.0000
     35 ****         1.8522  -0.9780   0.4094 H              1 S1                 0.0000
     36 ****         1.6420  -0.9176   2.6773 H              1 S1                 0.0000
     37 ****         1.8133  -3.9215  -1.4455 H              1 S1                 0.0000
     38 ****         3.9605  -2.6933  -0.4353 H              1 S1                 0.0000
     39 ****         3.8862  -3.0639   1.2773 H              1 S1                 0.0000
     40 ****         3.7709  -5.0034  -1.0093 H              1 S1                 0.0000
     41 ****         4.5986  -5.1730   0.5309 H              1 S1                 0.0000
     42 ****         2.0200  -6.1916  -0.1530 H              1 S1                 0.0000
     43 ****         2.6733  -6.1380   1.4765 H              1 S1                 0.0000
     44 ****         1.4146  -4.3200   2.0617 H              1 S1                 0.0000
     45 ****         0.4057  -4.6851   0.6774 H              1 S1                 0.0000
     46 ****        -0.1658  -0.7016   3.3092 LP             1 S1                 0.0000
     47 ****        -0.6435   0.8856   3.8119 LP             1 S1                 0.0000
     48 ****        -1.4871   3.0701   3.2938 LP             1 S1                 0.0000
     49 ****        -1.4192   1.5023  -1.8276 LP             1 S1                 0.0000
     50 ****         2.9404  -1.7465   2.2792 LP             1 S1                 0.0000
     51 ****         1.6028  -2.5003   2.8354 LP             1 S1                 0.0000
     52 ****         1.9051  -2.3342  -1.5042 LP             1 S1                 0.0000
     53 ****         0.5153  -3.0780  -1.0780 LP             1 S1                 0.0000
@<TRIPOS>BOND
    1    1    2 2     
    2    2   16 am    
    3    2    3 1     
    4    3   13 2     
    5    3    4 1     
    6    4    5 2     
    7    5    6 1     
    8    5   26 1     
    9    6    7 1     
   10    6   13 1     
   11    7   12 ar    
   12    7    8 ar    
   13    8    9 ar    
   14    8   27 1     
   15    9   10 ar    
   16    9   28 1     
   17   10   11 ar    
   18   10   29 1     
   19   11   12 ar    
   20   11   30 1     
   21   12   31 1     
   22   13   14 1     
   23   14   15 2     
   24   15   16 1     
   25   15   32 1     
   26   16   17 1     
   27   17   18 1     
   28   17   33 1     
   29   17   34 1     
   30   18   19 1     
   31   18   20 1     
   32   18   35 1     
   33   19   36 1     
   34   20   25 1     
   35   20   21 1     
   36   20   22 1     
   37   21   37 1     
   38   22   23 1     
   39   22   38 1     
   40   22   39 1     
   41   23   24 1     
   42   23   40 1     
   43   23   41 1     
   44   24   25 1     
   45   24   42 1     
   46   24   43 1     
   47   25   44 1     
   48   25   45 1     
   49    1   46 1     
   50    1   47 1     
   51    4   48 1     
   52   14   49 1     
   53   19   50 1     
   54   19   51 1     
   55   21   52 1     
   56   21   53 1     
@<TRIPOS>SUBSTRUCTURE
      1 S1             1
@<TRIPOS>SET
LONE_PAIRS      STATIC     ATOMS    <user>   **** ""
8 46 47 48 49 50 51 52 53
DONOR_HYDROGENS      STATIC     ATOMS    <user>   **** ""
2 36 37
ATOM$BLUE        STATIC     ATOMS    COLORGROUP SYSTEM
8 46 47 48 49 50 51 52 53
ATOM$RED        STATIC     ATOMS    COLORGROUP SYSTEM
2 36 37
