AV-unprocessed.smi:1056|AV-procd|sdf|4645|dock9
  -GOLD-   22720 3153D 1   1.00000     0.00000
 Structure written by MMmdl.
 44 46  0  0  0  0  0  0  0  0  3 V2000
  152.3393  143.4237  160.7283 C   0  0  0  0  0  0  0  0  0  0  0  0
  152.0900  142.5580  159.5054 C   0  0  0  0  0  0  0  0  0  0  0  0
  152.5573  141.2246  159.5010 C   0  0  0  0  0  0  0  0  0  0  0  0
  152.3426  140.3855  158.3859 C   0  0  0  0  0  0  0  0  0  0  0  0
  152.7099  139.0688  158.1682 N   0  0  0  0  0  0  0  0  0  0  0  0
  152.2245  138.8526  156.9495 C   0  0  0  0  0  0  0  0  0  0  0  0
  151.5890  139.8764  156.3482 N   0  0  0  0  0  0  0  0  0  0  0  0
  150.9846  139.8712  155.0286 C   0  0  0  0  0  0  0  0  0  0  0  0
  149.9378  138.7528  154.8601 C   0  0  1  0  0  0  0  0  0  0  0  0
  149.2733  138.9776  153.6326 O   0  0  0  0  0  0  0  0  0  0  0  0
  150.5553  137.3361  154.8499 C   0  0  0  0  0  0  0  0  0  0  0  0
  149.5587  136.2710  154.5716 N   0  3  1  0  0  0  0  0  0  0  0  0
  150.1321  134.9068  154.6998 C   0  0  0  0  0  0  0  0  0  0  0  0
  149.1693  133.8634  154.1018 C   0  0  0  0  0  0  0  0  0  0  0  0
  147.8043  134.0888  154.5915 N   0  5  0  0  0  0  0  0  0  0  0  0
  147.3001  135.2630  155.0835 C   0  0  0  0  0  0  0  0  0  0  0  0
  146.1217  135.4703  155.3641 O   0  0  0  0  0  0  0  0  0  0  0  0
  148.3007  136.4177  155.3593 C   0  0  0  0  0  0  0  0  0  0  0  0
  151.6402  140.9202  157.2665 C   0  0  0  0  0  0  0  0  0  0  0  0
  151.1725  142.2462  157.2578 C   0  0  0  0  0  0  0  0  0  0  0  0
  151.3976  143.0716  158.3794 C   0  0  0  0  0  0  0  0  0  0  0  0
  150.8889  144.5020  158.3605 C   0  0  0  0  0  0  0  0  0  0  0  0
  152.8338  142.8611  161.5206 H   0  0  0  0  0  0  0  0  0  0  0  0
  151.3987  143.8032  161.1277 H   0  0  0  0  0  0  0  0  0  0  0  0
  152.9749  144.2718  160.4730 H   0  0  0  0  0  0  0  0  0  0  0  0
  153.0852  140.8333  160.3583 H   0  0  0  0  0  0  0  0  0  0  0  0
  152.3392  137.8946  156.4633 H   0  0  0  0  0  0  0  0  0  0  0  0
  150.5240  140.8465  154.8640 H   0  0  0  0  0  0  0  0  0  0  0  0
  151.7745  139.7724  154.2828 H   0  0  0  0  0  0  0  0  0  0  0  0
  149.2065  138.8488  155.6619 H   0  0  0  0  0  0  0  0  0  0  0  0
  149.8741  139.3859  153.0283 H   0  0  0  0  0  0  0  0  0  0  0  0
  151.3431  137.3127  154.0954 H   0  0  0  0  0  0  0  0  0  0  0  0
  151.0403  137.1112  155.8001 H   0  0  0  0  0  0  0  0  0  0  0  0
  151.0878  134.8426  154.1784 H   0  0  0  0  0  0  0  0  0  0  0  0
  150.3292  134.6917  155.7515 H   0  0  0  0  0  0  0  0  0  0  0  0
  149.2056  133.9413  153.0150 H   0  0  0  0  0  0  0  0  0  0  0  0
  149.5286  132.8625  154.3400 H   0  0  0  0  0  0  0  0  0  0  0  0
  148.5282  136.4314  156.4262 H   0  0  0  0  0  0  0  0  0  0  0  0
  147.8114  137.3614  155.1208 H   0  0  0  0  0  0  0  0  0  0  0  0
  150.6450  142.6254  156.3951 H   0  0  0  0  0  0  0  0  0  0  0  0
  150.4285  144.7481  157.4032 H   0  0  0  0  0  0  0  0  0  0  0  0
  151.7074  145.2025  158.5272 H   0  0  0  0  0  0  0  0  0  0  0  0
  150.1415  144.6500  159.1402 H   0  0  0  0  0  0  0  0  0  0  0  0
  149.3021  136.3574  153.5990 H   0  0  0  0  0  0  0  0  0  0  0  0
  1  2  1  0  0  0  0
  1 23  1  0  0  0  0
  1 24  1  0  0  0  0
  1 25  1  0  0  0  0
  2 21  1  0  0  0  0
  2  3  2  0  0  0  0
  3  4  1  0  0  0  0
  3 26  1  0  0  0  0
  4 19  2  0  0  0  0
  4  5  1  0  0  0  0
  5  6  2  0  0  0  0
  6  7  1  0  0  0  0
  6 27  1  0  0  0  0
  7  8  1  0  0  0  0
  7 19  1  0  0  0  0
  8  9  1  0  0  0  0
  8 28  1  0  0  0  0
  8 29  1  0  0  0  0
  9 10  1  0  0  0  0
  9 11  1  0  0  0  0
  9 30  1  0  0  0  0
 10 31  1  0  0  0  0
 11 12  1  0  0  0  0
 11 32  1  0  0  0  0
 11 33  1  0  0  0  0
 12 18  1  0  0  0  0
 12 13  1  0  0  0  0
 12 44  1  0  0  0  0
 13 14  1  0  0  0  0
 13 34  1  0  0  0  0
 13 35  1  0  0  0  0
 14 15  1  0  0  0  0
 14 36  1  0  0  0  0
 14 37  1  0  0  0  0
 15 16  1  0  0  0  0
 16 17  2  0  0  0  0
 16 18  1  0  0  0  0
 18 38  1  0  0  0  0
 18 39  1  0  0  0  0
 19 20  1  0  0  0  0
 20 21  2  0  0  0  0
 20 40  1  0  0  0  0
 21 22  1  0  0  0  0
 22 41  1  0  0  0  0
 22 42  1  0  0  0  0
 22 43  1  0  0  0  0
M  CHG  1  12   1
M  CHG  1  15  -1
M  END
> <s_m_source_file>
AV-unprocessed.smi

> <i_m_source_file_index>
1056

> <i_lp_mmshare_version>
43012

> <i_f3d_flags>
0

> <s_epik_input>
W0NIM11jKFtjSF0xKWMoW0NIM10pW2NIXWMoYzEyKW4oW2NIXW4yKVtDSDJdW0NASF0oW09IXSlbQ0gyXU4zW0NIMl1bQ0gyXVtOSF1DKD1PKVtDSDJdMw==

> <s_epik_cmdline>
J2VwaWtfcHl0aG9uJywgJy1waCcsICc3LjAnLCAnLXRuJywgJzgnLCAnLW1hJywgJzIwMCcsICctbWV0YWxfYmluZGluZycsICctaW1hZScsICc8aW5maWxlLm1hZT4nLCAnLW9tYWUnLCAnPG91dGZpbGUubWFlPic=

> <r_epik_Ionization_Penalty>
5.13411

> <r_epik_Ionization_Penalty_Charging>
5.04792

> <r_epik_Ionization_Penalty_Neutral>
0.0861879

> <r_epik_State_Penalty>
5.18224

> <r_epik_Charging_Adjusted_Penalty>
10.2302

> <i_epik_Tot_Q>
0

> <i_epik_Tot_abs_Q>
2

> <r_epik_Metal_State_Penalty>
1.33873

> <b_epik_Metal_Only>
1

> <s_lp_Force_Field>
OPLS_2005

> <r_lp_Energy>
19.55

> <b_lp_Chiralities_Consistent>
1

> <s_lp_Variant>
AV-unprocessed.smi:1056-16

> <Gold.Version>
5.8.1

> <Gold.Id.Protein>
6NUR|6NUR_protein|mol2

> <Gold.PLP.Fitness>
46.6425

> <Gold.PLP.PLP>
-39.0798

> <Gold.PLP.part.hbond>
-2.6206

> <Gold.PLP.part.metal>
0.0000

> <Gold.PLP.part.buried>
-3.6196

> <Gold.PLP.part.nonpolar>
-32.9508

> <Gold.PLP.part.repulsive>
0.1380

> <Gold.PLP.ligand.clash>
0.0000

> <Gold.PLP.ligand.torsion>
0.1208

> <Gold.PLP.Chemscore.Hbond>
2.5920

> <Gold.PLP.Chemscore.CHOScore>
0.0000

> <Gold.PLP.Chemscore.Metal>
0.0000

> <Gold.Chemscore.Hbonds>
donor molecule, donor type, donor heavy atom, donor atom, acceptor molecule, acceptor atom, score
      L1  H    10    31       P1  7957  0.62
      L1  H    12    44       P1  7948  2.00

> <Gold.PLP.Chemscore.Internal.Correction>
0.0283

> <Gold.Rescore>
     Score         DG    S(hbond)    S(metal)    S(lipo)     H(rot)  DE(clash)    DE(int)     intcor
     17.62     -18.28       1.84        0.00     107.60       2.31       0.56       0.09       ----

> <Gold.Chemscore.Fitness>
17.6224

> <Gold.Chemscore.DG>
-18.2775

> <Gold.Chemscore.ZeroCoef>
-5.4800

> <Gold.Chemscore.Hbond>
1.8365

> <Gold.Chemscore.Metal>
0.0000

> <Gold.Chemscore.Lipo>
107.5991

> <Gold.Chemscore.Internal_Hbond>
0.0000

> <Gold.Chemscore.DEClash>
0.5638

> <Gold.Chemscore.DEInternal>
0.0912

> <Gold.Chemscore.Rot>
2.3147

> <Gold.Chemscore.Internal.Correction>
   9.000000E+99

> <Gold.Chemscore.Hbonds>
donor molecule, donor type, donor heavy atom, donor atom, acceptor molecule, acceptor atom, score
      L1  H    10    31       P1  7957  0.60
      L1  H    12    44       P1  7948  0.88

> <Gold.Chemscore.Hbond.Weighted>
-6.1339

> <Gold.Chemscore.Metal.Weighted>
-0.0000

> <Gold.Chemscore.Lipo.Weighted>
-12.5891

> <Gold.Chemscore.Internal_Hbond.Weighted>
0.0000

> <Gold.Chemscore.DEClash.Weighted>
0.5638

> <Gold.Chemscore.DEInternal.Weighted>
0.0912

> <Gold.Chemscore.Rot.Weighted>
5.9256

> <Gold.Chemscore.Internal.Correction.Weighted>
   9.000000E+99

> <Gold.Protein.RotatedTorsions>
[ 6907 6896 6895 6894 ] final  151.98 input  -60.11 | X-H torsion
[ 7974 7965 7964 7962 ] final   44.65 input  175.53 | X-H torsion
[ 8008 7997 7996 7995 ] final   92.23 input   59.86 | X-H torsion
[ 10167 10162 10161 10158 ] final   -3.46 input  -65.29 | X-H torsion
[ 10718 10713 10712 10709 ] final   82.00 input   66.30 | X-H torsion
[ 10763 10752 10751 10750 ] final   52.66 input  -60.55 | X-H torsion
[ 11005 11000 10999 10996 ] final   84.76 input  -57.11 | X-H torsion

> <Gold.Protein.ActiveResidues>
 VAL166  LYS551  ARG553  GLY616  TRP617  ASP618  TYR619  PRO620  LYS621  CYS622 
 ASP623  PHE694  ASN695  SER759  ASP760  ASP761  ALA762  ILE779  LEU786  VAL792 
 PHE793  MET794  SER795  GLU796  ALA797  LYS798  CYS799  TRP800  GLU811  SER814 

> <Gold.Protein.RotatedAtoms>
  152.0930  133.4210  159.4552 H   0  0  0  0  0  0  0  0  0  0  0  0  # atno 6907 bound_to 6896
  150.6863  134.2849  159.4652 H   0  0  0  0  0  0  0  0  0  0  0  0  # atno 6908 bound_to 6896
  152.0702  134.9538  160.0625 H   0  0  0  0  0  0  0  0  0  0  0  0  # atno 6909 bound_to 6896
  146.0550  139.5051  142.9694 H   0  0  0  0  0  0  0  0  0  0  0  0  # atno 7974 bound_to 7965
  156.0330  140.3328  155.7160 H   0  0  0  0  0  0  0  0  0  0  0  0  # atno 8008 bound_to 7997
  155.5857  140.0641  157.2789 H   0  0  0  0  0  0  0  0  0  0  0  0  # atno 8009 bound_to 7997
  154.4361  140.1836  156.1010 H   0  0  0  0  0  0  0  0  0  0  0  0  # atno 8010 bound_to 7997
  140.6891  143.6538  150.8327 H   0  0  0  0  0  0  0  0  0  0  0  0  # atno 10167 bound_to 10162
  157.6847  131.0028  150.2309 H   0  0  0  0  0  0  0  0  0  0  0  0  # atno 10718 bound_to 10713
  152.9790  135.5805  154.4615 H   0  0  0  0  0  0  0  0  0  0  0  0  # atno 10763 bound_to 10752
  154.4191  135.2771  155.1989 H   0  0  0  0  0  0  0  0  0  0  0  0  # atno 10764 bound_to 10752
  154.3746  135.6160  153.5812 H   0  0  0  0  0  0  0  0  0  0  0  0  # atno 10765 bound_to 10752
  139.8991  134.8239  156.2489 H   0  0  0  0  0  0  0  0  0  0  0  0  # atno 11005 bound_to 11000
  145.6659  141.0229  143.1684 LP  0  0  0  0  0  0  0  0  0  0  0  0  # atno 17320 bound_to 7965
  144.7143  139.8254  143.7404 LP  0  0  0  0  0  0  0  0  0  0  0  0  # atno 17321 bound_to 7965
  140.0248  143.5504  152.2785 LP  0  0  0  0  0  0  0  0  0  0  0  0  # atno 17342 bound_to 10162
  139.6276  144.7639  151.2605 LP  0  0  0  0  0  0  0  0  0  0  0  0  # atno 17343 bound_to 10162
  156.2942  130.3750  149.7812 LP  0  0  0  0  0  0  0  0  0  0  0  0  # atno 17370 bound_to 10713
  156.5462  130.8321  151.3285 LP  0  0  0  0  0  0  0  0  0  0  0  0  # atno 17371 bound_to 10713
  141.0237  133.7027  156.1311 LP  0  0  0  0  0  0  0  0  0  0  0  0  # atno 17394 bound_to 11000
  140.7197  134.4371  157.5576 LP  0  0  0  0  0  0  0  0  0  0  0  0  # atno 17395 bound_to 11000

$$$$
