AV-unprocessed.smi:40|AV-procd|sdf|379|dock6
  -GOLD-   2262016233D 1   1.00000     0.00000
 Structure written by MMmdl.
 47 48  0  0  0  0  0  0  0  0  1 V2000
  152.6586  143.8873  160.2625 C   0  0  0  0  0  0  0  0  0  0  0  0
  152.3424  144.4662  158.8790 C   0  0  0  0  0  0  0  0  0  0  0  0
  152.4359  143.4126  157.7667 C   0  0  0  0  0  0  0  0  0  0  0  0
  151.1663  142.5515  157.6546 C   0  0  0  0  0  0  0  0  0  0  0  0
  151.1320  141.6896  156.3843 C   0  0  0  0  0  0  0  0  0  0  0  0
  149.7963  141.2790  156.1481 O   0  0  0  0  0  0  0  0  0  0  0  0
  149.5010  140.3892  155.1874 C   0  0  0  0  0  0  0  0  0  0  0  0
  150.3321  139.9183  154.4112 O   0  0  0  0  0  0  0  0  0  0  0  0
  148.0825  140.0543  155.1738 N   0  0  0  0  0  0  0  0  0  0  0  0
  147.3832  139.2085  154.3720 C   0  0  0  0  0  0  0  0  0  0  0  0
  147.4353  139.2410  153.0497 N   0  0  0  0  0  0  0  0  0  0  0  0
  146.7511  138.3904  152.2259 C   0  0  0  0  0  0  0  0  0  0  0  0
  146.8805  138.4679  151.0066 O   0  0  0  0  0  0  0  0  0  0  0  0
  145.9110  137.4292  152.8391 N   0  0  0  0  0  0  0  0  0  0  0  0
  145.1546  136.4117  152.0087 C   0  0  2  0  0  0  0  0  0  0  0  0
  143.8141  136.4231  152.3904 O   0  0  0  0  0  0  0  0  0  0  0  0
  143.2789  135.1188  152.2088 C   0  0  2  0  0  0  0  0  0  0  0  0
  141.9752  134.9391  153.0007 C   0  0  0  0  0  0  0  0  0  0  0  0
  144.4359  134.1717  152.5664 C   0  0  2  0  0  0  0  0  0  0  0  0
  144.4569  133.8723  153.9508 O   0  0  0  0  0  0  0  0  0  0  0  0
  145.6662  134.9538  152.1027 C   0  0  2  0  0  0  0  0  0  0  0  0
  146.8257  134.7445  152.8916 O   0  0  0  0  0  0  0  0  0  0  0  0
  145.8506  137.3653  154.2226 C   0  0  0  0  0  0  0  0  0  0  0  0
  146.5449  138.2155  155.0101 C   0  0  0  0  0  0  0  0  0  0  0  0
  146.4599  138.1328  156.3494 F   0  0  0  0  0  0  0  0  0  0  0  0
  145.2090  136.7789  150.9830 H   0  0  0  0  0  0  0  0  0  0  0  0
  143.0615  135.0075  151.1450 H   0  0  0  0  0  0  0  0  0  0  0  0
  144.3490  133.2251  152.0321 H   0  0  0  0  0  0  0  0  0  0  0  0
  145.9096  134.6474  151.0846 H   0  0  0  0  0  0  0  0  0  0  0  0
  152.5853  144.6563  161.0315 H   0  0  0  0  0  0  0  0  0  0  0  0
  153.6697  143.4796  160.2960 H   0  0  0  0  0  0  0  0  0  0  0  0
  151.9649  143.0876  160.5233 H   0  0  0  0  0  0  0  0  0  0  0  0
  151.3435  144.9034  158.8879 H   0  0  0  0  0  0  0  0  0  0  0  0
  153.0357  145.2816  158.6690 H   0  0  0  0  0  0  0  0  0  0  0  0
  152.6194  143.9198  156.8190 H   0  0  0  0  0  0  0  0  0  0  0  0
  153.2988  142.7693  157.9424 H   0  0  0  0  0  0  0  0  0  0  0  0
  151.0938  141.9010  158.5266 H   0  0  0  0  0  0  0  0  0  0  0  0
  150.2844  143.1930  157.6762 H   0  0  0  0  0  0  0  0  0  0  0  0
  151.5047  142.2524  155.5275 H   0  0  0  0  0  0  0  0  0  0  0  0
  151.7738  140.8168  156.5118 H   0  0  0  0  0  0  0  0  0  0  0  0
  147.5525  140.5149  155.8995 H   0  0  0  0  0  0  0  0  0  0  0  0
  141.5871  133.9261  152.8923 H   0  0  0  0  0  0  0  0  0  0  0  0
  141.2096  135.6291  152.6454 H   0  0  0  0  0  0  0  0  0  0  0  0
  142.1211  135.1335  154.0636 H   0  0  0  0  0  0  0  0  0  0  0  0
  143.9189  133.1097  154.0991 H   0  0  0  0  0  0  0  0  0  0  0  0
  147.5828  134.9934  152.3841 H   0  0  0  0  0  0  0  0  0  0  0  0
  145.2296  136.6214  154.7007 H   0  0  0  0  0  0  0  0  0  0  0  0
  1  2  1  0  0  0  0
  1 30  1  0  0  0  0
  1 31  1  0  0  0  0
  1 32  1  0  0  0  0
  2  3  1  0  0  0  0
  2 33  1  0  0  0  0
  2 34  1  0  0  0  0
  3  4  1  0  0  0  0
  3 35  1  0  0  0  0
  3 36  1  0  0  0  0
  4  5  1  0  0  0  0
  4 37  1  0  0  0  0
  4 38  1  0  0  0  0
  5  6  1  0  0  0  0
  5 39  1  0  0  0  0
  5 40  1  0  0  0  0
  6  7  1  0  0  0  0
  7  8  2  0  0  0  0
  7  9  1  0  0  0  0
  9 10  1  0  0  0  0
  9 41  1  0  0  0  0
 10 24  1  0  0  0  0
 10 11  2  0  0  0  0
 11 12  1  0  0  0  0
 12 13  2  0  0  0  0
 12 14  1  0  0  0  0
 14 15  1  0  0  0  0
 14 23  1  0  0  0  0
 15 26  1  0  0  0  0
 15 21  1  0  0  0  0
 15 16  1  0  0  0  0
 16 17  1  0  0  0  0
 17 27  1  0  0  0  0
 17 18  1  0  0  0  0
 17 19  1  0  0  0  0
 18 42  1  0  0  0  0
 18 43  1  0  0  0  0
 18 44  1  0  0  0  0
 19 28  1  0  0  0  0
 19 20  1  0  0  0  0
 19 21  1  0  0  0  0
 20 45  1  0  0  0  0
 21 29  1  0  0  0  0
 21 22  1  0  0  0  0
 22 46  1  0  0  0  0
 23 24  2  0  0  0  0
 23 47  1  0  0  0  0
 24 25  1  0  0  0  0
M  END
> <s_m_source_file>
AV-unprocessed.smi

> <i_m_source_file_index>
40

> <i_lp_mmshare_version>
43012

> <i_f3d_flags>
0

> <s_epik_input>
W0NIM11bQ0gyXVtDSDJdW0NIMl1bQ0gyXU9DKD1PKVtOSF1jMW5jKD1PKW4oW2NIXWMxRilbQ0BASF0yT1tDQEhdKFtDSDNdKVtDQEBIXShbT0hdKVtDQEhdMltPSF0=

> <s_epik_cmdline>
J2VwaWtfcHl0aG9uJywgJy1waCcsICc3LjAnLCAnLXRuJywgJzgnLCAnLW1hJywgJzIwMCcsICctbWV0YWxfYmluZGluZycsICctaW1hZScsICc8aW5maWxlLm1hZT4nLCAnLW9tYWUnLCAnPG91dGZpbGUubWFlPic=

> <r_lp_tautomer_probability>
1

> <r_epik_Ionization_Penalty>
2.29506e-06

> <r_epik_Ionization_Penalty_Charging>
8.26867e-09

> <r_epik_Ionization_Penalty_Neutral>
2.2868e-06

> <r_epik_State_Penalty>
-0

> <r_epik_Charging_Adjusted_Penalty>
8.26867e-09

> <i_epik_Tot_Q>
0

> <i_epik_Tot_abs_Q>
0

> <r_epik_Metal_State_Penalty>
-0

> <b_epik_Metal_Only>
0

> <s_epik_Chemistry_Notes>
This compound has an ester and may undergo hydrolysis at high or low pH. This compound contains an acetal/aminal-like group ( X-CH(R)-Y where X, Y are N, S, or O) that may be acid/base labile, releasing an aldehyde.

> <s_lp_Force_Field>
OPLS_2005

> <r_lp_Energy>
38.6632

> <b_lp_Chiralities_Consistent>
1

> <s_lp_Variant>
AV-unprocessed.smi:40-13

> <Gold.Version>
5.8.1

> <Gold.Id.Protein>
6NUR|6NUR_protein|mol2

> <Gold.PLP.Fitness>
50.4454

> <Gold.PLP.PLP>
-40.0490

> <Gold.PLP.part.hbond>
-4.0000

> <Gold.PLP.part.metal>
0.0000

> <Gold.PLP.part.buried>
-8.8942

> <Gold.PLP.part.nonpolar>
-30.3856

> <Gold.PLP.part.repulsive>
1.6079

> <Gold.PLP.ligand.clash>
0.0000

> <Gold.PLP.ligand.torsion>
0.8546

> <Gold.PLP.Chemscore.Hbond>
4.0000

> <Gold.PLP.Chemscore.CHOScore>
0.0000

> <Gold.PLP.Chemscore.Metal>
0.0000

> <Gold.Chemscore.Hbonds>
donor molecule, donor type, donor heavy atom, donor atom, acceptor molecule, acceptor atom, score
      L1  H    20    45       P1 10957  1.00
      L1  H    22    46       P1  7948  1.00
      P1  H  7954  7966       L1    13  1.00
      P1  H  7989  7998       L1     8  1.00

> <Gold.PLP.Chemscore.Internal.Correction>
0.1056

> <Gold.Rescore>
     Score         DG    S(hbond)    S(metal)    S(lipo)     H(rot)  DE(clash)    DE(int)     intcor
     16.66     -17.73       3.93        0.00      73.31       3.70       0.18       0.89       ----

> <Gold.Chemscore.Fitness>
16.6581

> <Gold.Chemscore.DG>
-17.7260

> <Gold.Chemscore.ZeroCoef>
-5.4800

> <Gold.Chemscore.Hbond>
3.9310

> <Gold.Chemscore.Metal>
0.0000

> <Gold.Chemscore.Lipo>
73.3123

> <Gold.Chemscore.Internal_Hbond>
0.0000

> <Gold.Chemscore.DEClash>
0.1774

> <Gold.Chemscore.DEInternal>
0.8905

> <Gold.Chemscore.Rot>
3.6957

> <Gold.Chemscore.Internal.Correction>
   9.000000E+99

> <Gold.Chemscore.Hbonds>
donor molecule, donor type, donor heavy atom, donor atom, acceptor molecule, acceptor atom, score
      L1  H    20    45       P1 10957  0.98
      L1  H    22    46       P1  7948  0.94
      P1  H  7954  7966       L1    13  0.97
      P1  H  7989  7998       L1     8  0.99

> <Gold.Chemscore.Hbond.Weighted>
-13.1294

> <Gold.Chemscore.Metal.Weighted>
-0.0000

> <Gold.Chemscore.Lipo.Weighted>
-8.5775

> <Gold.Chemscore.Internal_Hbond.Weighted>
0.0000

> <Gold.Chemscore.DEClash.Weighted>
0.1774

> <Gold.Chemscore.DEInternal.Weighted>
0.8905

> <Gold.Chemscore.Rot.Weighted>
9.4610

> <Gold.Chemscore.Internal.Correction.Weighted>
   9.000000E+99

> <Gold.Protein.RotatedTorsions>
[ 6907 6896 6895 6894 ] final  -61.48 input  -60.11 | X-H torsion
[ 7974 7965 7964 7962 ] final   -1.89 input  175.53 | X-H torsion
[ 8008 7997 7996 7995 ] final  -63.76 input   59.86 | X-H torsion
[ 10167 10162 10161 10158 ] final  177.44 input  -65.29 | X-H torsion
[ 10718 10713 10712 10709 ] final -150.87 input   66.30 | X-H torsion
[ 10763 10752 10751 10750 ] final  124.04 input  -60.55 | X-H torsion
[ 11005 11000 10999 10996 ] final   87.88 input  -57.11 | X-H torsion

> <Gold.Protein.ActiveResidues>
 VAL166  LYS551  ARG553  GLY616  TRP617  ASP618  TYR619  PRO620  LYS621  CYS622 
 ASP623  PHE694  ASN695  SER759  ASP760  ASP761  ALA762  ILE779  LEU786  VAL792 
 PHE793  MET794  SER795  GLU796  ALA797  LYS798  CYS799  TRP800  GLU811  SER814 

> <Gold.Protein.RotatedAtoms>
  150.7782  134.6699  159.6385 H   0  0  0  0  0  0  0  0  0  0  0  0  # atno 6907 bound_to 6896
  152.3858  134.6516  160.0135 H   0  0  0  0  0  0  0  0  0  0  0  0  # atno 6908 bound_to 6896
  151.6831  133.3275  159.3260 H   0  0  0  0  0  0  0  0  0  0  0  0  # atno 6909 bound_to 6896
  146.2411  140.1488  142.8334 H   0  0  0  0  0  0  0  0  0  0  0  0  # atno 7974 bound_to 7965
  154.4573  140.0968  156.6793 H   0  0  0  0  0  0  0  0  0  0  0  0  # atno 8008 bound_to 7997
  155.5101  140.3476  155.4368 H   0  0  0  0  0  0  0  0  0  0  0  0  # atno 8009 bound_to 7997
  156.0802  140.1371  156.9711 H   0  0  0  0  0  0  0  0  0  0  0  0  # atno 8010 bound_to 7997
  139.5253  144.2798  152.0557 H   0  0  0  0  0  0  0  0  0  0  0  0  # atno 10167 bound_to 10162
  156.4518  130.8171  151.2402 H   0  0  0  0  0  0  0  0  0  0  0  0  # atno 10718 bound_to 10713
  153.6550  135.3356  155.3111 H   0  0  0  0  0  0  0  0  0  0  0  0  # atno 10763 bound_to 10752
  154.8528  135.4350  154.1864 H   0  0  0  0  0  0  0  0  0  0  0  0  # atno 10764 bound_to 10752
  153.2816  135.7009  153.7455 H   0  0  0  0  0  0  0  0  0  0  0  0  # atno 10765 bound_to 10752
  139.8909  134.8451  156.2922 H   0  0  0  0  0  0  0  0  0  0  0  0  # atno 11005 bound_to 11000
  145.0185  140.8774  143.5181 LP  0  0  0  0  0  0  0  0  0  0  0  0  # atno 17320 bound_to 7965
  145.1533  139.2501  143.5429 LP  0  0  0  0  0  0  0  0  0  0  0  0  # atno 17321 bound_to 7965
  140.2253  144.4424  150.6323 LP  0  0  0  0  0  0  0  0  0  0  0  0  # atno 17342 bound_to 10162
  140.6391  143.2200  151.6329 LP  0  0  0  0  0  0  0  0  0  0  0  0  # atno 17343 bound_to 10162
  157.7502  131.0135  150.3427 LP  0  0  0  0  0  0  0  0  0  0  0  0  # atno 17370 bound_to 10713
  156.3808  130.3880  149.7103 LP  0  0  0  0  0  0  0  0  0  0  0  0  # atno 17371 bound_to 10713
  140.9968  133.7175  156.0899 LP  0  0  0  0  0  0  0  0  0  0  0  0  # atno 17394 bound_to 11000
  140.7551  134.4001  157.5535 LP  0  0  0  0  0  0  0  0  0  0  0  0  # atno 17395 bound_to 11000

$$$$
