AV-unprocessed.smi:2124|AV-procd|sdf|8666|dock10
  -GOLD-   2272011413D 1   1.00000     0.00000
 Structure written by MMmdl.
 46 48  0  0  0  0  0  0  0  0  2 V2000
  148.1472  134.3657  155.6186 C   0  0  0  0  0  0  0  0  0  0  0  0
  149.1377  135.5099  155.5861 C   0  0  0  0  0  0  0  0  0  0  0  0
  148.7912  136.6217  155.0588 N   0  0  0  0  0  0  0  0  0  0  0  0
  149.7041  137.6897  155.0340 C   0  0  0  0  0  0  0  0  0  0  0  0
  149.2015  138.9730  154.3965 C   0  0  0  0  0  0  0  0  0  0  0  0
  150.9564  137.5609  155.5594 C   0  0  0  0  0  0  0  0  0  0  0  0
  151.9818  138.6941  155.5660 C   0  0  0  0  0  0  0  0  0  0  0  0
  151.4664  140.0430  156.0711 C   0  0  0  0  0  0  0  0  0  0  0  0
  151.3113  140.9777  155.2855 O   0  0  0  0  0  0  0  0  0  0  0  0
  151.2063  140.1302  157.3851 N   0  0  0  0  0  0  0  0  0  0  0  0
  150.7038  141.3145  158.0780 C   0  0  2  0  0  0  0  0  0  0  0  0
  149.3504  141.7293  157.4752 C   0  0  0  0  0  0  0  0  0  0  0  0
  151.7585  142.4422  157.9889 C   0  0  2  0  0  0  0  0  0  0  0  0
  152.7881  142.4607  159.1425 C   0  0  0  0  0  0  0  0  0  0  0  0
  152.7795  143.9336  159.5920 C   0  0  2  0  0  0  0  0  0  0  0  0
  151.4839  144.2095  160.3762 C   0  0  0  0  0  0  0  0  0  0  0  0
  150.4139  144.2107  159.2694 C   0  0  0  0  0  0  0  0  0  0  0  0
  151.2333  143.8997  157.9993 C   0  0  1  0  0  0  0  0  0  0  0  0
  152.5188  144.6704  158.2833 C   0  0  0  0  0  0  0  0  0  0  0  0
  151.3185  136.2602  156.1516 C   0  0  0  0  0  0  0  0  0  0  0  0
  152.4383  136.0850  156.6304 O   0  0  0  0  0  0  0  0  0  0  0  0
  150.3747  135.2759  156.1429 N   0  5  0  0  0  0  0  0  0  0  0  0
  147.2527  134.6033  155.0410 H   0  0  0  0  0  0  0  0  0  0  0  0
  147.8465  134.1582  156.6457 H   0  0  0  0  0  0  0  0  0  0  0  0
  148.5939  133.4637  155.1992 H   0  0  0  0  0  0  0  0  0  0  0  0
  149.2142  139.7910  155.1168 H   0  0  0  0  0  0  0  0  0  0  0  0
  148.1780  138.8605  154.0373 H   0  0  0  0  0  0  0  0  0  0  0  0
  149.8243  139.2470  153.5459 H   0  0  0  0  0  0  0  0  0  0  0  0
  152.8340  138.3849  156.1721 H   0  0  0  0  0  0  0  0  0  0  0  0
  152.4003  138.8420  154.5700 H   0  0  0  0  0  0  0  0  0  0  0  0
  151.3616  139.3074  157.9491 H   0  0  0  0  0  0  0  0  0  0  0  0
  150.5526  141.0553  159.1265 H   0  0  0  0  0  0  0  0  0  0  0  0
  148.9240  142.5810  158.0050 H   0  0  0  0  0  0  0  0  0  0  0  0
  148.6255  140.9172  157.5365 H   0  0  0  0  0  0  0  0  0  0  0  0
  149.4515  142.0063  156.4253 H   0  0  0  0  0  0  0  0  0  0  0  0
  152.3064  142.3047  157.0546 H   0  0  0  0  0  0  0  0  0  0  0  0
  152.5228  141.7914  159.9620 H   0  0  0  0  0  0  0  0  0  0  0  0
  153.7733  142.1641  158.7803 H   0  0  0  0  0  0  0  0  0  0  0  0
  153.6835  144.2353  160.1218 H   0  0  0  0  0  0  0  0  0  0  0  0
  151.2927  143.4542  161.1392 H   0  0  0  0  0  0  0  0  0  0  0  0
  151.5253  145.1809  160.8705 H   0  0  0  0  0  0  0  0  0  0  0  0
  149.6107  143.4989  159.4554 H   0  0  0  0  0  0  0  0  0  0  0  0
  149.9562  145.1978  159.1917 H   0  0  0  0  0  0  0  0  0  0  0  0
  150.7321  144.1900  157.0756 H   0  0  0  0  0  0  0  0  0  0  0  0
  152.3623  145.7427  158.4134 H   0  0  0  0  0  0  0  0  0  0  0  0
  153.2968  144.5112  157.5347 H   0  0  0  0  0  0  0  0  0  0  0  0
  1  2  1  0  0  0  0
  1 23  1  0  0  0  0
  1 24  1  0  0  0  0
  1 25  1  0  0  0  0
  2 22  1  0  0  0  0
  2  3  2  0  0  0  0
  3  4  1  0  0  0  0
  4  5  1  0  0  0  0
  4  6  2  0  0  0  0
  5 26  1  0  0  0  0
  5 27  1  0  0  0  0
  5 28  1  0  0  0  0
  6  7  1  0  0  0  0
  6 20  1  0  0  0  0
  7  8  1  0  0  0  0
  7 29  1  0  0  0  0
  7 30  1  0  0  0  0
  8  9  2  0  0  0  0
  8 10  1  0  0  0  0
 10 11  1  0  0  0  0
 10 31  1  0  0  0  0
 11 12  1  0  0  0  0
 11 13  1  0  0  0  0
 11 32  1  0  0  0  0
 12 33  1  0  0  0  0
 12 34  1  0  0  0  0
 12 35  1  0  0  0  0
 13 18  1  0  0  0  0
 13 14  1  0  0  0  0
 13 36  1  0  0  0  0
 14 15  1  0  0  0  0
 14 37  1  0  0  0  0
 14 38  1  0  0  0  0
 15 19  1  0  0  0  0
 15 16  1  0  0  0  0
 15 39  1  0  0  0  0
 16 17  1  0  0  0  0
 16 40  1  0  0  0  0
 16 41  1  0  0  0  0
 17 18  1  0  0  0  0
 17 42  1  0  0  0  0
 17 43  1  0  0  0  0
 18 19  1  0  0  0  0
 18 44  1  0  0  0  0
 19 45  1  0  0  0  0
 19 46  1  0  0  0  0
 20 21  2  0  0  0  0
 20 22  1  0  0  0  0
M  CHG  1  22  -1
M  END
> <s_m_source_file>
AV-unprocessed.smi

> <i_m_source_file_index>
2124

> <i_lp_mmshare_version>
43012

> <i_f3d_flags>
0

> <s_epik_input>
W0NIM11jMW5jKFtDSDNdKWMoYyg9TylbbkhdMSlbQ0gyXUMoPU8pW05IXVtDQEhdKFtDSDNdKVtDQEhdKFtDSDJdW0NASF0yMylbQ0BIXShbQ0gyXTMpW0NIMl1bQ0gyXTI=

> <s_epik_cmdline>
J2VwaWtfcHl0aG9uJywgJy1waCcsICc3LjAnLCAnLXRuJywgJzgnLCAnLW1hJywgJzIwMCcsICctbWV0YWxfYmluZGluZycsICctaW1hZScsICc8aW5maWxlLm1hZT4nLCAnLW9tYWUnLCAnPG91dGZpbGUubWFlPic=

> <r_lp_tautomer_probability>
0.839158

> <r_epik_Ionization_Penalty>
6.63797

> <r_epik_Ionization_Penalty_Charging>
7.48558e-08

> <r_epik_Ionization_Penalty_Neutral>
6.63797

> <r_epik_State_Penalty>
4.49496

> <r_epik_Charging_Adjusted_Penalty>
4.49496

> <i_epik_Tot_Q>
-1

> <i_epik_Tot_abs_Q>
1

> <r_epik_Metal_State_Penalty>
0.841241

> <b_epik_Metal_Only>
1

> <s_lp_Force_Field>
OPLS_2005

> <r_lp_Energy>
56.0848

> <b_lp_Chiralities_Consistent>
1

> <s_lp_Variant>
AV-unprocessed.smi:2124-17

> <Gold.Version>
5.8.1

> <Gold.Id.Protein>
6NUR|6NUR_protein|mol2

> <Gold.PLP.Fitness>
41.2166

> <Gold.PLP.PLP>
-38.2820

> <Gold.PLP.part.hbond>
-2.0000

> <Gold.PLP.part.metal>
0.0000

> <Gold.PLP.part.buried>
-4.0185

> <Gold.PLP.part.nonpolar>
-33.1921

> <Gold.PLP.part.repulsive>
0.2636

> <Gold.PLP.ligand.clash>
0.0000

> <Gold.PLP.ligand.torsion>
1.0000

> <Gold.PLP.Chemscore.Hbond>
1.6400

> <Gold.PLP.Chemscore.CHOScore>
0.0000

> <Gold.PLP.Chemscore.Metal>
0.0000

> <Gold.Chemscore.Hbonds>
donor molecule, donor type, donor heavy atom, donor atom, acceptor molecule, acceptor atom, score
      P1  H  7989  7998       L1     9  0.64
      P1  H 10752 10763       L1    21  1.00

> <Gold.PLP.Chemscore.Internal.Correction>
0.0146

> <Gold.Rescore>
     Score         DG    S(hbond)    S(metal)    S(lipo)     H(rot)  DE(clash)    DE(int)     intcor
     17.14     -19.78       1.76        0.00     107.09       1.61       0.04       2.60       ----

> <Gold.Chemscore.Fitness>
17.1399

> <Gold.Chemscore.DG>
-19.7796

> <Gold.Chemscore.ZeroCoef>
-5.4800

> <Gold.Chemscore.Hbond>
1.7600

> <Gold.Chemscore.Metal>
0.0000

> <Gold.Chemscore.Lipo>
107.0950

> <Gold.Chemscore.Internal_Hbond>
0.0000

> <Gold.Chemscore.DEClash>
0.0436

> <Gold.Chemscore.DEInternal>
2.5961

> <Gold.Chemscore.Rot>
1.6051

> <Gold.Chemscore.Internal.Correction>
   9.000000E+99

> <Gold.Chemscore.Hbonds>
donor molecule, donor type, donor heavy atom, donor atom, acceptor molecule, acceptor atom, score
      P1  H  7989  7998       L1     9  0.64
      P1  H 10752 10763       L1    21  0.30

> <Gold.Chemscore.Hbond.Weighted>
-5.8785

> <Gold.Chemscore.Metal.Weighted>
-0.0000

> <Gold.Chemscore.Lipo.Weighted>
-12.5301

> <Gold.Chemscore.Internal_Hbond.Weighted>
0.0000

> <Gold.Chemscore.DEClash.Weighted>
0.0436

> <Gold.Chemscore.DEInternal.Weighted>
2.5961

> <Gold.Chemscore.Rot.Weighted>
4.1090

> <Gold.Chemscore.Internal.Correction.Weighted>
   9.000000E+99

> <Gold.Protein.RotatedTorsions>
[ 6907 6896 6895 6894 ] final  -30.72 input  -60.11 | X-H torsion
[ 7974 7965 7964 7962 ] final  159.42 input  175.53 | X-H torsion
[ 8008 7997 7996 7995 ] final  -20.81 input   59.86 | X-H torsion
[ 10167 10162 10161 10158 ] final  -43.01 input  -65.29 | X-H torsion
[ 10718 10713 10712 10709 ] final -112.86 input   66.30 | X-H torsion
[ 10763 10752 10751 10750 ] final  102.80 input  -60.55 | X-H torsion
[ 11005 11000 10999 10996 ] final    1.18 input  -57.11 | X-H torsion

> <Gold.Protein.ActiveResidues>
 VAL166  LYS551  ARG553  GLY616  TRP617  ASP618  TYR619  PRO620  LYS621  CYS622 
 ASP623  PHE694  ASN695  SER759  ASP760  ASP761  ALA762  ILE779  LEU786  VAL792 
 PHE793  MET794  SER795  GLU796  ALA797  LYS798  CYS799  TRP800  GLU811  SER814 

> <Gold.Protein.RotatedAtoms>
  151.1018  134.9976  159.8451 H   0  0  0  0  0  0  0  0  0  0  0  0  # atno 6907 bound_to 6896
  152.5437  134.1941  159.8696 H   0  0  0  0  0  0  0  0  0  0  0  0  # atno 6908 bound_to 6896
  151.1985  133.4581  159.2629 H   0  0  0  0  0  0  0  0  0  0  0  0  # atno 6909 bound_to 6896
  144.7791  139.7614  143.6267 H   0  0  0  0  0  0  0  0  0  0  0  0  # atno 7974 bound_to 7965
  154.4745  140.2051  155.9911 H   0  0  0  0  0  0  0  0  0  0  0  0  # atno 8008 bound_to 7997
  156.1067  140.3235  155.7986 H   0  0  0  0  0  0  0  0  0  0  0  0  # atno 8009 bound_to 7997
  155.4706  140.0531  157.2971 H   0  0  0  0  0  0  0  0  0  0  0  0  # atno 8010 bound_to 7997
  140.6949  143.3006  151.3291 H   0  0  0  0  0  0  0  0  0  0  0  0  # atno 10167 bound_to 10162
  156.0731  130.5942  150.8565 H   0  0  0  0  0  0  0  0  0  0  0  0  # atno 10718 bound_to 10713
  153.3444  135.3998  155.1597 H   0  0  0  0  0  0  0  0  0  0  0  0  # atno 10763 bound_to 10752
  154.8650  135.3641  154.5304 H   0  0  0  0  0  0  0  0  0  0  0  0  # atno 10764 bound_to 10752
  153.5751  135.7078  153.5547 H   0  0  0  0  0  0  0  0  0  0  0  0  # atno 10765 bound_to 10752
  140.6183  133.9685  155.8212 H   0  0  0  0  0  0  0  0  0  0  0  0  # atno 11005 bound_to 11000
  146.1989  139.5272  142.9756 LP  0  0  0  0  0  0  0  0  0  0  0  0  # atno 17320 bound_to 7965
  145.6100  141.0341  143.1972 LP  0  0  0  0  0  0  0  0  0  0  0  0  # atno 17321 bound_to 7965
  139.6392  144.0571  152.2541 LP  0  0  0  0  0  0  0  0  0  0  0  0  # atno 17342 bound_to 10162
  140.0071  144.6251  150.7679 LP  0  0  0  0  0  0  0  0  0  0  0  0  # atno 17343 bound_to 10162
  157.5813  131.0946  150.9266 LP  0  0  0  0  0  0  0  0  0  0  0  0  # atno 17370 bound_to 10713
  156.9462  130.5402  149.5281 LP  0  0  0  0  0  0  0  0  0  0  0  0  # atno 17371 bound_to 10713
  141.0760  134.0134  157.3456 LP  0  0  0  0  0  0  0  0  0  0  0  0  # atno 17394 bound_to 11000
  139.9164  135.0197  156.7896 LP  0  0  0  0  0  0  0  0  0  0  0  0  # atno 17395 bound_to 11000

$$$$
