AV-unprocessed.smi:1653|AV-procd|sdf|6641|dock7
  -GOLD-   22720 7343D 1   1.00000     0.00000
 Structure written by MMmdl.
 41 42  0  0  0  0  0  0  0  0  3 V2000
  146.0631  141.3877  158.9697 N   0  0  0  0  0  0  0  0  0  0  0  0
  146.6579  141.3743  157.9771 C   0  0  0  0  0  0  0  0  0  0  0  0
  147.4179  141.3566  156.7116 C   0  0  0  0  0  0  0  0  0  0  0  0
  148.6938  142.0612  156.8834 N   0  0  0  0  0  0  0  0  0  0  0  0
  149.6690  141.7744  157.7611 C   0  0  0  0  0  0  0  0  0  0  0  0
  149.6170  140.8307  158.5500 O   0  0  0  0  0  0  0  0  0  0  0  0
  150.9015  142.6879  157.7158 C   0  0  0  0  0  0  0  0  0  0  0  0
  151.8896  142.3761  158.7626 N   0  0  0  0  0  0  0  0  0  0  0  0
  152.0013  143.2894  159.8275 C   0  0  0  0  0  0  0  0  0  0  0  0
  152.8730  143.1063  160.8294 C   0  0  0  0  0  0  0  0  0  0  0  0
  153.7085  141.9308  160.8012 C   0  0  0  0  0  0  0  0  0  0  0  0
  153.6206  141.0396  159.7870 C   0  0  0  0  0  0  0  0  0  0  0  0
  154.4818  139.8801  159.8238 N   0  3  0  0  0  0  0  0  0  0  0  0
  155.1137  139.6435  160.8488 O   0  0  0  0  0  0  0  0  0  0  0  0
  154.5622  139.1780  158.8204 O   0  5  0  0  0  0  0  0  0  0  0  0
  152.6673  141.2519  158.6781 C   0  0  0  0  0  0  0  0  0  0  0  0
  152.5695  140.4796  157.7224 O   0  0  0  0  0  0  0  0  0  0  0  0
  147.6345  139.8774  156.2863 C   0  0  0  0  0  0  0  0  0  0  0  0
  148.5811  139.6549  155.0878 C   0  0  0  0  0  0  0  0  0  0  0  0
  147.9278  139.7351  153.6972 C   0  0  0  0  0  0  0  0  0  0  0  0
  146.8590  140.8229  153.4967 C   0  0  0  0  0  0  0  0  0  0  0  0
  147.1160  142.1480  154.2311 C   0  0  0  0  0  0  0  0  0  0  0  0
  146.5807  142.1393  155.6762 C   0  0  0  0  0  0  0  0  0  0  0  0
  148.8420  142.8546  156.2770 H   0  0  0  0  0  0  0  0  0  0  0  0
  151.3497  142.6009  156.7250 H   0  0  0  0  0  0  0  0  0  0  0  0
  150.5896  143.7312  157.7958 H   0  0  0  0  0  0  0  0  0  0  0  0
  151.3457  144.1464  159.7714 H   0  0  0  0  0  0  0  0  0  0  0  0
  152.9492  143.8209  161.6356 H   0  0  0  0  0  0  0  0  0  0  0  0
  154.4032  141.7673  161.6124 H   0  0  0  0  0  0  0  0  0  0  0  0
  148.0518  139.3377  157.1372 H   0  0  0  0  0  0  0  0  0  0  0  0
  146.6749  139.3955  156.0949 H   0  0  0  0  0  0  0  0  0  0  0  0
  149.4248  140.3423  155.1303 H   0  0  0  0  0  0  0  0  0  0  0  0
  149.0291  138.6651  155.1808 H   0  0  0  0  0  0  0  0  0  0  0  0
  148.7202  139.8757  152.9612 H   0  0  0  0  0  0  0  0  0  0  0  0
  147.4780  138.7711  153.4574 H   0  0  0  0  0  0  0  0  0  0  0  0
  146.7793  141.0200  152.4270 H   0  0  0  0  0  0  0  0  0  0  0  0
  145.8832  140.4314  153.7867 H   0  0  0  0  0  0  0  0  0  0  0  0
  148.1698  142.4245  154.1904 H   0  0  0  0  0  0  0  0  0  0  0  0
  146.5853  142.9332  153.6916 H   0  0  0  0  0  0  0  0  0  0  0  0
  145.5575  141.7605  155.6740 H   0  0  0  0  0  0  0  0  0  0  0  0
  146.4968  143.1734  156.0146 H   0  0  0  0  0  0  0  0  0  0  0  0
  1  2  3  0  0  0  0
  2  3  1  0  0  0  0
  3 23  1  0  0  0  0
  3  4  1  0  0  0  0
  3 18  1  0  0  0  0
  4  5  1  0  0  0  0
  4 24  1  0  0  0  0
  5  6  2  0  0  0  0
  5  7  1  0  0  0  0
  7  8  1  0  0  0  0
  7 25  1  0  0  0  0
  7 26  1  0  0  0  0
  8 16  1  0  0  0  0
  8  9  1  0  0  0  0
  9 10  2  0  0  0  0
  9 27  1  0  0  0  0
 10 11  1  0  0  0  0
 10 28  1  0  0  0  0
 11 12  2  0  0  0  0
 11 29  1  0  0  0  0
 12 13  1  0  0  0  0
 12 16  1  0  0  0  0
 13 14  2  0  0  0  0
 13 15  1  0  0  0  0
 16 17  2  0  0  0  0
 18 19  1  0  0  0  0
 18 30  1  0  0  0  0
 18 31  1  0  0  0  0
 19 20  1  0  0  0  0
 19 32  1  0  0  0  0
 19 33  1  0  0  0  0
 20 21  1  0  0  0  0
 20 34  1  0  0  0  0
 20 35  1  0  0  0  0
 21 22  1  0  0  0  0
 21 36  1  0  0  0  0
 21 37  1  0  0  0  0
 22 23  1  0  0  0  0
 22 38  1  0  0  0  0
 22 39  1  0  0  0  0
 23 40  1  0  0  0  0
 23 41  1  0  0  0  0
M  CHG  1  13   1
M  CHG  1  15  -1
M  END
> <s_m_source_file>
AV-unprocessed.smi

> <i_m_source_file_index>
1653

> <i_lp_mmshare_version>
43012

> <i_f3d_flags>
0

> <s_epik_input>
W0NIMl0xW0NIMl1bQ0gyXVtDSDJdW0NIMl1bQ0gyXUMxKEMjTilbTkhdQyg9TylbQ0gyXW4yW2NIXVtjSF1bY0hdYyhbTitdKD1PKVtPLV0pYzI9Tw==

> <s_epik_cmdline>
J2VwaWtfcHl0aG9uJywgJy1waCcsICc3LjAnLCAnLXRuJywgJzgnLCAnLW1hJywgJzIwMCcsICctbWV0YWxfYmluZGluZycsICctaW1hZScsICc8aW5maWxlLm1hZT4nLCAnLW9tYWUnLCAnPG91dGZpbGUubWFlPic=

> <r_lp_tautomer_probability>
1

> <r_epik_Ionization_Penalty>
4.51252e-07

> <r_epik_Ionization_Penalty_Charging>
1.09758e-10

> <r_epik_Ionization_Penalty_Neutral>
4.51142e-07

> <r_epik_State_Penalty>
-0

> <r_epik_Charging_Adjusted_Penalty>
1.09758e-10

> <i_epik_Tot_Q>
0

> <i_epik_Tot_abs_Q>
2

> <r_epik_Metal_State_Penalty>
-0

> <b_epik_Metal_Only>
0

> <s_lp_Force_Field>
OPLS_2005

> <r_lp_Energy>
31.6459

> <b_lp_Chiralities_Consistent>
1

> <s_lp_Variant>
AV-unprocessed.smi:1653-1

> <Gold.Version>
5.8.1

> <Gold.Id.Protein>
6NUR|6NUR_protein|mol2

> <Gold.PLP.Fitness>
45.9448

> <Gold.PLP.PLP>
-37.9937

> <Gold.PLP.part.hbond>
-4.4649

> <Gold.PLP.part.metal>
0.0000

> <Gold.PLP.part.buried>
-3.4287

> <Gold.PLP.part.nonpolar>
-31.2320

> <Gold.PLP.part.repulsive>
0.0209

> <Gold.PLP.ligand.clash>
0.0000

> <Gold.PLP.ligand.torsion>
0.2315

> <Gold.PLP.Chemscore.Hbond>
2.7992

> <Gold.PLP.Chemscore.CHOScore>
0.0000

> <Gold.PLP.Chemscore.Metal>
0.0000

> <Gold.Chemscore.Hbonds>
donor molecule, donor type, donor heavy atom, donor atom, acceptor molecule, acceptor atom, score
      L1  H     4    24       P1  8028  1.00
      P1  H  6934  6946       L1     1  0.74
      P1  H  7997  8010       L1    15  1.00

> <Gold.PLP.Chemscore.Internal.Correction>
0.0164

> <Gold.Rescore>
     Score         DG    S(hbond)    S(metal)    S(lipo)     H(rot)  DE(clash)    DE(int)     intcor
     17.61     -19.51       2.67        0.00      79.47       1.63       0.07       1.84       ----

> <Gold.Chemscore.Fitness>
17.6061

> <Gold.Chemscore.DG>
-19.5147

> <Gold.Chemscore.ZeroCoef>
-5.4800

> <Gold.Chemscore.Hbond>
2.6664

> <Gold.Chemscore.Metal>
0.0000

> <Gold.Chemscore.Lipo>
79.4727

> <Gold.Chemscore.Internal_Hbond>
0.0000

> <Gold.Chemscore.DEClash>
0.0713

> <Gold.Chemscore.DEInternal>
1.8373

> <Gold.Chemscore.Rot>
1.6287

> <Gold.Chemscore.Internal.Correction>
   9.000000E+99

> <Gold.Chemscore.Hbonds>
donor molecule, donor type, donor heavy atom, donor atom, acceptor molecule, acceptor atom, score
      L1  H     4    24       P1  8028  0.98
      P1  H  6934  6946       L1     1  0.70
      P1  H  7997  8010       L1    15  0.96

> <Gold.Chemscore.Hbond.Weighted>
-8.9059

> <Gold.Chemscore.Metal.Weighted>
-0.0000

> <Gold.Chemscore.Lipo.Weighted>
-9.2983

> <Gold.Chemscore.Internal_Hbond.Weighted>
0.0000

> <Gold.Chemscore.DEClash.Weighted>
0.0713

> <Gold.Chemscore.DEInternal.Weighted>
1.8373

> <Gold.Chemscore.Rot.Weighted>
4.1694

> <Gold.Chemscore.Internal.Correction.Weighted>
   9.000000E+99

> <Gold.Protein.RotatedTorsions>
[ 6907 6896 6895 6894 ] final   33.60 input  -60.11 | X-H torsion
[ 7974 7965 7964 7962 ] final  -46.64 input  175.53 | X-H torsion
[ 8008 7997 7996 7995 ] final   16.47 input   59.86 | X-H torsion
[ 10167 10162 10161 10158 ] final   -7.81 input  -65.29 | X-H torsion
[ 10718 10713 10712 10709 ] final  -44.11 input   66.30 | X-H torsion
[ 10763 10752 10751 10750 ] final   98.08 input  -60.55 | X-H torsion
[ 11005 11000 10999 10996 ] final  139.31 input  -57.11 | X-H torsion

> <Gold.Protein.ActiveResidues>
 VAL166  LYS551  ARG553  GLY616  TRP617  ASP618  TYR619  PRO620  LYS621  CYS622 
 ASP623  PHE694  ASN695  SER759  ASP760  ASP761  ALA762  ILE779  LEU786  VAL792 
 PHE793  MET794  SER795  GLU796  ALA797  LYS798  CYS799  TRP800  GLU811  SER814 

> <Gold.Protein.RotatedAtoms>
  152.0908  134.9408  160.0571 H   0  0  0  0  0  0  0  0  0  0  0  0  # atno 6907 bound_to 6896
  152.0660  133.4079  159.4447 H   0  0  0  0  0  0  0  0  0  0  0  0  # atno 6908 bound_to 6896
  150.6837  134.3066  159.4772 H   0  0  0  0  0  0  0  0  0  0  0  0  # atno 6909 bound_to 6896
  145.9698  140.7394  142.9416 H   0  0  0  0  0  0  0  0  0  0  0  0  # atno 7974 bound_to 7965
  154.8774  140.2968  155.5445 H   0  0  0  0  0  0  0  0  0  0  0  0  # atno 8008 bound_to 7997
  156.3022  140.2449  156.3705 H   0  0  0  0  0  0  0  0  0  0  0  0  # atno 8009 bound_to 7997
  154.8753  140.0400  157.1739 H   0  0  0  0  0  0  0  0  0  0  0  0  # atno 8010 bound_to 7997
  140.7040  143.6039  150.8770 H   0  0  0  0  0  0  0  0  0  0  0  0  # atno 10167 bound_to 10162
  156.2420  130.4180  149.8750 H   0  0  0  0  0  0  0  0  0  0  0  0  # atno 10718 bound_to 10713
  153.2847  135.4161  155.1111 H   0  0  0  0  0  0  0  0  0  0  0  0  # atno 10763 bound_to 10752
  154.8501  135.3504  154.6064 H   0  0  0  0  0  0  0  0  0  0  0  0  # atno 10764 bound_to 10752
  153.6485  135.7054  153.5275 H   0  0  0  0  0  0  0  0  0  0  0  0  # atno 10765 bound_to 10752
  140.0246  134.9381  157.0542 H   0  0  0  0  0  0  0  0  0  0  0  0  # atno 11005 bound_to 11000
  144.6834  140.2730  143.7303 LP  0  0  0  0  0  0  0  0  0  0  0  0  # atno 17320 bound_to 7965
  145.7921  139.1931  143.2096 LP  0  0  0  0  0  0  0  0  0  0  0  0  # atno 17321 bound_to 7965
  139.9763  143.6001  152.2957 LP  0  0  0  0  0  0  0  0  0  0  0  0  # atno 17342 bound_to 10162
  139.6606  144.7662  151.1971 LP  0  0  0  0  0  0  0  0  0  0  0  0  # atno 17343 bound_to 10162
  156.6328  130.8673  151.3498 LP  0  0  0  0  0  0  0  0  0  0  0  0  # atno 17370 bound_to 10713
  157.7179  130.9520  150.1325 LP  0  0  0  0  0  0  0  0  0  0  0  0  # atno 17371 bound_to 10713
  140.4329  134.1762  155.7169 LP  0  0  0  0  0  0  0  0  0  0  0  0  # atno 17394 bound_to 11000
  141.1795  133.8445  157.1308 LP  0  0  0  0  0  0  0  0  0  0  0  0  # atno 17395 bound_to 11000

$$$$
