#       Name:                AV-unprocessed.smi:1955
#       Creating user name   scv26
#       Creation time:       Fri Mar 27 10:05:38 2020


#       File generated by GOLD software.
#

@<TRIPOS>MOLECULE
AV-unprocessed.smi:1955
    39    40     1
SMALL
NO_CHARGES


@<TRIPOS>ATOM
      1 ****         1.3409   0.9765  -0.4973 O.2            1 S1                 0.0000
      2 ****         1.0204  -0.1075  -0.0086 C.2            1 S1                 0.0000
      3 ****         1.8601  -1.1270   0.2434 N.am           1 S1                 0.0000
      4 ****         3.2609  -1.1877   0.0162 C.ar           1 S1                 0.0000
      5 ****         3.8731  -2.4090   0.3779 C.ar           1 S1                 0.0000
      6 ****         5.2599  -2.5706   0.1928 C.ar           1 S1                 0.0000
      7 ****         5.9999  -1.5050  -0.3500 C.ar           1 S1                 0.0000
      8 ****         5.3135  -0.3227  -0.6830 C.ar           1 S1                 0.0000
      9 ****         3.9846  -0.1658  -0.5062 N.ar           1 S1                 0.0000
     10 ****        -0.2376  -0.4170   0.3416 N.am           1 S1                 0.0000
     11 ****        -1.4028   0.4526   0.1699 C.3            1 S1                 0.0000
     12 ****        -2.5062  -0.0214   1.1489 C.3            1 S1                 0.0000
     13 ****        -3.9343   0.5024   0.8762 C.3            1 S1                 0.0000
     14 ****        -4.0242   1.9993   0.5163 C.3            1 S1                 0.0000
     15 ****        -3.2930   2.4511  -0.7753 C.3            1 S1                 0.0000
     16 ****        -2.8237   1.3629  -1.6338 N.am           1 S1                 0.0000
     17 ****        -1.9394   0.4156  -1.2783 C.2            1 S1                 0.0000
     18 ****        -1.5921  -0.4655  -2.0642 O.2            1 S1                 0.0000
     19 ****         1.4495  -1.9577   0.6431 H              1 S1                 0.0000
     20 ****         3.2894  -3.2176   0.7935 H              1 S1                 0.0000
     21 ****         5.7461  -3.4963   0.4628 H              1 S1                 0.0000
     22 ****         7.0648  -1.5906  -0.5072 H              1 S1                 0.0000
     23 ****         5.8446   0.5193  -1.1017 H              1 S1                 0.0000
     24 ****        -0.4109  -1.3320   0.7307 H              1 S1                 0.0000
     25 ****        -1.1088   1.4723   0.4232 H              1 S1                 0.0000
     26 ****        -2.5478  -1.1117   1.1644 H              1 S1                 0.0000
     27 ****        -2.2131   0.2744   2.1570 H              1 S1                 0.0000
     28 ****        -4.3949  -0.0850   0.0805 H              1 S1                 0.0000
     29 ****        -4.5475   0.3117   1.7574 H              1 S1                 0.0000
     30 ****        -5.0803   2.2522   0.4146 H              1 S1                 0.0000
     31 ****        -3.6654   2.5954   1.3560 H              1 S1                 0.0000
     32 ****        -3.9561   3.0840  -1.3654 H              1 S1                 0.0000
     33 ****        -2.4424   3.0844  -0.5194 H              1 S1                 0.0000
     34 ****        -3.1879   1.3357  -2.5753 H              1 S1                 0.0000
     35 ****         2.2947   1.1528  -0.7408 LP             1 S1                 0.0000
     36 ****         0.6474   1.6805  -0.6506 LP             1 S1                 0.0000
     37 ****         3.5388   0.6934  -0.7573 LP             1 S1                 0.0000
     38 ****        -0.9515  -1.1744  -1.7693 LP             1 S1                 0.0000
     39 ****        -1.9505  -0.4725  -2.9978 LP             1 S1                 0.0000
@<TRIPOS>BOND
    1    1    2 2     
    2    2    3 am    
    3    2   10 am    
    4    3    4 1     
    5    3   19 1     
    6    4    9 ar    
    7    4    5 ar    
    8    5    6 ar    
    9    5   20 1     
   10    6    7 ar    
   11    6   21 1     
   12    7    8 ar    
   13    7   22 1     
   14    8    9 ar    
   15    8   23 1     
   16   10   11 1     
   17   10   24 1     
   18   11   17 1     
   19   11   12 1     
   20   11   25 1     
   21   12   13 1     
   22   12   26 1     
   23   12   27 1     
   24   13   14 1     
   25   13   28 1     
   26   13   29 1     
   27   14   15 1     
   28   14   30 1     
   29   14   31 1     
   30   15   16 1     
   31   15   32 1     
   32   15   33 1     
   33   16   17 am    
   34   16   34 1     
   35   17   18 2     
   36    1   35 1     
   37    1   36 1     
   38    9   37 1     
   39   18   38 1     
   40   18   39 1     
@<TRIPOS>SUBSTRUCTURE
      1 S1             1
@<TRIPOS>SET
LONE_PAIRS      STATIC     ATOMS    <user>   **** ""
5 35 36 37 38 39
DONOR_HYDROGENS      STATIC     ATOMS    <user>   **** ""
3 19 24 34
ATOM$BLUE        STATIC     ATOMS    COLORGROUP SYSTEM
5 35 36 37 38 39
ATOM$RED        STATIC     ATOMS    COLORGROUP SYSTEM
3 19 24 34
