AV-unprocessed.smi:1099|AV-procd|sdf|4756|dock2
  -GOLD-   22720 3293D 1   1.00000     0.00000
 Structure written by MMmdl.
 41 43  0  0  0  0  0  0  0  0  1 V2000
  152.6829  143.1966  162.1497 C   0  0  0  0  0  0  0  0  0  0  0  0
  153.2802  142.5703  160.8854 C   0  0  0  0  0  0  0  0  0  0  0  0
  152.5928  143.0242  159.6411 C   0  0  0  0  0  0  0  0  0  0  0  0
  152.1251  142.1879  158.7105 N   0  0  0  0  0  0  0  0  0  0  0  0
  151.4957  142.8547  157.6545 C   0  0  0  0  0  0  0  0  0  0  0  0
  150.9265  142.0743  156.5091 C   0  0  0  0  0  0  0  0  0  0  0  0
  149.8499  141.0762  156.9666 C   0  0  0  0  0  0  0  0  0  0  0  0
  150.3146  139.6977  156.8671 N   0  0  0  0  0  0  0  0  0  0  0  0
  150.8381  139.1390  155.7651 C   0  0  0  0  0  0  0  0  0  0  0  0
  150.9655  139.7475  154.7018 O   0  0  0  0  0  0  0  0  0  0  0  0
  151.2549  137.6628  155.8890 C   0  0  1  0  0  0  0  0  0  0  0  0
  151.1059  137.0647  157.3100 C   0  0  0  0  0  0  0  0  0  0  0  0
  150.2604  135.8004  157.0660 C   0  0  1  0  0  0  0  0  0  0  0  0
  148.8073  136.2045  156.7541 C   0  0  0  0  0  0  0  0  0  0  0  0
  148.9086  136.7535  155.3191 C   0  0  0  0  0  0  0  0  0  0  0  0
  150.4240  136.6722  155.0304 C   0  0  2  0  0  0  0  0  0  0  0  0
  150.7648  135.3448  155.7015 C   0  0  0  0  0  0  0  0  0  0  0  0
  151.4812  144.2188  157.8073 C   0  0  0  0  0  0  0  0  0  0  0  0
  152.2563  144.7151  159.2863 S   0  0  0  0  0  0  0  0  0  0  0  0
  153.2081  142.8504  163.0401 H   0  0  0  0  0  0  0  0  0  0  0  0
  151.6304  142.9337  162.2595 H   0  0  0  0  0  0  0  0  0  0  0  0
  152.7558  144.2841  162.1216 H   0  0  0  0  0  0  0  0  0  0  0  0
  154.3386  142.8216  160.8106 H   0  0  0  0  0  0  0  0  0  0  0  0
  153.2210  141.4829  160.9451 H   0  0  0  0  0  0  0  0  0  0  0  0
  150.5014  142.7560  155.7712 H   0  0  0  0  0  0  0  0  0  0  0  0
  151.7271  141.5415  155.9944 H   0  0  0  0  0  0  0  0  0  0  0  0
  149.5391  141.2922  157.9902 H   0  0  0  0  0  0  0  0  0  0  0  0
  148.9598  141.1776  156.3449 H   0  0  0  0  0  0  0  0  0  0  0  0
  150.2382  139.1287  157.6979 H   0  0  0  0  0  0  0  0  0  0  0  0
  152.3031  137.5804  155.5949 H   0  0  0  0  0  0  0  0  0  0  0  0
  152.0854  136.7963  157.7082 H   0  0  0  0  0  0  0  0  0  0  0  0
  150.6374  137.7322  158.0347 H   0  0  0  0  0  0  0  0  0  0  0  0
  150.3460  135.0593  157.8613 H   0  0  0  0  0  0  0  0  0  0  0  0
  148.1433  135.3400  156.7882 H   0  0  0  0  0  0  0  0  0  0  0  0
  148.4275  136.9474  157.4565 H   0  0  0  0  0  0  0  0  0  0  0  0
  148.3604  136.1073  154.6320 H   0  0  0  0  0  0  0  0  0  0  0  0
  148.4890  137.7532  155.2144 H   0  0  0  0  0  0  0  0  0  0  0  0
  150.6677  136.7104  153.9681 H   0  0  0  0  0  0  0  0  0  0  0  0
  151.8311  135.1116  155.6886 H   0  0  0  0  0  0  0  0  0  0  0  0
  150.2101  134.4967  155.2957 H   0  0  0  0  0  0  0  0  0  0  0  0
  151.0614  144.9588  157.1419 H   0  0  0  0  0  0  0  0  0  0  0  0
  1  2  1  0  0  0  0
  1 20  1  0  0  0  0
  1 21  1  0  0  0  0
  1 22  1  0  0  0  0
  2  3  1  0  0  0  0
  2 23  1  0  0  0  0
  2 24  1  0  0  0  0
  3 19  1  0  0  0  0
  3  4  2  0  0  0  0
  4  5  1  0  0  0  0
  5  6  1  0  0  0  0
  5 18  2  0  0  0  0
  6  7  1  0  0  0  0
  6 25  1  0  0  0  0
  6 26  1  0  0  0  0
  7  8  1  0  0  0  0
  7 27  1  0  0  0  0
  7 28  1  0  0  0  0
  8  9  1  0  0  0  0
  8 29  1  0  0  0  0
  9 10  2  0  0  0  0
  9 11  1  0  0  0  0
 11 16  1  0  0  0  0
 11 12  1  0  0  0  0
 11 30  1  0  0  0  0
 12 13  1  0  0  0  0
 12 31  1  0  0  0  0
 12 32  1  0  0  0  0
 13 17  1  0  0  0  0
 13 14  1  0  0  0  0
 13 33  1  0  0  0  0
 14 15  1  0  0  0  0
 14 34  1  0  0  0  0
 14 35  1  0  0  0  0
 15 16  1  0  0  0  0
 15 36  1  0  0  0  0
 15 37  1  0  0  0  0
 16 17  1  0  0  0  0
 16 38  1  0  0  0  0
 17 39  1  0  0  0  0
 17 40  1  0  0  0  0
 18 19  1  0  0  0  0
 18 41  1  0  0  0  0
M  END
> <s_m_source_file>
AV-unprocessed.smi

> <i_m_source_file_index>
1099

> <i_lp_mmshare_version>
43012

> <i_f3d_flags>
0

> <s_epik_input>
W0NIM11bQ0gyXWMxbmMoW2NIXXMxKVtDSDJdW0NIMl1bTkhdQyg9TylbQ0BIXShbQ0gyXVtDQEBIXTIzKVtDQEBIXShbQ0gyXTMpW0NIMl1bQ0gyXTI=

> <s_epik_cmdline>
J2VwaWtfcHl0aG9uJywgJy1waCcsICc3LjAnLCAnLXRuJywgJzgnLCAnLW1hJywgJzIwMCcsICctbWV0YWxfYmluZGluZycsICctaW1hZScsICc8aW5maWxlLm1hZT4nLCAnLW9tYWUnLCAnPG91dGZpbGUubWFlPic=

> <r_epik_Ionization_Penalty>
0.00110131

> <r_epik_Ionization_Penalty_Charging>
0

> <r_epik_Ionization_Penalty_Neutral>
0.00110131

> <r_epik_State_Penalty>
0.00072257

> <r_epik_Charging_Adjusted_Penalty>
0.00072257

> <i_epik_Tot_Q>
0

> <i_epik_Tot_abs_Q>
0

> <r_epik_Metal_State_Penalty>
-0

> <b_epik_Metal_Only>
0

> <s_lp_Force_Field>
OPLS_2005

> <r_lp_Energy>
38.0082

> <b_lp_Chiralities_Consistent>
1

> <s_lp_Variant>
AV-unprocessed.smi:1099-2

> <Gold.Version>
5.8.1

> <Gold.Id.Protein>
6NUR|6NUR_protein|mol2

> <Gold.PLP.Fitness>
41.6530

> <Gold.PLP.PLP>
-36.6764

> <Gold.PLP.part.hbond>
-1.0000

> <Gold.PLP.part.metal>
0.0000

> <Gold.PLP.part.buried>
-5.6445

> <Gold.PLP.part.nonpolar>
-30.6243

> <Gold.PLP.part.repulsive>
0.0876

> <Gold.PLP.ligand.clash>
0.0000

> <Gold.PLP.ligand.torsion>
0.5186

> <Gold.PLP.Chemscore.Hbond>
1.0000

> <Gold.PLP.Chemscore.CHOScore>
0.9974

> <Gold.PLP.Chemscore.Metal>
0.0000

> <Gold.Chemscore.Hbonds>
donor molecule, donor type, donor heavy atom, donor atom, acceptor molecule, acceptor atom, score
      P1  H  7989  7998       L1    10  1.00
      L1  C    18    41       P1  8028  0.81

> <Gold.PLP.Chemscore.Internal.Correction>
0.0217

> <Gold.Rescore>
     Score         DG    S(hbond)    S(metal)    S(lipo)     H(rot)  DE(clash)    DE(int)     intcor
     16.86     -18.52       1.00        0.00     113.97       1.42       0.08       1.58       ----

> <Gold.Chemscore.Fitness>
16.8610

> <Gold.Chemscore.DG>
-18.5238

> <Gold.Chemscore.ZeroCoef>
-5.4800

> <Gold.Chemscore.Hbond>
0.9988

> <Gold.Chemscore.Metal>
0.0000

> <Gold.Chemscore.Lipo>
113.9650

> <Gold.Chemscore.Internal_Hbond>
0.0000

> <Gold.Chemscore.DEClash>
0.0848

> <Gold.Chemscore.DEInternal>
1.5781

> <Gold.Chemscore.Rot>
1.4165

> <Gold.Chemscore.Internal.Correction>
   9.000000E+99

> <Gold.Chemscore.Hbonds>
donor molecule, donor type, donor heavy atom, donor atom, acceptor molecule, acceptor atom, score
      P1  H  7989  7998       L1    10  1.00

> <Gold.Chemscore.Hbond.Weighted>
-3.3361

> <Gold.Chemscore.Metal.Weighted>
-0.0000

> <Gold.Chemscore.Lipo.Weighted>
-13.3339

> <Gold.Chemscore.Internal_Hbond.Weighted>
0.0000

> <Gold.Chemscore.DEClash.Weighted>
0.0848

> <Gold.Chemscore.DEInternal.Weighted>
1.5781

> <Gold.Chemscore.Rot.Weighted>
3.6262

> <Gold.Chemscore.Internal.Correction.Weighted>
   9.000000E+99

> <Gold.Protein.RotatedTorsions>
[ 6907 6896 6895 6894 ] final  137.65 input  -60.11 | X-H torsion
[ 7974 7965 7964 7962 ] final  -58.95 input  175.53 | X-H torsion
[ 8008 7997 7996 7995 ] final   64.52 input   59.86 | X-H torsion
[ 10167 10162 10161 10158 ] final   77.59 input  -65.29 | X-H torsion
[ 10718 10713 10712 10709 ] final  128.23 input   66.30 | X-H torsion
[ 10763 10752 10751 10750 ] final -170.45 input  -60.55 | X-H torsion
[ 11005 11000 10999 10996 ] final  107.59 input  -57.11 | X-H torsion

> <Gold.Protein.ActiveResidues>
 VAL166  LYS551  ARG553  GLY616  TRP617  ASP618  TYR619  PRO620  LYS621  CYS622 
 ASP623  PHE694  ASN695  SER759  ASP760  ASP761  ALA762  ILE779  LEU786  VAL792 
 PHE793  MET794  SER795  GLU796  ALA797  LYS798  CYS799  TRP800  GLU811  SER814 

> <Gold.Protein.RotatedAtoms>
  152.2757  133.5423  159.5466 H   0  0  0  0  0  0  0  0  0  0  0  0  # atno 6907 bound_to 6896
  150.7176  134.0635  159.3848 H   0  0  0  0  0  0  0  0  0  0  0  0  # atno 6908 bound_to 6896
  151.8548  135.0545  160.0514 H   0  0  0  0  0  0  0  0  0  0  0  0  # atno 6909 bound_to 6896
  145.8333  140.8466  143.0072 H   0  0  0  0  0  0  0  0  0  0  0  0  # atno 7974 bound_to 7965
  155.6474  140.3497  155.4736 H   0  0  0  0  0  0  0  0  0  0  0  0  # atno 8008 bound_to 7997
  155.9876  140.1187  157.0692 H   0  0  0  0  0  0  0  0  0  0  0  0  # atno 8009 bound_to 7997
  154.4209  140.1126  156.5507 H   0  0  0  0  0  0  0  0  0  0  0  0  # atno 8010 bound_to 7997
  139.9799  144.5834  150.7910 H   0  0  0  0  0  0  0  0  0  0  0  0  # atno 10167 bound_to 10162
  157.5263  131.1098  150.9078 H   0  0  0  0  0  0  0  0  0  0  0  0  # atno 10718 bound_to 10713
  154.6414  135.2899  155.0099 H   0  0  0  0  0  0  0  0  0  0  0  0  # atno 10763 bound_to 10752
  154.1224  135.6546  153.4909 H   0  0  0  0  0  0  0  0  0  0  0  0  # atno 10764 bound_to 10752
  153.0328  135.5291  154.7282 H   0  0  0  0  0  0  0  0  0  0  0  0  # atno 10765 bound_to 10752
  139.8830  134.9405  156.5843 H   0  0  0  0  0  0  0  0  0  0  0  0  # atno 11005 bound_to 11000
  144.6738  140.0704  143.7473 LP  0  0  0  0  0  0  0  0  0  0  0  0  # atno 17320 bound_to 7965
  145.9547  139.2758  143.1191 LP  0  0  0  0  0  0  0  0  0  0  0  0  # atno 17321 bound_to 7965
  140.7493  143.2936  151.3265 LP  0  0  0  0  0  0  0  0  0  0  0  0  # atno 17342 bound_to 10162
  139.6418  144.0526  152.2560 LP  0  0  0  0  0  0  0  0  0  0  0  0  # atno 17343 bound_to 10162
  156.9673  130.5477  149.5288 LP  0  0  0  0  0  0  0  0  0  0  0  0  # atno 17370 bound_to 10713
  156.0389  130.5474  150.8723 LP  0  0  0  0  0  0  0  0  0  0  0  0  # atno 17371 bound_to 10713
  140.8004  133.8510  155.8721 LP  0  0  0  0  0  0  0  0  0  0  0  0  # atno 17394 bound_to 11000
  140.9598  134.1670  157.4663 LP  0  0  0  0  0  0  0  0  0  0  0  0  # atno 17395 bound_to 11000

$$$$
