AV-unprocessed.smi:213|AV-procd|sdf|1639|dock1
  -GOLD-   2262020 03D 1   1.00000     0.00000
 Structure written by MMmdl.
 59 62  0  0  0  0  0  0  0  0  2 V2000
  144.1913  137.4515  152.9518 C   0  0  0  0  0  0  0  0  0  0  0  0
  145.5547  137.0478  152.3673 C   0  0  2  0  0  0  0  0  0  0  0  0
  145.9801  135.6397  152.8492 C   0  0  0  0  0  0  0  0  0  0  0  0
  145.4792  134.5493  151.9741 N   0  3  0  0  0  0  0  0  0  0  0  0
  144.0457  134.6918  151.6313 C   0  0  0  0  0  0  0  0  0  0  0  0
  143.5756  133.4813  150.8074 C   0  0  0  0  0  0  0  0  0  0  0  0
  144.3791  133.3548  149.6402 O   0  0  0  0  0  0  0  0  0  0  0  0
  145.7494  133.1397  149.9559 C   0  0  0  0  0  0  0  0  0  0  0  0
  146.2890  134.3416  150.7487 C   0  0  0  0  0  0  0  0  0  0  0  0
  146.5786  138.0697  152.6338 N   0  0  0  0  0  0  0  0  0  0  0  0
  146.7752  139.1601  151.6791 C   0  0  0  0  0  0  0  0  0  0  0  0
  146.8344  138.3452  153.9403 C   0  0  0  0  0  0  0  0  0  0  0  0
  146.5916  137.3934  154.8818 N   0  0  0  0  0  0  0  0  0  0  0  0
  146.8786  137.6228  156.1662 C   0  0  0  0  0  0  0  0  0  0  0  0
  147.4114  138.7135  156.7187 N   0  0  0  0  0  0  0  0  0  0  0  0
  147.6456  139.6776  155.7833 C   0  0  0  0  0  0  0  0  0  0  0  0
  147.3878  139.5790  154.3868 C   0  0  0  0  0  0  0  0  0  0  0  0
  147.7516  140.7633  153.7559 N   0  0  0  0  0  0  0  0  0  0  0  0
  148.1990  141.5173  154.7227 C   0  0  0  0  0  0  0  0  0  0  0  0
  148.1722  140.9427  155.9724 N   0  0  0  0  0  0  0  0  0  0  0  0
  148.5996  141.5542  157.2182 C   0  0  0  0  0  0  0  0  0  0  0  0
  149.9910  141.0637  157.6652 C   0  0  1  0  0  0  0  0  0  0  0  0
  150.8713  140.9752  156.5607 O   0  0  0  0  0  0  0  0  0  0  0  0
  150.6060  141.9397  158.7755 C   0  0  1  0  0  0  0  0  0  0  0  0
  151.9684  141.4966  159.3176 C   0  0  0  0  0  0  0  0  0  0  0  0
  152.5103  142.8004  159.8590 C   0  0  0  0  0  0  0  0  0  0  0  0
  152.0134  143.7997  158.8176 C   0  0  0  0  0  0  0  0  0  0  0  0
  150.7632  143.2940  158.3575 O   0  0  0  0  0  0  0  0  0  0  0  0
  143.4160  136.7488  152.6458 H   0  0  0  0  0  0  0  0  0  0  0  0
  143.8923  138.4398  152.6010 H   0  0  0  0  0  0  0  0  0  0  0  0
  144.1996  137.4698  154.0416 H   0  0  0  0  0  0  0  0  0  0  0  0
  145.3951  136.9814  151.2933 H   0  0  0  0  0  0  0  0  0  0  0  0
  147.0699  135.5989  152.8812 H   0  0  0  0  0  0  0  0  0  0  0  0
  145.6420  135.4668  153.8719 H   0  0  0  0  0  0  0  0  0  0  0  0
  143.4513  134.7653  152.5428 H   0  0  0  0  0  0  0  0  0  0  0  0
  143.8915  135.6146  151.0697 H   0  0  0  0  0  0  0  0  0  0  0  0
  143.6260  132.5653  151.3985 H   0  0  0  0  0  0  0  0  0  0  0  0
  142.5352  133.6113  150.5088 H   0  0  0  0  0  0  0  0  0  0  0  0
  145.8644  132.2150  150.5237 H   0  0  0  0  0  0  0  0  0  0  0  0
  146.3115  133.0159  149.0302 H   0  0  0  0  0  0  0  0  0  0  0  0
  146.2600  135.2406  150.1314 H   0  0  0  0  0  0  0  0  0  0  0  0
  147.3330  134.1625  151.0036 H   0  0  0  0  0  0  0  0  0  0  0  0
  147.7211  139.6703  151.8658 H   0  0  0  0  0  0  0  0  0  0  0  0
  145.9700  139.8919  151.7527 H   0  0  0  0  0  0  0  0  0  0  0  0
  146.8037  138.7911  150.6547 H   0  0  0  0  0  0  0  0  0  0  0  0
  146.6557  136.8152  156.8482 H   0  0  0  0  0  0  0  0  0  0  0  0
  148.5601  142.5211  154.5504 H   0  0  0  0  0  0  0  0  0  0  0  0
  148.5939  142.6377  157.0926 H   0  0  0  0  0  0  0  0  0  0  0  0
  147.8568  141.3260  157.9837 H   0  0  0  0  0  0  0  0  0  0  0  0
  149.8880  140.0514  158.0582 H   0  0  0  0  0  0  0  0  0  0  0  0
  150.6355  141.6459  155.9378 H   0  0  0  0  0  0  0  0  0  0  0  0
  149.9092  141.9677  159.6148 H   0  0  0  0  0  0  0  0  0  0  0  0
  151.8912  140.7171  160.0759 H   0  0  0  0  0  0  0  0  0  0  0  0
  152.6217  141.1339  158.5234 H   0  0  0  0  0  0  0  0  0  0  0  0
  152.0658  143.0165  160.8312 H   0  0  0  0  0  0  0  0  0  0  0  0
  153.5949  142.8026  159.9690 H   0  0  0  0  0  0  0  0  0  0  0  0
  151.9133  144.8077  159.2199 H   0  0  0  0  0  0  0  0  0  0  0  0
  152.7016  143.8392  157.9723 H   0  0  0  0  0  0  0  0  0  0  0  0
  145.5503  133.7002  152.5174 H   0  0  0  0  0  0  0  0  0  0  0  0
  1  2  1  0  0  0  0
  1 29  1  0  0  0  0
  1 30  1  0  0  0  0
  1 31  1  0  0  0  0
  2  3  1  0  0  0  0
  2 10  1  0  0  0  0
  2 32  1  0  0  0  0
  3  4  1  0  0  0  0
  3 33  1  0  0  0  0
  3 34  1  0  0  0  0
  4  9  1  0  0  0  0
  4  5  1  0  0  0  0
  4 59  1  0  0  0  0
  5  6  1  0  0  0  0
  5 35  1  0  0  0  0
  5 36  1  0  0  0  0
  6  7  1  0  0  0  0
  6 37  1  0  0  0  0
  6 38  1  0  0  0  0
  7  8  1  0  0  0  0
  8  9  1  0  0  0  0
  8 39  1  0  0  0  0
  8 40  1  0  0  0  0
  9 41  1  0  0  0  0
  9 42  1  0  0  0  0
 10 11  1  0  0  0  0
 10 12  1  0  0  0  0
 11 43  1  0  0  0  0
 11 44  1  0  0  0  0
 11 45  1  0  0  0  0
 12 17  1  0  0  0  0
 12 13  2  0  0  0  0
 13 14  1  0  0  0  0
 14 15  2  0  0  0  0
 14 46  1  0  0  0  0
 15 16  1  0  0  0  0
 16 20  1  0  0  0  0
 16 17  2  0  0  0  0
 17 18  1  0  0  0  0
 18 19  2  0  0  0  0
 19 20  1  0  0  0  0
 19 47  1  0  0  0  0
 20 21  1  0  0  0  0
 21 22  1  0  0  0  0
 21 48  1  0  0  0  0
 21 49  1  0  0  0  0
 22 23  1  0  0  0  0
 22 24  1  0  0  0  0
 22 50  1  0  0  0  0
 23 51  1  0  0  0  0
 24 28  1  0  0  0  0
 24 25  1  0  0  0  0
 24 52  1  0  0  0  0
 25 26  1  0  0  0  0
 25 53  1  0  0  0  0
 25 54  1  0  0  0  0
 26 27  1  0  0  0  0
 26 55  1  0  0  0  0
 26 56  1  0  0  0  0
 27 28  1  0  0  0  0
 27 57  1  0  0  0  0
 27 58  1  0  0  0  0
M  CHG  1   4   1
M  END
> <s_m_source_file>
AV-unprocessed.smi

> <i_m_source_file_index>
213

> <i_lp_mmshare_version>
43012

> <i_f3d_flags>
0

> <s_epik_input>
W0NIMl0xW0NIMl1PW0NIMl1bQ0gyXU4xW0NIMl1bQ0BASF0oW0NIM10pTihbQ0gzXSljKG5bY0hdbjIpYyhjMjMpbltjSF1uM1tDSDJdW0NASF0oW09IXSlbQ0BASF00W0NIMl1bQ0gyXVtDSDJdTzQ=

> <s_epik_cmdline>
J2VwaWtfcHl0aG9uJywgJy1waCcsICc3LjAnLCAnLXRuJywgJzgnLCAnLW1hJywgJzIwMCcsICctbWV0YWxfYmluZGluZycsICctaW1hZScsICc8aW5maWxlLm1hZT4nLCAnLW9tYWUnLCAnPG91dGZpbGUubWFlPic=

> <r_lp_tautomer_probability>
1

> <r_epik_Ionization_Penalty>
0.399679

> <r_epik_Ionization_Penalty_Charging>
0.399433

> <r_epik_Ionization_Penalty_Neutral>
0.000246213

> <r_epik_State_Penalty>
0.286032

> <r_epik_Charging_Adjusted_Penalty>
0.685465

> <i_epik_Tot_Q>
1

> <i_epik_Tot_abs_Q>
1

> <r_epik_Metal_State_Penalty>
0.286072

> <b_epik_Metal_Only>
0

> <s_lp_Force_Field>
OPLS_2005

> <r_lp_Energy>
47.0923

> <b_lp_Chiralities_Consistent>
1

> <s_lp_Variant>
AV-unprocessed.smi:213-7

> <Gold.Version>
5.8.1

> <Gold.Id.Protein>
6NUR|6NUR_protein|mol2

> <Gold.PLP.Fitness>
41.8071

> <Gold.PLP.PLP>
-40.2812

> <Gold.PLP.part.hbond>
0.0000

> <Gold.PLP.part.metal>
0.0000

> <Gold.PLP.part.buried>
-3.8736

> <Gold.PLP.part.nonpolar>
-38.1535

> <Gold.PLP.part.repulsive>
1.0855

> <Gold.PLP.ligand.clash>
0.0000

> <Gold.PLP.ligand.torsion>
1.4503

> <Gold.PLP.Chemscore.Hbond>
0.0000

> <Gold.PLP.Chemscore.CHOScore>
1.0000

> <Gold.PLP.Chemscore.Metal>
0.0000

> <Gold.Chemscore.Hbonds>
donor molecule, donor type, donor heavy atom, donor atom, acceptor molecule, acceptor atom, score
      L1  C    19    47       P1  8028  1.00

> <Gold.PLP.Chemscore.Internal.Correction>
1.4266

> <Gold.Rescore>
     Score         DG    S(hbond)    S(metal)    S(lipo)     H(rot)  DE(clash)    DE(int)     intcor
      4.39      -9.49       0.00        0.00      96.11       2.83       0.91       4.20       ----

> <Gold.Chemscore.Fitness>
4.3857

> <Gold.Chemscore.DG>
-9.4914

> <Gold.Chemscore.ZeroCoef>
-5.4800

> <Gold.Chemscore.Hbond>
0.0000

> <Gold.Chemscore.Metal>
0.0000

> <Gold.Chemscore.Lipo>
96.1056

> <Gold.Chemscore.Internal_Hbond>
0.0000

> <Gold.Chemscore.DEClash>
0.9052

> <Gold.Chemscore.DEInternal>
4.2005

> <Gold.Chemscore.Rot>
2.8254

> <Gold.Chemscore.Internal.Correction>
   9.000000E+99

> <Gold.Chemscore.Hbond.Weighted>
-0.0000

> <Gold.Chemscore.Metal.Weighted>
-0.0000

> <Gold.Chemscore.Lipo.Weighted>
-11.2444

> <Gold.Chemscore.Internal_Hbond.Weighted>
0.0000

> <Gold.Chemscore.DEClash.Weighted>
0.9052

> <Gold.Chemscore.DEInternal.Weighted>
4.2005

> <Gold.Chemscore.Rot.Weighted>
7.2330

> <Gold.Chemscore.Internal.Correction.Weighted>
   9.000000E+99

> <Gold.Protein.RotatedTorsions>
[ 6907 6896 6895 6894 ] final   86.14 input  -60.11 | X-H torsion
[ 7974 7965 7964 7962 ] final -168.47 input  175.53 | X-H torsion
[ 8008 7997 7996 7995 ] final  153.57 input   59.86 | X-H torsion
[ 10167 10162 10161 10158 ] final  -68.77 input  -65.29 | X-H torsion
[ 10718 10713 10712 10709 ] final   84.69 input   66.30 | X-H torsion
[ 10763 10752 10751 10750 ] final   60.82 input  -60.55 | X-H torsion
[ 11005 11000 10999 10996 ] final    5.97 input  -57.11 | X-H torsion

> <Gold.Protein.ActiveResidues>
 VAL166  LYS551  ARG553  GLY616  TRP617  ASP618  TYR619  PRO620  LYS621  CYS622 
 ASP623  PHE694  ASN695  SER759  ASP760  ASP761  ALA762  ILE779  LEU786  VAL792 
 PHE793  MET794  SER795  GLU796  ALA797  LYS798  CYS799  TRP800  GLU811  SER814 

> <Gold.Protein.RotatedAtoms>
  152.5388  134.2478  159.8886 H   0  0  0  0  0  0  0  0  0  0  0  0  # atno 6907 bound_to 6896
  151.2442  133.4377  159.2616 H   0  0  0  0  0  0  0  0  0  0  0  0  # atno 6908 bound_to 6896
  151.0598  134.9743  159.8311 H   0  0  0  0  0  0  0  0  0  0  0  0  # atno 6909 bound_to 6896
  144.7202  140.2365  143.6297 H   0  0  0  0  0  0  0  0  0  0  0  0  # atno 7974 bound_to 7965
  156.2575  140.1990  156.6511 H   0  0  0  0  0  0  0  0  0  0  0  0  # atno 8008 bound_to 7997
  154.6536  140.0569  157.0008 H   0  0  0  0  0  0  0  0  0  0  0  0  # atno 8009 bound_to 7997
  155.1381  140.3240  155.4461 H   0  0  0  0  0  0  0  0  0  0  0  0  # atno 8010 bound_to 7997
  140.5482  143.2312  151.6962 H   0  0  0  0  0  0  0  0  0  0  0  0  # atno 10167 bound_to 10162
  157.6902  131.0144  150.2710 H   0  0  0  0  0  0  0  0  0  0  0  0  # atno 10718 bound_to 10713
  152.9932  135.5522  154.5935 H   0  0  0  0  0  0  0  0  0  0  0  0  # atno 10763 bound_to 10752
  154.5292  135.2812  155.1197 H   0  0  0  0  0  0  0  0  0  0  0  0  # atno 10764 bound_to 10752
  154.2520  135.6397  153.5296 H   0  0  0  0  0  0  0  0  0  0  0  0  # atno 10765 bound_to 10752
  140.5647  134.0158  155.7985 H   0  0  0  0  0  0  0  0  0  0  0  0  # atno 11005 bound_to 11000
  145.8360  139.2108  143.1855 LP  0  0  0  0  0  0  0  0  0  0  0  0  # atno 17320 bound_to 7965
  146.0388  140.8185  142.9839 LP  0  0  0  0  0  0  0  0  0  0  0  0  # atno 17321 bound_to 7965
  139.5016  144.3861  152.0327 LP  0  0  0  0  0  0  0  0  0  0  0  0  # atno 17342 bound_to 10162
  140.2976  144.3684  150.6070 LP  0  0  0  0  0  0  0  0  0  0  0  0  # atno 17343 bound_to 10162
  156.3273  130.3795  149.7522 LP  0  0  0  0  0  0  0  0  0  0  0  0  # atno 17370 bound_to 10713
  156.5073  130.8156  151.3155 LP  0  0  0  0  0  0  0  0  0  0  0  0  # atno 17371 bound_to 10713
  141.1093  133.9643  157.2940 LP  0  0  0  0  0  0  0  0  0  0  0  0  # atno 17394 bound_to 11000
  139.9390  135.0193  156.8649 LP  0  0  0  0  0  0  0  0  0  0  0  0  # atno 17395 bound_to 11000

$$$$
