AV-unprocessed.smi:1947|AV-procd|sdf|7865|dock8
  -GOLD-   2272010 13D 1   1.00000     0.00000
 Structure written by MMmdl.
 39 40  0  0  0  0  0  0  0  0  1 V2000
  151.7591  143.8817  158.7155 C   0  0  0  0  0  0  0  0  0  0  0  0
  151.9273  142.5119  159.3951 C   0  0  2  0  0  0  0  0  0  0  0  0
  153.1672  142.5059  160.3116 C   0  0  0  0  0  0  0  0  0  0  0  0
  153.3646  141.1440  160.9950 C   0  0  0  0  0  0  0  0  0  0  0  0
  153.4539  140.0142  159.9592 C   0  0  0  0  0  0  0  0  0  0  0  0
  152.2176  140.0035  159.0478 C   0  0  0  0  0  0  0  0  0  0  0  0
  152.0103  141.3682  158.3595 C   0  0  1  0  0  0  0  0  0  0  0  0
  150.7879  141.3537  157.6343 O   0  0  0  0  0  0  0  0  0  0  0  0
  150.8481  141.9802  156.3614 C   0  0  0  0  0  0  0  0  0  0  0  0
  149.4154  142.1759  155.8430 C   0  0  0  0  0  0  0  0  0  0  0  0
  148.5928  142.9089  156.8000 N   0  0  0  0  0  0  0  0  0  0  0  0
  147.7460  142.3528  157.6772 C   0  0  0  0  0  0  0  0  0  0  0  0
  147.6061  141.1368  157.8078 O   0  0  0  0  0  0  0  0  0  0  0  0
  147.0822  143.2911  158.3711 N   0  0  0  0  0  0  0  0  0  0  0  0
  146.0768  143.1017  159.3517 C   0  0  0  0  0  0  0  0  0  0  0  0
  145.4796  141.9059  159.4168 N   0  0  0  0  0  0  0  0  0  0  0  0
  144.5208  141.8568  160.4216 N   0  0  0  0  0  0  0  0  0  0  0  0
  144.4322  143.0192  161.0754 C   0  0  0  0  0  0  0  0  0  0  0  0
  145.5111  144.2904  160.5291 S   0  0  0  0  0  0  0  0  0  0  0  0
  152.6027  144.1066  158.0621 H   0  0  0  0  0  0  0  0  0  0  0  0
  151.6887  144.6802  159.4546 H   0  0  0  0  0  0  0  0  0  0  0  0
  150.8528  143.9176  158.1102 H   0  0  0  0  0  0  0  0  0  0  0  0
  151.0489  142.3413  160.0197 H   0  0  0  0  0  0  0  0  0  0  0  0
  154.0568  142.7509  159.7292 H   0  0  0  0  0  0  0  0  0  0  0  0
  153.0733  143.2836  161.0707 H   0  0  0  0  0  0  0  0  0  0  0  0
  154.2680  141.1611  161.6051 H   0  0  0  0  0  0  0  0  0  0  0  0
  152.5345  140.9519  161.6761 H   0  0  0  0  0  0  0  0  0  0  0  0
  154.3534  140.1405  159.3551 H   0  0  0  0  0  0  0  0  0  0  0  0
  153.5521  139.0531  160.4646 H   0  0  0  0  0  0  0  0  0  0  0  0
  152.3245  139.2137  158.3044 H   0  0  0  0  0  0  0  0  0  0  0  0
  151.3347  139.7543  159.6381 H   0  0  0  0  0  0  0  0  0  0  0  0
  152.8491  141.5730  157.6912 H   0  0  0  0  0  0  0  0  0  0  0  0
  151.3551  142.9437  156.4318 H   0  0  0  0  0  0  0  0  0  0  0  0
  151.4154  141.3656  155.6625 H   0  0  0  0  0  0  0  0  0  0  0  0
  149.4264  142.6977  154.8848 H   0  0  0  0  0  0  0  0  0  0  0  0
  148.9511  141.2058  155.6648 H   0  0  0  0  0  0  0  0  0  0  0  0
  148.6444  143.9163  156.7610 H   0  0  0  0  0  0  0  0  0  0  0  0
  147.3077  144.2521  158.1605 H   0  0  0  0  0  0  0  0  0  0  0  0
  143.7263  143.1283  161.8855 H   0  0  0  0  0  0  0  0  0  0  0  0
  1  2  1  0  0  0  0
  1 20  1  0  0  0  0
  1 21  1  0  0  0  0
  1 22  1  0  0  0  0
  2  7  1  0  0  0  0
  2  3  1  0  0  0  0
  2 23  1  0  0  0  0
  3  4  1  0  0  0  0
  3 24  1  0  0  0  0
  3 25  1  0  0  0  0
  4  5  1  0  0  0  0
  4 26  1  0  0  0  0
  4 27  1  0  0  0  0
  5  6  1  0  0  0  0
  5 28  1  0  0  0  0
  5 29  1  0  0  0  0
  6  7  1  0  0  0  0
  6 30  1  0  0  0  0
  6 31  1  0  0  0  0
  7  8  1  0  0  0  0
  7 32  1  0  0  0  0
  8  9  1  0  0  0  0
  9 10  1  0  0  0  0
  9 33  1  0  0  0  0
  9 34  1  0  0  0  0
 10 11  1  0  0  0  0
 10 35  1  0  0  0  0
 10 36  1  0  0  0  0
 11 12  1  0  0  0  0
 11 37  1  0  0  0  0
 12 13  2  0  0  0  0
 12 14  1  0  0  0  0
 14 15  1  0  0  0  0
 14 38  1  0  0  0  0
 15 19  1  0  0  0  0
 15 16  2  0  0  0  0
 16 17  1  0  0  0  0
 17 18  2  0  0  0  0
 18 19  1  0  0  0  0
 18 39  1  0  0  0  0
M  END
> <s_m_source_file>
AV-unprocessed.smi

> <i_m_source_file_index>
1947

> <i_lp_mmshare_version>
43012

> <i_f3d_flags>
0

> <s_epik_input>
W0NIM11bQ0BASF0xW0NIMl1bQ0gyXVtDSDJdW0NIMl1bQ0BIXTFPW0NIMl1bQ0gyXVtOSF1DKD1PKVtOSF1jMm5uW2NIXXMy

> <s_epik_cmdline>
J2VwaWtfcHl0aG9uJywgJy1waCcsICc3LjAnLCAnLXRuJywgJzgnLCAnLW1hJywgJzIwMCcsICctbWV0YWxfYmluZGluZycsICctaW1hZScsICc8aW5maWxlLm1hZT4nLCAnLW9tYWUnLCAnPG91dGZpbGUubWFlPic=

> <r_lp_tautomer_probability>
1

> <r_epik_Ionization_Penalty>
0.00220897

> <r_epik_Ionization_Penalty_Charging>
0

> <r_epik_Ionization_Penalty_Neutral>
0.00220897

> <r_epik_State_Penalty>
-0

> <r_epik_Charging_Adjusted_Penalty>
0

> <i_epik_Tot_Q>
0

> <i_epik_Tot_abs_Q>
0

> <r_epik_Metal_State_Penalty>
0.345002

> <b_epik_Metal_Only>
0

> <s_lp_Force_Field>
OPLS_2005

> <r_lp_Energy>
7.38762

> <b_lp_Chiralities_Consistent>
1

> <s_lp_Variant>
AV-unprocessed.smi:1947-1

> <Gold.Version>
5.8.1

> <Gold.Id.Protein>
6NUR|6NUR_protein|mol2

> <Gold.PLP.Fitness>
43.9323

> <Gold.PLP.PLP>
-36.6238

> <Gold.PLP.part.hbond>
-4.0948

> <Gold.PLP.part.metal>
0.0000

> <Gold.PLP.part.buried>
-3.3085

> <Gold.PLP.part.nonpolar>
-28.4446

> <Gold.PLP.part.repulsive>
0.1564

> <Gold.PLP.ligand.clash>
0.0000

> <Gold.PLP.ligand.torsion>
0.8394

> <Gold.PLP.Chemscore.Hbond>
2.9920

> <Gold.PLP.Chemscore.CHOScore>
0.0000

> <Gold.PLP.Chemscore.Metal>
0.0000

> <Gold.Chemscore.Hbonds>
donor molecule, donor type, donor heavy atom, donor atom, acceptor molecule, acceptor atom, score
      L1  H    11    37       P1  8028  0.26
      L1  H    14    38       P1  8029  1.00
      P1  H  6934  6946       L1    16  0.30

> <Gold.PLP.Chemscore.Internal.Correction>
0.0114

> <Gold.Rescore>
     Score         DG    S(hbond)    S(metal)    S(lipo)     H(rot)  DE(clash)    DE(int)     intcor
     15.07     -17.46       1.79        0.00      93.66       1.94       0.11       2.29       ----

> <Gold.Chemscore.Fitness>
15.0661

> <Gold.Chemscore.DG>
-17.4602

> <Gold.Chemscore.ZeroCoef>
-5.4800

> <Gold.Chemscore.Hbond>
1.7919

> <Gold.Chemscore.Metal>
0.0000

> <Gold.Chemscore.Lipo>
93.6564

> <Gold.Chemscore.Internal_Hbond>
0.0000

> <Gold.Chemscore.DEClash>
0.1090

> <Gold.Chemscore.DEInternal>
2.2852

> <Gold.Chemscore.Rot>
1.9385

> <Gold.Chemscore.Internal.Correction>
   9.000000E+99

> <Gold.Chemscore.Hbonds>
donor molecule, donor type, donor heavy atom, donor atom, acceptor molecule, acceptor atom, score
      L1  H    11    37       P1  8028  0.03
      L1  H    14    38       P1  8029  0.49

> <Gold.Chemscore.Hbond.Weighted>
-5.9849

> <Gold.Chemscore.Metal.Weighted>
-0.0000

> <Gold.Chemscore.Lipo.Weighted>
-10.9578

> <Gold.Chemscore.Internal_Hbond.Weighted>
0.0000

> <Gold.Chemscore.DEClash.Weighted>
0.1090

> <Gold.Chemscore.DEInternal.Weighted>
2.2852

> <Gold.Chemscore.Rot.Weighted>
4.9625

> <Gold.Chemscore.Internal.Correction.Weighted>
   9.000000E+99

> <Gold.Protein.RotatedTorsions>
[ 6907 6896 6895 6894 ] final   72.52 input  -60.11 | X-H torsion
[ 7974 7965 7964 7962 ] final -177.69 input  175.53 | X-H torsion
[ 8008 7997 7996 7995 ] final  -44.30 input   59.86 | X-H torsion
[ 10167 10162 10161 10158 ] final  -64.04 input  -65.29 | X-H torsion
[ 10718 10713 10712 10709 ] final    3.28 input   66.30 | X-H torsion
[ 10763 10752 10751 10750 ] final -131.58 input  -60.55 | X-H torsion
[ 11005 11000 10999 10996 ] final -161.73 input  -57.11 | X-H torsion

> <Gold.Protein.ActiveResidues>
 VAL166  LYS551  ARG553  GLY616  TRP617  ASP618  TYR619  PRO620  LYS621  CYS622 
 ASP623  PHE694  ASN695  SER759  ASP760  ASP761  ALA762  ILE779  LEU786  VAL792 
 PHE793  MET794  SER795  GLU796  ALA797  LYS798  CYS799  TRP800  GLU811  SER814 

> <Gold.Protein.RotatedAtoms>
  152.4873  134.4558  159.9589 H   0  0  0  0  0  0  0  0  0  0  0  0  # atno 6907 bound_to 6896
  151.4552  133.3601  159.2809 H   0  0  0  0  0  0  0  0  0  0  0  0  # atno 6908 bound_to 6896
  150.8994  134.8429  159.7410 H   0  0  0  0  0  0  0  0  0  0  0  0  # atno 6909 bound_to 6896
  144.7128  140.0981  143.6418 H   0  0  0  0  0  0  0  0  0  0  0  0  # atno 7974 bound_to 7965
  154.3997  140.1425  156.3661 H   0  0  0  0  0  0  0  0  0  0  0  0  # atno 8008 bound_to 7997
  155.8136  140.3472  155.5451 H   0  0  0  0  0  0  0  0  0  0  0  0  # atno 8009 bound_to 7997
  155.8361  140.0919  157.1753 H   0  0  0  0  0  0  0  0  0  0  0  0  # atno 8010 bound_to 7997
  140.5829  143.2329  151.6305 H   0  0  0  0  0  0  0  0  0  0  0  0  # atno 10167 bound_to 10162
  156.8754  130.5635  149.5655 H   0  0  0  0  0  0  0  0  0  0  0  0  # atno 10718 bound_to 10713
  154.8750  135.3825  154.4270 H   0  0  0  0  0  0  0  0  0  0  0  0  # atno 10763 bound_to 10752
  153.4968  135.7030  153.5859 H   0  0  0  0  0  0  0  0  0  0  0  0  # atno 10764 bound_to 10752
  153.4208  135.3902  155.2077 H   0  0  0  0  0  0  0  0  0  0  0  0  # atno 10765 bound_to 10752
  140.6171  134.4789  157.5220 H   0  0  0  0  0  0  0  0  0  0  0  0  # atno 11005 bound_to 11000
  145.9561  139.2768  143.1183 LP  0  0  0  0  0  0  0  0  0  0  0  0  # atno 17320 bound_to 7965
  145.9271  140.9075  143.0375 LP  0  0  0  0  0  0  0  0  0  0  0  0  # atno 17321 bound_to 7965
  139.5180  144.3298  152.0837 LP  0  0  0  0  0  0  0  0  0  0  0  0  # atno 17342 bound_to 10162
  140.2450  144.4229  150.6244 LP  0  0  0  0  0  0  0  0  0  0  0  0  # atno 17343 bound_to 10162
  156.0704  130.5738  150.9373 LP  0  0  0  0  0  0  0  0  0  0  0  0  # atno 17370 bound_to 10713
  157.6171  131.0932  150.8690 LP  0  0  0  0  0  0  0  0  0  0  0  0  # atno 17371 bound_to 10713
  139.9168  134.8229  156.1340 LP  0  0  0  0  0  0  0  0  0  0  0  0  # atno 17394 bound_to 11000
  141.0768  133.6772  156.2252 LP  0  0  0  0  0  0  0  0  0  0  0  0  # atno 17395 bound_to 11000

$$$$
