AV-unprocessed.smi:2129|AV-procd|sdf|8684|dock5
  -GOLD-   2272011433D 1   1.00000     0.00000
 Structure written by MMmdl.
 33 33  0  0  0  0  0  0  0  0  2 V2000
  150.5484  144.9477  160.5640 C   0  0  0  0  0  0  0  0  0  0  0  0
  150.2595  144.0614  159.3392 C   0  0  0  0  0  0  0  0  0  0  0  0
  151.5012  143.6231  158.5138 C   0  0  0  0  0  0  0  0  0  0  0  0
  152.3791  144.8533  158.1946 C   0  0  0  0  0  0  0  0  0  0  0  0
  152.3525  142.6266  159.3247 C   0  0  0  0  0  0  0  0  0  0  0  0
  151.1136  142.9429  157.2712 N   0  0  0  0  0  0  0  0  0  0  0  0
  150.5916  141.7129  157.1192 C   0  0  0  0  0  0  0  0  0  0  0  0
  150.3216  140.9606  158.0558 O   0  0  0  0  0  0  0  0  0  0  0  0
  150.3153  141.2785  155.6741 C   0  0  0  0  0  0  0  0  0  0  0  0
  150.5225  139.8362  155.4689 N   0  0  0  0  0  0  0  0  0  0  0  0
  149.4570  139.0893  154.9363 C   0  0  0  0  0  0  0  0  0  0  0  0
  149.5571  137.7641  154.7193 C   0  0  0  0  0  0  0  0  0  0  0  0
  150.8128  137.1029  155.0525 C   0  0  0  0  0  0  0  0  0  0  0  0
  150.9236  135.8940  154.8575 O   0  0  0  0  0  0  0  0  0  0  0  0
  151.8161  137.8700  155.5707 N   0  5  0  0  0  0  0  0  0  0  0  0
  151.6996  139.2170  155.7869 C   0  0  0  0  0  0  0  0  0  0  0  0
  152.6180  139.8908  156.2556 O   0  0  0  0  0  0  0  0  0  0  0  0
  149.6218  145.1934  161.0826 H   0  0  0  0  0  0  0  0  0  0  0  0
  151.0204  145.8881  160.2815 H   0  0  0  0  0  0  0  0  0  0  0  0
  151.1969  144.4473  161.2832 H   0  0  0  0  0  0  0  0  0  0  0  0
  149.7158  143.1801  159.6810 H   0  0  0  0  0  0  0  0  0  0  0  0
  149.5636  144.5887  158.6855 H   0  0  0  0  0  0  0  0  0  0  0  0
  152.7578  145.3127  159.1084 H   0  0  0  0  0  0  0  0  0  0  0  0
  151.8275  145.6242  157.6565 H   0  0  0  0  0  0  0  0  0  0  0  0
  153.2411  144.5805  157.5845 H   0  0  0  0  0  0  0  0  0  0  0  0
  152.6515  143.0484  160.2847 H   0  0  0  0  0  0  0  0  0  0  0  0
  153.2637  142.3571  158.7891 H   0  0  0  0  0  0  0  0  0  0  0  0
  151.8146  141.6999  159.5261 H   0  0  0  0  0  0  0  0  0  0  0  0
  151.2879  143.4606  156.4221 H   0  0  0  0  0  0  0  0  0  0  0  0
  149.2908  141.5584  155.4267 H   0  0  0  0  0  0  0  0  0  0  0  0
  150.9426  141.8466  154.9843 H   0  0  0  0  0  0  0  0  0  0  0  0
  148.5606  139.6531  154.7231 H   0  0  0  0  0  0  0  0  0  0  0  0
  148.7284  137.2042  154.3116 H   0  0  0  0  0  0  0  0  0  0  0  0
  1  2  1  0  0  0  0
  1 18  1  0  0  0  0
  1 19  1  0  0  0  0
  1 20  1  0  0  0  0
  2  3  1  0  0  0  0
  2 21  1  0  0  0  0
  2 22  1  0  0  0  0
  3  4  1  0  0  0  0
  3  5  1  0  0  0  0
  3  6  1  0  0  0  0
  4 23  1  0  0  0  0
  4 24  1  0  0  0  0
  4 25  1  0  0  0  0
  5 26  1  0  0  0  0
  5 27  1  0  0  0  0
  5 28  1  0  0  0  0
  6  7  1  0  0  0  0
  6 29  1  0  0  0  0
  7  8  2  0  0  0  0
  7  9  1  0  0  0  0
  9 10  1  0  0  0  0
  9 30  1  0  0  0  0
  9 31  1  0  0  0  0
 10 16  1  0  0  0  0
 10 11  1  0  0  0  0
 11 12  2  0  0  0  0
 11 32  1  0  0  0  0
 12 13  1  0  0  0  0
 12 33  1  0  0  0  0
 13 14  2  0  0  0  0
 13 15  1  0  0  0  0
 15 16  1  0  0  0  0
 16 17  2  0  0  0  0
M  CHG  1  15  -1
M  END
> <s_m_source_file>
AV-unprocessed.smi

> <i_m_source_file_index>
2129

> <i_lp_mmshare_version>
43012

> <i_f3d_flags>
0

> <s_epik_input>
W0NIM11bQ0gyXUMoW0NIM10pKFtDSDNdKVtOSF1DKD1PKVtDSDJdbjFbY0hdW2NIXWMoPU8pW25IXWMxPU8=

> <s_epik_cmdline>
J2VwaWtfcHl0aG9uJywgJy1waCcsICc3LjAnLCAnLXRuJywgJzgnLCAnLW1hJywgJzIwMCcsICctbWV0YWxfYmluZGluZycsICctaW1hZScsICc8aW5maWxlLm1hZT4nLCAnLW9tYWUnLCAnPG91dGZpbGUubWFlPic=

> <r_lp_tautomer_probability>
0.999537

> <r_epik_Ionization_Penalty>
3.14534

> <r_epik_Ionization_Penalty_Charging>
2.92803e-08

> <r_epik_Ionization_Penalty_Neutral>
3.14534

> <r_epik_State_Penalty>
3.14446

> <r_epik_Charging_Adjusted_Penalty>
3.14446

> <i_epik_Tot_Q>
-1

> <i_epik_Tot_abs_Q>
1

> <r_epik_Metal_State_Penalty>
0.465837

> <b_epik_Metal_Only>
1

> <s_lp_Force_Field>
OPLS_2005

> <r_lp_Energy>
14.5296

> <b_lp_Chiralities_Consistent>
1

> <s_lp_Variant>
AV-unprocessed.smi:2129-2

> <Gold.Version>
5.8.1

> <Gold.Id.Protein>
6NUR|6NUR_protein|mol2

> <Gold.PLP.Fitness>
37.2630

> <Gold.PLP.PLP>
-32.5512

> <Gold.PLP.part.hbond>
-2.0000

> <Gold.PLP.part.metal>
0.0000

> <Gold.PLP.part.buried>
-2.4712

> <Gold.PLP.part.nonpolar>
-28.4583

> <Gold.PLP.part.repulsive>
0.2195

> <Gold.PLP.ligand.clash>
0.0000

> <Gold.PLP.ligand.torsion>
0.6610

> <Gold.PLP.Chemscore.Hbond>
2.0000

> <Gold.PLP.Chemscore.CHOScore>
0.0000

> <Gold.PLP.Chemscore.Metal>
0.0000

> <Gold.Chemscore.Hbonds>
donor molecule, donor type, donor heavy atom, donor atom, acceptor molecule, acceptor atom, score
      P1  H  7997  8008       L1    17  1.00
      P1  H 10752 10763       L1    14  0.91

> <Gold.PLP.Chemscore.Internal.Correction>
0.0339

> <Gold.Rescore>
     Score         DG    S(hbond)    S(metal)    S(lipo)     H(rot)  DE(clash)    DE(int)     intcor
     11.48     -14.24       1.63        0.00      70.06       1.90       0.07       2.69       ----

> <Gold.Chemscore.Fitness>
11.4788

> <Gold.Chemscore.DG>
-14.2401

> <Gold.Chemscore.ZeroCoef>
-5.4800

> <Gold.Chemscore.Hbond>
1.6272

> <Gold.Chemscore.Metal>
0.0000

> <Gold.Chemscore.Lipo>
70.0613

> <Gold.Chemscore.Internal_Hbond>
0.0000

> <Gold.Chemscore.DEClash>
0.0671

> <Gold.Chemscore.DEInternal>
2.6942

> <Gold.Chemscore.Rot>
1.9031

> <Gold.Chemscore.Internal.Correction>
   9.000000E+99

> <Gold.Chemscore.Hbonds>
donor molecule, donor type, donor heavy atom, donor atom, acceptor molecule, acceptor atom, score
      P1  H  7997  8008       L1    17  1.00
      P1  H 10752 10763       L1    14  0.43

> <Gold.Chemscore.Hbond.Weighted>
-5.4349

> <Gold.Chemscore.Metal.Weighted>
-0.0000

> <Gold.Chemscore.Lipo.Weighted>
-8.1972

> <Gold.Chemscore.Internal_Hbond.Weighted>
0.0000

> <Gold.Chemscore.DEClash.Weighted>
0.0671

> <Gold.Chemscore.DEInternal.Weighted>
2.6942

> <Gold.Chemscore.Rot.Weighted>
4.8720

> <Gold.Chemscore.Internal.Correction.Weighted>
   9.000000E+99

> <Gold.Protein.RotatedTorsions>
[ 6907 6896 6895 6894 ] final -169.50 input  -60.11 | X-H torsion
[ 7974 7965 7964 7962 ] final  -34.56 input  175.53 | X-H torsion
[ 8008 7997 7996 7995 ] final  -34.34 input   59.86 | X-H torsion
[ 10167 10162 10161 10158 ] final   11.94 input  -65.29 | X-H torsion
[ 10718 10713 10712 10709 ] final  -34.06 input   66.30 | X-H torsion
[ 10763 10752 10751 10750 ] final   46.22 input  -60.55 | X-H torsion
[ 11005 11000 10999 10996 ] final -122.64 input  -57.11 | X-H torsion

> <Gold.Protein.ActiveResidues>
 VAL166  LYS551  ARG553  GLY616  TRP617  ASP618  TYR619  PRO620  LYS621  CYS622 
 ASP623  PHE694  ASN695  SER759  ASP760  ASP761  ALA762  ILE779  LEU786  VAL792 
 PHE793  MET794  SER795  GLU796  ALA797  LYS798  CYS799  TRP800  GLU811  SER814 

> <Gold.Protein.RotatedAtoms>
  151.4927  133.3521  159.2855 H   0  0  0  0  0  0  0  0  0  0  0  0  # atno 6907 bound_to 6896
  150.8824  134.8219  159.7245 H   0  0  0  0  0  0  0  0  0  0  0  0  # atno 6908 bound_to 6896
  152.4771  134.4826  159.9722 H   0  0  0  0  0  0  0  0  0  0  0  0  # atno 6909 bound_to 6896
  146.0819  140.6053  142.8904 H   0  0  0  0  0  0  0  0  0  0  0  0  # atno 7974 bound_to 7965
  154.4123  140.1686  156.2034 H   0  0  0  0  0  0  0  0  0  0  0  0  # atno 8008 bound_to 7997
  155.9505  140.3401  155.6380 H   0  0  0  0  0  0  0  0  0  0  0  0  # atno 8009 bound_to 7997
  155.6876  140.0730  157.2451 H   0  0  0  0  0  0  0  0  0  0  0  0  # atno 8010 bound_to 7997
  140.6100  143.8428  150.7055 H   0  0  0  0  0  0  0  0  0  0  0  0  # atno 10167 bound_to 10162
  156.3551  130.4314  149.7671 H   0  0  0  0  0  0  0  0  0  0  0  0  # atno 10718 bound_to 10713
  152.9813  135.6015  154.3564 H   0  0  0  0  0  0  0  0  0  0  0  0  # atno 10763 bound_to 10752
  154.3249  135.2769  155.2503 H   0  0  0  0  0  0  0  0  0  0  0  0  # atno 10764 bound_to 10752
  154.4652  135.5955  153.6339 H   0  0  0  0  0  0  0  0  0  0  0  0  # atno 10765 bound_to 10752
  140.9980  134.0444  157.3573 H   0  0  0  0  0  0  0  0  0  0  0  0  # atno 11005 bound_to 11000
  144.7299  140.4640  143.6945 LP  0  0  0  0  0  0  0  0  0  0  0  0  # atno 17320 bound_to 7965
  145.6201  139.1523  143.3027 LP  0  0  0  0  0  0  0  0  0  0  0  0  # atno 17321 bound_to 7965
  140.1994  143.3971  152.1803 LP  0  0  0  0  0  0  0  0  0  0  0  0  # atno 17342 bound_to 10162
  139.5354  144.7203  151.4912 LP  0  0  0  0  0  0  0  0  0  0  0  0  # atno 17343 bound_to 10162
  156.4856  130.8061  151.3073 LP  0  0  0  0  0  0  0  0  0  0  0  0  # atno 17370 bound_to 10713
  157.7466  130.9992  150.2879 LP  0  0  0  0  0  0  0  0  0  0  0  0  # atno 17371 bound_to 10713
  139.9024  135.0169  156.7331 LP  0  0  0  0  0  0  0  0  0  0  0  0  # atno 17394 bound_to 11000
  140.6935  133.9369  155.7980 LP  0  0  0  0  0  0  0  0  0  0  0  0  # atno 17395 bound_to 11000

$$$$
