AV-unprocessed.smi:218|AV-procd|sdf|1665|dock6
  -GOLD-   2262020 73D 1   1.00000     0.00000
 Structure written by MMmdl.
 54 57  0  0  0  0  0  0  0  0  1 V2000
  146.7687  145.8317  159.6512 C   0  0  0  0  0  0  0  0  0  0  0  0
  146.7127  144.3211  159.3930 C   0  0  0  0  0  0  0  0  0  0  0  0
  145.6022  143.6553  160.2239 C   0  0  0  0  0  0  0  0  0  0  0  0
  147.9894  143.7903  159.7538 O   0  0  0  0  0  0  0  0  0  0  0  0
  149.0898  144.0211  158.9506 C   0  0  0  0  0  0  0  0  0  0  0  0
  149.6160  142.9413  158.2125 C   0  0  0  0  0  0  0  0  0  0  0  0
  150.7439  143.1597  157.3962 C   0  0  0  0  0  0  0  0  0  0  0  0
  151.3347  142.0298  156.5813 C   0  0  0  0  0  0  0  0  0  0  0  0
  150.8049  140.7289  156.9634 N   0  0  0  0  0  0  0  0  0  0  0  0
  151.4282  139.6004  156.5628 C   0  0  0  0  0  0  0  0  0  0  0  0
  152.2781  139.6089  155.5028 N   0  0  0  0  0  0  0  0  0  0  0  0
  152.8825  138.4789  155.1244 C   0  0  0  0  0  0  0  0  0  0  0  0
  152.7766  137.2593  155.6552 N   0  0  0  0  0  0  0  0  0  0  0  0
  151.9251  137.2430  156.7216 C   0  0  0  0  0  0  0  0  0  0  0  0
  151.2178  138.3675  157.2329 C   0  0  0  0  0  0  0  0  0  0  0  0
  150.4456  137.9843  158.3212 N   0  0  0  0  0  0  0  0  0  0  0  0
  150.6860  136.7068  158.4432 C   0  0  0  0  0  0  0  0  0  0  0  0
  151.5628  136.1768  157.5230 N   0  0  0  0  0  0  0  0  0  0  0  0
  152.0168  134.7517  157.4326 C   0  0  1  0  0  0  0  0  0  0  0  0
  151.4806  134.0042  158.4841 O   0  0  0  0  0  0  0  0  0  0  0  0
  151.0755  132.7033  158.0429 C   0  0  1  0  0  0  0  0  0  0  0  0
  149.5446  132.5957  158.2012 C   0  0  0  0  0  0  0  0  0  0  0  0
  149.1969  132.7132  159.5638 O   0  0  0  0  0  0  0  0  0  0  0  0
  151.5872  132.6218  156.5928 C   0  0  1  0  0  0  0  0  0  0  0  0
  150.8746  131.7550  155.7293 O   0  0  0  0  0  0  0  0  0  0  0  0
  151.5994  134.0675  156.1277 C   0  0  1  0  0  0  0  0  0  0  0  0
  150.3431  134.5071  155.6383 O   0  0  0  0  0  0  0  0  0  0  0  0
  151.2995  144.4534  157.3418 C   0  0  0  0  0  0  0  0  0  0  0  0
  150.7045  145.4692  158.1147 C   0  0  0  0  0  0  0  0  0  0  0  0
  149.6281  145.2653  158.9035 N   0  0  0  0  0  0  0  0  0  0  0  0
  153.1005  134.7969  157.5504 H   0  0  0  0  0  0  0  0  0  0  0  0
  151.5619  131.9336  158.6437 H   0  0  0  0  0  0  0  0  0  0  0  0
  152.6200  132.2706  156.6221 H   0  0  0  0  0  0  0  0  0  0  0  0
  152.3522  134.2451  155.3591 H   0  0  0  0  0  0  0  0  0  0  0  0
  145.8273  146.3114  159.3821 H   0  0  0  0  0  0  0  0  0  0  0  0
  147.5581  146.2989  159.0618 H   0  0  0  0  0  0  0  0  0  0  0  0
  146.9657  146.0472  160.7018 H   0  0  0  0  0  0  0  0  0  0  0  0
  146.5161  144.1836  158.3287 H   0  0  0  0  0  0  0  0  0  0  0  0
  144.6277  144.0816  159.9847 H   0  0  0  0  0  0  0  0  0  0  0  0
  145.7735  143.7948  161.2915 H   0  0  0  0  0  0  0  0  0  0  0  0
  145.5432  142.5835  160.0367 H   0  0  0  0  0  0  0  0  0  0  0  0
  149.1606  141.9635  158.2733 H   0  0  0  0  0  0  0  0  0  0  0  0
  151.1340  142.2093  155.5242 H   0  0  0  0  0  0  0  0  0  0  0  0
  152.4182  142.0346  156.7084 H   0  0  0  0  0  0  0  0  0  0  0  0
  149.9575  140.7354  157.5127 H   0  0  0  0  0  0  0  0  0  0  0  0
  153.5441  138.5623  154.2747 H   0  0  0  0  0  0  0  0  0  0  0  0
  150.2270  136.1088  159.2169 H   0  0  0  0  0  0  0  0  0  0  0  0
  149.0170  133.3435  157.6110 H   0  0  0  0  0  0  0  0  0  0  0  0
  149.1893  131.6200  157.8709 H   0  0  0  0  0  0  0  0  0  0  0  0
  149.8876  132.3255  160.0800 H   0  0  0  0  0  0  0  0  0  0  0  0
  150.0458  132.1571  155.5171 H   0  0  0  0  0  0  0  0  0  0  0  0
  150.3814  134.5216  154.6942 H   0  0  0  0  0  0  0  0  0  0  0  0
  152.1595  144.6649  156.7234 H   0  0  0  0  0  0  0  0  0  0  0  0
  151.1034  146.4726  158.0989 H   0  0  0  0  0  0  0  0  0  0  0  0
  1  2  1  0  0  0  0
  1 35  1  0  0  0  0
  1 36  1  0  0  0  0
  1 37  1  0  0  0  0
  2  3  1  0  0  0  0
  2  4  1  0  0  0  0
  2 38  1  0  0  0  0
  3 39  1  0  0  0  0
  3 40  1  0  0  0  0
  3 41  1  0  0  0  0
  4  5  1  0  0  0  0
  5 30  1  0  0  0  0
  5  6  2  0  0  0  0
  6  7  1  0  0  0  0
  6 42  1  0  0  0  0
  7  8  1  0  0  0  0
  7 28  2  0  0  0  0
  8  9  1  0  0  0  0
  8 43  1  0  0  0  0
  8 44  1  0  0  0  0
  9 10  1  0  0  0  0
  9 45  1  0  0  0  0
 10 15  1  0  0  0  0
 10 11  2  0  0  0  0
 11 12  1  0  0  0  0
 12 13  2  0  0  0  0
 12 46  1  0  0  0  0
 13 14  1  0  0  0  0
 14 18  1  0  0  0  0
 14 15  2  0  0  0  0
 15 16  1  0  0  0  0
 16 17  2  0  0  0  0
 17 18  1  0  0  0  0
 17 47  1  0  0  0  0
 18 19  1  0  0  0  0
 19 31  1  0  0  0  0
 19 26  1  0  0  0  0
 19 20  1  0  0  0  0
 20 21  1  0  0  0  0
 21 32  1  0  0  0  0
 21 22  1  0  0  0  0
 21 24  1  0  0  0  0
 22 23  1  0  0  0  0
 22 48  1  0  0  0  0
 22 49  1  0  0  0  0
 23 50  1  0  0  0  0
 24 33  1  0  0  0  0
 24 25  1  0  0  0  0
 24 26  1  0  0  0  0
 25 51  1  0  0  0  0
 26 34  1  0  0  0  0
 26 27  1  0  0  0  0
 27 52  1  0  0  0  0
 28 29  1  0  0  0  0
 28 53  1  0  0  0  0
 29 30  2  0  0  0  0
 29 54  1  0  0  0  0
M  END
> <s_m_source_file>
AV-unprocessed.smi

> <i_m_source_file_index>
218

> <i_lp_mmshare_version>
43012

> <i_f3d_flags>
0

> <s_epik_input>
W0NIM11bQ0hdKFtDSDNdKU9jMVtjSF1jKFtjSF1bY0hdbjEpW0NIMl1bTkhdYyhuW2NIXW4yKWMoYzIzKW5bY0hdbjNbQ0BASF00T1tDQEhdKFtDSDJdW09IXSlbQ0BASF0oW09IXSlbQ0BIXTRbT0hd

> <s_epik_cmdline>
J2VwaWtfcHl0aG9uJywgJy1waCcsICc3LjAnLCAnLXRuJywgJzgnLCAnLW1hJywgJzIwMCcsICctbWV0YWxfYmluZGluZycsICctaW1hZScsICc8aW5maWxlLm1hZT4nLCAnLW9tYWUnLCAnPG91dGZpbGUubWFlPic=

> <r_lp_tautomer_probability>
1

> <r_epik_Ionization_Penalty>
0.00457014

> <r_epik_Ionization_Penalty_Charging>
0

> <r_epik_Ionization_Penalty_Neutral>
0.00457014

> <r_epik_State_Penalty>
-0

> <r_epik_Charging_Adjusted_Penalty>
0

> <i_epik_Tot_Q>
0

> <i_epik_Tot_abs_Q>
0

> <r_epik_Metal_State_Penalty>
-0

> <b_epik_Metal_Only>
0

> <s_epik_Chemistry_Notes>
This compound contains an acetal/aminal-like group ( X-CH(R)-Y where X, Y are N, S, or O) that may be acid/base labile, releasing an aldehyde.

> <s_lp_Force_Field>
OPLS_2005

> <r_lp_Energy>
50.2222

> <b_lp_Chiralities_Consistent>
1

> <s_lp_Variant>
AV-unprocessed.smi:218-4

> <Gold.Version>
5.8.1

> <Gold.Id.Protein>
6NUR|6NUR_protein|mol2

> <Gold.PLP.Fitness>
55.5805

> <Gold.PLP.PLP>
-43.7182

> <Gold.PLP.part.hbond>
-5.0000

> <Gold.PLP.part.metal>
0.0000

> <Gold.PLP.part.buried>
-9.6027

> <Gold.PLP.part.nonpolar>
-29.4839

> <Gold.PLP.part.repulsive>
0.4933

> <Gold.PLP.ligand.clash>
0.0000

> <Gold.PLP.ligand.torsion>
0.5420

> <Gold.PLP.Chemscore.Hbond>
4.2601

> <Gold.PLP.Chemscore.CHOScore>
0.0000

> <Gold.PLP.Chemscore.Metal>
0.0000

> <Gold.Chemscore.Hbonds>
donor molecule, donor type, donor heavy atom, donor atom, acceptor molecule, acceptor atom, score
      P1  H  6933  6944       L1     4  0.41
      P1  H  7997  8008       L1    11  0.05
      P1  H 10752 10764       L1    13  0.38

> <Gold.PLP.Chemscore.Internal.Correction>
0.1658

> <Gold.Rescore>
     Score         DG    S(hbond)    S(metal)    S(lipo)     H(rot)  DE(clash)    DE(int)     intcor
     10.89     -12.66       2.93        0.00      84.98       4.90       1.25       0.52       ----

> <Gold.Chemscore.Fitness>
10.8859

> <Gold.Chemscore.DG>
-12.6621

> <Gold.Chemscore.ZeroCoef>
-5.4800

> <Gold.Chemscore.Hbond>
2.9313

> <Gold.Chemscore.Metal>
0.0000

> <Gold.Chemscore.Lipo>
84.9832

> <Gold.Chemscore.Internal_Hbond>
0.0000

> <Gold.Chemscore.DEClash>
1.2515

> <Gold.Chemscore.DEInternal>
0.5248

> <Gold.Chemscore.Rot>
4.9029

> <Gold.Chemscore.Internal.Correction>
   9.000000E+99

> <Gold.Chemscore.Hbonds>
donor molecule, donor type, donor heavy atom, donor atom, acceptor molecule, acceptor atom, score
      P1  H  6933  6944       L1     4  0.28
      P1  H  7989  7998       L1    11  0.03
      P1  H 10752 10764       L1    13  0.35

> <Gold.Chemscore.Hbond.Weighted>
-9.7906

> <Gold.Chemscore.Metal.Weighted>
-0.0000

> <Gold.Chemscore.Lipo.Weighted>
-9.9430

> <Gold.Chemscore.Internal_Hbond.Weighted>
0.0000

> <Gold.Chemscore.DEClash.Weighted>
1.2515

> <Gold.Chemscore.DEInternal.Weighted>
0.5248

> <Gold.Chemscore.Rot.Weighted>
12.5515

> <Gold.Chemscore.Internal.Correction.Weighted>
   9.000000E+99

> <Gold.Protein.RotatedTorsions>
[ 6907 6896 6895 6894 ] final -120.53 input  -60.11 | X-H torsion
[ 7974 7965 7964 7962 ] final  103.50 input  175.53 | X-H torsion
[ 8008 7997 7996 7995 ] final  -30.49 input   59.86 | X-H torsion
[ 10167 10162 10161 10158 ] final  -36.57 input  -65.29 | X-H torsion
[ 10718 10713 10712 10709 ] final -167.42 input   66.30 | X-H torsion
[ 10763 10752 10751 10750 ] final  -67.54 input  -60.55 | X-H torsion
[ 11005 11000 10999 10996 ] final  174.51 input  -57.11 | X-H torsion

> <Gold.Protein.ActiveResidues>
 VAL166  LYS551  ARG553  GLY616  TRP617  ASP618  TYR619  PRO620  LYS621  CYS622 
 ASP623  PHE694  ASN695  SER759  ASP760  ASP761  ALA762  ILE779  LEU786  VAL792 
 PHE793  MET794  SER795  GLU796  ALA797  LYS798  CYS799  TRP800  GLU811  SER814 

> <Gold.Protein.RotatedAtoms>
  150.8402  133.7949  159.3063 H   0  0  0  0  0  0  0  0  0  0  0  0  # atno 6907 bound_to 6896
  151.5652  135.1062  159.9992 H   0  0  0  0  0  0  0  0  0  0  0  0  # atno 6908 bound_to 6896
  152.4467  133.7507  159.6749 H   0  0  0  0  0  0  0  0  0  0  0  0  # atno 6909 bound_to 6896
  145.3451  139.2452  143.3588 H   0  0  0  0  0  0  0  0  0  0  0  0  # atno 7974 bound_to 7965
  154.4249  140.1790  156.1415 H   0  0  0  0  0  0  0  0  0  0  0  0  # atno 8008 bound_to 7997
  155.9988  140.3362  155.6800 H   0  0  0  0  0  0  0  0  0  0  0  0  # atno 8009 bound_to 7997
  155.6271  140.0666  157.2651 H   0  0  0  0  0  0  0  0  0  0  0  0  # atno 8010 bound_to 7997
  140.7139  143.3399  151.2379 H   0  0  0  0  0  0  0  0  0  0  0  0  # atno 10167 bound_to 10162
  156.6821  130.9126  151.3058 H   0  0  0  0  0  0  0  0  0  0  0  0  # atno 10718 bound_to 10713
  154.3760  135.6084  153.5765 H   0  0  0  0  0  0  0  0  0  0  0  0  # atno 10763 bound_to 10752
  152.9789  135.5849  154.4466 H   0  0  0  0  0  0  0  0  0  0  0  0  # atno 10764 bound_to 10752
  154.4227  135.2846  155.1942 H   0  0  0  0  0  0  0  0  0  0  0  0  # atno 10765 bound_to 10752
  140.3520  134.7186  157.4274 H   0  0  0  0  0  0  0  0  0  0  0  0  # atno 11005 bound_to 11000
  146.2991  140.4056  142.8710 LP  0  0  0  0  0  0  0  0  0  0  0  0  # atno 17320 bound_to 7965
  144.8760  140.7337  143.6016 LP  0  0  0  0  0  0  0  0  0  0  0  0  # atno 17321 bound_to 7965
  139.6904  143.9701  152.2856 LP  0  0  0  0  0  0  0  0  0  0  0  0  # atno 17342 bound_to 10162
  139.9361  144.6711  150.8313 LP  0  0  0  0  0  0  0  0  0  0  0  0  # atno 17343 bound_to 10162
  157.7040  130.9364  150.0872 LP  0  0  0  0  0  0  0  0  0  0  0  0  # atno 17370 bound_to 10713
  156.1860  130.3652  149.8972 LP  0  0  0  0  0  0  0  0  0  0  0  0  # atno 17371 bound_to 10713
  140.0695  134.5882  155.8658 LP  0  0  0  0  0  0  0  0  0  0  0  0  # atno 17394 bound_to 11000
  141.2009  133.6615  156.5922 LP  0  0  0  0  0  0  0  0  0  0  0  0  # atno 17395 bound_to 11000

$$$$
