AV-unprocessed.smi:805|AV-procd|sdf|3799|dock3
  -GOLD-   22720 1233D 1   1.00000     0.00000
 Structure written by MMmdl.
 40 41  0  0  0  0  0  0  0  0  1 V2000
  151.2500  140.6497  156.1165 C   0  0  0  0  0  0  0  0  0  0  0  0
  150.6736  139.5099  155.2739 C   0  0  0  0  0  0  0  0  0  0  0  0
  149.4756  139.9551  154.6607 O   0  0  0  0  0  0  0  0  0  0  0  0
  148.7389  138.9037  154.0560 C   0  0  1  0  0  0  0  0  0  0  0  0
  148.0939  137.9278  155.0444 C   0  0  0  0  0  0  0  0  0  0  0  0
  146.8449  137.9630  154.1572 C   0  0  2  0  0  0  0  0  0  0  0  0
  146.8684  136.8749  153.1784 N   0  0  0  0  0  0  0  0  0  0  0  0
  145.8284  136.0764  152.9032 C   0  0  0  0  0  0  0  0  0  0  0  0
  144.7317  136.1792  153.4521 O   0  0  0  0  0  0  0  0  0  0  0  0
  146.1413  135.1868  151.9457 N   0  0  0  0  0  0  0  0  0  0  0  0
  145.3116  134.1977  151.3523 C   0  0  0  0  0  0  0  0  0  0  0  0
  145.9236  133.2311  150.5282 C   0  0  0  0  0  0  0  0  0  0  0  0
  145.1292  132.2301  149.9376 C   0  0  0  0  0  0  0  0  0  0  0  0
  143.7463  132.2293  150.2038 C   0  0  0  0  0  0  0  0  0  0  0  0
  143.1463  133.1368  151.0024 N   0  0  0  0  0  0  0  0  0  0  0  0
  143.9139  134.0957  151.5640 C   0  0  0  0  0  0  0  0  0  0  0  0
  147.3245  139.3351  153.5997 C   0  0  0  0  0  0  0  0  0  0  0  0
  146.7290  140.5466  154.3301 C   0  0  0  0  0  0  0  0  0  0  0  0
  147.1611  139.6104  152.1000 C   0  0  0  0  0  0  0  0  0  0  0  0
  152.1771  140.3449  156.6020 H   0  0  0  0  0  0  0  0  0  0  0  0
  150.5492  140.9535  156.8945 H   0  0  0  0  0  0  0  0  0  0  0  0
  151.4655  141.5222  155.4994 H   0  0  0  0  0  0  0  0  0  0  0  0
  151.3941  139.2073  154.5126 H   0  0  0  0  0  0  0  0  0  0  0  0
  150.4787  138.6438  155.9078 H   0  0  0  0  0  0  0  0  0  0  0  0
  149.2902  138.3944  153.2623 H   0  0  0  0  0  0  0  0  0  0  0  0
  148.5905  136.9596  155.1185 H   0  0  0  0  0  0  0  0  0  0  0  0
  147.9256  138.3662  156.0293 H   0  0  0  0  0  0  0  0  0  0  0  0
  145.9206  138.0196  154.7349 H   0  0  0  0  0  0  0  0  0  0  0  0
  147.7328  136.7261  152.6787 H   0  0  0  0  0  0  0  0  0  0  0  0
  147.0627  135.2759  151.5434 H   0  0  0  0  0  0  0  0  0  0  0  0
  146.9879  133.2571  150.3448 H   0  0  0  0  0  0  0  0  0  0  0  0
  145.5693  131.4805  149.2969 H   0  0  0  0  0  0  0  0  0  0  0  0
  143.1060  131.4764  149.7682 H   0  0  0  0  0  0  0  0  0  0  0  0
  143.3816  134.7753  152.2108 H   0  0  0  0  0  0  0  0  0  0  0  0
  145.6748  140.6799  154.0855 H   0  0  0  0  0  0  0  0  0  0  0  0
  147.2464  141.4695  154.0656 H   0  0  0  0  0  0  0  0  0  0  0  0
  146.7949  140.4428  155.4134 H   0  0  0  0  0  0  0  0  0  0  0  0
  146.1095  139.6395  151.8127 H   0  0  0  0  0  0  0  0  0  0  0  0
  147.6441  138.8477  151.4889 H   0  0  0  0  0  0  0  0  0  0  0  0
  147.6059  140.5652  151.8178 H   0  0  0  0  0  0  0  0  0  0  0  0
  1  2  1  0  0  0  0
  1 20  1  0  0  0  0
  1 21  1  0  0  0  0
  1 22  1  0  0  0  0
  2  3  1  0  0  0  0
  2 23  1  0  0  0  0
  2 24  1  0  0  0  0
  3  4  1  0  0  0  0
  4 17  1  0  0  0  0
  4  5  1  0  0  0  0
  4 25  1  0  0  0  0
  5  6  1  0  0  0  0
  5 26  1  0  0  0  0
  5 27  1  0  0  0  0
  6  7  1  0  0  0  0
  6 17  1  0  0  0  0
  6 28  1  0  0  0  0
  7  8  1  0  0  0  0
  7 29  1  0  0  0  0
  8  9  2  0  0  0  0
  8 10  1  0  0  0  0
 10 11  1  0  0  0  0
 10 30  1  0  0  0  0
 11 16  1  0  0  0  0
 11 12  2  0  0  0  0
 12 13  1  0  0  0  0
 12 31  1  0  0  0  0
 13 14  2  0  0  0  0
 13 32  1  0  0  0  0
 14 15  1  0  0  0  0
 14 33  1  0  0  0  0
 15 16  2  0  0  0  0
 16 34  1  0  0  0  0
 17 18  1  0  0  0  0
 17 19  1  0  0  0  0
 18 35  1  0  0  0  0
 18 36  1  0  0  0  0
 18 37  1  0  0  0  0
 19 38  1  0  0  0  0
 19 39  1  0  0  0  0
 19 40  1  0  0  0  0
M  END
> <s_m_source_file>
AV-unprocessed.smi

> <i_m_source_file_index>
805

> <i_lp_mmshare_version>
43012

> <i_f3d_flags>
0

> <s_epik_input>
W0NIM11bQ0gyXU9bQ0BASF0oQzEoW0NIM10pW0NIM10pW0NIMl1bQ0BIXTFbTkhdQyg9TylbTkhdYzJbY0hdW2NIXVtjSF1uW2NIXTI=

> <s_epik_cmdline>
J2VwaWtfcHl0aG9uJywgJy1waCcsICc3LjAnLCAnLXRuJywgJzgnLCAnLW1hJywgJzIwMCcsICctbWV0YWxfYmluZGluZycsICctaW1hZScsICc8aW5maWxlLm1hZT4nLCAnLW9tYWUnLCAnPG91dGZpbGUubWFlPic=

> <r_epik_Ionization_Penalty>
0.00485231

> <r_epik_Ionization_Penalty_Charging>
0

> <r_epik_Ionization_Penalty_Neutral>
0.00485231

> <r_epik_State_Penalty>
0.00349213

> <r_epik_Charging_Adjusted_Penalty>
0.00349213

> <i_epik_Tot_Q>
0

> <i_epik_Tot_abs_Q>
0

> <r_epik_Metal_State_Penalty>
-0

> <b_epik_Metal_Only>
0

> <s_lp_Force_Field>
OPLS_2005

> <r_lp_Energy>
23.2573

> <b_lp_Chiralities_Consistent>
1

> <s_lp_Variant>
AV-unprocessed.smi:805-4

> <Gold.Version>
5.8.1

> <Gold.Id.Protein>
6NUR|6NUR_protein|mol2

> <Gold.PLP.Fitness>
37.7065

> <Gold.PLP.PLP>
-29.9873

> <Gold.PLP.part.hbond>
-1.9585

> <Gold.PLP.part.metal>
0.0000

> <Gold.PLP.part.buried>
-0.9180

> <Gold.PLP.part.nonpolar>
-26.9255

> <Gold.PLP.part.repulsive>
0.7942

> <Gold.PLP.ligand.clash>
0.0000

> <Gold.PLP.ligand.torsion>
0.2124

> <Gold.PLP.Chemscore.Hbond>
1.7216

> <Gold.PLP.Chemscore.CHOScore>
0.8854

> <Gold.PLP.Chemscore.Metal>
0.0000

> <Gold.Chemscore.Hbonds>
donor molecule, donor type, donor heavy atom, donor atom, acceptor molecule, acceptor atom, score
      L1  H     7    29       P1  7948  1.00
      L1  H    10    30       P1  7948  0.72
      L1  C    14    33       P1 10952  0.93

> <Gold.PLP.Chemscore.Internal.Correction>
0.3231

> <Gold.Rescore>
     Score         DG    S(hbond)    S(metal)    S(lipo)     H(rot)  DE(clash)    DE(int)     intcor
     16.17     -18.07       1.93        0.00      82.10       1.36       0.47       1.44       ----

> <Gold.Chemscore.Fitness>
16.1650

> <Gold.Chemscore.DG>
-18.0738

> <Gold.Chemscore.ZeroCoef>
-5.4800

> <Gold.Chemscore.Hbond>
1.9331

> <Gold.Chemscore.Metal>
0.0000

> <Gold.Chemscore.Lipo>
82.1041

> <Gold.Chemscore.Internal_Hbond>
0.0000

> <Gold.Chemscore.DEClash>
0.4660

> <Gold.Chemscore.DEInternal>
1.4428

> <Gold.Chemscore.Rot>
1.3551

> <Gold.Chemscore.Internal.Correction>
   9.000000E+99

> <Gold.Chemscore.Hbonds>
donor molecule, donor type, donor heavy atom, donor atom, acceptor molecule, acceptor atom, score
      L1  H     7    29       P1  7948  0.94
      L1  H    10    30       P1  7948  0.68

> <Gold.Chemscore.Hbond.Weighted>
-6.4567

> <Gold.Chemscore.Metal.Weighted>
-0.0000

> <Gold.Chemscore.Lipo.Weighted>
-9.6062

> <Gold.Chemscore.Internal_Hbond.Weighted>
0.0000

> <Gold.Chemscore.DEClash.Weighted>
0.4660

> <Gold.Chemscore.DEInternal.Weighted>
1.4428

> <Gold.Chemscore.Rot.Weighted>
3.4691

> <Gold.Chemscore.Internal.Correction.Weighted>
   9.000000E+99

> <Gold.Protein.RotatedTorsions>
[ 6907 6896 6895 6894 ] final   15.81 input  -60.11 | X-H torsion
[ 7974 7965 7964 7962 ] final -169.64 input  175.53 | X-H torsion
[ 8008 7997 7996 7995 ] final -148.26 input   59.86 | X-H torsion
[ 10167 10162 10161 10158 ] final   87.79 input  -65.29 | X-H torsion
[ 10718 10713 10712 10709 ] final -167.08 input   66.30 | X-H torsion
[ 10763 10752 10751 10750 ] final  -11.18 input  -60.55 | X-H torsion
[ 11005 11000 10999 10996 ] final  169.69 input  -57.11 | X-H torsion

> <Gold.Protein.ActiveResidues>
 VAL166  LYS551  ARG553  GLY616  TRP617  ASP618  TYR619  PRO620  LYS621  CYS622 
 ASP623  PHE694  ASN695  SER759  ASP760  ASP761  ALA762  ILE779  LEU786  VAL792 
 PHE793  MET794  SER795  GLU796  ALA797  LYS798  CYS799  TRP800  GLU811  SER814 

> <Gold.Protein.RotatedAtoms>
  151.8240  135.0643  160.0428 H   0  0  0  0  0  0  0  0  0  0  0  0  # atno 6907 bound_to 6896
  152.2930  133.5575  159.5578 H   0  0  0  0  0  0  0  0  0  0  0  0  # atno 6908 bound_to 6896
  150.7238  134.0317  159.3778 H   0  0  0  0  0  0  0  0  0  0  0  0  # atno 6909 bound_to 6896
  144.7182  140.2191  143.6318 H   0  0  0  0  0  0  0  0  0  0  0  0  # atno 7974 bound_to 7965
  155.5887  140.0650  157.2764 H   0  0  0  0  0  0  0  0  0  0  0  0  # atno 8008 bound_to 7997
  154.4311  140.1839  156.1099 H   0  0  0  0  0  0  0  0  0  0  0  0  # atno 8009 bound_to 7997
  156.0249  140.3313  155.7081 H   0  0  0  0  0  0  0  0  0  0  0  0  # atno 8010 bound_to 7997
  139.8738  144.6478  150.8920 H   0  0  0  0  0  0  0  0  0  0  0  0  # atno 10167 bound_to 10162
  156.6772  130.9107  151.3052 H   0  0  0  0  0  0  0  0  0  0  0  0  # atno 10718 bound_to 10713
  153.4801  135.7017  153.5943 H   0  0  0  0  0  0  0  0  0  0  0  0  # atno 10763 bound_to 10752
  153.4160  135.3837  155.2081 H   0  0  0  0  0  0  0  0  0  0  0  0  # atno 10764 bound_to 10752
  154.8722  135.3916  154.4249 H   0  0  0  0  0  0  0  0  0  0  0  0  # atno 10765 bound_to 10752
  140.3004  134.7600  157.3912 H   0  0  0  0  0  0  0  0  0  0  0  0  # atno 11005 bound_to 11000
  145.8518  139.2179  143.1767 LP  0  0  0  0  0  0  0  0  0  0  0  0  # atno 17320 bound_to 7965
  146.0253  140.8309  142.9903 LP  0  0  0  0  0  0  0  0  0  0  0  0  # atno 17321 bound_to 7965
  140.7756  143.3642  151.1771 LP  0  0  0  0  0  0  0  0  0  0  0  0  # atno 17342 bound_to 10162
  139.7259  143.9149  152.3002 LP  0  0  0  0  0  0  0  0  0  0  0  0  # atno 17343 bound_to 10162
  157.7056  130.9382  150.0922 LP  0  0  0  0  0  0  0  0  0  0  0  0  # atno 17370 bound_to 10713
  156.1895  130.3654  149.8929 LP  0  0  0  0  0  0  0  0  0  0  0  0  # atno 17371 bound_to 10713
  140.1114  134.5340  155.8263 LP  0  0  0  0  0  0  0  0  0  0  0  0  # atno 17394 bound_to 11000
  141.2129  133.6726  156.6696 LP  0  0  0  0  0  0  0  0  0  0  0  0  # atno 17395 bound_to 11000

$$$$
