AV-unprocessed.smi:871|AV-procd|sdf|4011|dock2
  -GOLD-   22720 1503D 1   1.00000     0.00000
 Structure written by MMmdl.
 19 19  0  0  0  0  0  0  0  0  2 V2000
  150.9877  144.6692  157.6745 N   0  0  0  0  0  0  0  0  0  0  0  0
  151.6078  143.5375  158.1677 C   0  0  0  0  0  0  0  0  0  0  0  0
  152.4987  143.5988  159.1789 C   0  0  0  0  0  0  0  0  0  0  0  0
  153.1362  142.4036  159.6741 C   0  0  0  0  0  0  0  0  0  0  0  0
  152.8094  141.2320  159.1100 C   0  0  0  0  0  0  0  0  0  0  0  0
  151.8669  141.1412  158.0661 N   0  0  0  0  0  0  0  0  0  0  0  0
  151.6219  139.7981  157.5127 C   0  0  0  0  0  0  0  0  0  0  0  0
  152.0063  139.7082  156.0329 C   0  0  0  0  0  0  0  0  0  0  0  0
  153.0817  139.1326  155.7580 O   0  0  0  0  0  0  0  0  0  0  0  0
  151.2193  140.2162  155.2041 O   0  5  0  0  0  0  0  0  0  0  0  0
  151.2553  142.2489  157.5419 C   0  0  0  0  0  0  0  0  0  0  0  0
  150.4549  142.1700  156.6070 O   0  0  0  0  0  0  0  0  0  0  0  0
  150.3201  144.6272  156.9184 H   0  0  0  0  0  0  0  0  0  0  0  0
  151.2422  145.5909  158.0005 H   0  0  0  0  0  0  0  0  0  0  0  0
  152.7440  144.5512  159.6259 H   0  0  0  0  0  0  0  0  0  0  0  0
  153.8612  142.4511  160.4732 H   0  0  0  0  0  0  0  0  0  0  0  0
  153.2445  140.2911  159.4158 H   0  0  0  0  0  0  0  0  0  0  0  0
  152.1439  139.0071  158.0523 H   0  0  0  0  0  0  0  0  0  0  0  0
  150.5616  139.5639  157.6210 H   0  0  0  0  0  0  0  0  0  0  0  0
  1  2  1  0  0  0  0
  1 13  1  0  0  0  0
  1 14  1  0  0  0  0
  2 11  1  0  0  0  0
  2  3  2  0  0  0  0
  3  4  1  0  0  0  0
  3 15  1  0  0  0  0
  4  5  2  0  0  0  0
  4 16  1  0  0  0  0
  5  6  1  0  0  0  0
  5 17  1  0  0  0  0
  6  7  1  0  0  0  0
  6 11  1  0  0  0  0
  7  8  1  0  0  0  0
  7 18  1  0  0  0  0
  7 19  1  0  0  0  0
  8  9  2  0  0  0  0
  8 10  1  0  0  0  0
 11 12  2  0  0  0  0
M  CHG  1  10  -1
M  END
> <s_m_source_file>
AV-unprocessed.smi

> <i_m_source_file_index>
871

> <i_lp_mmshare_version>
43012

> <i_f3d_flags>
0

> <s_epik_input>
W05IMl1jMVtjSF1bY0hdW2NIXW4oYzE9TylbQ0gyXUMoPU8pW09IXQ==

> <s_epik_cmdline>
J2VwaWtfcHl0aG9uJywgJy1waCcsICc3LjAnLCAnLXRuJywgJzgnLCAnLW1hJywgJzIwMCcsICctbWV0YWxfYmluZGluZycsICctaW1hZScsICc8aW5maWxlLm1hZT4nLCAnLW9tYWUnLCAnPG91dGZpbGUubWFlPic=

> <r_lp_tautomer_probability>
1

> <r_epik_Ionization_Penalty>
0.00200637

> <r_epik_Ionization_Penalty_Charging>
0.0012605

> <r_epik_Ionization_Penalty_Neutral>
0.000745874

> <r_epik_State_Penalty>
-0

> <r_epik_Charging_Adjusted_Penalty>
0.0012605

> <i_epik_Tot_Q>
-1

> <i_epik_Tot_abs_Q>
1

> <r_epik_Metal_State_Penalty>
-0

> <b_epik_Metal_Only>
0

> <s_lp_Force_Field>
OPLS_2005

> <r_lp_Energy>
10.9711

> <b_lp_Chiralities_Consistent>
1

> <s_lp_Variant>
AV-unprocessed.smi:871-1

> <Gold.Version>
5.8.1

> <Gold.Id.Protein>
6NUR|6NUR_protein|mol2

> <Gold.PLP.Fitness>
38.0682

> <Gold.PLP.PLP>
-26.5147

> <Gold.PLP.part.hbond>
-3.0054

> <Gold.PLP.part.metal>
0.0000

> <Gold.PLP.part.buried>
-4.0678

> <Gold.PLP.part.nonpolar>
-19.9578

> <Gold.PLP.part.repulsive>
0.3458

> <Gold.PLP.ligand.clash>
0.0000

> <Gold.PLP.ligand.torsion>
0.2260

> <Gold.PLP.Chemscore.Hbond>
4.0000

> <Gold.PLP.Chemscore.CHOScore>
0.0000

> <Gold.PLP.Chemscore.Metal>
0.0000

> <Gold.Chemscore.Hbonds>
donor molecule, donor type, donor heavy atom, donor atom, acceptor molecule, acceptor atom, score
      L1  H     1    13       P1  8028  1.00
      P1  H  7989  7998       L1    10  1.00
      P1  H  7997  8009       L1     9  2.00

> <Gold.PLP.Chemscore.Internal.Correction>
0.0055

> <Gold.Rescore>
     Score         DG    S(hbond)    S(metal)    S(lipo)     H(rot)  DE(clash)    DE(int)     intcor
     14.40     -16.29       2.72        0.00      49.38       1.58       0.05       1.84       ----

> <Gold.Chemscore.Fitness>
14.4023

> <Gold.Chemscore.DG>
-16.2926

> <Gold.Chemscore.ZeroCoef>
-5.4800

> <Gold.Chemscore.Hbond>
2.7217

> <Gold.Chemscore.Metal>
0.0000

> <Gold.Chemscore.Lipo>
49.3812

> <Gold.Chemscore.Internal_Hbond>
0.0000

> <Gold.Chemscore.DEClash>
0.0468

> <Gold.Chemscore.DEInternal>
1.8435

> <Gold.Chemscore.Rot>
1.5841

> <Gold.Chemscore.Internal.Correction>
   9.000000E+99

> <Gold.Chemscore.Hbonds>
donor molecule, donor type, donor heavy atom, donor atom, acceptor molecule, acceptor atom, score
      L1  H     1    13       P1  8028  0.74
      P1  H  7989  7998       L1    10  0.97
      P1  H  7997  8009       L1     9  0.74

> <Gold.Chemscore.Hbond.Weighted>
-9.0904

> <Gold.Chemscore.Metal.Weighted>
-0.0000

> <Gold.Chemscore.Lipo.Weighted>
-5.7776

> <Gold.Chemscore.Internal_Hbond.Weighted>
0.0000

> <Gold.Chemscore.DEClash.Weighted>
0.0468

> <Gold.Chemscore.DEInternal.Weighted>
1.8435

> <Gold.Chemscore.Rot.Weighted>
4.0554

> <Gold.Chemscore.Internal.Correction.Weighted>
   9.000000E+99

> <Gold.Protein.RotatedTorsions>
[ 6907 6896 6895 6894 ] final  -41.53 input  -60.11 | X-H torsion
[ 7974 7965 7964 7962 ] final  -52.53 input  175.53 | X-H torsion
[ 8008 7997 7996 7995 ] final -148.77 input   59.86 | X-H torsion
[ 10167 10162 10161 10158 ] final -144.48 input  -65.29 | X-H torsion
[ 10718 10713 10712 10709 ] final  115.98 input   66.30 | X-H torsion
[ 10763 10752 10751 10750 ] final   45.81 input  -60.55 | X-H torsion
[ 11005 11000 10999 10996 ] final    0.19 input  -57.11 | X-H torsion

> <Gold.Protein.ActiveResidues>
 VAL166  LYS551  ARG553  GLY616  TRP617  ASP618  TYR619  PRO620  LYS621  CYS622 
 ASP623  PHE694  ASN695  SER759  ASP760  ASP761  ALA762  ILE779  LEU786  VAL792 
 PHE793  MET794  SER795  GLU796  ALA797  LYS798  CYS799  TRP800  GLU811  SER814 

> <Gold.Protein.RotatedAtoms>
  150.9657  134.9038  159.7757 H   0  0  0  0  0  0  0  0  0  0  0  0  # atno 6907 bound_to 6896
  152.5172  134.3610  159.9295 H   0  0  0  0  0  0  0  0  0  0  0  0  # atno 6908 bound_to 6896
  151.3621  133.3845  159.2725 H   0  0  0  0  0  0  0  0  0  0  0  0  # atno 6909 bound_to 6896
  145.9069  140.7948  142.9715 H   0  0  0  0  0  0  0  0  0  0  0  0  # atno 7974 bound_to 7965
  155.5970  140.0658  157.2743 H   0  0  0  0  0  0  0  0  0  0  0  0  # atno 8008 bound_to 7997
  154.4289  140.1825  156.1180 H   0  0  0  0  0  0  0  0  0  0  0  0  # atno 8009 bound_to 7997
  156.0189  140.3319  155.7021 H   0  0  0  0  0  0  0  0  0  0  0  0  # atno 8010 bound_to 7997
  139.7895  143.7986  152.2648 H   0  0  0  0  0  0  0  0  0  0  0  0  # atno 10167 bound_to 10162
  157.6189  131.1019  150.7407 H   0  0  0  0  0  0  0  0  0  0  0  0  # atno 10718 bound_to 10713
  152.9819  135.6028  154.3497 H   0  0  0  0  0  0  0  0  0  0  0  0  # atno 10763 bound_to 10752
  154.3188  135.2770  155.2532 H   0  0  0  0  0  0  0  0  0  0  0  0  # atno 10764 bound_to 10752
  154.4708  135.5942  153.6376 H   0  0  0  0  0  0  0  0  0  0  0  0  # atno 10765 bound_to 10752
  140.6293  133.9589  155.8266 H   0  0  0  0  0  0  0  0  0  0  0  0  # atno 11005 bound_to 11000
  144.6740  140.1764  143.7409 LP  0  0  0  0  0  0  0  0  0  0  0  0  # atno 17320 bound_to 7965
  145.8721  139.2277  143.1655 LP  0  0  0  0  0  0  0  0  0  0  0  0  # atno 17321 bound_to 7965
  139.8073  144.7350  150.9744 LP  0  0  0  0  0  0  0  0  0  0  0  0  # atno 17342 bound_to 10162
  140.7820  143.4285  151.0731 LP  0  0  0  0  0  0  0  0  0  0  0  0  # atno 17343 bound_to 10162
  156.7769  130.4847  149.5408 LP  0  0  0  0  0  0  0  0  0  0  0  0  # atno 17370 bound_to 10713
  156.1324  130.6187  151.0352 LP  0  0  0  0  0  0  0  0  0  0  0  0  # atno 17371 bound_to 10713
  141.0686  134.0239  157.3558 LP  0  0  0  0  0  0  0  0  0  0  0  0  # atno 17394 bound_to 11000
  139.9122  135.0192  156.7738 LP  0  0  0  0  0  0  0  0  0  0  0  0  # atno 17395 bound_to 11000

$$$$
