AV-unprocessed.smi:1363|AV-procd|sdf|5564|dock8
  -GOLD-   22720 5153D 1   1.00000     0.00000
 Structure written by MMmdl.
 44 45  0  0  0  0  0  0  0  0  1 V2000
  150.3954  134.6824  154.4538 C   0  0  0  0  0  0  0  0  0  0  0  0
  151.0071  135.9649  154.9766 C   0  0  0  0  0  0  0  0  0  0  0  0
  151.7971  136.0225  155.9978 N   0  0  0  0  0  0  0  0  0  0  0  0
  152.2983  137.2710  156.3920 C   0  0  0  0  0  0  0  0  0  0  0  0
  153.2130  137.2577  157.6049 C   0  0  0  0  0  0  0  0  0  0  0  0
  151.9744  138.4163  155.7227 C   0  0  0  0  0  0  0  0  0  0  0  0
  152.4996  139.7914  156.1332 C   0  0  0  0  0  0  0  0  0  0  0  0
  151.8243  140.4239  157.3526 C   0  0  0  0  0  0  0  0  0  0  0  0
  151.8432  139.8504  158.4421 O   0  0  0  0  0  0  0  0  0  0  0  0
  151.2379  141.6145  157.1570 N   0  0  0  0  0  0  0  0  0  0  0  0
  150.5695  142.3974  158.1894 C   0  0  0  0  0  0  0  0  0  0  0  0
  151.5252  143.4325  158.8151 C   0  0  0  0  0  0  0  0  0  0  0  0
  152.2803  142.9731  160.0583 C   0  0  0  0  0  0  0  0  0  0  0  0
  152.1372  143.5236  161.2832 C   0  0  0  0  0  0  0  0  0  0  0  0
  152.8645  143.0423  162.5268 C   0  0  0  0  0  0  0  0  0  0  0  0
  153.4991  141.6554  162.3361 C   0  0  0  0  0  0  0  0  0  0  0  0
  154.2022  141.5554  160.9780 C   0  0  0  0  0  0  0  0  0  0  0  0
  153.2188  141.7960  159.8189 C   0  0  0  0  0  0  0  0  0  0  0  0
  151.0724  138.3383  154.5573 C   0  0  0  0  0  0  0  0  0  0  0  0
  150.7114  139.3052  153.8879 O   0  0  0  0  0  0  0  0  0  0  0  0
  150.6374  137.0958  154.2502 N   0  0  0  0  0  0  0  0  0  0  0  0
  150.0155  136.9901  153.4618 H   0  0  0  0  0  0  0  0  0  0  0  0
  149.7917  134.2116  155.2300 H   0  0  0  0  0  0  0  0  0  0  0  0
  151.1801  133.9855  154.1591 H   0  0  0  0  0  0  0  0  0  0  0  0
  149.7565  134.8637  153.5883 H   0  0  0  0  0  0  0  0  0  0  0  0
  154.2137  137.5940  157.3337 H   0  0  0  0  0  0  0  0  0  0  0  0
  153.3004  136.2545  158.0238 H   0  0  0  0  0  0  0  0  0  0  0  0
  152.8264  137.9113  158.3870 H   0  0  0  0  0  0  0  0  0  0  0  0
  153.5690  139.7056  156.3297 H   0  0  0  0  0  0  0  0  0  0  0  0
  152.4265  140.4941  155.3026 H   0  0  0  0  0  0  0  0  0  0  0  0
  151.2677  142.0123  156.2292 H   0  0  0  0  0  0  0  0  0  0  0  0
  149.7218  142.9015  157.7245 H   0  0  0  0  0  0  0  0  0  0  0  0
  150.1636  141.7312  158.9528 H   0  0  0  0  0  0  0  0  0  0  0  0
  152.2654  143.7377  158.0744 H   0  0  0  0  0  0  0  0  0  0  0  0
  150.9617  144.3294  159.0751 H   0  0  0  0  0  0  0  0  0  0  0  0
  151.4796  144.3650  161.4390 H   0  0  0  0  0  0  0  0  0  0  0  0
  153.6306  143.7774  162.7751 H   0  0  0  0  0  0  0  0  0  0  0  0
  152.1661  143.0168  163.3639 H   0  0  0  0  0  0  0  0  0  0  0  0
  154.2013  141.4515  163.1448 H   0  0  0  0  0  0  0  0  0  0  0  0
  152.7258  140.8883  162.3964 H   0  0  0  0  0  0  0  0  0  0  0  0
  155.0032  142.2946  160.9351 H   0  0  0  0  0  0  0  0  0  0  0  0
  154.6767  140.5801  160.8669 H   0  0  0  0  0  0  0  0  0  0  0  0
  152.6070  140.9072  159.6607 H   0  0  0  0  0  0  0  0  0  0  0  0
  153.7808  141.9579  158.8983 H   0  0  0  0  0  0  0  0  0  0  0  0
  1  2  1  0  0  0  0
  1 23  1  0  0  0  0
  1 24  1  0  0  0  0
  1 25  1  0  0  0  0
  2 21  1  0  0  0  0
  2  3  2  0  0  0  0
  3  4  1  0  0  0  0
  4  5  1  0  0  0  0
  4  6  2  0  0  0  0
  5 26  1  0  0  0  0
  5 27  1  0  0  0  0
  5 28  1  0  0  0  0
  6  7  1  0  0  0  0
  6 19  1  0  0  0  0
  7  8  1  0  0  0  0
  7 29  1  0  0  0  0
  7 30  1  0  0  0  0
  8  9  2  0  0  0  0
  8 10  1  0  0  0  0
 10 11  1  0  0  0  0
 10 31  1  0  0  0  0
 11 12  1  0  0  0  0
 11 32  1  0  0  0  0
 11 33  1  0  0  0  0
 12 13  1  0  0  0  0
 12 34  1  0  0  0  0
 12 35  1  0  0  0  0
 13 18  1  0  0  0  0
 13 14  2  0  0  0  0
 14 15  1  0  0  0  0
 14 36  1  0  0  0  0
 15 16  1  0  0  0  0
 15 37  1  0  0  0  0
 15 38  1  0  0  0  0
 16 17  1  0  0  0  0
 16 39  1  0  0  0  0
 16 40  1  0  0  0  0
 17 18  1  0  0  0  0
 17 41  1  0  0  0  0
 17 42  1  0  0  0  0
 18 43  1  0  0  0  0
 18 44  1  0  0  0  0
 19 20  2  0  0  0  0
 19 21  1  0  0  0  0
 21 22  1  0  0  0  0
M  END
> <s_m_source_file>
AV-unprocessed.smi

> <i_m_source_file_index>
1363

> <i_lp_mmshare_version>
43012

> <i_f3d_flags>
0

> <s_epik_input>
W0NIM11jMW5jKFtDSDNdKWMoYyg9TylbbkhdMSlbQ0gyXUMoPU8pW05IXVtDSDJdW0NIMl1DMj1bQ0hdW0NIMl1bQ0gyXVtDSDJdW0NIMl0y

> <s_epik_cmdline>
J2VwaWtfcHl0aG9uJywgJy1waCcsICc3LjAnLCAnLXRuJywgJzgnLCAnLW1hJywgJzIwMCcsICctbWV0YWxfYmluZGluZycsICctaW1hZScsICc8aW5maWxlLm1hZT4nLCAnLW9tYWUnLCAnPG91dGZpbGUubWFlPic=

> <r_lp_tautomer_probability>
0.839158

> <r_epik_Ionization_Penalty>
0.000390001

> <r_epik_Ionization_Penalty_Charging>
0.000357609

> <r_epik_Ionization_Penalty_Neutral>
3.23917e-05

> <r_epik_State_Penalty>
0.0470088

> <r_epik_Charging_Adjusted_Penalty>
0.0473664

> <i_epik_Tot_Q>
0

> <i_epik_Tot_abs_Q>
0

> <r_epik_Metal_State_Penalty>
0.223611

> <b_epik_Metal_Only>
0

> <s_lp_Force_Field>
OPLS_2005

> <r_lp_Energy>
9.33337

> <b_lp_Chiralities_Consistent>
1

> <s_lp_Variant>
AV-unprocessed.smi:1363-1

> <Gold.Version>
5.8.1

> <Gold.Id.Protein>
6NUR|6NUR_protein|mol2

> <Gold.PLP.Fitness>
48.2312

> <Gold.PLP.PLP>
-41.5133

> <Gold.PLP.part.hbond>
-3.5133

> <Gold.PLP.part.metal>
0.0000

> <Gold.PLP.part.buried>
-3.1142

> <Gold.PLP.part.nonpolar>
-35.5106

> <Gold.PLP.part.repulsive>
1.2173

> <Gold.PLP.ligand.clash>
0.0000

> <Gold.PLP.ligand.torsion>
0.6203

> <Gold.PLP.Chemscore.Hbond>
2.6500

> <Gold.PLP.Chemscore.CHOScore>
0.0000

> <Gold.PLP.Chemscore.Metal>
0.0000

> <Gold.Chemscore.Hbonds>
donor molecule, donor type, donor heavy atom, donor atom, acceptor molecule, acceptor atom, score
      L1  H    21    22       P1  7948  1.00
      P1  H  7989  7998       L1    20  1.00
      P1  H 10752 10765       L1     3  0.72

> <Gold.PLP.Chemscore.Internal.Correction>
0.0085

> <Gold.Rescore>
     Score         DG    S(hbond)    S(metal)    S(lipo)     H(rot)  DE(clash)    DE(int)     intcor
     15.74     -19.46       1.72        0.00     111.17       1.86       0.53       3.18       ----

> <Gold.Chemscore.Fitness>
15.7443

> <Gold.Chemscore.DG>
-19.4572

> <Gold.Chemscore.ZeroCoef>
-5.4800

> <Gold.Chemscore.Hbond>
1.7184

> <Gold.Chemscore.Metal>
0.0000

> <Gold.Chemscore.Lipo>
111.1727

> <Gold.Chemscore.Internal_Hbond>
0.0000

> <Gold.Chemscore.DEClash>
0.5345

> <Gold.Chemscore.DEInternal>
3.1783

> <Gold.Chemscore.Rot>
1.8631

> <Gold.Chemscore.Internal.Correction>
   9.000000E+99

> <Gold.Chemscore.Hbonds>
donor molecule, donor type, donor heavy atom, donor atom, acceptor molecule, acceptor atom, score
      L1  H    21    22       P1  7948  0.24
      P1  H  7989  7998       L1    20  0.98
      P1  H 10752 10765       L1     3  0.02

> <Gold.Chemscore.Hbond.Weighted>
-5.7396

> <Gold.Chemscore.Metal.Weighted>
-0.0000

> <Gold.Chemscore.Lipo.Weighted>
-13.0072

> <Gold.Chemscore.Internal_Hbond.Weighted>
0.0000

> <Gold.Chemscore.DEClash.Weighted>
0.5345

> <Gold.Chemscore.DEInternal.Weighted>
3.1783

> <Gold.Chemscore.Rot.Weighted>
4.7697

> <Gold.Chemscore.Internal.Correction.Weighted>
   9.000000E+99

> <Gold.Protein.RotatedTorsions>
[ 6907 6896 6895 6894 ] final -142.42 input  -60.11 | X-H torsion
[ 7974 7965 7964 7962 ] final -179.34 input  175.53 | X-H torsion
[ 8008 7997 7996 7995 ] final  -99.55 input   59.86 | X-H torsion
[ 10167 10162 10161 10158 ] final    0.20 input  -65.29 | X-H torsion
[ 10718 10713 10712 10709 ] final  137.17 input   66.30 | X-H torsion
[ 10763 10752 10751 10750 ] final -141.22 input  -60.55 | X-H torsion
[ 11005 11000 10999 10996 ] final   60.32 input  -57.11 | X-H torsion

> <Gold.Protein.ActiveResidues>
 VAL166  LYS551  ARG553  GLY616  TRP617  ASP618  TYR619  PRO620  LYS621  CYS622 
 ASP623  PHE694  ASN695  SER759  ASP760  ASP761  ALA762  ILE779  LEU786  VAL792 
 PHE793  MET794  SER795  GLU796  ALA797  LYS798  CYS799  TRP800  GLU811  SER814 

> <Gold.Protein.RotatedAtoms>
  151.0869  133.5346  159.2617 H   0  0  0  0  0  0  0  0  0  0  0  0  # atno 6907 bound_to 6896
  151.2228  135.0524  159.8966 H   0  0  0  0  0  0  0  0  0  0  0  0  # atno 6908 bound_to 6896
  152.5430  134.0669  159.8230 H   0  0  0  0  0  0  0  0  0  0  0  0  # atno 6909 bound_to 6896
  144.7136  140.0732  143.6428 H   0  0  0  0  0  0  0  0  0  0  0  0  # atno 7974 bound_to 7965
  154.8163  140.0447  157.1379 H   0  0  0  0  0  0  0  0  0  0  0  0  # atno 8008 bound_to 7997
  154.9310  140.3040  155.5148 H   0  0  0  0  0  0  0  0  0  0  0  0  # atno 8009 bound_to 7997
  156.2976  140.2323  156.4370 H   0  0  0  0  0  0  0  0  0  0  0  0  # atno 8010 bound_to 7997
  140.6739  143.6971  150.7981 H   0  0  0  0  0  0  0  0  0  0  0  0  # atno 10167 bound_to 10162
  157.4389  131.1056  151.0166 H   0  0  0  0  0  0  0  0  0  0  0  0  # atno 10718 bound_to 10713
  154.8552  135.3530  154.5833 H   0  0  0  0  0  0  0  0  0  0  0  0  # atno 10763 bound_to 10752
  153.6444  135.6997  153.5235 H   0  0  0  0  0  0  0  0  0  0  0  0  # atno 10764 bound_to 10752
  153.2945  135.4225  155.1155 H   0  0  0  0  0  0  0  0  0  0  0  0  # atno 10765 bound_to 10752
  140.0240  134.6110  155.9598 H   0  0  0  0  0  0  0  0  0  0  0  0  # atno 11005 bound_to 11000
  145.9765  139.2909  143.1067 LP  0  0  0  0  0  0  0  0  0  0  0  0  # atno 17320 bound_to 7965
  145.9058  140.9213  143.0479 LP  0  0  0  0  0  0  0  0  0  0  0  0  # atno 17321 bound_to 7965
  140.0661  143.5107  152.2604 LP  0  0  0  0  0  0  0  0  0  0  0  0  # atno 17342 bound_to 10162
  139.6021  144.7586  151.3147 LP  0  0  0  0  0  0  0  0  0  0  0  0  # atno 17343 bound_to 10162
  157.1036  130.5992  149.5466 LP  0  0  0  0  0  0  0  0  0  0  0  0  # atno 17370 bound_to 10713
  155.9941  130.5004  150.7406 LP  0  0  0  0  0  0  0  0  0  0  0  0  # atno 17371 bound_to 10713
  141.1792  133.6544  156.4949 LP  0  0  0  0  0  0  0  0  0  0  0  0  # atno 17394 bound_to 11000
  140.4337  134.7078  157.4956 LP  0  0  0  0  0  0  0  0  0  0  0  0  # atno 17395 bound_to 11000

$$$$
