AV-unprocessed.smi:739|AV-procd|sdf|3542|dock7
  -GOLD-   22720 0533D 1   1.00000     0.00000
 Structure written by MMmdl.
 32 34  0  0  0  0  0  0  0  0  1 V2000
  149.4354  141.0929  153.7795 O   0  0  0  0  0  0  0  0  0  0  0  0
  149.7888  140.5988  155.0551 C   0  0  2  0  0  0  0  0  0  0  0  0
  151.0999  141.2821  155.4915 C   0  0  0  0  0  0  0  0  0  0  0  0
  151.4243  141.0092  156.8803 N   0  0  0  0  0  0  0  0  0  0  0  0
  151.5738  139.7998  157.4538 C   0  0  0  0  0  0  0  0  0  0  0  0
  151.8901  139.7728  158.7452 N   0  0  0  0  0  0  0  0  0  0  0  0
  151.9510  141.1225  159.0468 C   0  0  0  0  0  0  0  0  0  0  0  0
  152.2467  141.7777  160.2634 C   0  0  0  0  0  0  0  0  0  0  0  0
  152.2533  143.1863  160.3339 C   0  0  0  0  0  0  0  0  0  0  0  0
  152.5398  143.7979  161.5077 F   0  0  0  0  0  0  0  0  0  0  0  0
  151.9638  143.9600  159.1902 C   0  0  0  0  0  0  0  0  0  0  0  0
  151.9736  145.3120  159.2654 F   0  0  0  0  0  0  0  0  0  0  0  0
  151.6645  143.3294  157.9677 C   0  0  0  0  0  0  0  0  0  0  0  0
  151.6605  141.9238  157.9017 C   0  0  0  0  0  0  0  0  0  0  0  0
  149.8938  139.0796  155.0749 C   0  0  0  0  0  0  0  0  0  0  0  0
  148.9664  138.3190  155.8198 C   0  0  0  0  0  0  0  0  0  0  0  0
  149.0757  136.9158  155.8694 C   0  0  0  0  0  0  0  0  0  0  0  0
  150.1115  136.2644  155.1731 C   0  0  0  0  0  0  0  0  0  0  0  0
  150.2169  134.9154  155.2216 F   0  0  0  0  0  0  0  0  0  0  0  0
  151.0385  137.0170  154.4271 C   0  0  0  0  0  0  0  0  0  0  0  0
  150.9309  138.4204  154.3782 C   0  0  0  0  0  0  0  0  0  0  0  0
  149.1201  140.3721  153.2559 H   0  0  0  0  0  0  0  0  0  0  0  0
  148.9898  140.9018  155.7335 H   0  0  0  0  0  0  0  0  0  0  0  0
  151.9331  140.9647  154.8631 H   0  0  0  0  0  0  0  0  0  0  0  0
  151.0165  142.3635  155.3741 H   0  0  0  0  0  0  0  0  0  0  0  0
  151.4489  138.8874  156.8892 H   0  0  0  0  0  0  0  0  0  0  0  0
  152.4706  141.1958  161.1452 H   0  0  0  0  0  0  0  0  0  0  0  0
  151.4453  143.9201  157.0909 H   0  0  0  0  0  0  0  0  0  0  0  0
  148.1739  138.8102  156.3649 H   0  0  0  0  0  0  0  0  0  0  0  0
  148.3663  136.3390  156.4445 H   0  0  0  0  0  0  0  0  0  0  0  0
  151.8347  136.5181  153.8947 H   0  0  0  0  0  0  0  0  0  0  0  0
  151.6535  138.9898  153.8120 H   0  0  0  0  0  0  0  0  0  0  0  0
  1  2  1  0  0  0  0
  1 22  1  0  0  0  0
  2  3  1  0  0  0  0
  2 15  1  0  0  0  0
  2 23  1  0  0  0  0
  3  4  1  0  0  0  0
  3 24  1  0  0  0  0
  3 25  1  0  0  0  0
  4 14  1  0  0  0  0
  4  5  1  0  0  0  0
  5  6  2  0  0  0  0
  5 26  1  0  0  0  0
  6  7  1  0  0  0  0
  7 14  2  0  0  0  0
  7  8  1  0  0  0  0
  8  9  2  0  0  0  0
  8 27  1  0  0  0  0
  9 10  1  0  0  0  0
  9 11  1  0  0  0  0
 11 12  1  0  0  0  0
 11 13  2  0  0  0  0
 13 14  1  0  0  0  0
 13 28  1  0  0  0  0
 15 21  1  0  0  0  0
 15 16  2  0  0  0  0
 16 17  1  0  0  0  0
 16 29  1  0  0  0  0
 17 18  2  0  0  0  0
 17 30  1  0  0  0  0
 18 19  1  0  0  0  0
 18 20  1  0  0  0  0
 20 21  2  0  0  0  0
 20 31  1  0  0  0  0
 21 32  1  0  0  0  0
M  END
> <s_m_source_file>
AV-unprocessed.smi

> <i_m_source_file_index>
739

> <i_lp_mmshare_version>
43012

> <i_f3d_flags>
0

> <s_epik_input>
W2NIXTFbY0hdYyhGKVtjSF1bY0hdYzFbQ0BIXShbT0hdKVtDSDJdbihbY0hdbjIpYyhjMjMpW2NIXWMoRiljKEYpW2NIXTM=

> <s_epik_cmdline>
J2VwaWtfcHl0aG9uJywgJy1waCcsICc3LjAnLCAnLXRuJywgJzgnLCAnLW1hJywgJzIwMCcsICctbWV0YWxfYmluZGluZycsICctaW1hZScsICc8aW5maWxlLm1hZT4nLCAnLW9tYWUnLCAnPG91dGZpbGUubWFlPic=

> <r_epik_Ionization_Penalty>
0.0156356

> <r_epik_Ionization_Penalty_Charging>
0

> <r_epik_Ionization_Penalty_Neutral>
0.0156356

> <r_epik_State_Penalty>
0.0122974

> <r_epik_Charging_Adjusted_Penalty>
0.0122974

> <i_epik_Tot_Q>
0

> <i_epik_Tot_abs_Q>
0

> <r_epik_Metal_State_Penalty>
1.24258e-05

> <b_epik_Metal_Only>
0

> <s_lp_Force_Field>
OPLS_2005

> <r_lp_Energy>
11.0566

> <b_lp_Chiralities_Consistent>
1

> <s_lp_Variant>
AV-unprocessed.smi:739-1

> <Gold.Version>
5.8.1

> <Gold.Id.Protein>
6NUR|6NUR_protein|mol2

> <Gold.PLP.Fitness>
48.1173

> <Gold.PLP.PLP>
-44.4313

> <Gold.PLP.part.hbond>
-3.0000

> <Gold.PLP.part.metal>
0.0000

> <Gold.PLP.part.buried>
-2.2268

> <Gold.PLP.part.nonpolar>
-38.0575

> <Gold.PLP.part.repulsive>
0.0000

> <Gold.PLP.ligand.clash>
0.0000

> <Gold.PLP.ligand.torsion>
0.1376

> <Gold.PLP.Chemscore.Hbond>
1.3132

> <Gold.PLP.Chemscore.CHOScore>
0.0000

> <Gold.PLP.Chemscore.Metal>
0.0000

> <Gold.Chemscore.Hbonds>
donor molecule, donor type, donor heavy atom, donor atom, acceptor molecule, acceptor atom, score
      L1  H     1    22       P1  7957  0.31
      P1  H  7989  7998       L1     1  0.02
      P1  H  8011  8017       L1     1  0.93

> <Gold.PLP.Chemscore.Internal.Correction>
0.0216

> <Gold.Rescore>
     Score         DG    S(hbond)    S(metal)    S(lipo)     H(rot)  DE(clash)    DE(int)     intcor
     12.28     -16.00       1.15        0.00     102.32       2.07       2.48       1.23       ----

> <Gold.Chemscore.Fitness>
12.2847

> <Gold.Chemscore.DG>
-15.9980

> <Gold.Chemscore.ZeroCoef>
-5.4800

> <Gold.Chemscore.Hbond>
1.1514

> <Gold.Chemscore.Metal>
0.0000

> <Gold.Chemscore.Lipo>
102.3215

> <Gold.Chemscore.Internal_Hbond>
0.0000

> <Gold.Chemscore.DEClash>
2.4810

> <Gold.Chemscore.DEInternal>
1.2324

> <Gold.Chemscore.Rot>
2.0700

> <Gold.Chemscore.Internal.Correction>
   9.000000E+99

> <Gold.Chemscore.Hbonds>
donor molecule, donor type, donor heavy atom, donor atom, acceptor molecule, acceptor atom, score
      L1  H     1    22       P1  7957  0.31
      P1  H  8011  8017       L1     1  0.23

> <Gold.Chemscore.Hbond.Weighted>
-3.8457

> <Gold.Chemscore.Metal.Weighted>
-0.0000

> <Gold.Chemscore.Lipo.Weighted>
-11.9716

> <Gold.Chemscore.Internal_Hbond.Weighted>
0.0000

> <Gold.Chemscore.DEClash.Weighted>
2.4810

> <Gold.Chemscore.DEInternal.Weighted>
1.2324

> <Gold.Chemscore.Rot.Weighted>
5.2992

> <Gold.Chemscore.Internal.Correction.Weighted>
   9.000000E+99

> <Gold.Protein.RotatedTorsions>
[ 6907 6896 6895 6894 ] final -107.62 input  -60.11 | X-H torsion
[ 7974 7965 7964 7962 ] final  172.19 input  175.53 | X-H torsion
[ 8008 7997 7996 7995 ] final   57.39 input   59.86 | X-H torsion
[ 10167 10162 10161 10158 ] final   -6.30 input  -65.29 | X-H torsion
[ 10718 10713 10712 10709 ] final    5.16 input   66.30 | X-H torsion
[ 10763 10752 10751 10750 ] final -128.56 input  -60.55 | X-H torsion
[ 11005 11000 10999 10996 ] final   20.38 input  -57.11 | X-H torsion

> <Gold.Protein.ActiveResidues>
 VAL166  LYS551  ARG553  GLY616  TRP617  ASP618  TYR619  PRO620  LYS621  CYS622 
 ASP623  PHE694  ASN695  SER759  ASP760  ASP761  ALA762  ILE779  LEU786  VAL792 
 PHE793  MET794  SER795  GLU796  ALA797  LYS798  CYS799  TRP800  GLU811  SER814 

> <Gold.Protein.RotatedAtoms>
  150.7454  133.9800  159.3572 H   0  0  0  0  0  0  0  0  0  0  0  0  # atno 6907 bound_to 6896
  151.7740  135.0777  160.0373 H   0  0  0  0  0  0  0  0  0  0  0  0  # atno 6908 bound_to 6896
  152.3320  133.5932  159.5852 H   0  0  0  0  0  0  0  0  0  0  0  0  # atno 6909 bound_to 6896
  144.7274  139.9461  143.6430 H   0  0  0  0  0  0  0  0  0  0  0  0  # atno 7974 bound_to 7965
  155.5330  140.3482  155.4430 H   0  0  0  0  0  0  0  0  0  0  0  0  # atno 8008 bound_to 7997
  156.0705  140.1362  156.9861 H   0  0  0  0  0  0  0  0  0  0  0  0  # atno 8009 bound_to 7997
  154.4525  140.0966  156.6636 H   0  0  0  0  0  0  0  0  0  0  0  0  # atno 8010 bound_to 7997
  140.6992  143.6209  150.8613 H   0  0  0  0  0  0  0  0  0  0  0  0  # atno 10167 bound_to 10162
  156.9033  130.5730  149.5648 H   0  0  0  0  0  0  0  0  0  0  0  0  # atno 10718 bound_to 10713
  154.8756  135.3924  154.3777 H   0  0  0  0  0  0  0  0  0  0  0  0  # atno 10763 bound_to 10752
  153.4529  135.7028  153.6103 H   0  0  0  0  0  0  0  0  0  0  0  0  # atno 10764 bound_to 10752
  153.4635  135.3806  155.2320 H   0  0  0  0  0  0  0  0  0  0  0  0  # atno 10765 bound_to 10752
  140.4032  134.1696  155.7664 H   0  0  0  0  0  0  0  0  0  0  0  0  # atno 11005 bound_to 11000
  146.0747  139.3735  143.0501 LP  0  0  0  0  0  0  0  0  0  0  0  0  # atno 17320 bound_to 7965
  145.7921  140.9809  143.1043 LP  0  0  0  0  0  0  0  0  0  0  0  0  # atno 17321 bound_to 7965
  139.9930  143.5826  152.2903 LP  0  0  0  0  0  0  0  0  0  0  0  0  # atno 17342 bound_to 10162
  139.6488  144.7659  151.2189 LP  0  0  0  0  0  0  0  0  0  0  0  0  # atno 17343 bound_to 10162
  156.0571  130.5630  150.9114 LP  0  0  0  0  0  0  0  0  0  0  0  0  # atno 17370 bound_to 10713
  157.6012  131.0941  150.8956 LP  0  0  0  0  0  0  0  0  0  0  0  0  # atno 17371 bound_to 10713
  141.1849  133.8335  157.1124 LP  0  0  0  0  0  0  0  0  0  0  0  0  # atno 17394 bound_to 11000
  140.0321  134.9896  157.0800 LP  0  0  0  0  0  0  0  0  0  0  0  0  # atno 17395 bound_to 11000

$$$$
