AV-unprocessed.smi:2888|AV-procd|sdf|11105|dock1
  -GOLD-   2272015573D 1   1.00000     0.00000
 Structure written by MMmdl.
 34 36  0  0  0  0  0  0  0  0  2 V2000
  151.9678  138.6679  155.3657 C   0  0  0  0  0  0  0  0  0  0  0  0
  151.0063  139.8343  155.2811 C   0  0  0  0  0  0  0  0  0  0  0  0
  149.9161  139.8307  154.3940 C   0  0  0  0  0  0  0  0  0  0  0  0
  149.0902  140.9714  154.4030 C   0  0  0  0  0  0  0  0  0  0  0  0
  147.8812  141.0964  153.5007 C   0  0  0  0  0  0  0  0  0  0  0  0
  149.3636  142.0028  155.2411 N   0  3  0  0  0  0  0  0  0  0  0  0
  150.4215  141.9367  156.0639 C   0  0  0  0  0  0  0  0  0  0  0  0
  150.6480  143.0152  156.8996 N   0  0  0  0  0  0  0  0  0  0  0  0
  151.7519  143.0960  157.8488 C   0  0  1  0  0  0  0  0  0  0  0  0
  152.5224  144.4163  157.7693 C   0  0  0  0  0  0  0  0  0  0  0  0
  152.4826  144.8916  159.2288 C   0  0  1  0  0  0  0  0  0  0  0  0
  151.0970  145.4305  159.6075 C   0  0  0  0  0  0  0  0  0  0  0  0
  150.2753  144.1452  159.6878 C   0  0  0  0  0  0  0  0  0  0  0  0
  151.3210  143.0753  159.3286 C   0  0  2  0  0  0  0  0  0  0  0  0
  152.4743  143.6519  159.9175 O   0  0  0  0  0  0  0  0  0  0  0  0
  151.2444  140.8783  156.1000 N   0  0  0  0  0  0  0  0  0  0  0  0
  151.7458  137.9187  154.6055 H   0  0  0  0  0  0  0  0  0  0  0  0
  151.9008  138.1913  156.3440 H   0  0  0  0  0  0  0  0  0  0  0  0
  152.9932  139.0078  155.2183 H   0  0  0  0  0  0  0  0  0  0  0  0
  149.7212  138.9948  153.7377 H   0  0  0  0  0  0  0  0  0  0  0  0
  147.8418  140.2779  152.7813 H   0  0  0  0  0  0  0  0  0  0  0  0
  147.9138  142.0346  152.9460 H   0  0  0  0  0  0  0  0  0  0  0  0
  146.9649  141.0762  154.0914 H   0  0  0  0  0  0  0  0  0  0  0  0
  149.9170  143.7081  156.9685 H   0  0  0  0  0  0  0  0  0  0  0  0
  152.4445  142.2745  157.6605 H   0  0  0  0  0  0  0  0  0  0  0  0
  153.5481  144.2352  157.4463 H   0  0  0  0  0  0  0  0  0  0  0  0
  152.0790  145.1462  157.0905 H   0  0  0  0  0  0  0  0  0  0  0  0
  153.3042  145.5542  159.5023 H   0  0  0  0  0  0  0  0  0  0  0  0
  151.1246  145.9276  160.5779 H   0  0  0  0  0  0  0  0  0  0  0  0
  150.7100  146.1370  158.8722 H   0  0  0  0  0  0  0  0  0  0  0  0
  149.9094  143.9945  160.7042 H   0  0  0  0  0  0  0  0  0  0  0  0
  149.4140  144.1463  159.0195 H   0  0  0  0  0  0  0  0  0  0  0  0
  151.0805  142.0810  159.7062 H   0  0  0  0  0  0  0  0  0  0  0  0
  148.7558  142.8221  155.2388 H   0  0  0  0  0  0  0  0  0  0  0  0
  1  2  1  0  0  0  0
  1 17  1  0  0  0  0
  1 18  1  0  0  0  0
  1 19  1  0  0  0  0
  2 16  1  0  0  0  0
  2  3  2  0  0  0  0
  3  4  1  0  0  0  0
  3 20  1  0  0  0  0
  4  5  1  0  0  0  0
  4  6  2  0  0  0  0
  5 21  1  0  0  0  0
  5 22  1  0  0  0  0
  5 23  1  0  0  0  0
  6  7  1  0  0  0  0
  6 34  1  0  0  0  0
  7  8  1  0  0  0  0
  7 16  2  0  0  0  0
  8  9  1  0  0  0  0
  8 24  1  0  0  0  0
  9 14  1  0  0  0  0
  9 10  1  0  0  0  0
  9 25  1  0  0  0  0
 10 11  1  0  0  0  0
 10 26  1  0  0  0  0
 10 27  1  0  0  0  0
 11 15  1  0  0  0  0
 11 12  1  0  0  0  0
 11 28  1  0  0  0  0
 12 13  1  0  0  0  0
 12 29  1  0  0  0  0
 12 30  1  0  0  0  0
 13 14  1  0  0  0  0
 13 31  1  0  0  0  0
 13 32  1  0  0  0  0
 14 15  1  0  0  0  0
 14 33  1  0  0  0  0
M  CHG  1   6   1
M  END
> <s_m_source_file>
AV-unprocessed.smi

> <i_m_source_file_index>
2888

> <i_lp_mmshare_version>
43012

> <i_f3d_flags>
0

> <s_epik_input>
W0NIM11jMVtjSF1jKFtDSDNdKW5jKG4xKVtOSF1bQ0BIXShbQ0gyXVtDQEBIXTIzKVtDQEBIXShPMylbQ0gyXVtDSDJdMg==

> <s_epik_cmdline>
J2VwaWtfcHl0aG9uJywgJy1waCcsICc3LjAnLCAnLXRuJywgJzgnLCAnLW1hJywgJzIwMCcsICctbWV0YWxfYmluZGluZycsICctaW1hZScsICc8aW5maWxlLm1hZT4nLCAnLW9tYWUnLCAnPG91dGZpbGUubWFlPic=

> <r_lp_tautomer_probability>
0.505494

> <r_epik_Ionization_Penalty>
2.49163

> <r_epik_Ionization_Penalty_Charging>
2.49163

> <r_epik_Ionization_Penalty_Neutral>
3.7631e-06

> <r_epik_State_Penalty>
2.656

> <r_epik_Charging_Adjusted_Penalty>
5.14762

> <i_epik_Tot_Q>
1

> <i_epik_Tot_abs_Q>
1

> <r_epik_Metal_State_Penalty>
2.66479

> <b_epik_Metal_Only>
0

> <s_lp_Force_Field>
OPLS_2005

> <r_lp_Energy>
36.4531

> <b_lp_Chiralities_Consistent>
1

> <s_lp_Variant>
AV-unprocessed.smi:2888-6

> <Gold.Version>
5.8.1

> <Gold.Id.Protein>
6NUR|6NUR_protein|mol2

> <Gold.PLP.Fitness>
46.7585

> <Gold.PLP.PLP>
-37.9871

> <Gold.PLP.part.hbond>
-2.0000

> <Gold.PLP.part.metal>
0.0000

> <Gold.PLP.part.buried>
-2.8345

> <Gold.PLP.part.nonpolar>
-31.3634

> <Gold.PLP.part.repulsive>
0.2487

> <Gold.PLP.ligand.clash>
0.0000

> <Gold.PLP.ligand.torsion>
0.0827

> <Gold.PLP.Chemscore.Hbond>
2.9760

> <Gold.PLP.Chemscore.CHOScore>
0.0000

> <Gold.PLP.Chemscore.Metal>
0.0000

> <Gold.Chemscore.Hbonds>
donor molecule, donor type, donor heavy atom, donor atom, acceptor molecule, acceptor atom, score
      L1  H     6    34       P1  8028  1.57
      L1  H     8    24       P1  8028  1.38

> <Gold.PLP.Chemscore.Internal.Correction>
0.0088

> <Gold.Rescore>
     Score         DG    S(hbond)    S(metal)    S(lipo)     H(rot)  DE(clash)    DE(int)     intcor
     19.27     -19.87       1.39        0.00     105.04       1.00       0.50       0.10       ----

> <Gold.Chemscore.Fitness>
19.2660

> <Gold.Chemscore.DG>
-19.8676

> <Gold.Chemscore.ZeroCoef>
-5.4800

> <Gold.Chemscore.Hbond>
1.3947

> <Gold.Chemscore.Metal>
0.0000

> <Gold.Chemscore.Lipo>
105.0363

> <Gold.Chemscore.Internal_Hbond>
0.0000

> <Gold.Chemscore.DEClash>
0.5026

> <Gold.Chemscore.DEInternal>
0.0990

> <Gold.Chemscore.Rot>
1.0000

> <Gold.Chemscore.Internal.Correction>
   9.000000E+99

> <Gold.Chemscore.Hbonds>
donor molecule, donor type, donor heavy atom, donor atom, acceptor molecule, acceptor atom, score
      L1  H     6    34       P1  8028  0.77
      L1  H     8    24       P1  8028  0.68

> <Gold.Chemscore.Hbond.Weighted>
-4.6584

> <Gold.Chemscore.Metal.Weighted>
-0.0000

> <Gold.Chemscore.Lipo.Weighted>
-12.2892

> <Gold.Chemscore.Internal_Hbond.Weighted>
0.0000

> <Gold.Chemscore.DEClash.Weighted>
0.5026

> <Gold.Chemscore.DEInternal.Weighted>
0.0990

> <Gold.Chemscore.Rot.Weighted>
2.5600

> <Gold.Chemscore.Internal.Correction.Weighted>
   9.000000E+99

> <Gold.Protein.RotatedTorsions>
[ 6907 6896 6895 6894 ] final  -93.26 input  -60.11 | X-H torsion
[ 7974 7965 7964 7962 ] final -141.48 input  175.53 | X-H torsion
[ 8008 7997 7996 7995 ] final -143.77 input   59.86 | X-H torsion
[ 10167 10162 10161 10158 ] final   15.46 input  -65.29 | X-H torsion
[ 10718 10713 10712 10709 ] final -107.88 input   66.30 | X-H torsion
[ 10763 10752 10751 10750 ] final -141.38 input  -60.55 | X-H torsion
[ 11005 11000 10999 10996 ] final   31.79 input  -57.11 | X-H torsion

> <Gold.Protein.ActiveResidues>
 VAL166  LYS551  ARG553  GLY616  TRP617  ASP618  TYR619  PRO620  LYS621  CYS622 
 ASP623  PHE694  ASN695  SER759  ASP760  ASP761  ALA762  ILE779  LEU786  VAL792 
 PHE793  MET794  SER795  GLU796  ALA797  LYS798  CYS799  TRP800  GLU811  SER814 

> <Gold.Protein.RotatedAtoms>
  150.6919  134.1995  159.4316 H   0  0  0  0  0  0  0  0  0  0  0  0  # atno 6907 bound_to 6896
  151.9962  134.9950  160.0572 H   0  0  0  0  0  0  0  0  0  0  0  0  # atno 6908 bound_to 6896
  152.1621  133.4554  159.4903 H   0  0  0  0  0  0  0  0  0  0  0  0  # atno 6909 bound_to 6896
  144.8516  140.6074  143.5386 H   0  0  0  0  0  0  0  0  0  0  0  0  # atno 7974 bound_to 7965
  155.5160  140.0587  157.2915 H   0  0  0  0  0  0  0  0  0  0  0  0  # atno 8008 bound_to 7997
  154.4534  140.1961  156.0397 H   0  0  0  0  0  0  0  0  0  0  0  0  # atno 8009 bound_to 7997
  156.0751  140.3254  155.7628 H   0  0  0  0  0  0  0  0  0  0  0  0  # atno 8010 bound_to 7997
  140.5866  143.8878  150.6836 H   0  0  0  0  0  0  0  0  0  0  0  0  # atno 10167 bound_to 10162
  156.0458  130.5684  150.7883 H   0  0  0  0  0  0  0  0  0  0  0  0  # atno 10718 bound_to 10713
  154.8547  135.3526  154.5858 H   0  0  0  0  0  0  0  0  0  0  0  0  # atno 10763 bound_to 10752
  153.6469  135.6996  153.5227 H   0  0  0  0  0  0  0  0  0  0  0  0  # atno 10764 bound_to 10752
  153.2926  135.4230  155.1139 H   0  0  0  0  0  0  0  0  0  0  0  0  # atno 10765 bound_to 10752
  140.2802  134.2982  155.7803 H   0  0  0  0  0  0  0  0  0  0  0  0  # atno 11005 bound_to 11000
  145.4489  139.1526  143.3929 LP  0  0  0  0  0  0  0  0  0  0  0  0  # atno 17320 bound_to 7965
  146.2789  140.4614  142.8784 LP  0  0  0  0  0  0  0  0  0  0  0  0  # atno 17321 bound_to 7965
  140.2390  143.3678  152.1502 LP  0  0  0  0  0  0  0  0  0  0  0  0  # atno 17342 bound_to 10162
  139.5201  144.7029  151.5441 LP  0  0  0  0  0  0  0  0  0  0  0  0  # atno 17343 bound_to 10162
  157.5331  131.0937  150.9929 LP  0  0  0  0  0  0  0  0  0  0  0  0  # atno 17370 bound_to 10713
  157.0230  130.5681  149.5333 LP  0  0  0  0  0  0  0  0  0  0  0  0  # atno 17371 bound_to 10713
  141.2164  133.7520  156.9468 LP  0  0  0  0  0  0  0  0  0  0  0  0  # atno 17394 bound_to 11000
  140.1291  134.9367  157.2312 LP  0  0  0  0  0  0  0  0  0  0  0  0  # atno 17395 bound_to 11000

$$$$
