AV-unprocessed.smi:2953|AV-procd|sdf|11293|dock3
  -GOLD-   2272016183D 1   1.00000     0.00000
 Structure written by MMmdl.
 45 47  0  0  0  0  0  0  0  0  1 V2000
  153.7116  141.4357  160.6852 C   0  0  0  0  0  0  0  0  0  0  0  0
  152.8580  142.4860  160.0005 C   0  0  0  0  0  0  0  0  0  0  0  0
  152.6222  143.7176  160.6468 C   0  0  0  0  0  0  0  0  0  0  0  0
  151.8383  144.7064  160.0251 C   0  0  0  0  0  0  0  0  0  0  0  0
  151.2886  144.4659  158.7536 C   0  0  0  0  0  0  0  0  0  0  0  0
  151.5217  143.2388  158.1040 C   0  0  0  0  0  0  0  0  0  0  0  0
  152.3095  142.2329  158.7210 C   0  0  0  0  0  0  0  0  0  0  0  0
  152.5765  141.0081  158.1436 O   0  0  0  0  0  0  0  0  0  0  0  0
  151.7532  140.5729  157.0694 C   0  0  0  0  0  0  0  0  0  0  0  0
  150.4281  140.0250  157.6168 C   0  0  0  0  0  0  0  0  0  0  0  0
  149.6300  139.3751  156.5860 N   0  0  0  0  0  0  0  0  0  0  0  0
  149.3920  138.0495  156.3988 C   0  0  0  0  0  0  0  0  0  0  0  0
  149.9515  136.9904  157.3184 C   0  0  2  0  0  0  0  0  0  0  0  0
  151.1663  136.2369  156.7423 C   0  0  0  0  0  0  0  0  0  0  0  0
  148.8774  136.0882  157.7352 N   0  0  0  0  0  0  0  0  0  0  0  0
  148.5946  135.7273  158.9948 C   0  0  0  0  0  0  0  0  0  0  0  0
  149.2294  136.1302  159.9662 O   0  0  0  0  0  0  0  0  0  0  0  0
  148.5661  137.7539  155.3915 N   0  0  0  0  0  0  0  0  0  0  0  0
  148.2784  138.9914  154.8527 C   0  0  0  0  0  0  0  0  0  0  0  0
  147.4690  139.3479  153.7503 C   0  0  0  0  0  0  0  0  0  0  0  0
  147.3197  140.7014  153.3830 C   0  0  0  0  0  0  0  0  0  0  0  0
  147.9743  141.7151  154.1122 C   0  0  0  0  0  0  0  0  0  0  0  0
  148.7828  141.3808  155.2157 C   0  0  0  0  0  0  0  0  0  0  0  0
  148.9302  140.0280  155.5765 C   0  0  0  0  0  0  0  0  0  0  0  0
  153.9170  141.7020  161.7225 H   0  0  0  0  0  0  0  0  0  0  0  0
  154.6642  141.3335  160.1650 H   0  0  0  0  0  0  0  0  0  0  0  0
  153.2085  140.4683  160.6805 H   0  0  0  0  0  0  0  0  0  0  0  0
  153.0430  143.9095  161.6229 H   0  0  0  0  0  0  0  0  0  0  0  0
  151.6600  145.6482  160.5228 H   0  0  0  0  0  0  0  0  0  0  0  0
  150.6870  145.2242  158.2742 H   0  0  0  0  0  0  0  0  0  0  0  0
  151.0820  143.0953  157.1292 H   0  0  0  0  0  0  0  0  0  0  0  0
  151.5429  141.4027  156.3932 H   0  0  0  0  0  0  0  0  0  0  0  0
  152.2637  139.7947  156.4997 H   0  0  0  0  0  0  0  0  0  0  0  0
  150.6085  139.3336  158.4388 H   0  0  0  0  0  0  0  0  0  0  0  0
  149.8407  140.8408  158.0393 H   0  0  0  0  0  0  0  0  0  0  0  0
  150.3103  137.4812  158.2222 H   0  0  0  0  0  0  0  0  0  0  0  0
  151.9699  136.9284  156.4902 H   0  0  0  0  0  0  0  0  0  0  0  0
  150.9153  135.6852  155.8359 H   0  0  0  0  0  0  0  0  0  0  0  0
  151.5612  135.5228  157.4652 H   0  0  0  0  0  0  0  0  0  0  0  0
  148.3026  135.7021  157.0005 H   0  0  0  0  0  0  0  0  0  0  0  0
  147.7377  135.0378  159.0453 H   0  0  0  0  0  0  0  0  0  0  0  0
  146.9622  138.5788  153.1865 H   0  0  0  0  0  0  0  0  0  0  0  0
  146.6993  140.9629  152.5382 H   0  0  0  0  0  0  0  0  0  0  0  0
  147.8546  142.7493  153.8248 H   0  0  0  0  0  0  0  0  0  0  0  0
  149.2844  142.1548  155.7772 H   0  0  0  0  0  0  0  0  0  0  0  0
  1  2  1  0  0  0  0
  1 25  1  0  0  0  0
  1 26  1  0  0  0  0
  1 27  1  0  0  0  0
  2  7  1  0  0  0  0
  2  3  2  0  0  0  0
  3  4  1  0  0  0  0
  3 28  1  0  0  0  0
  4  5  2  0  0  0  0
  4 29  1  0  0  0  0
  5  6  1  0  0  0  0
  5 30  1  0  0  0  0
  6  7  2  0  0  0  0
  6 31  1  0  0  0  0
  7  8  1  0  0  0  0
  8  9  1  0  0  0  0
  9 10  1  0  0  0  0
  9 32  1  0  0  0  0
  9 33  1  0  0  0  0
 10 11  1  0  0  0  0
 10 34  1  0  0  0  0
 10 35  1  0  0  0  0
 11 24  1  0  0  0  0
 11 12  1  0  0  0  0
 12 13  1  0  0  0  0
 12 18  2  0  0  0  0
 13 14  1  0  0  0  0
 13 15  1  0  0  0  0
 13 36  1  0  0  0  0
 14 37  1  0  0  0  0
 14 38  1  0  0  0  0
 14 39  1  0  0  0  0
 15 16  1  0  0  0  0
 15 40  1  0  0  0  0
 16 17  2  0  0  0  0
 16 41  1  0  0  0  0
 18 19  1  0  0  0  0
 19 24  2  0  0  0  0
 19 20  1  0  0  0  0
 20 21  2  0  0  0  0
 20 42  1  0  0  0  0
 21 22  1  0  0  0  0
 21 43  1  0  0  0  0
 22 23  2  0  0  0  0
 22 44  1  0  0  0  0
 23 24  1  0  0  0  0
 23 45  1  0  0  0  0
M  END
> <s_m_source_file>
AV-unprocessed.smi

> <i_m_source_file_index>
2953

> <i_lp_mmshare_version>
43012

> <i_f3d_flags>
0

> <s_epik_input>
W0NIM11jMVtjSF1bY0hdW2NIXVtjSF1jMU9bQ0gyXVtDSDJdbihjKG4yKVtDQEhdKFtDSDNdKVtOSF1bQ0hdPU8pYyhjMjMpW2NIXVtjSF1bY0hdW2NIXTM=

> <s_epik_cmdline>
J2VwaWtfcHl0aG9uJywgJy1waCcsICc3LjAnLCAnLXRuJywgJzgnLCAnLW1hJywgJzIwMCcsICctbWV0YWxfYmluZGluZycsICctaW1hZScsICc8aW5maWxlLm1hZT4nLCAnLW9tYWUnLCAnPG91dGZpbGUubWFlPic=

> <r_lp_tautomer_probability>
1

> <r_epik_Ionization_Penalty>
0.0924205

> <r_epik_Ionization_Penalty_Charging>
0

> <r_epik_Ionization_Penalty_Neutral>
0.0924205

> <r_epik_State_Penalty>
0.0827154

> <r_epik_Charging_Adjusted_Penalty>
0.0827154

> <i_epik_Tot_Q>
0

> <i_epik_Tot_abs_Q>
0

> <r_epik_Metal_State_Penalty>
0.071464

> <b_epik_Metal_Only>
0

> <s_lp_Force_Field>
OPLS_2005

> <r_lp_Energy>
13.673

> <b_lp_Chiralities_Consistent>
1

> <s_lp_Variant>
AV-unprocessed.smi:2953-1

> <Gold.Version>
5.8.1

> <Gold.Id.Protein>
6NUR|6NUR_protein|mol2

> <Gold.PLP.Fitness>
46.1232

> <Gold.PLP.PLP>
-43.2952

> <Gold.PLP.part.hbond>
-2.0000

> <Gold.PLP.part.metal>
0.0000

> <Gold.PLP.part.buried>
-5.2637

> <Gold.PLP.part.nonpolar>
-34.9159

> <Gold.PLP.part.repulsive>
0.1004

> <Gold.PLP.ligand.clash>
0.0000

> <Gold.PLP.ligand.torsion>
1.0498

> <Gold.PLP.Chemscore.Hbond>
1.5840

> <Gold.PLP.Chemscore.CHOScore>
0.0000

> <Gold.PLP.Chemscore.Metal>
0.0000

> <Gold.Chemscore.Hbonds>
donor molecule, donor type, donor heavy atom, donor atom, acceptor molecule, acceptor atom, score
      P1  H  6896  6908       L1    17  0.39

> <Gold.PLP.Chemscore.Internal.Correction>
0.1757

> <Gold.Rescore>
     Score         DG    S(hbond)    S(metal)    S(lipo)     H(rot)  DE(clash)    DE(int)     intcor
     18.60     -19.58       1.50        0.00     127.14       2.26       0.03       0.95       ----

> <Gold.Chemscore.Fitness>
18.6011

> <Gold.Chemscore.DG>
-19.5829

> <Gold.Chemscore.ZeroCoef>
-5.4800

> <Gold.Chemscore.Hbond>
1.5024

> <Gold.Chemscore.Metal>
0.0000

> <Gold.Chemscore.Lipo>
127.1408

> <Gold.Chemscore.Internal_Hbond>
0.0000

> <Gold.Chemscore.DEClash>
0.0284

> <Gold.Chemscore.DEInternal>
0.9534

> <Gold.Chemscore.Rot>
2.2619

> <Gold.Chemscore.Internal.Correction>
   9.000000E+99

> <Gold.Chemscore.Hbonds>
donor molecule, donor type, donor heavy atom, donor atom, acceptor molecule, acceptor atom, score
      P1  H  6896  6908       L1    17  0.22

> <Gold.Chemscore.Hbond.Weighted>
-5.0180

> <Gold.Chemscore.Metal.Weighted>
-0.0000

> <Gold.Chemscore.Lipo.Weighted>
-14.8755

> <Gold.Chemscore.Internal_Hbond.Weighted>
0.0000

> <Gold.Chemscore.DEClash.Weighted>
0.0284

> <Gold.Chemscore.DEInternal.Weighted>
0.9534

> <Gold.Chemscore.Rot.Weighted>
5.7906

> <Gold.Chemscore.Internal.Correction.Weighted>
   9.000000E+99

> <Gold.Protein.RotatedTorsions>
[ 6907 6896 6895 6894 ] final -141.29 input  -60.11 | X-H torsion
[ 7974 7965 7964 7962 ] final  152.06 input  175.53 | X-H torsion
[ 8008 7997 7996 7995 ] final -178.00 input   59.86 | X-H torsion
[ 10167 10162 10161 10158 ] final  -23.75 input  -65.29 | X-H torsion
[ 10718 10713 10712 10709 ] final -167.22 input   66.30 | X-H torsion
[ 10763 10752 10751 10750 ] final   65.12 input  -60.55 | X-H torsion
[ 11005 11000 10999 10996 ] final   87.64 input  -57.11 | X-H torsion

> <Gold.Protein.ActiveResidues>
 VAL166  LYS551  ARG553  GLY616  TRP617  ASP618  TYR619  PRO620  LYS621  CYS622 
 ASP623  PHE694  ASN695  SER759  ASP760  ASP761  ALA762  ILE779  LEU786  VAL792 
 PHE793  MET794  SER795  GLU796  ALA797  LYS798  CYS799  TRP800  GLU811  SER814 

> <Gold.Protein.RotatedAtoms>
  151.0718  133.5460  159.2626 H   0  0  0  0  0  0  0  0  0  0  0  0  # atno 6907 bound_to 6896
  151.2396  135.0583  159.9029 H   0  0  0  0  0  0  0  0  0  0  0  0  # atno 6908 bound_to 6896
  152.5412  134.0495  159.8157 H   0  0  0  0  0  0  0  0  0  0  0  0  # atno 6909 bound_to 6896
  144.8249  139.6618  143.6084 H   0  0  0  0  0  0  0  0  0  0  0  0  # atno 7974 bound_to 7965
  156.0136  140.1246  157.0429 H   0  0  0  0  0  0  0  0  0  0  0  0  # atno 8008 bound_to 7997
  154.4285  140.1083  156.5934 H   0  0  0  0  0  0  0  0  0  0  0  0  # atno 8009 bound_to 7997
  155.6045  140.3471  155.4606 H   0  0  0  0  0  0  0  0  0  0  0  0  # atno 8010 bound_to 7997
  140.7288  143.4415  151.0650 H   0  0  0  0  0  0  0  0  0  0  0  0  # atno 10167 bound_to 10162
  156.6792  130.9115  151.3054 H   0  0  0  0  0  0  0  0  0  0  0  0  # atno 10718 bound_to 10713
  153.0083  135.5368  154.6617 H   0  0  0  0  0  0  0  0  0  0  0  0  # atno 10763 bound_to 10752
  154.5824  135.2851  155.0721 H   0  0  0  0  0  0  0  0  0  0  0  0  # atno 10764 bound_to 10752
  154.1845  135.6510  153.5095 H   0  0  0  0  0  0  0  0  0  0  0  0  # atno 10765 bound_to 10752
  139.8915  134.8436  156.2889 H   0  0  0  0  0  0  0  0  0  0  0  0  # atno 11005 bound_to 11000
  146.2554  139.6291  142.9398 LP  0  0  0  0  0  0  0  0  0  0  0  0  # atno 17320 bound_to 7965
  145.5023  141.0437  143.2534 LP  0  0  0  0  0  0  0  0  0  0  0  0  # atno 17321 bound_to 7965
  139.8082  143.7987  152.3169 LP  0  0  0  0  0  0  0  0  0  0  0  0  # atno 17342 bound_to 10162
  139.8028  144.7367  150.9802 LP  0  0  0  0  0  0  0  0  0  0  0  0  # atno 17343 bound_to 10162
  157.7050  130.9374  150.0901 LP  0  0  0  0  0  0  0  0  0  0  0  0  # atno 17370 bound_to 10713
  156.1880  130.3653  149.8947 LP  0  0  0  0  0  0  0  0  0  0  0  0  # atno 17371 bound_to 10713
  140.9989  133.7163  156.0930 LP  0  0  0  0  0  0  0  0  0  0  0  0  # atno 17394 bound_to 11000
  140.7524  134.4030  157.5539 LP  0  0  0  0  0  0  0  0  0  0  0  0  # atno 17395 bound_to 11000

$$$$
