#       Name:                AV-unprocessed.smi:1614
#       Creating user name   scv26
#       Creation time:       Fri Mar 27 07:14:17 2020


#       File generated by GOLD software.
#

@<TRIPOS>MOLECULE
AV-unprocessed.smi:1614
    43    44     1
SMALL
NO_CHARGES


@<TRIPOS>ATOM
      1 ****        -4.7131   0.1383  -1.3236 C.3            1 S1                 0.0000
      2 ****        -3.1839   0.0472  -1.2972 C.3            1 S1                 0.0000
      3 ****        -2.6825  -1.4061  -1.2927 C.3            1 S1                 0.0000
      4 ****        -1.2263  -1.4681  -1.2699 N.am           1 S1                 0.0000
      5 ****        -0.4686  -1.3356  -0.1693 C.2            1 S1                 0.0000
      6 ****        -0.9324  -1.1553   0.9570 O.2            1 S1                 0.0000
      7 ****         1.0183  -1.3723  -0.4081 C.ar           1 S1                 0.0000
      8 ****         1.5598  -2.3682  -1.2539 C.ar           1 S1                 0.0000
      9 ****         2.9512  -2.4380  -1.4429 C.ar           1 S1                 0.0000
     10 ****         3.7606  -1.5076  -0.7693 C.ar           1 S1                 0.0000
     11 ****         3.2654  -0.5517   0.0419 N.ar           1 S1                 0.0000
     12 ****         1.9242  -0.4723   0.2288 C.ar           1 S1                 0.0000
     13 ****         1.4651   0.5760   1.0520 N.3            1 S1                 0.0000
     14 ****         0.9311   1.7162   0.3172 C.3            1 S1                 0.0000
     15 ****         0.1972   2.6623   1.2826 C.3            1 S1                 0.0000
     16 ****         1.0763   3.0507   2.3351 O.3            1 S1                 0.0000
     17 ****         1.5322   1.9334   3.0933 C.3            1 S1                 0.0000
     18 ****         2.3061   0.9696   2.1775 C.3            1 S1                 0.0000
     19 ****        -5.0399   1.1782  -1.3408 H              1 S1                 0.0000
     20 ****        -5.1496  -0.3332  -0.4426 H              1 S1                 0.0000
     21 ****        -5.1222  -0.3540  -2.2062 H              1 S1                 0.0000
     22 ****        -2.7774   0.5725  -2.1623 H              1 S1                 0.0000
     23 ****        -2.8124   0.5723  -0.4162 H              1 S1                 0.0000
     24 ****        -3.0947  -1.9520  -0.4423 H              1 S1                 0.0000
     25 ****        -3.0279  -1.9213  -2.1895 H              1 S1                 0.0000
     26 ****        -0.7600  -1.6000  -2.1555 H              1 S1                 0.0000
     27 ****         0.9205  -3.0847  -1.7491 H              1 S1                 0.0000
     28 ****         3.3872  -3.1914  -2.0822 H              1 S1                 0.0000
     29 ****         4.8339  -1.5303  -0.8851 H              1 S1                 0.0000
     30 ****         1.7527   2.2422  -0.1707 H              1 S1                 0.0000
     31 ****         0.2512   1.3882  -0.4691 H              1 S1                 0.0000
     32 ****        -0.1393   3.5535   0.7528 H              1 S1                 0.0000
     33 ****        -0.6916   2.1819   1.6951 H              1 S1                 0.0000
     34 ****         2.1772   2.2884   3.8970 H              1 S1                 0.0000
     35 ****         0.6854   1.4291   3.5624 H              1 S1                 0.0000
     36 ****         2.6154   0.0862   2.7376 H              1 S1                 0.0000
     37 ****         3.2098   1.4575   1.8095 H              1 S1                 0.0000
     38 ****        -1.9224  -1.1007   1.0872 LP             1 S1                 0.0000
     39 ****        -0.3191  -1.0635   1.7415 LP             1 S1                 0.0000
     40 ****         3.8793   0.0910   0.5003 LP             1 S1                 0.0000
     41 ****         0.6937   0.1320   1.5079 LP             1 S1                 0.0000
     42 ****         0.5918   3.6779   2.9448 LP             1 S1                 0.0000
     43 ****         1.8679   3.5159   1.9388 LP             1 S1                 0.0000
@<TRIPOS>BOND
    1    1    2 1     
    2    1   19 1     
    3    1   20 1     
    4    1   21 1     
    5    2    3 1     
    6    2   22 1     
    7    2   23 1     
    8    3    4 1     
    9    3   24 1     
   10    3   25 1     
   11    4    5 am    
   12    4   26 1     
   13    5    6 2     
   14    5    7 1     
   15    7   12 ar    
   16    7    8 ar    
   17    8    9 ar    
   18    8   27 1     
   19    9   10 ar    
   20    9   28 1     
   21   10   11 ar    
   22   10   29 1     
   23   11   12 ar    
   24   12   13 1     
   25   13   18 1     
   26   13   14 1     
   27   14   15 1     
   28   14   30 1     
   29   14   31 1     
   30   15   16 1     
   31   15   32 1     
   32   15   33 1     
   33   16   17 1     
   34   17   18 1     
   35   17   34 1     
   36   17   35 1     
   37   18   36 1     
   38   18   37 1     
   39    6   38 1     
   40    6   39 1     
   41   11   40 1     
   42   13   41 1     
   43   16   42 1     
   44   16   43 1     
@<TRIPOS>SUBSTRUCTURE
      1 S1             1
@<TRIPOS>SET
LONE_PAIRS      STATIC     ATOMS    <user>   **** ""
6 38 39 40 41 42 43
DONOR_HYDROGENS      STATIC     ATOMS    <user>   **** ""
1 26
ATOM$BLUE        STATIC     ATOMS    COLORGROUP SYSTEM
6 38 39 40 41 42 43
ATOM$RED        STATIC     ATOMS    COLORGROUP SYSTEM
1 26
