AV-unprocessed.smi:2908|AV-procd|sdf|11169|dock7
  -GOLD-   2272016 63D 1   1.00000     0.00000
 Structure written by MMmdl.
 44 45  0  0  0  0  0  0  0  0  2 V2000
  148.3866  138.8251  155.8908 O   0  0  0  0  0  0  0  0  0  0  0  0
  149.2565  138.3806  156.6418 C   0  0  0  0  0  0  0  0  0  0  0  0
  150.3799  139.0661  156.9182 N   0  0  0  0  0  0  0  0  0  0  0  0
  150.7196  140.3941  156.4119 C   0  0  0  0  0  0  0  0  0  0  0  0
  150.0511  141.5246  157.2189 C   0  0  0  0  0  0  0  0  0  0  0  0
  151.0374  142.4373  157.9260 C   0  0  0  0  0  0  0  0  0  0  0  0
  151.9451  141.9581  158.8959 C   0  0  0  0  0  0  0  0  0  0  0  0
  152.8529  142.8572  159.4930 C   0  0  0  0  0  0  0  0  0  0  0  0
  152.8325  144.2145  159.1108 C   0  0  0  0  0  0  0  0  0  0  0  0
  151.9027  144.6393  158.1401 C   0  0  0  0  0  0  0  0  0  0  0  0
  151.0490  143.7478  157.5913 N   0  3  0  0  0  0  0  0  0  0  0  0
  149.1934  137.1472  157.2028 N   0  0  0  0  0  0  0  0  0  0  0  0
  149.9426  136.6894  158.3825 C   0  0  0  0  0  0  0  0  0  0  0  0
  148.9873  136.6539  159.5879 C   0  0  0  0  0  0  0  0  0  0  0  0
  147.7574  135.7454  159.3279 C   0  0  0  0  0  0  0  0  0  0  0  0
  146.7575  135.7940  160.5155 C   0  0  2  0  0  0  0  0  0  0  0  0
  146.5332  137.1495  160.8580 O   0  0  0  0  0  0  0  0  0  0  0  0
  147.2053  135.0610  161.8018 C   0  0  0  0  0  0  0  0  0  0  0  0
  146.1561  134.8827  162.6062 F   0  0  0  0  0  0  0  0  0  0  0  0
  147.6843  133.8517  161.5124 F   0  0  0  0  0  0  0  0  0  0  0  0
  148.1424  135.7555  162.4478 F   0  0  0  0  0  0  0  0  0  0  0  0
  147.1127  136.1068  157.9667 C   0  0  0  0  0  0  0  0  0  0  0  0
  148.1557  136.1787  156.8364 C   0  0  0  0  0  0  0  0  0  0  0  0
  151.0533  138.6299  157.5315 H   0  0  0  0  0  0  0  0  0  0  0  0
  151.8019  140.5322  156.3930 H   0  0  0  0  0  0  0  0  0  0  0  0
  150.3915  140.4489  155.3738 H   0  0  0  0  0  0  0  0  0  0  0  0
  149.4308  142.1283  156.5555 H   0  0  0  0  0  0  0  0  0  0  0  0
  149.3728  141.0953  157.9573 H   0  0  0  0  0  0  0  0  0  0  0  0
  151.9543  140.9139  159.1724 H   0  0  0  0  0  0  0  0  0  0  0  0
  153.5585  142.5094  160.2331 H   0  0  0  0  0  0  0  0  0  0  0  0
  153.5214  144.9187  159.5540 H   0  0  0  0  0  0  0  0  0  0  0  0
  151.8193  145.6562  157.7859 H   0  0  0  0  0  0  0  0  0  0  0  0
  150.3387  135.6910  158.1929 H   0  0  0  0  0  0  0  0  0  0  0  0
  150.8113  137.3028  158.6207 H   0  0  0  0  0  0  0  0  0  0  0  0
  149.5358  136.3091  160.4645 H   0  0  0  0  0  0  0  0  0  0  0  0
  148.6555  137.6683  159.8133 H   0  0  0  0  0  0  0  0  0  0  0  0
  148.1247  134.7215  159.2427 H   0  0  0  0  0  0  0  0  0  0  0  0
  145.8002  135.3797  160.1965 H   0  0  0  0  0  0  0  0  0  0  0  0
  145.6605  137.2271  161.2126 H   0  0  0  0  0  0  0  0  0  0  0  0
  146.3646  135.3639  157.6927 H   0  0  0  0  0  0  0  0  0  0  0  0
  146.5934  137.0632  158.0440 H   0  0  0  0  0  0  0  0  0  0  0  0
  147.6677  136.4240  155.8920 H   0  0  0  0  0  0  0  0  0  0  0  0
  148.6113  135.1991  156.6843 H   0  0  0  0  0  0  0  0  0  0  0  0
  150.3904  144.0761  156.8844 H   0  0  0  0  0  0  0  0  0  0  0  0
  1  2  2  0  0  0  0
  2  3  1  0  0  0  0
  2 12  1  0  0  0  0
  3  4  1  0  0  0  0
  3 24  1  0  0  0  0
  4  5  1  0  0  0  0
  4 25  1  0  0  0  0
  4 26  1  0  0  0  0
  5  6  1  0  0  0  0
  5 27  1  0  0  0  0
  5 28  1  0  0  0  0
  6 11  1  0  0  0  0
  6  7  2  0  0  0  0
  7  8  1  0  0  0  0
  7 29  1  0  0  0  0
  8  9  2  0  0  0  0
  8 30  1  0  0  0  0
  9 10  1  0  0  0  0
  9 31  1  0  0  0  0
 10 11  2  0  0  0  0
 10 32  1  0  0  0  0
 11 44  1  0  0  0  0
 12 23  1  0  0  0  0
 12 13  1  0  0  0  0
 13 14  1  0  0  0  0
 13 33  1  0  0  0  0
 13 34  1  0  0  0  0
 14 15  1  0  0  0  0
 14 35  1  0  0  0  0
 14 36  1  0  0  0  0
 15 16  1  0  0  0  0
 15 22  1  0  0  0  0
 15 37  1  0  0  0  0
 16 17  1  0  0  0  0
 16 18  1  0  0  0  0
 16 38  1  0  0  0  0
 17 39  1  0  0  0  0
 18 19  1  0  0  0  0
 18 20  1  0  0  0  0
 18 21  1  0  0  0  0
 22 23  1  0  0  0  0
 22 40  1  0  0  0  0
 22 41  1  0  0  0  0
 23 42  1  0  0  0  0
 23 43  1  0  0  0  0
M  CHG  1  11   1
M  END
> <s_m_source_file>
AV-unprocessed.smi

> <i_m_source_file_index>
2908

> <i_lp_mmshare_version>
43012

> <i_f3d_flags>
0

> <s_epik_input>
RkMoRikoRilbQ0BASF0oW09IXSlbQ0hdKFtDSDJdW0NIMl0xKVtDSDJdW0NIMl1OMUMoPU8pW05IXVtDSDJdW0NIMl1jMltjSF1bY0hdW2NIXVtjSF1uMg==

> <s_epik_cmdline>
J2VwaWtfcHl0aG9uJywgJy1waCcsICc3LjAnLCAnLXRuJywgJzgnLCAnLW1hJywgJzIwMCcsICctbWV0YWxfYmluZGluZycsICctaW1hZScsICc8aW5maWxlLm1hZT4nLCAnLW9tYWUnLCAnPG91dGZpbGUubWFlPic=

> <r_epik_Ionization_Penalty>
1.55054

> <r_epik_Ionization_Penalty_Charging>
1.55036

> <r_epik_Ionization_Penalty_Neutral>
0.00017404

> <r_epik_State_Penalty>
1.64453

> <r_epik_Charging_Adjusted_Penalty>
3.19489

> <i_epik_Tot_Q>
1

> <i_epik_Tot_abs_Q>
1

> <r_epik_Metal_State_Penalty>
1.68672

> <b_epik_Metal_Only>
0

> <s_lp_Force_Field>
OPLS_2005

> <r_lp_Energy>
42.7125

> <b_lp_Chiralities_Consistent>
1

> <s_lp_Variant>
AV-unprocessed.smi:2908-3

> <Gold.Version>
5.8.1

> <Gold.Id.Protein>
6NUR|6NUR_protein|mol2

> <Gold.PLP.Fitness>
49.3197

> <Gold.PLP.PLP>
-42.0712

> <Gold.PLP.part.hbond>
-2.0000

> <Gold.PLP.part.metal>
0.0000

> <Gold.PLP.part.buried>
-3.9866

> <Gold.PLP.part.nonpolar>
-36.2361

> <Gold.PLP.part.repulsive>
0.0213

> <Gold.PLP.ligand.clash>
0.0000

> <Gold.PLP.ligand.torsion>
1.1412

> <Gold.PLP.Chemscore.Hbond>
3.0000

> <Gold.PLP.Chemscore.CHOScore>
0.0000

> <Gold.PLP.Chemscore.Metal>
0.0000

> <Gold.Chemscore.Hbonds>
donor molecule, donor type, donor heavy atom, donor atom, acceptor molecule, acceptor atom, score
      L1  H    11    44       P1  8028  2.00
      P1  H  6934  6947       L1    17  1.00

> <Gold.PLP.Chemscore.Internal.Correction>
0.5309

> <Gold.Rescore>
     Score         DG    S(hbond)    S(metal)    S(lipo)     H(rot)  DE(clash)    DE(int)     intcor
     16.20     -17.61       1.96        0.00     100.43       2.40       0.07       1.35       ----

> <Gold.Chemscore.Fitness>
16.1951

> <Gold.Chemscore.DG>
-17.6147

> <Gold.Chemscore.ZeroCoef>
-5.4800

> <Gold.Chemscore.Hbond>
1.9567

> <Gold.Chemscore.Metal>
0.0000

> <Gold.Chemscore.Lipo>
100.4273

> <Gold.Chemscore.Internal_Hbond>
0.0000

> <Gold.Chemscore.DEClash>
0.0673

> <Gold.Chemscore.DEInternal>
1.3523

> <Gold.Chemscore.Rot>
2.4026

> <Gold.Chemscore.Internal.Correction>
   9.000000E+99

> <Gold.Chemscore.Hbonds>
donor molecule, donor type, donor heavy atom, donor atom, acceptor molecule, acceptor atom, score
      L1  H    11    44       P1  8028  0.93
      P1  H  6934  6947       L1    17  0.34

> <Gold.Chemscore.Hbond.Weighted>
-6.5355

> <Gold.Chemscore.Metal.Weighted>
-0.0000

> <Gold.Chemscore.Lipo.Weighted>
-11.7500

> <Gold.Chemscore.Internal_Hbond.Weighted>
0.0000

> <Gold.Chemscore.DEClash.Weighted>
0.0673

> <Gold.Chemscore.DEInternal.Weighted>
1.3523

> <Gold.Chemscore.Rot.Weighted>
6.1508

> <Gold.Chemscore.Internal.Correction.Weighted>
   9.000000E+99

> <Gold.Protein.RotatedTorsions>
[ 6907 6896 6895 6894 ] final  108.59 input  -60.11 | X-H torsion
[ 7974 7965 7964 7962 ] final   -2.10 input  175.53 | X-H torsion
[ 8008 7997 7996 7995 ] final  -91.27 input   59.86 | X-H torsion
[ 10167 10162 10161 10158 ] final   23.12 input  -65.29 | X-H torsion
[ 10718 10713 10712 10709 ] final  170.66 input   66.30 | X-H torsion
[ 10763 10752 10751 10750 ] final  129.37 input  -60.55 | X-H torsion
[ 11005 11000 10999 10996 ] final -106.55 input  -57.11 | X-H torsion

> <Gold.Protein.ActiveResidues>
 VAL166  LYS551  ARG553  GLY616  TRP617  ASP618  TYR619  PRO620  LYS621  CYS622 
 ASP623  PHE694  ASN695  SER759  ASP760  ASP761  ALA762  ILE779  LEU786  VAL792 
 PHE793  MET794  SER795  GLU796  ALA797  LYS798  CYS799  TRP800  GLU811  SER814 

> <Gold.Protein.RotatedAtoms>
  152.5105  133.9067  159.7467 H   0  0  0  0  0  0  0  0  0  0  0  0  # atno 6907 bound_to 6896
  150.9470  133.6583  159.2786 H   0  0  0  0  0  0  0  0  0  0  0  0  # atno 6908 bound_to 6896
  151.3875  135.0955  159.9568 H   0  0  0  0  0  0  0  0  0  0  0  0  # atno 6909 bound_to 6896
  146.2409  140.1521  142.8334 H   0  0  0  0  0  0  0  0  0  0  0  0  # atno 7974 bound_to 7965
  154.7087  140.0521  157.0529 H   0  0  0  0  0  0  0  0  0  0  0  0  # atno 8008 bound_to 7997
  155.0584  140.3187  155.4649 H   0  0  0  0  0  0  0  0  0  0  0  0  # atno 8009 bound_to 7997
  156.2783  140.2103  156.5711 H   0  0  0  0  0  0  0  0  0  0  0  0  # atno 8010 bound_to 7997
  140.5294  143.9868  150.6457 H   0  0  0  0  0  0  0  0  0  0  0  0  # atno 10167 bound_to 10162
  157.0049  131.0187  151.2820 H   0  0  0  0  0  0  0  0  0  0  0  0  # atno 10718 bound_to 10713
  153.7406  135.3224  155.3303 H   0  0  0  0  0  0  0  0  0  0  0  0  # atno 10763 bound_to 10752
  154.8296  135.4544  154.1030 H   0  0  0  0  0  0  0  0  0  0  0  0  # atno 10764 bound_to 10752
  153.2204  135.6947  153.8089 H   0  0  0  0  0  0  0  0  0  0  0  0  # atno 10765 bound_to 10752
  141.0999  133.8903  157.1869 H   0  0  0  0  0  0  0  0  0  0  0  0  # atno 11005 bound_to 11000
  145.0159  140.8753  143.5196 LP  0  0  0  0  0  0  0  0  0  0  0  0  # atno 17320 bound_to 7965
  145.1561  139.2485  143.5415 LP  0  0  0  0  0  0  0  0  0  0  0  0  # atno 17321 bound_to 7965
  140.3238  143.3120  152.0757 LP  0  0  0  0  0  0  0  0  0  0  0  0  # atno 17342 bound_to 10162
  139.4949  144.6555  151.6581 LP  0  0  0  0  0  0  0  0  0  0  0  0  # atno 17343 bound_to 10162
  157.5363  130.8091  149.7976 LP  0  0  0  0  0  0  0  0  0  0  0  0  # atno 17370 bound_to 10713
  156.0157  130.3814  150.2118 LP  0  0  0  0  0  0  0  0  0  0  0  0  # atno 17371 bound_to 10713
  139.9847  135.0086  156.9834 LP  0  0  0  0  0  0  0  0  0  0  0  0  # atno 17394 bound_to 11000
  140.5048  134.1061  155.7258 LP  0  0  0  0  0  0  0  0  0  0  0  0  # atno 17395 bound_to 11000

$$$$
