AV-unprocessed.smi:3212|AV-procd|sdf|12278|dock6
  -GOLD-   2272018113D 1   1.00000     0.00000
 Structure written by MMmdl.
 40 40  0  0  0  0  0  0  0  0  2 V2000
  150.6809  139.3716  154.9246 C   0  0  0  0  0  0  0  0  0  0  0  0
  150.2328  138.1444  154.1165 C   0  0  2  0  0  0  0  0  0  0  0  0
  149.1278  138.5239  153.2069 N   0  3  0  0  0  0  0  0  0  0  0  0
  147.8911  138.9909  153.8721 C   0  0  0  0  0  0  0  0  0  0  0  0
  146.8034  139.3574  152.8496 C   0  0  0  0  0  0  0  0  0  0  0  0
  146.2628  138.1892  152.1774 N   0  0  0  0  0  0  0  0  0  0  0  0
  145.5336  137.1510  152.7182 C   0  0  0  0  0  0  0  0  0  0  0  0
  145.2503  136.2819  151.7039 C   0  0  0  0  0  0  0  0  0  0  0  0
  145.8547  136.8826  150.5646 C   0  0  0  0  0  0  0  0  0  0  0  0
  146.4609  138.0237  150.8514 N   0  0  0  0  0  0  0  0  0  0  0  0
  149.8320  137.0073  155.0668 C   0  0  0  0  0  0  0  0  0  0  0  0
  149.8529  137.1847  156.2850 O   0  0  0  0  0  0  0  0  0  0  0  0
  149.4825  135.8467  154.4835 N   0  0  0  0  0  0  0  0  0  0  0  0
  149.0576  134.5953  155.1223 C   0  0  0  0  0  0  0  0  0  0  0  0
  148.7648  133.5942  153.9909 C   0  0  0  0  0  0  0  0  0  0  0  0
  147.7705  134.8119  155.9455 C   0  0  0  0  0  0  0  0  0  0  0  0
  150.1833  134.0297  156.0133 C   0  0  0  0  0  0  0  0  0  0  0  0
  151.5147  139.1310  155.5857 H   0  0  0  0  0  0  0  0  0  0  0  0
  149.8705  139.7635  155.5408 H   0  0  0  0  0  0  0  0  0  0  0  0
  151.0115  140.1738  154.2641 H   0  0  0  0  0  0  0  0  0  0  0  0
  151.0765  137.8158  153.5069 H   0  0  0  0  0  0  0  0  0  0  0  0
  149.4588  139.2435  152.5799 H   0  0  0  0  0  0  0  0  0  0  0  0
  147.5196  138.2201  154.5487 H   0  0  0  0  0  0  0  0  0  0  0  0
  148.1209  139.8652  154.4819 H   0  0  0  0  0  0  0  0  0  0  0  0
  145.9817  139.8667  153.3549 H   0  0  0  0  0  0  0  0  0  0  0  0
  147.1886  140.0541  152.1036 H   0  0  0  0  0  0  0  0  0  0  0  0
  145.2800  137.1164  153.7677 H   0  0  0  0  0  0  0  0  0  0  0  0
  144.6949  135.3578  151.7658 H   0  0  0  0  0  0  0  0  0  0  0  0
  145.8721  136.5254  149.5455 H   0  0  0  0  0  0  0  0  0  0  0  0
  149.5162  135.8225  153.4745 H   0  0  0  0  0  0  0  0  0  0  0  0
  148.4398  132.6311  154.3864 H   0  0  0  0  0  0  0  0  0  0  0  0
  149.6498  133.4140  153.3791 H   0  0  0  0  0  0  0  0  0  0  0  0
  147.9771  133.9584  153.3302 H   0  0  0  0  0  0  0  0  0  0  0  0
  146.9785  135.2513  155.3378 H   0  0  0  0  0  0  0  0  0  0  0  0
  147.9340  135.4688  156.7996 H   0  0  0  0  0  0  0  0  0  0  0  0
  147.3941  133.8670  156.3391 H   0  0  0  0  0  0  0  0  0  0  0  0
  149.9109  133.0535  156.4158 H   0  0  0  0  0  0  0  0  0  0  0  0
  150.3977  134.6760  156.8646 H   0  0  0  0  0  0  0  0  0  0  0  0
  151.1101  133.9050  155.4520 H   0  0  0  0  0  0  0  0  0  0  0  0
  148.8840  137.7108  152.6591 H   0  0  0  0  0  0  0  0  0  0  0  0
  1  2  1  0  0  0  0
  1 18  1  0  0  0  0
  1 19  1  0  0  0  0
  1 20  1  0  0  0  0
  2  3  1  0  0  0  0
  2 11  1  0  0  0  0
  2 21  1  0  0  0  0
  3  4  1  0  0  0  0
  3 22  1  0  0  0  0
  3 40  1  0  0  0  0
  4  5  1  0  0  0  0
  4 23  1  0  0  0  0
  4 24  1  0  0  0  0
  5  6  1  0  0  0  0
  5 25  1  0  0  0  0
  5 26  1  0  0  0  0
  6 10  1  0  0  0  0
  6  7  1  0  0  0  0
  7  8  2  0  0  0  0
  7 27  1  0  0  0  0
  8  9  1  0  0  0  0
  8 28  1  0  0  0  0
  9 10  2  0  0  0  0
  9 29  1  0  0  0  0
 11 12  2  0  0  0  0
 11 13  1  0  0  0  0
 13 14  1  0  0  0  0
 13 30  1  0  0  0  0
 14 15  1  0  0  0  0
 14 16  1  0  0  0  0
 14 17  1  0  0  0  0
 15 31  1  0  0  0  0
 15 32  1  0  0  0  0
 15 33  1  0  0  0  0
 16 34  1  0  0  0  0
 16 35  1  0  0  0  0
 16 36  1  0  0  0  0
 17 37  1  0  0  0  0
 17 38  1  0  0  0  0
 17 39  1  0  0  0  0
M  CHG  1   3   1
M  END
> <s_m_source_file>
AV-unprocessed.smi

> <i_m_source_file_index>
3212

> <i_lp_mmshare_version>
43012

> <i_f3d_flags>
0

> <s_epik_input>
W0NIM11DKFtDSDNdKShbQ0gzXSlbTkhdQyg9TylbQ0BIXShbQ0gzXSlbTkhdW0NIMl1bQ0gyXW4xW2NIXVtjSF1bY0hdbjE=

> <s_epik_cmdline>
J2VwaWtfcHl0aG9uJywgJy1waCcsICc3LjAnLCAnLXRuJywgJzgnLCAnLW1hJywgJzIwMCcsICctbWV0YWxfYmluZGluZycsICctaW1hZScsICc8aW5maWxlLm1hZT4nLCAnLW9tYWUnLCAnPG91dGZpbGUubWFlPic=

> <r_lp_tautomer_probability>
1

> <r_epik_Ionization_Penalty>
0.198377

> <r_epik_Ionization_Penalty_Charging>
0.198374

> <r_epik_Ionization_Penalty_Neutral>
3.0924e-06

> <r_epik_State_Penalty>
0.188176

> <r_epik_Charging_Adjusted_Penalty>
0.38655

> <i_epik_Tot_Q>
1

> <i_epik_Tot_abs_Q>
1

> <r_epik_Metal_State_Penalty>
0.188456

> <b_epik_Metal_Only>
0

> <s_lp_Force_Field>
OPLS_2005

> <r_lp_Energy>
6.00749

> <b_lp_Chiralities_Consistent>
1

> <s_lp_Variant>
AV-unprocessed.smi:3212-1

> <Gold.Version>
5.8.1

> <Gold.Id.Protein>
6NUR|6NUR_protein|mol2

> <Gold.PLP.Fitness>
44.5818

> <Gold.PLP.PLP>
-26.6856

> <Gold.PLP.part.hbond>
-4.0000

> <Gold.PLP.part.metal>
0.0000

> <Gold.PLP.part.buried>
-1.4226

> <Gold.PLP.part.nonpolar>
-26.4039

> <Gold.PLP.part.repulsive>
2.1235

> <Gold.PLP.ligand.clash>
0.0000

> <Gold.PLP.ligand.torsion>
0.0703

> <Gold.PLP.Chemscore.Hbond>
5.0000

> <Gold.PLP.Chemscore.CHOScore>
1.0000

> <Gold.PLP.Chemscore.Metal>
0.0000

> <Gold.Chemscore.Hbonds>
donor molecule, donor type, donor heavy atom, donor atom, acceptor molecule, acceptor atom, score
      L1  H     3    22       P1  7957  1.00
      L1  H     3    40       P1  7948  2.00
      L1  H    13    30       P1  7948  1.00
      P1  H  7954  7966       L1    10  1.00
      L1  C     9    29       P1  7921  0.95

> <Gold.PLP.Chemscore.Internal.Correction>
0.0368

> <Gold.Rescore>
     Score         DG    S(hbond)    S(metal)    S(lipo)     H(rot)  DE(clash)    DE(int)     intcor
     18.04     -20.02       3.79        0.00      61.39       2.07       1.51       0.47       ----

> <Gold.Chemscore.Fitness>
18.0421

> <Gold.Chemscore.DG>
-20.0193

> <Gold.Chemscore.ZeroCoef>
-5.4800

> <Gold.Chemscore.Hbond>
3.7862

> <Gold.Chemscore.Metal>
0.0000

> <Gold.Chemscore.Lipo>
61.3853

> <Gold.Chemscore.Internal_Hbond>
0.0000

> <Gold.Chemscore.DEClash>
1.5094

> <Gold.Chemscore.DEInternal>
0.4678

> <Gold.Chemscore.Rot>
2.0659

> <Gold.Chemscore.Internal.Correction>
   9.000000E+99

> <Gold.Chemscore.Hbonds>
donor molecule, donor type, donor heavy atom, donor atom, acceptor molecule, acceptor atom, score
      L1  H     3    22       P1  7957  0.97
      L1  H     3    40       P1  7948  1.00
      L1  H    13    30       P1  7948  0.25
      P1  H  7954  7966       L1    10  0.38

> <Gold.Chemscore.Hbond.Weighted>
-12.6458

> <Gold.Chemscore.Metal.Weighted>
-0.0000

> <Gold.Chemscore.Lipo.Weighted>
-7.1821

> <Gold.Chemscore.Internal_Hbond.Weighted>
0.0000

> <Gold.Chemscore.DEClash.Weighted>
1.5094

> <Gold.Chemscore.DEInternal.Weighted>
0.4678

> <Gold.Chemscore.Rot.Weighted>
5.2886

> <Gold.Chemscore.Internal.Correction.Weighted>
   9.000000E+99

> <Gold.Protein.RotatedTorsions>
[ 6907 6896 6895 6894 ] final  169.26 input  -60.11 | X-H torsion
[ 7974 7965 7964 7962 ] final   85.73 input  175.53 | X-H torsion
[ 8008 7997 7996 7995 ] final  -16.46 input   59.86 | X-H torsion
[ 10167 10162 10161 10158 ] final -176.42 input  -65.29 | X-H torsion
[ 10718 10713 10712 10709 ] final  160.78 input   66.30 | X-H torsion
[ 10763 10752 10751 10750 ] final  -39.93 input  -60.55 | X-H torsion
[ 11005 11000 10999 10996 ] final   36.77 input  -57.11 | X-H torsion

> <Gold.Protein.ActiveResidues>
 VAL166  LYS551  ARG553  GLY616  TRP617  ASP618  TYR619  PRO620  LYS621  CYS622 
 ASP623  PHE694  ASN695  SER759  ASP760  ASP761  ALA762  ILE779  LEU786  VAL792 
 PHE793  MET794  SER795  GLU796  ALA797  LYS798  CYS799  TRP800  GLU811  SER814 

> <Gold.Protein.RotatedAtoms>
  151.8348  133.3414  159.3624 H   0  0  0  0  0  0  0  0  0  0  0  0  # atno 6907 bound_to 6896
  150.7253  134.5448  159.5775 H   0  0  0  0  0  0  0  0  0  0  0  0  # atno 6908 bound_to 6896
  152.2909  134.7723  160.0429 H   0  0  0  0  0  0  0  0  0  0  0  0  # atno 6909 bound_to 6896
  145.5816  139.2326  143.2350 H   0  0  0  0  0  0  0  0  0  0  0  0  # atno 7974 bound_to 7965
  154.5051  140.2169  155.9267 H   0  0  0  0  0  0  0  0  0  0  0  0  # atno 8008 bound_to 7997
  156.1483  140.3166  155.8574 H   0  0  0  0  0  0  0  0  0  0  0  0  # atno 8009 bound_to 7997
  155.3987  140.0483  157.3028 H   0  0  0  0  0  0  0  0  0  0  0  0  # atno 8010 bound_to 7997
  139.5530  144.2060  152.1111 H   0  0  0  0  0  0  0  0  0  0  0  0  # atno 10167 bound_to 10162
  157.1457  131.0551  151.2305 H   0  0  0  0  0  0  0  0  0  0  0  0  # atno 10718 bound_to 10713
  153.9376  135.6765  153.4744 H   0  0  0  0  0  0  0  0  0  0  0  0  # atno 10763 bound_to 10752
  153.0948  135.4857  154.8754 H   0  0  0  0  0  0  0  0  0  0  0  0  # atno 10764 bound_to 10752
  154.7394  135.3157  154.8712 H   0  0  0  0  0  0  0  0  0  0  0  0  # atno 10765 bound_to 10752
  140.2292  134.3548  155.7971 H   0  0  0  0  0  0  0  0  0  0  0  0  # atno 11005 bound_to 11000
  146.1712  140.6642  142.9232 LP  0  0  0  0  0  0  0  0  0  0  0  0  # atno 17320 bound_to 7965
  144.7391  140.4893  143.6882 LP  0  0  0  0  0  0  0  0  0  0  0  0  # atno 17321 bound_to 7965
  140.1559  144.5071  150.6660 LP  0  0  0  0  0  0  0  0  0  0  0  0  # atno 17342 bound_to 10162
  140.6797  143.2321  151.5415 LP  0  0  0  0  0  0  0  0  0  0  0  0  # atno 17343 bound_to 10162
  157.4267  130.7467  149.6956 LP  0  0  0  0  0  0  0  0  0  0  0  0  # atno 17370 bound_to 10713
  155.9780  130.4056  150.3677 LP  0  0  0  0  0  0  0  0  0  0  0  0  # atno 17371 bound_to 10713
  141.2219  133.7236  156.8703 LP  0  0  0  0  0  0  0  0  0  0  0  0  # atno 17394 bound_to 11000
  140.1768  134.9061  157.2901 LP  0  0  0  0  0  0  0  0  0  0  0  0  # atno 17395 bound_to 11000

$$$$
