#       Name:                AV-unprocessed.smi:1893
#       Creating user name   scv26
#       Creation time:       Fri Mar 27 09:41:02 2020


#       File generated by GOLD software.
#

@<TRIPOS>MOLECULE
AV-unprocessed.smi:1893
    47    48     1
SMALL
NO_CHARGES


@<TRIPOS>ATOM
      1 ****        -2.1579   3.0994   0.5851 C.3            1 S1                 0.0000
      2 ****        -2.0917   2.0027   1.6703 C.3            1 S1                 0.0000
      3 ****        -3.4153   1.8698   2.4530 C.3            1 S1                 0.0000
      4 ****        -4.5166   1.2007   1.6173 C.3            1 S1                 0.0000
      5 ****        -4.0202  -0.1449   1.0743 C.3            1 S1                 0.0000
      6 ****        -2.7030   0.0203   0.2993 C.3            1 S1                 0.0000
      7 ****        -1.6643   0.6717   1.1440 N.4            1 S1                 1.0000
      8 ****        -0.3142   0.6772   0.5250 C.3            1 S1                 0.0000
      9 ****         0.3854  -0.6899   0.6504 C.3            1 S1                 0.0000
     10 ****         1.7209  -0.6679   0.0663 N.am           1 S1                 0.0000
     11 ****         1.9844  -0.7164  -1.2494 C.2            1 S1                 0.0000
     12 ****         1.1019  -0.7539  -2.1077 O.2            1 S1                 0.0000
     13 ****         3.4681  -0.7307  -1.6479 C.3            1 S1                 0.0000
     14 ****         3.7214  -0.0488  -3.0079 C.3            1 S1                 0.0000
     15 ****         3.9834  -2.0941  -1.6053 N.pl3          1 S1                 0.0000
     16 ****         4.6160  -2.7412  -0.6238 C.2            1 S1                 0.0000
     17 ****         4.9009  -4.0045  -0.9063 N.2            1 S1                 0.0000
     18 ****         4.3697  -4.0823  -2.1624 C.2            1 S1                 0.0000
     19 ****         3.7962  -2.9709  -2.6233 N.2            1 S1                 0.0000
     20 ****        -2.4483   4.0549   1.0224 H              1 S1                 0.0000
     21 ****        -2.8818   2.8697  -0.1959 H              1 S1                 0.0000
     22 ****        -1.1916   3.2525   0.1050 H              1 S1                 0.0000
     23 ****        -1.3351   2.3167   2.3908 H              1 S1                 0.0000
     24 ****        -3.2418   1.2742   3.3505 H              1 S1                 0.0000
     25 ****        -3.7509   2.8476   2.8001 H              1 S1                 0.0000
     26 ****        -5.4101   1.0532   2.2248 H              1 S1                 0.0000
     27 ****        -4.8093   1.8494   0.7913 H              1 S1                 0.0000
     28 ****        -3.8712  -0.8397   1.9021 H              1 S1                 0.0000
     29 ****        -4.7792  -0.5901   0.4301 H              1 S1                 0.0000
     30 ****        -2.3638  -0.9634  -0.0230 H              1 S1                 0.0000
     31 ****        -2.8667   0.5994  -0.6099 H              1 S1                 0.0000
     32 ****        -0.3922   0.9859  -0.5187 H              1 S1                 0.0000
     33 ****         0.3108   1.4209   1.0219 H              1 S1                 0.0000
     34 ****         0.4815  -0.9618   1.7020 H              1 S1                 0.0000
     35 ****        -0.1960  -1.4825   0.1786 H              1 S1                 0.0000
     36 ****         2.5014  -0.6393   0.7067 H              1 S1                 0.0000
     37 ****         4.0160  -0.1594  -0.8966 H              1 S1                 0.0000
     38 ****         3.3687   0.9829  -3.0014 H              1 S1                 0.0000
     39 ****         3.2181  -0.5633  -3.8276 H              1 S1                 0.0000
     40 ****         4.7870  -0.0274  -3.2377 H              1 S1                 0.0000
     41 ****         4.8685  -2.2803   0.3199 H              1 S1                 0.0000
     42 ****         4.3987  -4.9873  -2.7511 H              1 S1                 0.0000
     43 ****        -1.5761   0.0890   1.9642 H              1 S1                 0.0000
     44 ****         0.1395  -0.7489  -1.8359 LP             1 S1                 0.0000
     45 ****         1.3477  -0.7893  -3.0764 LP             1 S1                 0.0000
     46 ****         5.3686  -4.6986  -0.3591 LP             1 S1                 0.0000
     47 ****         3.3412  -2.8207  -3.5010 LP             1 S1                 0.0000
@<TRIPOS>BOND
    1    1    2 1     
    2    1   20 1     
    3    1   21 1     
    4    1   22 1     
    5    2    7 1     
    6    2    3 1     
    7    2   23 1     
    8    3    4 1     
    9    3   24 1     
   10    3   25 1     
   11    4    5 1     
   12    4   26 1     
   13    4   27 1     
   14    5    6 1     
   15    5   28 1     
   16    5   29 1     
   17    6    7 1     
   18    6   30 1     
   19    6   31 1     
   20    7    8 1     
   21    7   43 1     
   22    8    9 1     
   23    8   32 1     
   24    8   33 1     
   25    9   10 1     
   26    9   34 1     
   27    9   35 1     
   28   10   11 am    
   29   10   36 1     
   30   11   12 2     
   31   11   13 1     
   32   13   14 1     
   33   13   15 1     
   34   13   37 1     
   35   14   38 1     
   36   14   39 1     
   37   14   40 1     
   38   15   19 1     
   39   15   16 1     
   40   16   17 2     
   41   16   41 1     
   42   17   18 1     
   43   18   19 2     
   44   18   42 1     
   45   12   44 1     
   46   12   45 1     
   47   17   46 1     
   48   19   47 1     
@<TRIPOS>SUBSTRUCTURE
      1 S1             1
@<TRIPOS>SET
LONE_PAIRS      STATIC     ATOMS    <user>   **** ""
4 44 45 46 47
DONOR_HYDROGENS      STATIC     ATOMS    <user>   **** ""
2 43 36
ATOM$BLUE        STATIC     ATOMS    COLORGROUP SYSTEM
4 44 45 46 47
ATOM$RED        STATIC     ATOMS    COLORGROUP SYSTEM
2 43 36
