AV-unprocessed.smi:72|AV-procd|sdf|670|dock2
  -GOLD-   2262016573D 1   1.00000     0.00000
 Structure written by MMmdl.
 29 30  0  0  0  0  0  0  0  0  1 V2000
  150.9630  137.0854  159.4674 N   0  0  0  0  0  0  0  0  0  0  0  0
  150.6686  137.8116  158.4485 C   0  0  0  0  0  0  0  0  0  0  0  0
  149.3751  138.2247  158.0940 N   0  0  0  0  0  0  0  0  0  0  0  0
  149.2246  138.9547  157.0321 C   0  0  0  0  0  0  0  0  0  0  0  0
  150.3492  139.3514  156.1987 N   0  0  0  0  0  0  0  0  0  0  0  0
  150.1385  140.2034  154.9645 C   0  0  1  0  0  0  0  0  0  0  0  0
  149.1930  139.5784  154.1523 O   0  0  0  0  0  0  0  0  0  0  0  0
  148.3923  140.5688  153.5242 C   0  0  1  0  0  0  0  0  0  0  0  0
  147.0514  139.9582  153.0884 C   0  0  0  0  0  0  0  0  0  0  0  0
  147.2637  138.9750  152.0979 O   0  0  0  0  0  0  0  0  0  0  0  0
  148.2543  141.6328  154.6176 C   0  0  2  0  0  0  0  0  0  0  0  0
  147.9792  142.8971  154.0491 O   0  0  0  0  0  0  0  0  0  0  0  0
  149.6278  141.6286  155.2774 C   0  0  1  0  0  0  0  0  0  0  0  0
  149.5230  141.9328  156.6571 O   0  0  0  0  0  0  0  0  0  0  0  0
  151.6630  138.9605  156.5525 C   0  0  0  0  0  0  0  0  0  0  0  0
  152.6529  139.2978  155.9037 O   0  0  0  0  0  0  0  0  0  0  0  0
  151.7636  138.1974  157.6626 N   0  0  0  0  0  0  0  0  0  0  0  0
  151.0843  140.2117  154.4208 H   0  0  0  0  0  0  0  0  0  0  0  0
  148.9377  140.9808  152.6721 H   0  0  0  0  0  0  0  0  0  0  0  0
  147.4770  141.3478  155.3288 H   0  0  0  0  0  0  0  0  0  0  0  0
  150.3032  142.3359  154.7932 H   0  0  0  0  0  0  0  0  0  0  0  0
  151.9583  136.9237  159.5126 H   0  0  0  0  0  0  0  0  0  0  0  0
  148.2528  139.3221  156.6987 H   0  0  0  0  0  0  0  0  0  0  0  0
  146.5133  139.5348  153.9373 H   0  0  0  0  0  0  0  0  0  0  0  0
  146.4137  140.7274  152.6519 H   0  0  0  0  0  0  0  0  0  0  0  0
  148.1553  139.0440  151.7920 H   0  0  0  0  0  0  0  0  0  0  0  0
  148.1106  143.5563  154.7137 H   0  0  0  0  0  0  0  0  0  0  0  0
  149.2760  142.8408  156.7452 H   0  0  0  0  0  0  0  0  0  0  0  0
  152.6873  137.8988  157.9390 H   0  0  0  0  0  0  0  0  0  0  0  0
  1  2  2  0  0  0  0
  1 22  1  0  0  0  0
  2 17  1  0  0  0  0
  2  3  1  0  0  0  0
  3  4  2  0  0  0  0
  4  5  1  0  0  0  0
  4 23  1  0  0  0  0
  5  6  1  0  0  0  0
  5 15  1  0  0  0  0
  6 18  1  0  0  0  0
  6 13  1  0  0  0  0
  6  7  1  0  0  0  0
  7  8  1  0  0  0  0
  8 19  1  0  0  0  0
  8  9  1  0  0  0  0
  8 11  1  0  0  0  0
  9 10  1  0  0  0  0
  9 24  1  0  0  0  0
  9 25  1  0  0  0  0
 10 26  1  0  0  0  0
 11 20  1  0  0  0  0
 11 12  1  0  0  0  0
 11 13  1  0  0  0  0
 12 27  1  0  0  0  0
 13 21  1  0  0  0  0
 13 14  1  0  0  0  0
 14 28  1  0  0  0  0
 15 16  2  0  0  0  0
 15 17  1  0  0  0  0
 17 29  1  0  0  0  0
M  END
> <s_m_source_file>
AV-unprocessed.smi

> <i_m_source_file_index>
72

> <i_lp_mmshare_version>
43012

> <i_f3d_flags>
0

> <s_epik_input>
W05IMl1jMW5bY0hdbihjKD1PKW4xKVtDQEBIXTJPW0NASF0oW0NIMl1bT0hdKVtDQEBIXShbT0hdKVtDQEhdMltPSF0=

> <s_epik_cmdline>
J2VwaWtfcHl0aG9uJywgJy1waCcsICc3LjAnLCAnLXRuJywgJzgnLCAnLW1hJywgJzIwMCcsICctbWV0YWxfYmluZGluZycsICctaW1hZScsICc8aW5maWxlLm1hZT4nLCAnLW9tYWUnLCAnPG91dGZpbGUubWFlPic=

> <r_lp_tautomer_probability>
7.17554e-07

> <r_epik_Ionization_Penalty>
0.0066451

> <r_epik_Ionization_Penalty_Charging>
0.00663793

> <r_epik_Ionization_Penalty_Neutral>
7.17052e-06

> <r_epik_State_Penalty>
0.419231

> <r_epik_Charging_Adjusted_Penalty>
0.425868

> <i_epik_Tot_Q>
0

> <i_epik_Tot_abs_Q>
0

> <r_epik_Metal_State_Penalty>
1.44144

> <b_epik_Metal_Only>
0

> <s_epik_Chemistry_Notes>
This compound contains an acetal/aminal-like group ( X-CH(R)-Y where X, Y are N, S, or O) that may be acid/base labile, releasing an aldehyde.

> <s_lp_Force_Field>
OPLS_2005

> <r_lp_Energy>
43.9506

> <b_lp_Chiralities_Consistent>
1

> <s_lp_Variant>
AV-unprocessed.smi:72-8

> <Gold.Version>
5.8.1

> <Gold.Id.Protein>
6NUR|6NUR_protein|mol2

> <Gold.PLP.Fitness>
36.2064

> <Gold.PLP.PLP>
-24.4893

> <Gold.PLP.part.hbond>
-7.2157

> <Gold.PLP.part.metal>
0.0000

> <Gold.PLP.part.buried>
2.4111

> <Gold.PLP.part.nonpolar>
-18.1439

> <Gold.PLP.part.repulsive>
0.9268

> <Gold.PLP.ligand.clash>
0.0000

> <Gold.PLP.ligand.torsion>
0.0849

> <Gold.PLP.Chemscore.Hbond>
3.9201

> <Gold.PLP.Chemscore.CHOScore>
0.0000

> <Gold.PLP.Chemscore.Metal>
0.0000

> <Gold.Chemscore.Hbonds>
donor molecule, donor type, donor heavy atom, donor atom, acceptor molecule, acceptor atom, score
      L1  H    10    26       P1  7957  1.00
      L1  H    12    27       P1  8028  1.00
      L1  H    14    28       P1  8028  0.52
      P1  H  7997  8010       L1    16  1.00

> <Gold.PLP.Chemscore.Internal.Correction>
0.1266

> <Gold.Rescore>
     Score         DG    S(hbond)    S(metal)    S(lipo)     H(rot)  DE(clash)    DE(int)     intcor
      7.11     -10.34       3.47        0.00      31.45       4.06       2.25       0.98       ----

> <Gold.Chemscore.Fitness>
7.1140

> <Gold.Chemscore.DG>
-10.3402

> <Gold.Chemscore.ZeroCoef>
-5.4800

> <Gold.Chemscore.Hbond>
3.4655

> <Gold.Chemscore.Metal>
0.0000

> <Gold.Chemscore.Lipo>
31.4461

> <Gold.Chemscore.Internal_Hbond>
0.0000

> <Gold.Chemscore.DEClash>
2.2451

> <Gold.Chemscore.DEInternal>
0.9811

> <Gold.Chemscore.Rot>
4.0600

> <Gold.Chemscore.Internal.Correction>
   9.000000E+99

> <Gold.Chemscore.Hbonds>
donor molecule, donor type, donor heavy atom, donor atom, acceptor molecule, acceptor atom, score
      L1  H    10    26       P1  7957  0.92
      L1  H    12    27       P1  8028  0.85
      L1  H    14    28       P1  8028  0.49
      P1  H  7997  8010       L1    16  1.00

> <Gold.Chemscore.Hbond.Weighted>
-11.5747

> <Gold.Chemscore.Metal.Weighted>
-0.0000

> <Gold.Chemscore.Lipo.Weighted>
-3.6792

> <Gold.Chemscore.Internal_Hbond.Weighted>
0.0000

> <Gold.Chemscore.DEClash.Weighted>
2.2451

> <Gold.Chemscore.DEInternal.Weighted>
0.9811

> <Gold.Chemscore.Rot.Weighted>
10.3936

> <Gold.Chemscore.Internal.Correction.Weighted>
   9.000000E+99

> <Gold.Protein.RotatedTorsions>
[ 6907 6896 6895 6894 ] final  104.62 input  -60.11 | X-H torsion
[ 7974 7965 7964 7962 ] final  139.70 input  175.53 | X-H torsion
[ 8008 7997 7996 7995 ] final   88.38 input   59.86 | X-H torsion
[ 10167 10162 10161 10158 ] final  107.65 input  -65.29 | X-H torsion
[ 10718 10713 10712 10709 ] final  -97.49 input   66.30 | X-H torsion
[ 10763 10752 10751 10750 ] final  132.36 input  -60.55 | X-H torsion
[ 11005 11000 10999 10996 ] final  160.89 input  -57.11 | X-H torsion

> <Gold.Protein.ActiveResidues>
 VAL166  LYS551  ARG553  GLY616  TRP617  ASP618  TYR619  PRO620  LYS621  CYS622 
 ASP623  PHE694  ASN695  SER759  ASP760  ASP761  ALA762  ILE779  LEU786  VAL792 
 PHE793  MET794  SER795  GLU796  ALA797  LYS798  CYS799  TRP800  GLU811  SER814 

> <Gold.Protein.RotatedAtoms>
  152.5258  133.9649  159.7734 H   0  0  0  0  0  0  0  0  0  0  0  0  # atno 6907 bound_to 6896
  150.9933  133.6120  159.2712 H   0  0  0  0  0  0  0  0  0  0  0  0  # atno 6908 bound_to 6896
  151.3256  135.0835  159.9374 H   0  0  0  0  0  0  0  0  0  0  0  0  # atno 6909 bound_to 6896
  144.9255  139.5114  143.5643 H   0  0  0  0  0  0  0  0  0  0  0  0  # atno 7974 bound_to 7965
  155.9871  140.3372  155.6717 H   0  0  0  0  0  0  0  0  0  0  0  0  # atno 8008 bound_to 7997
  155.6471  140.0701  157.2617 H   0  0  0  0  0  0  0  0  0  0  0  0  # atno 8009 bound_to 7997
  154.4208  140.1732  156.1622 H   0  0  0  0  0  0  0  0  0  0  0  0  # atno 8010 bound_to 7997
  139.6909  144.7108  151.1349 H   0  0  0  0  0  0  0  0  0  0  0  0  # atno 10167 bound_to 10162
  156.0085  130.5196  150.6382 H   0  0  0  0  0  0  0  0  0  0  0  0  # atno 10718 bound_to 10713
  153.7894  135.3157  155.3376 H   0  0  0  0  0  0  0  0  0  0  0  0  # atno 10763 bound_to 10752
  154.8131  135.4654  154.0573 H   0  0  0  0  0  0  0  0  0  0  0  0  # atno 10764 bound_to 10752
  153.1887  135.6905  153.8468 H   0  0  0  0  0  0  0  0  0  0  0  0  # atno 10765 bound_to 10752
  140.2104  134.8271  157.3114 H   0  0  0  0  0  0  0  0  0  0  0  0  # atno 11005 bound_to 11000
  146.3224  139.8166  142.8935 LP  0  0  0  0  0  0  0  0  0  0  0  0  # atno 17320 bound_to 7965
  145.3227  141.0248  143.3491 LP  0  0  0  0  0  0  0  0  0  0  0  0  # atno 17321 bound_to 7965
  140.7682  143.5560  150.9151 LP  0  0  0  0  0  0  0  0  0  0  0  0  # atno 17342 bound_to 10162
  139.9237  143.6575  152.3091 LP  0  0  0  0  0  0  0  0  0  0  0  0  # atno 17343 bound_to 10162
  157.4167  131.0831  151.1170 LP  0  0  0  0  0  0  0  0  0  0  0  0  # atno 17370 bound_to 10713
  157.1785  130.6299  149.5664 LP  0  0  0  0  0  0  0  0  0  0  0  0  # atno 17371 bound_to 10713
  140.1957  134.4317  155.7690 LP  0  0  0  0  0  0  0  0  0  0  0  0  # atno 17394 bound_to 11000
  141.2226  133.7048  156.8101 LP  0  0  0  0  0  0  0  0  0  0  0  0  # atno 17395 bound_to 11000

$$$$
