#       Name:                AV-unprocessed.smi:21
#       Creating user name   scv26
#       Creation time:       Thu Mar 26 15:35:40 2020


#       File generated by GOLD software.
#

@<TRIPOS>MOLECULE
AV-unprocessed.smi:21
    71    74     1
SMALL
NO_CHARGES


@<TRIPOS>ATOM
      1 ****        -1.6295   0.4578   5.1627 C.3            1 S1                 0.0000
      2 ****        -2.5176  -0.6156   4.8949 O.3            1 S1                 0.0000
      3 ****        -3.3820  -0.3773   3.7939 C.3            1 S1                 0.0000
      4 ****        -2.6733  -0.4571   2.4462 C.3            1 S1                 0.0000
      5 ****        -3.8058  -0.7695   1.4579 C.3            1 S1                 0.0000
      6 ****        -3.3272  -1.4568   0.1549 C.3            1 S1                 0.0000
      7 ****        -2.4242  -0.6082  -0.6277 N.pl3          1 S1                 0.0000
      8 ****        -3.0049   0.4947  -1.3837 C.3            1 S1                 0.0000
      9 ****        -1.0791  -0.6464  -0.4041 C.ar           1 S1                 0.0000
     10 ****        -0.5364  -1.8112   0.0409 N.ar           1 S1                 0.0000
     11 ****         0.7724  -1.9109   0.2841 C.ar           1 S1                 0.0000
     12 ****         1.7161  -0.9800   0.1513 N.ar           1 S1                 0.0000
     13 ****         1.1898   0.1942  -0.2967 C.ar           1 S1                 0.0000
     14 ****        -0.1814   0.4502  -0.5934 C.ar           1 S1                 0.0000
     15 ****        -0.3229   1.7743  -0.9984 N.2            1 S1                 0.0000
     16 ****         0.8854   2.2633  -0.9561 C.2            1 S1                 0.0000
     17 ****         1.8595   1.3757  -0.5636 N.pl3          1 S1                 0.0000
     18 ****         3.2785   1.6515  -0.4222 C.3            1 S1                 0.0000
     19 ****         4.1947   0.8466  -1.3820 C.3            1 S1                 0.0000
     20 ****         5.6701   1.0434  -0.9637 C.3            1 S1                 0.0000
     21 ****         6.1003   2.3734  -1.1732 O.3            1 S1                 0.0000
     22 ****         3.9591   1.1375  -2.8934 C.3            1 S1                 0.0000
     23 ****         4.9449   0.4567  -3.8306 C.3            1 S1                 0.0000
     24 ****         4.2230   0.5303  -5.1679 C.3            1 S1                 0.0000
     25 ****         2.8571   0.3169  -4.8467 O.3            1 S1                 0.0000
     26 ****         2.6298   0.6290  -3.4751 C.3            1 S1                 0.0000
     27 ****        -4.8339  -1.5105   2.2479 N.4            1 S1                 1.0000
     28 ****        -5.2306  -2.8575   1.7742 C.3            1 S1                 0.0000
     29 ****        -4.4148  -1.4949   3.6687 C.3            1 S1                 0.0000
     30 ****        -3.8954   0.5805   3.8977 H              1 S1                 0.0000
     31 ****        -4.2831   0.1745   1.1907 H              1 S1                 0.0000
     32 ****        -1.0241   0.2189   6.0369 H              1 S1                 0.0000
     33 ****        -2.1751   1.3783   5.3748 H              1 S1                 0.0000
     34 ****        -0.9513   0.6367   4.3277 H              1 S1                 0.0000
     35 ****        -2.1361   0.4575   2.1932 H              1 S1                 0.0000
     36 ****        -1.9531  -1.2764   2.4638 H              1 S1                 0.0000
     37 ****        -2.8797  -2.4262   0.3726 H              1 S1                 0.0000
     38 ****        -4.1867  -1.6711  -0.4804 H              1 S1                 0.0000
     39 ****        -3.0111   1.4087  -0.7894 H              1 S1                 0.0000
     40 ****        -4.0343   0.2719  -1.6649 H              1 S1                 0.0000
     41 ****        -2.4470   0.6734  -2.3035 H              1 S1                 0.0000
     42 ****         1.1119  -2.8745   0.6345 H              1 S1                 0.0000
     43 ****         1.1007   3.2880  -1.2225 H              1 S1                 0.0000
     44 ****         3.4366   2.7216  -0.5619 H              1 S1                 0.0000
     45 ****         3.5448   1.4364   0.6132 H              1 S1                 0.0000
     46 ****         3.9860  -0.2118  -1.2237 H              1 S1                 0.0000
     47 ****         5.8020   0.7976   0.0904 H              1 S1                 0.0000
     48 ****         6.3283   0.3708  -1.5134 H              1 S1                 0.0000
     49 ****         5.5754   2.9473  -0.6366 H              1 S1                 0.0000
     50 ****         4.0217   2.2131  -3.0664 H              1 S1                 0.0000
     51 ****         5.9190   0.9454  -3.8599 H              1 S1                 0.0000
     52 ****         5.0914  -0.5856  -3.5429 H              1 S1                 0.0000
     53 ****         4.3326   1.5225  -5.6075 H              1 S1                 0.0000
     54 ****         4.5868  -0.2050  -5.8858 H              1 S1                 0.0000
     55 ****         2.3015  -0.2824  -2.9743 H              1 S1                 0.0000
     56 ****         1.8340   1.3680  -3.3894 H              1 S1                 0.0000
     57 ****        -4.3825  -3.5430   1.7623 H              1 S1                 0.0000
     58 ****        -5.6634  -2.8135   0.7748 H              1 S1                 0.0000
     59 ****        -5.9896  -3.2760   2.4359 H              1 S1                 0.0000
     60 ****        -3.9453  -2.4479   3.9203 H              1 S1                 0.0000
     61 ****        -5.2645  -1.3574   4.3379 H              1 S1                 0.0000
     62 ****        -5.6671  -0.9418   2.1961 H              1 S1                 0.0000
     63 ****        -3.0777  -0.7729   5.7083 LP             1 S1                 0.0000
     64 ****        -1.9757  -1.4331   4.7002 LP             1 S1                 0.0000
     65 ****        -1.1266  -2.6049   0.1882 LP             1 S1                 0.0000
     66 ****         2.6846  -1.1242   0.3540 LP             1 S1                 0.0000
     67 ****        -1.1641   2.2459  -1.2630 LP             1 S1                 0.0000
     68 ****         5.9877   2.6163  -2.1367 LP             1 S1                 0.0000
     69 ****         7.0632   2.4604  -0.9179 LP             1 S1                 0.0000
     70 ****         2.6227  -0.6410  -5.0125 LP             1 S1                 0.0000
     71 ****         2.2855   0.9040  -5.4200 LP             1 S1                 0.0000
@<TRIPOS>BOND
    1    1    2 1     
    2    1   32 1     
    3    1   33 1     
    4    1   34 1     
    5    2    3 1     
    6    3   30 1     
    7    3   29 1     
    8    3    4 1     
    9    4    5 1     
   10    4   35 1     
   11    4   36 1     
   12    5   31 1     
   13    5    6 1     
   14    5   27 1     
   15    6    7 1     
   16    6   37 1     
   17    6   38 1     
   18    7    8 1     
   19    7    9 1     
   20    8   39 1     
   21    8   40 1     
   22    8   41 1     
   23    9   14 ar    
   24    9   10 ar    
   25   10   11 ar    
   26   11   12 ar    
   27   11   42 1     
   28   12   13 ar    
   29   13   17 1     
   30   13   14 ar    
   31   14   15 1     
   32   15   16 2     
   33   16   17 1     
   34   16   43 1     
   35   17   18 1     
   36   18   19 1     
   37   18   44 1     
   38   18   45 1     
   39   19   20 1     
   40   19   22 1     
   41   19   46 1     
   42   20   21 1     
   43   20   47 1     
   44   20   48 1     
   45   21   49 1     
   46   22   26 1     
   47   22   23 1     
   48   22   50 1     
   49   23   24 1     
   50   23   51 1     
   51   23   52 1     
   52   24   25 1     
   53   24   53 1     
   54   24   54 1     
   55   25   26 1     
   56   26   55 1     
   57   26   56 1     
   58   27   28 1     
   59   27   29 1     
   60   27   62 1     
   61   28   57 1     
   62   28   58 1     
   63   28   59 1     
   64   29   60 1     
   65   29   61 1     
   66    2   63 1     
   67    2   64 1     
   68   10   65 1     
   69   12   66 1     
   70   15   67 1     
   71   21   68 1     
   72   21   69 1     
   73   25   70 1     
   74   25   71 1     
@<TRIPOS>SUBSTRUCTURE
      1 S1             1
@<TRIPOS>SET
LONE_PAIRS      STATIC     ATOMS    <user>   **** ""
9 63 64 65 66 67 68 69 70 71
DONOR_HYDROGENS      STATIC     ATOMS    <user>   **** ""
2 49 62
ATOM$BLUE        STATIC     ATOMS    COLORGROUP SYSTEM
9 63 64 65 66 67 68 69 70 71
ATOM$RED        STATIC     ATOMS    COLORGROUP SYSTEM
2 49 62
