#       Name:                AV-unprocessed.smi:2699
#       Creating user name   scv26
#       Creation time:       Fri Mar 27 14:46:17 2020


#       File generated by GOLD software.
#

@<TRIPOS>MOLECULE
AV-unprocessed.smi:2699
    46    48     1
SMALL
NO_CHARGES


@<TRIPOS>ATOM
      1 ****        -1.8256   2.6432   2.2928 C.3            1 S1                 0.0000
      2 ****        -2.0657   3.3670   0.9727 C.2            1 S1                 0.0000
      3 ****        -2.5469   4.6295   0.9622 C.2            1 S1                 0.0000
      4 ****        -2.7481   5.3254  -0.2226 C.2            1 S1                 0.0000
      5 ****        -3.1963   6.4930  -0.2382 O.co2          1 S1                -1.0000
      6 ****        -2.4165   4.6468  -1.3880 C.2            1 S1                 0.0000
      7 ****        -1.8883   3.2889  -1.4404 C.2            1 S1                 0.0000
      8 ****        -1.5994   2.7397  -2.5050 O.2            1 S1                 0.0000
      9 ****        -1.7480   2.6798  -0.2294 N.am           1 S1                 0.0000
     10 ****        -1.2706   1.2782  -0.1897 C.3            1 S1                 0.0000
     11 ****         0.2655   1.1455  -0.1588 C.2            1 S1                 0.0000
     12 ****         0.9799   2.1424  -0.0639 O.2            1 S1                 0.0000
     13 ****         0.8067  -0.0806  -0.2258 N.am           1 S1                 0.0000
     14 ****         2.2304  -0.4018  -0.2103 C.3            1 S1                 0.0000
     15 ****         2.4772  -1.9117  -0.3830 C.3            1 S1                 0.0000
     16 ****         1.9672  -2.3061  -1.7719 C.3            1 S1                 0.0000
     17 ****         0.5613  -2.8088  -1.9964 C.3            1 S1                 0.0000
     18 ****         1.7422  -3.7331  -2.2158 C.3            1 S1                 0.0000
     19 ****         3.9181  -2.3666  -0.0689 C.3            1 S1                 0.0000
     20 ****         3.4919  -2.6717   1.3663 C.3            1 S1                 0.0000
     21 ****         2.0644  -2.7798   0.8327 C.3            1 S1                 0.0000
     22 ****        -1.8519   3.3450   3.1268 H              1 S1                 0.0000
     23 ****        -0.8502   2.1587   2.3232 H              1 S1                 0.0000
     24 ****        -2.6010   1.8968   2.4664 H              1 S1                 0.0000
     25 ****        -2.7771   5.1105   1.9022 H              1 S1                 0.0000
     26 ****        -2.5545   5.1522  -2.3331 H              1 S1                 0.0000
     27 ****        -1.6963   0.7360   0.6527 H              1 S1                 0.0000
     28 ****        -1.6480   0.7331  -1.0563 H              1 S1                 0.0000
     29 ****         0.1721  -0.8627  -0.2966 H              1 S1                 0.0000
     30 ****         2.7371   0.1551  -0.9999 H              1 S1                 0.0000
     31 ****         2.6531  -0.0496   0.7315 H              1 S1                 0.0000
     32 ****         2.3645  -1.6636  -2.5560 H              1 S1                 0.0000
     33 ****        -0.0621  -2.9898  -1.1228 H              1 S1                 0.0000
     34 ****         0.0350  -2.4438  -2.8759 H              1 S1                 0.0000
     35 ****         1.9965  -3.9809  -3.2443 H              1 S1                 0.0000
     36 ****         1.8954  -4.5370  -1.5005 H              1 S1                 0.0000
     37 ****         4.2106  -3.2664  -0.6131 H              1 S1                 0.0000
     38 ****         4.6759  -1.5878  -0.1612 H              1 S1                 0.0000
     39 ****         3.8985  -3.5962   1.7768 H              1 S1                 0.0000
     40 ****         3.6336  -1.8284   2.0439 H              1 S1                 0.0000
     41 ****         1.3111  -2.3323   1.4819 H              1 S1                 0.0000
     42 ****         1.8002  -3.8080   0.5880 H              1 S1                 0.0000
     43 ****        -1.7250   3.2269  -3.3692 LP             1 S1                 0.0000
     44 ****        -1.2392   1.8068  -2.5048 LP             1 S1                 0.0000
     45 ****         0.5657   3.0507  -0.0059 LP             1 S1                 0.0000
     46 ****         1.9750   2.0445  -0.0448 LP             1 S1                 0.0000
@<TRIPOS>BOND
    1    1    2 1     
    2    1   22 1     
    3    1   23 1     
    4    1   24 1     
    5    2    9 1     
    6    2    3 2     
    7    3    4 1     
    8    3   25 1     
    9    4    5 ar    
   10    4    6 2     
   11    6    7 1     
   12    6   26 1     
   13    7    8 2     
   14    7    9 am    
   15    9   10 1     
   16   10   11 1     
   17   10   27 1     
   18   10   28 1     
   19   11   12 2     
   20   11   13 am    
   21   13   14 1     
   22   13   29 1     
   23   14   15 1     
   24   14   30 1     
   25   14   31 1     
   26   15   21 1     
   27   15   16 1     
   28   15   19 1     
   29   16   18 1     
   30   16   17 1     
   31   16   32 1     
   32   17   18 1     
   33   17   33 1     
   34   17   34 1     
   35   18   35 1     
   36   18   36 1     
   37   19   20 1     
   38   19   37 1     
   39   19   38 1     
   40   20   21 1     
   41   20   39 1     
   42   20   40 1     
   43   21   41 1     
   44   21   42 1     
   45    8   43 1     
   46    8   44 1     
   47   12   45 1     
   48   12   46 1     
@<TRIPOS>SUBSTRUCTURE
      1 S1             1
@<TRIPOS>SET
LONE_PAIRS      STATIC     ATOMS    <user>   **** ""
5 5 43 44 45 46
DONOR_HYDROGENS      STATIC     ATOMS    <user>   **** ""
1 29
ATOM$BLUE        STATIC     ATOMS    COLORGROUP SYSTEM
5 5 43 44 45 46
ATOM$RED        STATIC     ATOMS    COLORGROUP SYSTEM
1 29
