AV-unprocessed.smi:3151|AV-procd|sdf|12015|dock5
  -GOLD-   2272017423D 1   1.00000     0.00000
 Structure written by MMmdl.
 36 37  0  0  0  0  0  0  0  0  2 V2000
  153.1137  139.5835  158.0689 O   0  0  0  0  0  0  0  0  0  0  0  0
  152.5173  140.6344  158.3058 C   0  0  0  0  0  0  0  0  0  0  0  0
  153.0602  141.6158  159.3501 C   0  0  0  0  0  0  0  0  0  0  0  0
  152.1779  142.8689  159.5304 C   0  0  0  0  0  0  0  0  0  0  0  0
  152.3872  143.9615  158.4726 C   0  0  0  0  0  0  0  0  0  0  0  0
  151.9263  145.2713  159.1275 C   0  0  0  0  0  0  0  0  0  0  0  0
  151.8102  144.9882  160.6322 C   0  0  0  0  0  0  0  0  0  0  0  0
  152.4296  143.6059  160.8471 C   0  0  0  0  0  0  0  0  0  0  0  0
  151.3836  140.9908  157.6822 N   0  0  0  0  0  0  0  0  0  0  0  0
  150.7030  140.1892  156.6724 C   0  0  0  0  0  0  0  0  0  0  0  0
  150.3235  141.0317  155.4436 C   0  0  0  0  0  0  0  0  0  0  0  0
  149.4280  140.3020  154.5451 N   0  0  0  0  0  0  0  0  0  0  0  0
  148.2167  140.7183  154.0559 C   0  0  0  0  0  0  0  0  0  0  0  0
  147.7460  139.7026  153.2639 C   0  0  0  0  0  0  0  0  0  0  0  0
  148.6886  138.7101  153.3048 N   0  3  0  0  0  0  0  0  0  0  0  0
  149.7105  139.0764  154.0852 C   0  0  0  0  0  0  0  0  0  0  0  0
  153.1381  141.0850  160.2995 H   0  0  0  0  0  0  0  0  0  0  0  0
  154.0746  141.9146  159.0806 H   0  0  0  0  0  0  0  0  0  0  0  0
  151.1267  142.5747  159.5146 H   0  0  0  0  0  0  0  0  0  0  0  0
  153.4466  144.0379  158.2230 H   0  0  0  0  0  0  0  0  0  0  0  0
  151.8485  143.7523  157.5478 H   0  0  0  0  0  0  0  0  0  0  0  0
  152.6403  146.0712  158.9276 H   0  0  0  0  0  0  0  0  0  0  0  0
  150.9623  145.5888  158.7282 H   0  0  0  0  0  0  0  0  0  0  0  0
  152.2955  145.7538  161.2380 H   0  0  0  0  0  0  0  0  0  0  0  0
  150.7574  144.9641  160.9173 H   0  0  0  0  0  0  0  0  0  0  0  0
  152.0029  143.0879  161.7067 H   0  0  0  0  0  0  0  0  0  0  0  0
  153.5020  143.7093  161.0197 H   0  0  0  0  0  0  0  0  0  0  0  0
  150.9588  141.8720  157.9335 H   0  0  0  0  0  0  0  0  0  0  0  0
  151.3343  139.3478  156.3810 H   0  0  0  0  0  0  0  0  0  0  0  0
  149.8064  139.7617  157.1224 H   0  0  0  0  0  0  0  0  0  0  0  0
  149.8217  141.9521  155.7455 H   0  0  0  0  0  0  0  0  0  0  0  0
  151.2089  141.3206  154.8748 H   0  0  0  0  0  0  0  0  0  0  0  0
  147.7908  141.6804  154.3014 H   0  0  0  0  0  0  0  0  0  0  0  0
  146.8347  139.6136  152.6902 H   0  0  0  0  0  0  0  0  0  0  0  0
  150.5899  138.4961  154.3025 H   0  0  0  0  0  0  0  0  0  0  0  0
  148.6239  137.8257  152.8166 H   0  0  0  0  0  0  0  0  0  0  0  0
  1  2  2  0  0  0  0
  2  3  1  0  0  0  0
  2  9  1  0  0  0  0
  3  4  1  0  0  0  0
  3 17  1  0  0  0  0
  3 18  1  0  0  0  0
  4  8  1  0  0  0  0
  4  5  1  0  0  0  0
  4 19  1  0  0  0  0
  5  6  1  0  0  0  0
  5 20  1  0  0  0  0
  5 21  1  0  0  0  0
  6  7  1  0  0  0  0
  6 22  1  0  0  0  0
  6 23  1  0  0  0  0
  7  8  1  0  0  0  0
  7 24  1  0  0  0  0
  7 25  1  0  0  0  0
  8 26  1  0  0  0  0
  8 27  1  0  0  0  0
  9 10  1  0  0  0  0
  9 28  1  0  0  0  0
 10 11  1  0  0  0  0
 10 29  1  0  0  0  0
 10 30  1  0  0  0  0
 11 12  1  0  0  0  0
 11 31  1  0  0  0  0
 11 32  1  0  0  0  0
 12 16  1  0  0  0  0
 12 13  1  0  0  0  0
 13 14  2  0  0  0  0
 13 33  1  0  0  0  0
 14 15  1  0  0  0  0
 14 34  1  0  0  0  0
 15 16  2  0  0  0  0
 15 36  1  0  0  0  0
 16 35  1  0  0  0  0
M  CHG  1  15   1
M  END
> <s_m_source_file>
AV-unprocessed.smi

> <i_m_source_file_index>
3151

> <i_lp_mmshare_version>
43012

> <i_f3d_flags>
0

> <s_epik_input>
W0NIMl0xW0NIMl1bQ0gyXVtDSDJdW0NIXTFbQ0gyXUMoPU8pW05IXVtDSDJdW0NIMl1uMltjSF1bY0hdbltjSF0y

> <s_epik_cmdline>
J2VwaWtfcHl0aG9uJywgJy1waCcsICc3LjAnLCAnLXRuJywgJzgnLCAnLW1hJywgJzIwMCcsICctbWV0YWxfYmluZGluZycsICctaW1hZScsICc8aW5maWxlLm1hZT4nLCAnLW9tYWUnLCAnPG91dGZpbGUubWFlPic=

> <r_lp_tautomer_probability>
1

> <r_epik_Ionization_Penalty>
0.269485

> <r_epik_Ionization_Penalty_Charging>
0

> <r_epik_Ionization_Penalty_Neutral>
0.269485

> <r_epik_State_Penalty>
0.261564

> <r_epik_Charging_Adjusted_Penalty>
0.261564

> <i_epik_Tot_Q>
1

> <i_epik_Tot_abs_Q>
1

> <r_epik_Metal_State_Penalty>
0.546677

> <b_epik_Metal_Only>
0

> <s_lp_Force_Field>
OPLS_2005

> <r_lp_Energy>
22.4511

> <b_lp_Chiralities_Consistent>
1

> <s_lp_Variant>
AV-unprocessed.smi:3151-1

> <Gold.Version>
5.8.1

> <Gold.Id.Protein>
6NUR|6NUR_protein|mol2

> <Gold.PLP.Fitness>
49.3839

> <Gold.PLP.PLP>
-41.0390

> <Gold.PLP.part.hbond>
-3.0000

> <Gold.PLP.part.metal>
0.0000

> <Gold.PLP.part.buried>
-1.8327

> <Gold.PLP.part.nonpolar>
-36.1336

> <Gold.PLP.part.repulsive>
0.1182

> <Gold.PLP.ligand.clash>
0.0000

> <Gold.PLP.ligand.torsion>
0.3394

> <Gold.PLP.Chemscore.Hbond>
3.0000

> <Gold.PLP.Chemscore.CHOScore>
0.0000

> <Gold.PLP.Chemscore.Metal>
0.0000

> <Gold.Chemscore.Hbonds>
donor molecule, donor type, donor heavy atom, donor atom, acceptor molecule, acceptor atom, score
      L1  H    15    36       P1  7948  2.00
      P1  H  7997  8009       L1     1  1.00

> <Gold.PLP.Chemscore.Internal.Correction>
0.0238

> <Gold.Rescore>
     Score         DG    S(hbond)    S(metal)    S(lipo)     H(rot)  DE(clash)    DE(int)     intcor
     17.53     -17.88       1.86        0.00      98.37       2.08       0.01       0.34       ----

> <Gold.Chemscore.Fitness>
17.5318

> <Gold.Chemscore.DG>
-17.8834

> <Gold.Chemscore.ZeroCoef>
-5.4800

> <Gold.Chemscore.Hbond>
1.8599

> <Gold.Chemscore.Metal>
0.0000

> <Gold.Chemscore.Lipo>
98.3717

> <Gold.Chemscore.Internal_Hbond>
0.0000

> <Gold.Chemscore.DEClash>
0.0074

> <Gold.Chemscore.DEInternal>
0.3442

> <Gold.Chemscore.Rot>
2.0774

> <Gold.Chemscore.Internal.Correction>
   9.000000E+99

> <Gold.Chemscore.Hbonds>
donor molecule, donor type, donor heavy atom, donor atom, acceptor molecule, acceptor atom, score
      L1  H    15    36       P1  7948  1.00
      P1  H  7997  8009       L1     1  0.62

> <Gold.Chemscore.Hbond.Weighted>
-6.2122

> <Gold.Chemscore.Metal.Weighted>
-0.0000

> <Gold.Chemscore.Lipo.Weighted>
-11.5095

> <Gold.Chemscore.Internal_Hbond.Weighted>
0.0000

> <Gold.Chemscore.DEClash.Weighted>
0.0074

> <Gold.Chemscore.DEInternal.Weighted>
0.3442

> <Gold.Chemscore.Rot.Weighted>
5.3183

> <Gold.Chemscore.Internal.Correction.Weighted>
   9.000000E+99

> <Gold.Protein.RotatedTorsions>
[ 6907 6896 6895 6894 ] final -163.76 input  -60.11 | X-H torsion
[ 7974 7965 7964 7962 ] final  -59.97 input  175.53 | X-H torsion
[ 8008 7997 7996 7995 ] final  140.04 input   59.86 | X-H torsion
[ 10167 10162 10161 10158 ] final   64.01 input  -65.29 | X-H torsion
[ 10718 10713 10712 10709 ] final -111.51 input   66.30 | X-H torsion
[ 10763 10752 10751 10750 ] final   -5.05 input  -60.55 | X-H torsion
[ 11005 11000 10999 10996 ] final  102.71 input  -57.11 | X-H torsion

> <Gold.Protein.ActiveResidues>
 VAL166  LYS551  ARG553  GLY616  TRP617  ASP618  TYR619  PRO620  LYS621  CYS622 
 ASP623  PHE694  ASN695  SER759  ASP760  ASP761  ALA762  ILE779  LEU786  VAL792 
 PHE793  MET794  SER795  GLU796  ALA797  LYS798  CYS799  TRP800  GLU811  SER814 

> <Gold.Protein.RotatedAtoms>
  151.4011  133.3757  159.2732 H   0  0  0  0  0  0  0  0  0  0  0  0  # atno 6907 bound_to 6896
  150.9432  134.8841  159.7636 H   0  0  0  0  0  0  0  0  0  0  0  0  # atno 6908 bound_to 6896
  152.5080  134.3963  159.9453 H   0  0  0  0  0  0  0  0  0  0  0  0  # atno 6909 bound_to 6896
  145.8211  140.8539  143.0132 H   0  0  0  0  0  0  0  0  0  0  0  0  # atno 7974 bound_to 7965
  156.2983  140.2352  156.4337 H   0  0  0  0  0  0  0  0  0  0  0  0  # atno 8008 bound_to 7997
  154.8248  140.0436  157.1456 H   0  0  0  0  0  0  0  0  0  0  0  0  # atno 8009 bound_to 7997
  154.9274  140.3012  155.5188 H   0  0  0  0  0  0  0  0  0  0  0  0  # atno 8010 bound_to 7997
  140.1268  144.4680  150.6888 H   0  0  0  0  0  0  0  0  0  0  0  0  # atno 10167 bound_to 10162
  156.0651  130.5871  150.8383 H   0  0  0  0  0  0  0  0  0  0  0  0  # atno 10718 bound_to 10713
  153.3931  135.7002  153.6480 H   0  0  0  0  0  0  0  0  0  0  0  0  # atno 10763 bound_to 10752
  153.5044  135.3645  155.2556 H   0  0  0  0  0  0  0  0  0  0  0  0  # atno 10764 bound_to 10752
  154.8704  135.4119  154.3252 H   0  0  0  0  0  0  0  0  0  0  0  0  # atno 10765 bound_to 10752
  139.8779  134.9235  156.5100 H   0  0  0  0  0  0  0  0  0  0  0  0  # atno 11005 bound_to 11000
  144.6747  140.0535  143.7478 LP  0  0  0  0  0  0  0  0  0  0  0  0  # atno 17320 bound_to 7965
  145.9673  139.2844  143.1119 LP  0  0  0  0  0  0  0  0  0  0  0  0  # atno 17321 bound_to 7965
  140.6840  143.2341  151.5309 LP  0  0  0  0  0  0  0  0  0  0  0  0  # atno 17342 bound_to 10162
  139.5540  144.2323  152.1580 LP  0  0  0  0  0  0  0  0  0  0  0  0  # atno 17343 bound_to 10162
  157.5687  131.0946  150.9450 LP  0  0  0  0  0  0  0  0  0  0  0  0  # atno 17370 bound_to 10713
  156.9671  130.5477  149.5288 LP  0  0  0  0  0  0  0  0  0  0  0  0  # atno 17371 bound_to 10713
  140.8527  133.8119  155.9185 LP  0  0  0  0  0  0  0  0  0  0  0  0  # atno 17394 bound_to 11000
  140.9128  134.2239  157.4975 LP  0  0  0  0  0  0  0  0  0  0  0  0  # atno 17395 bound_to 11000

$$$$
