AV-unprocessed.smi:1756|AV-procd|sdf|7073|dock1
  -GOLD-   22720 8293D 1   1.00000     0.00000
 Structure written by MMmdl.
 37 38  0  0  0  0  0  0  0  0  2 V2000
  150.0278  136.1876  158.3843 O   0  0  0  0  0  0  0  0  0  0  0  0
  149.6631  137.1231  159.0960 C   0  0  0  0  0  0  0  0  0  0  0  0
  149.8858  138.4090  158.7887 N   0  0  0  0  0  0  0  0  0  0  0  0
  150.5895  138.8898  157.6036 C   0  0  0  0  0  0  0  0  0  0  0  0
  151.2122  140.2808  157.8212 C   0  0  2  0  0  0  0  0  0  0  0  0
  152.2619  140.3175  158.9531 C   0  0  0  0  0  0  0  0  0  0  0  0
  152.7599  141.7485  159.1849 C   0  0  0  0  0  0  0  0  0  0  0  0
  151.5668  142.6842  159.4019 C   0  0  0  0  0  0  0  0  0  0  0  0
  150.5596  142.5352  158.2515 C   0  0  0  0  0  0  0  0  0  0  0  0
  150.1488  141.1759  158.1411 O   0  0  0  0  0  0  0  0  0  0  0  0
  148.9876  137.0224  160.2552 N   0  0  0  0  0  0  0  0  0  0  0  0
  148.5637  135.8794  160.9559 C   0  0  0  0  0  0  0  0  0  0  0  0
  148.8185  134.5933  160.5858 C   0  0  0  0  0  0  0  0  0  0  0  0
  148.3584  133.4508  161.3652 C   0  0  0  0  0  0  0  0  0  0  0  0
  148.6945  132.0094  161.0255 C   0  0  0  0  0  0  0  0  0  0  0  0
  149.3994  131.4373  162.0020 F   0  0  0  0  0  0  0  0  0  0  0  0
  147.5734  131.3097  160.8577 F   0  0  0  0  0  0  0  0  0  0  0  0
  149.4023  131.9366  159.8981 F   0  0  0  0  0  0  0  0  0  0  0  0
  147.6778  133.8332  162.5047 C   0  0  0  0  0  0  0  0  0  0  0  0
  147.3740  135.0767  162.9368 N   0  5  0  0  0  0  0  0  0  0  0  0
  147.8026  136.1374  162.1963 C   0  0  0  0  0  0  0  0  0  0  0  0
  147.5685  137.2972  162.5390 O   0  0  0  0  0  0  0  0  0  0  0  0
  149.5438  139.1120  159.4275 H   0  0  0  0  0  0  0  0  0  0  0  0
  151.3804  138.1719  157.3847 H   0  0  0  0  0  0  0  0  0  0  0  0
  149.9369  138.8953  156.7289 H   0  0  0  0  0  0  0  0  0  0  0  0
  151.6717  140.6073  156.8865 H   0  0  0  0  0  0  0  0  0  0  0  0
  151.8233  139.9294  159.8733 H   0  0  0  0  0  0  0  0  0  0  0  0
  153.1085  139.6736  158.7149 H   0  0  0  0  0  0  0  0  0  0  0  0
  153.4330  141.7832  160.0419 H   0  0  0  0  0  0  0  0  0  0  0  0
  153.3349  142.0808  158.3198 H   0  0  0  0  0  0  0  0  0  0  0  0
  151.0785  142.4436  160.3472 H   0  0  0  0  0  0  0  0  0  0  0  0
  151.9056  143.7176  159.4773 H   0  0  0  0  0  0  0  0  0  0  0  0
  149.6820  143.1539  158.4397 H   0  0  0  0  0  0  0  0  0  0  0  0
  150.9911  142.8745  157.3085 H   0  0  0  0  0  0  0  0  0  0  0  0
  148.7204  137.8925  160.6918 H   0  0  0  0  0  0  0  0  0  0  0  0
  149.3865  134.3709  159.6983 H   0  0  0  0  0  0  0  0  0  0  0  0
  147.3290  133.0170  163.1727 H   0  0  0  0  0  0  0  0  0  0  0  0
  1  2  2  0  0  0  0
  2  3  1  0  0  0  0
  2 11  1  0  0  0  0
  3  4  1  0  0  0  0
  3 23  1  0  0  0  0
  4  5  1  0  0  0  0
  4 24  1  0  0  0  0
  4 25  1  0  0  0  0
  5 10  1  0  0  0  0
  5  6  1  0  0  0  0
  5 26  1  0  0  0  0
  6  7  1  0  0  0  0
  6 27  1  0  0  0  0
  6 28  1  0  0  0  0
  7  8  1  0  0  0  0
  7 29  1  0  0  0  0
  7 30  1  0  0  0  0
  8  9  1  0  0  0  0
  8 31  1  0  0  0  0
  8 32  1  0  0  0  0
  9 10  1  0  0  0  0
  9 33  1  0  0  0  0
  9 34  1  0  0  0  0
 11 12  1  0  0  0  0
 11 35  1  0  0  0  0
 12 21  1  0  0  0  0
 12 13  2  0  0  0  0
 13 14  1  0  0  0  0
 13 36  1  0  0  0  0
 14 15  1  0  0  0  0
 14 19  2  0  0  0  0
 15 16  1  0  0  0  0
 15 17  1  0  0  0  0
 15 18  1  0  0  0  0
 19 20  1  0  0  0  0
 19 37  1  0  0  0  0
 20 21  1  0  0  0  0
 21 22  2  0  0  0  0
M  CHG  1  20  -1
M  END
> <s_m_source_file>
AV-unprocessed.smi

> <i_m_source_file_index>
1756

> <i_lp_mmshare_version>
43012

> <i_f3d_flags>
0

> <s_epik_input>
Tz1jMVtuSF1bY0hdYyhDKEYpKEYpRilbY0hdYzFbTkhdQyg9TylbTkhdW0NIMl1bQ0BASF0yW0NIMl1bQ0gyXVtDSDJdW0NIMl1PMg==

> <s_epik_cmdline>
J2VwaWtfcHl0aG9uJywgJy1waCcsICc3LjAnLCAnLXRuJywgJzgnLCAnLW1hJywgJzIwMCcsICctbWV0YWxfYmluZGluZycsICctaW1hZScsICc8aW5maWxlLm1hZT4nLCAnLW9tYWUnLCAnPG91dGZpbGUubWFlPic=

> <r_lp_tautomer_probability>
1

> <r_epik_Ionization_Penalty>
3.16985

> <r_epik_Ionization_Penalty_Charging>
0.174782

> <r_epik_Ionization_Penalty_Neutral>
2.99507

> <r_epik_State_Penalty>
2.99125

> <r_epik_Charging_Adjusted_Penalty>
3.16603

> <i_epik_Tot_Q>
-1

> <i_epik_Tot_abs_Q>
1

> <r_epik_Metal_State_Penalty>
0.453096

> <b_epik_Metal_Only>
1

> <s_lp_Force_Field>
OPLS_2005

> <r_lp_Energy>
21.0117

> <b_lp_Chiralities_Consistent>
1

> <s_lp_Variant>
AV-unprocessed.smi:1756-3

> <Gold.Version>
5.8.1

> <Gold.Id.Protein>
6NUR|6NUR_protein|mol2

> <Gold.PLP.Fitness>
41.2991

> <Gold.PLP.PLP>
-34.8012

> <Gold.PLP.part.hbond>
-3.0000

> <Gold.PLP.part.metal>
0.0000

> <Gold.PLP.part.buried>
-5.2663

> <Gold.PLP.part.nonpolar>
-27.9442

> <Gold.PLP.part.repulsive>
2.1285

> <Gold.PLP.ligand.clash>
0.0000

> <Gold.PLP.ligand.torsion>
0.2009

> <Gold.PLP.Chemscore.Hbond>
2.2640

> <Gold.PLP.Chemscore.CHOScore>
0.0000

> <Gold.PLP.Chemscore.Metal>
0.0000

> <Gold.Chemscore.Hbonds>
donor molecule, donor type, donor heavy atom, donor atom, acceptor molecule, acceptor atom, score
      P1  H  6896  6909       L1     1  0.97
      P1  H  6931  6943       L1    22  0.77
      P1  H  6934  6947       L1    22  0.07

> <Gold.PLP.Chemscore.Internal.Correction>
0.1076

> <Gold.Rescore>
     Score         DG    S(hbond)    S(metal)    S(lipo)     H(rot)  DE(clash)    DE(int)     intcor
     15.46     -16.82       2.01        0.00      68.55       1.32       0.13       1.23       ----

> <Gold.Chemscore.Fitness>
15.4603

> <Gold.Chemscore.DG>
-16.8231

> <Gold.Chemscore.ZeroCoef>
-5.4800

> <Gold.Chemscore.Hbond>
2.0102

> <Gold.Chemscore.Metal>
0.0000

> <Gold.Chemscore.Lipo>
68.5532

> <Gold.Chemscore.Internal_Hbond>
0.0000

> <Gold.Chemscore.DEClash>
0.1280

> <Gold.Chemscore.DEInternal>
1.2348

> <Gold.Chemscore.Rot>
1.3248

> <Gold.Chemscore.Internal.Correction>
   9.000000E+99

> <Gold.Chemscore.Hbonds>
donor molecule, donor type, donor heavy atom, donor atom, acceptor molecule, acceptor atom, score
      P1  H  6896  6909       L1     1  0.56
      P1  H  6931  6943       L1    22  0.39
      P1  H  6934  6947       L1    22  0.08

> <Gold.Chemscore.Hbond.Weighted>
-6.7139

> <Gold.Chemscore.Metal.Weighted>
-0.0000

> <Gold.Chemscore.Lipo.Weighted>
-8.0207

> <Gold.Chemscore.Internal_Hbond.Weighted>
0.0000

> <Gold.Chemscore.DEClash.Weighted>
0.1280

> <Gold.Chemscore.DEInternal.Weighted>
1.2348

> <Gold.Chemscore.Rot.Weighted>
3.3915

> <Gold.Chemscore.Internal.Correction.Weighted>
   9.000000E+99

> <Gold.Protein.RotatedTorsions>
[ 6907 6896 6895 6894 ] final   57.12 input  -60.11 | X-H torsion
[ 7974 7965 7964 7962 ] final    8.16 input  175.53 | X-H torsion
[ 8008 7997 7996 7995 ] final   25.53 input   59.86 | X-H torsion
[ 10167 10162 10161 10158 ] final  -65.77 input  -65.29 | X-H torsion
[ 10718 10713 10712 10709 ] final   88.17 input   66.30 | X-H torsion
[ 10763 10752 10751 10750 ] final  -98.66 input  -60.55 | X-H torsion
[ 11005 11000 10999 10996 ] final  -91.90 input  -57.11 | X-H torsion

> <Gold.Protein.ActiveResidues>
 VAL166  LYS551  ARG553  GLY616  TRP617  ASP618  TYR619  PRO620  LYS621  CYS622 
 ASP623  PHE694  ASN695  SER759  ASP760  ASP761  ALA762  ILE779  LEU786  VAL792 
 PHE793  MET794  SER795  GLU796  ALA797  LYS798  CYS799  TRP800  GLU811  SER814 

> <Gold.Protein.RotatedAtoms>
  152.3701  134.6746  160.0178 H   0  0  0  0  0  0  0  0  0  0  0  0  # atno 6907 bound_to 6896
  151.7042  133.3306  159.3282 H   0  0  0  0  0  0  0  0  0  0  0  0  # atno 6908 bound_to 6896
  150.7667  134.6524  159.6340 H   0  0  0  0  0  0  0  0  0  0  0  0  # atno 6909 bound_to 6896
  146.2419  139.9975  142.8419 H   0  0  0  0  0  0  0  0  0  0  0  0  # atno 7974 bound_to 7965
  155.0132  140.3139  155.4822 H   0  0  0  0  0  0  0  0  0  0  0  0  # atno 8008 bound_to 7997
  156.2905  140.2211  156.5188 H   0  0  0  0  0  0  0  0  0  0  0  0  # atno 8009 bound_to 7997
  154.7516  140.0465  157.0886 H   0  0  0  0  0  0  0  0  0  0  0  0  # atno 8010 bound_to 7997
  140.5706  143.2317  151.6547 H   0  0  0  0  0  0  0  0  0  0  0  0  # atno 10167 bound_to 10162
  157.6947  131.0284  150.3233 H   0  0  0  0  0  0  0  0  0  0  0  0  # atno 10718 bound_to 10713
  154.7433  135.5001  153.9160 H   0  0  0  0  0  0  0  0  0  0  0  0  # atno 10763 bound_to 10752
  153.1065  135.6698  153.9585 H   0  0  0  0  0  0  0  0  0  0  0  0  # atno 10764 bound_to 10752
  153.9356  135.3073  155.3423 H   0  0  0  0  0  0  0  0  0  0  0  0  # atno 10765 bound_to 10752
  141.1534  133.7786  156.9944 H   0  0  0  0  0  0  0  0  0  0  0  0  # atno 11005 bound_to 11000
  145.1446  140.9590  143.4468 LP  0  0  0  0  0  0  0  0  0  0  0  0  # atno 17320 bound_to 7965
  145.0263  139.3379  143.6047 LP  0  0  0  0  0  0  0  0  0  0  0  0  # atno 17321 bound_to 7965
  139.5115  144.3506  152.0655 LP  0  0  0  0  0  0  0  0  0  0  0  0  # atno 17342 bound_to 10162
  140.2643  144.4033  150.6174 LP  0  0  0  0  0  0  0  0  0  0  0  0  # atno 17343 bound_to 10162
  156.3717  130.3865  149.7170 LP  0  0  0  0  0  0  0  0  0  0  0  0  # atno 17370 bound_to 10713
  156.4582  130.7939  151.2960 LP  0  0  0  0  0  0  0  0  0  0  0  0  # atno 17371 bound_to 10713
  140.0981  134.9552  157.1881 LP  0  0  0  0  0  0  0  0  0  0  0  0  # atno 17394 bound_to 11000
  140.3355  134.2762  155.7220 LP  0  0  0  0  0  0  0  0  0  0  0  0  # atno 17395 bound_to 11000

$$$$
