AV-unprocessed.smi:2061|AV-procd|sdf|8388|dock3
  -GOLD-   2272011 73D 1   1.00000     0.00000
 Structure written by MMmdl.
 45 46  0  0  0  0  0  0  0  0  3 V2000
  148.7447  141.3074  154.5648 C   0  0  0  0  0  0  0  0  0  0  0  0
  149.3466  139.9451  154.6210 C   0  0  0  0  0  0  0  0  0  0  0  0
  148.8147  138.6893  154.5380 C   0  0  0  0  0  0  0  0  0  0  0  0
  149.9520  137.8488  154.6697 C   0  0  0  0  0  0  0  0  0  0  0  0
  149.8173  136.4357  154.6292 N   0  0  0  0  0  0  0  0  0  0  0  0
  150.6122  135.4983  155.1766 C   0  0  0  0  0  0  0  0  0  0  0  0
  151.6017  135.8287  155.8413 O   0  0  0  0  0  0  0  0  0  0  0  0
  150.1891  134.2338  154.8988 N   0  5  0  0  0  0  0  0  0  0  0  0
  149.3877  133.8583  153.7322 C   0  0  0  0  0  0  0  0  0  0  0  0
  147.8669  133.9354  154.0458 C   0  0  2  0  0  0  0  0  0  0  0  0
  147.3457  132.7875  154.9464 C   0  0  0  0  0  0  0  0  0  0  0  0
  147.0797  134.0916  152.7833 N   0  3  1  0  0  0  0  0  0  0  0  0
  146.8988  132.8684  151.9533 C   0  0  0  0  0  0  0  0  0  0  0  0
  146.2281  133.2313  150.6164 C   0  0  1  0  0  0  0  0  0  0  0  0
  145.9633  131.9970  149.7478 C   0  0  0  0  0  0  0  0  0  0  0  0
  144.9793  133.8611  150.8839 O   0  0  0  0  0  0  0  0  0  0  0  0
  145.1221  135.0742  151.6154 C   0  0  1  0  0  0  0  0  0  0  0  0
  143.7352  135.7079  151.7684 C   0  0  0  0  0  0  0  0  0  0  0  0
  145.7768  134.7744  152.9773 C   0  0  0  0  0  0  0  0  0  0  0  0
  151.0772  138.5323  154.8193 N   0  0  0  0  0  0  0  0  0  0  0  0
  150.6949  139.8785  154.7899 O   0  0  0  0  0  0  0  0  0  0  0  0
  147.7513  141.2752  154.1170 H   0  0  0  0  0  0  0  0  0  0  0  0
  149.3616  141.9802  153.9690 H   0  0  0  0  0  0  0  0  0  0  0  0
  148.6522  141.7293  155.5656 H   0  0  0  0  0  0  0  0  0  0  0  0
  147.7783  138.4171  154.4044 H   0  0  0  0  0  0  0  0  0  0  0  0
  149.0235  136.0882  154.1119 H   0  0  0  0  0  0  0  0  0  0  0  0
  149.6046  134.5028  152.8785 H   0  0  0  0  0  0  0  0  0  0  0  0
  149.6288  132.8506  153.3931 H   0  0  0  0  0  0  0  0  0  0  0  0
  147.7231  134.8584  154.6095 H   0  0  0  0  0  0  0  0  0  0  0  0
  147.8277  132.7907  155.9257 H   0  0  0  0  0  0  0  0  0  0  0  0
  147.5076  131.8003  154.5097 H   0  0  0  0  0  0  0  0  0  0  0  0
  146.2762  132.8931  155.1284 H   0  0  0  0  0  0  0  0  0  0  0  0
  147.8607  132.3918  151.7622 H   0  0  0  0  0  0  0  0  0  0  0  0
  146.2798  132.1433  152.4837 H   0  0  0  0  0  0  0  0  0  0  0  0
  146.8669  133.9179  150.0579 H   0  0  0  0  0  0  0  0  0  0  0  0
  146.8924  131.4796  149.5079 H   0  0  0  0  0  0  0  0  0  0  0  0
  145.4868  132.2769  148.8078 H   0  0  0  0  0  0  0  0  0  0  0  0
  145.3070  131.2896  150.2556 H   0  0  0  0  0  0  0  0  0  0  0  0
  145.7547  135.7599  151.0486 H   0  0  0  0  0  0  0  0  0  0  0  0
  143.7930  136.6514  152.3117 H   0  0  0  0  0  0  0  0  0  0  0  0
  143.0572  135.0491  152.3119 H   0  0  0  0  0  0  0  0  0  0  0  0
  143.2904  135.9129  150.7944 H   0  0  0  0  0  0  0  0  0  0  0  0
  145.1232  134.1491  153.5878 H   0  0  0  0  0  0  0  0  0  0  0  0
  145.9234  135.7105  153.5176 H   0  0  0  0  0  0  0  0  0  0  0  0
  147.6285  134.7295  152.2244 H   0  0  0  0  0  0  0  0  0  0  0  0
  1  2  1  0  0  0  0
  1 22  1  0  0  0  0
  1 23  1  0  0  0  0
  1 24  1  0  0  0  0
  2 21  1  0  0  0  0
  2  3  2  0  0  0  0
  3  4  1  0  0  0  0
  3 25  1  0  0  0  0
  4  5  1  0  0  0  0
  4 20  2  0  0  0  0
  5  6  1  0  0  0  0
  5 26  1  0  0  0  0
  6  7  2  0  0  0  0
  6  8  1  0  0  0  0
  8  9  1  0  0  0  0
  9 10  1  0  0  0  0
  9 27  1  0  0  0  0
  9 28  1  0  0  0  0
 10 11  1  0  0  0  0
 10 12  1  0  0  0  0
 10 29  1  0  0  0  0
 11 30  1  0  0  0  0
 11 31  1  0  0  0  0
 11 32  1  0  0  0  0
 12 19  1  0  0  0  0
 12 13  1  0  0  0  0
 12 45  1  0  0  0  0
 13 14  1  0  0  0  0
 13 33  1  0  0  0  0
 13 34  1  0  0  0  0
 14 15  1  0  0  0  0
 14 16  1  0  0  0  0
 14 35  1  0  0  0  0
 15 36  1  0  0  0  0
 15 37  1  0  0  0  0
 15 38  1  0  0  0  0
 16 17  1  0  0  0  0
 17 18  1  0  0  0  0
 17 19  1  0  0  0  0
 17 39  1  0  0  0  0
 18 40  1  0  0  0  0
 18 41  1  0  0  0  0
 18 42  1  0  0  0  0
 19 43  1  0  0  0  0
 19 44  1  0  0  0  0
 20 21  1  0  0  0  0
M  CHG  1   8  -1
M  CHG  1  12   1
M  END
> <s_m_source_file>
AV-unprocessed.smi

> <i_m_source_file_index>
2061

> <i_lp_mmshare_version>
43012

> <i_f3d_flags>
0

> <s_epik_input>
W0NIM11jMVtjSF1jKG5vMSlbTkhdQyg9TylbTkhdW0NIMl1bQ0BIXShbQ0gzXSlOMltDSDJdW0NAQEhdKFtDSDNdKU9bQ0BASF0oW0NIM10pW0NIMl0y

> <s_epik_cmdline>
J2VwaWtfcHl0aG9uJywgJy1waCcsICc3LjAnLCAnLXRuJywgJzgnLCAnLW1hJywgJzIwMCcsICctbWV0YWxfYmluZGluZycsICctaW1hZScsICc8aW5maWxlLm1hZT4nLCAnLW9tYWUnLCAnPG91dGZpbGUubWFlPic=

> <r_epik_Ionization_Penalty>
6.8073

> <r_epik_Ionization_Penalty_Charging>
6.80729

> <r_epik_Ionization_Penalty_Neutral>
5.65391e-06

> <r_epik_State_Penalty>
7.47323

> <r_epik_Charging_Adjusted_Penalty>
14.2805

> <i_epik_Tot_Q>
0

> <i_epik_Tot_abs_Q>
2

> <r_epik_Metal_State_Penalty>
3.40035

> <b_epik_Metal_Only>
1

> <s_lp_Force_Field>
OPLS_2005

> <r_lp_Energy>
16.5553

> <b_lp_Chiralities_Consistent>
1

> <s_lp_Variant>
AV-unprocessed.smi:2061-29

> <Gold.Version>
5.8.1

> <Gold.Id.Protein>
6NUR|6NUR_protein|mol2

> <Gold.PLP.Fitness>
45.7928

> <Gold.PLP.PLP>
-34.8576

> <Gold.PLP.part.hbond>
-4.0000

> <Gold.PLP.part.metal>
0.0000

> <Gold.PLP.part.buried>
-3.5787

> <Gold.PLP.part.nonpolar>
-26.8155

> <Gold.PLP.part.repulsive>
0.5181

> <Gold.PLP.ligand.clash>
0.0000

> <Gold.PLP.ligand.torsion>
0.9388

> <Gold.PLP.Chemscore.Hbond>
4.2262

> <Gold.PLP.Chemscore.CHOScore>
0.0000

> <Gold.PLP.Chemscore.Metal>
0.0000

> <Gold.Chemscore.Hbonds>
donor molecule, donor type, donor heavy atom, donor atom, acceptor molecule, acceptor atom, score
      L1  H     5    26       P1  7948  0.20
      L1  H    12    45       P1  7948  2.00
      P1  H  7989  7998       L1    21  1.00
      P1  H 10752 10763       L1     7  1.00

> <Gold.PLP.Chemscore.Internal.Correction>
0.1341

> <Gold.Rescore>
     Score         DG    S(hbond)    S(metal)    S(lipo)     H(rot)  DE(clash)    DE(int)     intcor
     15.76     -18.21       2.70        0.00      65.59       1.56       0.36       2.09       ----

> <Gold.Chemscore.Fitness>
15.7580

> <Gold.Chemscore.DG>
-18.2059

> <Gold.Chemscore.ZeroCoef>
-5.4800

> <Gold.Chemscore.Hbond>
2.7044

> <Gold.Chemscore.Metal>
0.0000

> <Gold.Chemscore.Lipo>
65.5905

> <Gold.Chemscore.Internal_Hbond>
0.0000

> <Gold.Chemscore.DEClash>
0.3559

> <Gold.Chemscore.DEInternal>
2.0920

> <Gold.Chemscore.Rot>
1.5550

> <Gold.Chemscore.Internal.Correction>
   9.000000E+99

> <Gold.Chemscore.Hbonds>
donor molecule, donor type, donor heavy atom, donor atom, acceptor molecule, acceptor atom, score
      L1  H     5    26       P1  7948  0.19
      L1  H    12    45       P1  7948  0.75
      P1  H  7989  7998       L1    21  0.70
      P1  H 10752 10763       L1     7  0.74

> <Gold.Chemscore.Hbond.Weighted>
-9.0326

> <Gold.Chemscore.Metal.Weighted>
-0.0000

> <Gold.Chemscore.Lipo.Weighted>
-7.6741

> <Gold.Chemscore.Internal_Hbond.Weighted>
0.0000

> <Gold.Chemscore.DEClash.Weighted>
0.3559

> <Gold.Chemscore.DEInternal.Weighted>
2.0920

> <Gold.Chemscore.Rot.Weighted>
3.9809

> <Gold.Chemscore.Internal.Correction.Weighted>
   9.000000E+99

> <Gold.Protein.RotatedTorsions>
[ 6907 6896 6895 6894 ] final  154.98 input  -60.11 | X-H torsion
[ 7974 7965 7964 7962 ] final   -6.06 input  175.53 | X-H torsion
[ 8008 7997 7996 7995 ] final  -11.36 input   59.86 | X-H torsion
[ 10167 10162 10161 10158 ] final   26.87 input  -65.29 | X-H torsion
[ 10718 10713 10712 10709 ] final   29.36 input   66.30 | X-H torsion
[ 10763 10752 10751 10750 ] final   81.65 input  -60.55 | X-H torsion
[ 11005 11000 10999 10996 ] final   32.36 input  -57.11 | X-H torsion

> <Gold.Protein.ActiveResidues>
 VAL166  LYS551  ARG553  GLY616  TRP617  ASP618  TYR619  PRO620  LYS621  CYS622 
 ASP623  PHE694  ASN695  SER759  ASP760  ASP761  ALA762  ILE779  LEU786  VAL792 
 PHE793  MET794  SER795  GLU796  ALA797  LYS798  CYS799  TRP800  GLU811  SER814 

> <Gold.Protein.RotatedAtoms>
  152.0507  133.4017  159.4375 H   0  0  0  0  0  0  0  0  0  0  0  0  # atno 6907 bound_to 6896
  150.6870  134.3311  159.4837 H   0  0  0  0  0  0  0  0  0  0  0  0  # atno 6908 bound_to 6896
  152.1121  134.9266  160.0617 H   0  0  0  0  0  0  0  0  0  0  0  0  # atno 6909 bound_to 6896
  146.2339  140.2114  142.8335 H   0  0  0  0  0  0  0  0  0  0  0  0  # atno 7974 bound_to 7965
  154.5471  140.2304  155.8545 H   0  0  0  0  0  0  0  0  0  0  0  0  # atno 8008 bound_to 7997
  156.1913  140.3076  155.9299 H   0  0  0  0  0  0  0  0  0  0  0  0  # atno 8009 bound_to 7997
  155.3143  140.0437  157.3027 H   0  0  0  0  0  0  0  0  0  0  0  0  # atno 8010 bound_to 7997
  140.4986  144.0351  150.6324 H   0  0  0  0  0  0  0  0  0  0  0  0  # atno 10167 bound_to 10162
  157.2456  130.7090  149.6380 H   0  0  0  0  0  0  0  0  0  0  0  0  # atno 10718 bound_to 10713
  153.1135  135.4757  154.9076 H   0  0  0  0  0  0  0  0  0  0  0  0  # atno 10763 bound_to 10752
  154.7505  135.3105  154.8569 H   0  0  0  0  0  0  0  0  0  0  0  0  # atno 10764 bound_to 10752
  153.9151  135.6861  153.4803 H   0  0  0  0  0  0  0  0  0  0  0  0  # atno 10765 bound_to 10752
  140.2743  134.3046  155.7819 H   0  0  0  0  0  0  0  0  0  0  0  0  # atno 11005 bound_to 11000
  144.9704  140.8363  143.5459 LP  0  0  0  0  0  0  0  0  0  0  0  0  # atno 17320 bound_to 7965
  145.2094  139.2212  143.5151 LP  0  0  0  0  0  0  0  0  0  0  0  0  # atno 17321 bound_to 7965
  140.3640  143.2891  152.0352 LP  0  0  0  0  0  0  0  0  0  0  0  0  # atno 17342 bound_to 10162
  139.4867  144.6281  151.7125 LP  0  0  0  0  0  0  0  0  0  0  0  0  # atno 17343 bound_to 10162
  155.9668  130.4444  150.5460 LP  0  0  0  0  0  0  0  0  0  0  0  0  # atno 17370 bound_to 10713
  157.3332  131.0703  151.1845 LP  0  0  0  0  0  0  0  0  0  0  0  0  # atno 17371 bound_to 10713
  141.2173  133.7486  156.9382 LP  0  0  0  0  0  0  0  0  0  0  0  0  # atno 17394 bound_to 11000
  140.1344  134.9335  157.2381 LP  0  0  0  0  0  0  0  0  0  0  0  0  # atno 17395 bound_to 11000

$$$$
