AV-unprocessed.smi:1284|AV-procd|sdf|5364|dock3
  -GOLD-   22720 4503D 1   1.00000     0.00000
 Structure written by MMmdl.
 39 41  0  0  0  0  0  0  0  0  1 V2000
  153.1037  137.7682  160.7716 N   0  0  0  0  0  0  0  0  0  0  0  0
  152.2084  137.7483  159.7805 C   0  0  0  0  0  0  0  0  0  0  0  0
  151.1120  137.2062  159.9011 O   0  0  0  0  0  0  0  0  0  0  0  0
  152.5988  138.4401  158.4692 C   0  0  0  0  0  0  0  0  0  0  0  0
  152.4167  139.9273  158.6267 C   0  0  0  0  0  0  0  0  0  0  0  0
  153.1893  140.6432  159.4483 N   0  0  0  0  0  0  0  0  0  0  0  0
  152.7053  141.9258  159.2894 C   0  0  0  0  0  0  0  0  0  0  0  0
  153.1185  143.1419  159.8791 C   0  0  0  0  0  0  0  0  0  0  0  0
  152.4650  144.3494  159.5573 C   0  0  0  0  0  0  0  0  0  0  0  0
  151.3903  144.3573  158.6452 C   0  0  0  0  0  0  0  0  0  0  0  0
  150.9608  143.1558  158.0499 C   0  0  0  0  0  0  0  0  0  0  0  0
  151.6182  141.9527  158.3722 C   0  0  0  0  0  0  0  0  0  0  0  0
  151.4546  140.6293  157.9701 N   0  0  0  0  0  0  0  0  0  0  0  0
  150.4468  140.1451  157.0337 C   0  0  0  0  0  0  0  0  0  0  0  0
  150.6204  140.7280  155.6171 C   0  0  1  0  0  0  0  0  0  0  0  0
  151.7703  140.1457  155.0387 O   0  0  0  0  0  0  0  0  0  0  0  0
  149.3789  140.5341  154.7568 C   0  0  0  0  0  0  0  0  0  0  0  0
  148.6363  141.6569  154.3315 C   0  0  0  0  0  0  0  0  0  0  0  0
  147.4692  141.4869  153.5625 C   0  0  0  0  0  0  0  0  0  0  0  0
  147.0378  140.1931  153.2129 C   0  0  0  0  0  0  0  0  0  0  0  0
  147.7741  139.0691  153.6335 C   0  0  0  0  0  0  0  0  0  0  0  0
  148.9409  139.2385  154.4037 C   0  0  0  0  0  0  0  0  0  0  0  0
  152.8903  137.3147  161.6482 H   0  0  0  0  0  0  0  0  0  0  0  0
  153.9938  138.2258  160.6393 H   0  0  0  0  0  0  0  0  0  0  0  0
  153.6257  138.1796  158.2200 H   0  0  0  0  0  0  0  0  0  0  0  0
  151.9734  138.0887  157.6473 H   0  0  0  0  0  0  0  0  0  0  0  0
  153.9409  143.1458  160.5787 H   0  0  0  0  0  0  0  0  0  0  0  0
  152.7901  145.2735  160.0121 H   0  0  0  0  0  0  0  0  0  0  0  0
  150.8954  145.2862  158.4026 H   0  0  0  0  0  0  0  0  0  0  0  0
  150.1397  143.1617  157.3487 H   0  0  0  0  0  0  0  0  0  0  0  0
  150.4824  139.0560  157.0131 H   0  0  0  0  0  0  0  0  0  0  0  0
  149.4592  140.3955  157.4231 H   0  0  0  0  0  0  0  0  0  0  0  0
  150.8277  141.7945  155.6903 H   0  0  0  0  0  0  0  0  0  0  0  0
  152.5167  140.3647  155.5755 H   0  0  0  0  0  0  0  0  0  0  0  0
  148.9529  142.6531  154.6035 H   0  0  0  0  0  0  0  0  0  0  0  0
  146.9028  142.3497  153.2439 H   0  0  0  0  0  0  0  0  0  0  0  0
  146.1416  140.0631  152.6244 H   0  0  0  0  0  0  0  0  0  0  0  0
  147.4420  138.0761  153.3688 H   0  0  0  0  0  0  0  0  0  0  0  0
  149.4928  138.3696  154.7310 H   0  0  0  0  0  0  0  0  0  0  0  0
  1  2  1  0  0  0  0
  1 23  1  0  0  0  0
  1 24  1  0  0  0  0
  2  3  2  0  0  0  0
  2  4  1  0  0  0  0
  4  5  1  0  0  0  0
  4 25  1  0  0  0  0
  4 26  1  0  0  0  0
  5 13  1  0  0  0  0
  5  6  2  0  0  0  0
  6  7  1  0  0  0  0
  7 12  2  0  0  0  0
  7  8  1  0  0  0  0
  8  9  2  0  0  0  0
  8 27  1  0  0  0  0
  9 10  1  0  0  0  0
  9 28  1  0  0  0  0
 10 11  2  0  0  0  0
 10 29  1  0  0  0  0
 11 12  1  0  0  0  0
 11 30  1  0  0  0  0
 12 13  1  0  0  0  0
 13 14  1  0  0  0  0
 14 15  1  0  0  0  0
 14 31  1  0  0  0  0
 14 32  1  0  0  0  0
 15 16  1  0  0  0  0
 15 17  1  0  0  0  0
 15 33  1  0  0  0  0
 16 34  1  0  0  0  0
 17 22  1  0  0  0  0
 17 18  2  0  0  0  0
 18 19  1  0  0  0  0
 18 35  1  0  0  0  0
 19 20  2  0  0  0  0
 19 36  1  0  0  0  0
 20 21  1  0  0  0  0
 20 37  1  0  0  0  0
 21 22  2  0  0  0  0
 21 38  1  0  0  0  0
 22 39  1  0  0  0  0
M  END
> <s_m_source_file>
AV-unprocessed.smi

> <i_m_source_file_index>
1284

> <i_lp_mmshare_version>
43012

> <i_f3d_flags>
0

> <s_epik_input>
W2NIXTFbY0hdW2NIXVtjSF1jKGMxMiluKGMobjIpW0NIMl1DKD1PKVtOSDJdKVtDSDJdW0NASF0oW09IXSljM1tjSF1bY0hdW2NIXVtjSF1bY0hdMw==

> <s_epik_cmdline>
J2VwaWtfcHl0aG9uJywgJy1waCcsICc3LjAnLCAnLXRuJywgJzgnLCAnLW1hJywgJzIwMCcsICctbWV0YWxfYmluZGluZycsICctaW1hZScsICc8aW5maWxlLm1hZT4nLCAnLW9tYWUnLCAnPG91dGZpbGUubWFlPic=

> <r_epik_Ionization_Penalty>
0.0366899

> <r_epik_Ionization_Penalty_Charging>
0

> <r_epik_Ionization_Penalty_Neutral>
0.0366899

> <r_epik_State_Penalty>
0.0306642

> <r_epik_Charging_Adjusted_Penalty>
0.0306642

> <i_epik_Tot_Q>
0

> <i_epik_Tot_abs_Q>
0

> <r_epik_Metal_State_Penalty>
0.028853

> <b_epik_Metal_Only>
0

> <s_lp_Force_Field>
OPLS_2005

> <r_lp_Energy>
12.7879

> <b_lp_Chiralities_Consistent>
1

> <s_lp_Variant>
AV-unprocessed.smi:1284-2

> <Gold.Version>
5.8.1

> <Gold.Id.Protein>
6NUR|6NUR_protein|mol2

> <Gold.PLP.Fitness>
52.1473

> <Gold.PLP.PLP>
-47.4398

> <Gold.PLP.part.hbond>
-1.9204

> <Gold.PLP.part.metal>
0.0000

> <Gold.PLP.part.buried>
-4.7331

> <Gold.PLP.part.nonpolar>
-40.2335

> <Gold.PLP.part.repulsive>
0.0765

> <Gold.PLP.ligand.clash>
0.0000

> <Gold.PLP.ligand.torsion>
0.4691

> <Gold.PLP.Chemscore.Hbond>
1.8640

> <Gold.PLP.Chemscore.CHOScore>
0.0000

> <Gold.PLP.Chemscore.Metal>
0.0000

> <Gold.Chemscore.Hbonds>
donor molecule, donor type, donor heavy atom, donor atom, acceptor molecule, acceptor atom, score
      P1  H  6896  6907       L1     3  0.88
      P1  H  7989  7998       L1    16  0.82

> <Gold.PLP.Chemscore.Internal.Correction>
0.0538

> <Gold.Rescore>
     Score         DG    S(hbond)    S(metal)    S(lipo)     H(rot)  DE(clash)    DE(int)     intcor
     16.74     -17.46       1.66        0.00     117.67       2.86       0.33       0.39       ----

> <Gold.Chemscore.Fitness>
16.7401

> <Gold.Chemscore.DG>
-17.4566

> <Gold.Chemscore.ZeroCoef>
-5.4800

> <Gold.Chemscore.Hbond>
1.6564

> <Gold.Chemscore.Metal>
0.0000

> <Gold.Chemscore.Lipo>
117.6699

> <Gold.Chemscore.Internal_Hbond>
0.0000

> <Gold.Chemscore.DEClash>
0.3271

> <Gold.Chemscore.DEInternal>
0.3894

> <Gold.Chemscore.Rot>
2.8606

> <Gold.Chemscore.Internal.Correction>
   9.000000E+99

> <Gold.Chemscore.Hbonds>
donor molecule, donor type, donor heavy atom, donor atom, acceptor molecule, acceptor atom, score
      P1  H  6896  6907       L1     3  0.38
      P1  H  7989  7998       L1    16  0.15

> <Gold.Chemscore.Hbond.Weighted>
-5.5323

> <Gold.Chemscore.Metal.Weighted>
-0.0000

> <Gold.Chemscore.Lipo.Weighted>
-13.7674

> <Gold.Chemscore.Internal_Hbond.Weighted>
0.0000

> <Gold.Chemscore.DEClash.Weighted>
0.3271

> <Gold.Chemscore.DEInternal.Weighted>
0.3894

> <Gold.Chemscore.Rot.Weighted>
7.3231

> <Gold.Chemscore.Internal.Correction.Weighted>
   9.000000E+99

> <Gold.Protein.RotatedTorsions>
[ 6907 6896 6895 6894 ] final   -0.40 input  -60.11 | X-H torsion
[ 7974 7965 7964 7962 ] final  -40.93 input  175.53 | X-H torsion
[ 8008 7997 7996 7995 ] final   63.74 input   59.86 | X-H torsion
[ 10167 10162 10161 10158 ] final -157.02 input  -65.29 | X-H torsion
[ 10718 10713 10712 10709 ] final -174.99 input   66.30 | X-H torsion
[ 10763 10752 10751 10750 ] final -115.05 input  -60.55 | X-H torsion
[ 11005 11000 10999 10996 ] final   12.39 input  -57.11 | X-H torsion

> <Gold.Protein.ActiveResidues>
 VAL166  LYS551  ARG553  GLY616  TRP617  ASP618  TYR619  PRO620  LYS621  CYS622 
 ASP623  PHE694  ASN695  SER759  ASP760  ASP761  ALA762  ILE779  LEU786  VAL792 
 PHE793  MET794  SER795  GLU796  ALA797  LYS798  CYS799  TRP800  GLU811  SER814 

> <Gold.Protein.RotatedAtoms>
  151.5628  135.1065  159.9976 H   0  0  0  0  0  0  0  0  0  0  0  0  # atno 6907 bound_to 6896
  152.4438  133.7494  159.6696 H   0  0  0  0  0  0  0  0  0  0  0  0  # atno 6908 bound_to 6896
  150.8349  133.7961  159.3107 H   0  0  0  0  0  0  0  0  0  0  0  0  # atno 6909 bound_to 6896
  146.0259  140.6793  142.9156 H   0  0  0  0  0  0  0  0  0  0  0  0  # atno 7974 bound_to 7965
  155.6349  140.3496  155.4695 H   0  0  0  0  0  0  0  0  0  0  0  0  # atno 8008 bound_to 7997
  155.9973  140.1206  157.0605 H   0  0  0  0  0  0  0  0  0  0  0  0  # atno 8009 bound_to 7997
  154.4237  140.1107  156.5634 H   0  0  0  0  0  0  0  0  0  0  0  0  # atno 8010 bound_to 7997
  139.6803  143.9592  152.2333 H   0  0  0  0  0  0  0  0  0  0  0  0  # atno 10167 bound_to 10162
  156.7932  130.9525  151.3120 H   0  0  0  0  0  0  0  0  0  0  0  0  # atno 10718 bound_to 10713
  154.8465  135.4396  154.1602 H   0  0  0  0  0  0  0  0  0  0  0  0  # atno 10763 bound_to 10752
  153.2740  135.6948  153.7457 H   0  0  0  0  0  0  0  0  0  0  0  0  # atno 10764 bound_to 10752
  153.6687  135.3422  155.3122 H   0  0  0  0  0  0  0  0  0  0  0  0  # atno 10765 bound_to 10752
  140.4926  134.0825  155.7775 H   0  0  0  0  0  0  0  0  0  0  0  0  # atno 11005 bound_to 11000
  144.7009  140.3648  143.7157 LP  0  0  0  0  0  0  0  0  0  0  0  0  # atno 17320 bound_to 7965
  145.7119  139.1687  143.2534 LP  0  0  0  0  0  0  0  0  0  0  0  0  # atno 17321 bound_to 7965
  139.9380  144.6699  150.8295 LP  0  0  0  0  0  0  0  0  0  0  0  0  # atno 17342 bound_to 10162
  140.7650  143.3263  151.2508 LP  0  0  0  0  0  0  0  0  0  0  0  0  # atno 17343 bound_to 10162
  157.6590  130.8950  149.9790 LP  0  0  0  0  0  0  0  0  0  0  0  0  # atno 17370 bound_to 10713
  156.1146  130.3648  149.9990 LP  0  0  0  0  0  0  0  0  0  0  0  0  # atno 17371 bound_to 10713
  141.1476  133.9026  157.2176 LP  0  0  0  0  0  0  0  0  0  0  0  0  # atno 17394 bound_to 11000
  139.9760  135.0113  156.9633 LP  0  0  0  0  0  0  0  0  0  0  0  0  # atno 17395 bound_to 11000

$$$$
