AV-unprocessed.smi:1803|AV-procd|sdf|7284|dock4
  -GOLD-   22720 8543D 1   1.00000     0.00000
 Structure written by MMmdl.
 36 38  0  0  0  0  0  0  0  0  2 V2000
  148.7474  144.0106  161.1881 O   0  0  0  0  0  0  0  0  0  0  0  0
  148.4721  144.5231  160.1048 C   0  0  0  0  0  0  0  0  0  0  0  0
  147.1898  144.7564  159.7513 N   0  0  0  0  0  0  0  0  0  0  0  0
  145.9595  144.5152  160.4307 C   0  0  0  0  0  0  0  0  0  0  0  0
  144.7633  144.9753  160.0280 N   0  0  0  0  0  0  0  0  0  0  0  0
  143.7404  144.5975  160.8871 N   0  0  0  0  0  0  0  0  0  0  0  0
  144.2027  143.8725  161.9093 C   0  0  0  0  0  0  0  0  0  0  0  0
  145.9332  143.5809  161.9202 S   0  0  0  0  0  0  0  0  0  0  0  0
  149.4116  144.8777  159.2127 N   0  0  0  0  0  0  0  0  0  0  0  0
  150.8524  144.7291  159.3890 C   0  0  1  0  0  0  0  0  0  0  0  0
  151.3515  145.2998  160.7286 C   0  0  0  0  0  0  0  0  0  0  0  0
  152.4436  144.3235  161.2084 C   0  0  0  0  0  0  0  0  0  0  0  0
  152.5948  143.3403  160.1190 N   0  3  1  0  0  0  0  0  0  0  0  0
  153.1388  142.0129  160.4797 C   0  0  0  0  0  0  0  0  0  0  0  0
  153.2995  141.1654  159.2018 C   0  0  0  0  0  0  0  0  0  0  0  0
  151.9877  141.0949  158.3937 C   0  0  0  0  0  0  0  0  0  0  0  0
  151.4189  142.5029  158.1309 C   0  0  0  0  0  0  0  0  0  0  0  0
  151.2813  143.2613  159.4620 C   0  0  2  0  0  0  0  0  0  0  0  0
  147.0799  145.1475  158.8268 H   0  0  0  0  0  0  0  0  0  0  0  0
  143.5201  143.5082  162.6628 H   0  0  0  0  0  0  0  0  0  0  0  0
  149.0989  145.2896  158.3446 H   0  0  0  0  0  0  0  0  0  0  0  0
  151.3924  145.2279  158.5812 H   0  0  0  0  0  0  0  0  0  0  0  0
  151.7379  146.3119  160.6031 H   0  0  0  0  0  0  0  0  0  0  0  0
  150.5497  145.3456  161.4673 H   0  0  0  0  0  0  0  0  0  0  0  0
  153.3904  144.8244  161.4119 H   0  0  0  0  0  0  0  0  0  0  0  0
  152.1214  143.8227  162.1229 H   0  0  0  0  0  0  0  0  0  0  0  0
  154.1027  142.1340  160.9752 H   0  0  0  0  0  0  0  0  0  0  0  0
  152.4718  141.5170  161.1867 H   0  0  0  0  0  0  0  0  0  0  0  0
  154.0816  141.6005  158.5781 H   0  0  0  0  0  0  0  0  0  0  0  0
  153.6355  140.1605  159.4588 H   0  0  0  0  0  0  0  0  0  0  0  0
  152.1553  140.5752  157.4499 H   0  0  0  0  0  0  0  0  0  0  0  0
  151.2540  140.5050  158.9449 H   0  0  0  0  0  0  0  0  0  0  0  0
  152.0756  143.0491  157.4524 H   0  0  0  0  0  0  0  0  0  0  0  0
  150.4509  142.4244  157.6356 H   0  0  0  0  0  0  0  0  0  0  0  0
  150.5962  142.7202  160.1192 H   0  0  0  0  0  0  0  0  0  0  0  0
  153.2255  143.7519  159.4460 H   0  0  0  0  0  0  0  0  0  0  0  0
  1  2  2  0  0  0  0
  2  3  1  0  0  0  0
  2  9  1  0  0  0  0
  3  4  1  0  0  0  0
  3 19  1  0  0  0  0
  4  8  1  0  0  0  0
  4  5  2  0  0  0  0
  5  6  1  0  0  0  0
  6  7  2  0  0  0  0
  7  8  1  0  0  0  0
  7 20  1  0  0  0  0
  9 10  1  0  0  0  0
  9 21  1  0  0  0  0
 10 18  1  0  0  0  0
 10 11  1  0  0  0  0
 10 22  1  0  0  0  0
 11 12  1  0  0  0  0
 11 23  1  0  0  0  0
 11 24  1  0  0  0  0
 12 13  1  0  0  0  0
 12 25  1  0  0  0  0
 12 26  1  0  0  0  0
 13 18  1  0  0  0  0
 13 14  1  0  0  0  0
 13 36  1  0  0  0  0
 14 15  1  0  0  0  0
 14 27  1  0  0  0  0
 14 28  1  0  0  0  0
 15 16  1  0  0  0  0
 15 29  1  0  0  0  0
 15 30  1  0  0  0  0
 16 17  1  0  0  0  0
 16 31  1  0  0  0  0
 16 32  1  0  0  0  0
 17 18  1  0  0  0  0
 17 33  1  0  0  0  0
 17 34  1  0  0  0  0
 18 35  1  0  0  0  0
M  CHG  1  13   1
M  END
> <s_m_source_file>
AV-unprocessed.smi

> <i_m_source_file_index>
1803

> <i_lp_mmshare_version>
43012

> <i_f3d_flags>
0

> <s_epik_input>
czFbY0hdbm5jMVtOSF1DKD1PKVtOSF1bQ0BIXShbQ0gyXVtDSDJdMilbQ0BASF0oTjIzKVtDSDJdW0NIMl1bQ0gyXVtDSDJdMw==

> <s_epik_cmdline>
J2VwaWtfcHl0aG9uJywgJy1waCcsICc3LjAnLCAnLXRuJywgJzgnLCAnLW1hJywgJzIwMCcsICctbWV0YWxfYmluZGluZycsICctaW1hZScsICc8aW5maWxlLm1hZT4nLCAnLW9tYWUnLCAnPG91dGZpbGUubWFlPic=

> <r_lp_tautomer_probability>
1

> <r_epik_Ionization_Penalty>
0.00213286

> <r_epik_Ionization_Penalty_Charging>
0.00107044

> <r_epik_Ionization_Penalty_Neutral>
0.00106242

> <r_epik_State_Penalty>
-0

> <r_epik_Charging_Adjusted_Penalty>
0.00107044

> <i_epik_Tot_Q>
1

> <i_epik_Tot_abs_Q>
1

> <r_epik_Metal_State_Penalty>
0.292783

> <b_epik_Metal_Only>
0

> <s_lp_Force_Field>
OPLS_2005

> <r_lp_Energy>
35.8309

> <b_lp_Chiralities_Consistent>
1

> <s_lp_Variant>
AV-unprocessed.smi:1803-6

> <Gold.Version>
5.8.1

> <Gold.Id.Protein>
6NUR|6NUR_protein|mol2

> <Gold.PLP.Fitness>
41.5158

> <Gold.PLP.PLP>
-33.4378

> <Gold.PLP.part.hbond>
-2.8484

> <Gold.PLP.part.metal>
0.0000

> <Gold.PLP.part.buried>
-5.3521

> <Gold.PLP.part.nonpolar>
-26.1617

> <Gold.PLP.part.repulsive>
0.7199

> <Gold.PLP.ligand.clash>
0.0000

> <Gold.PLP.ligand.torsion>
0.0818

> <Gold.PLP.Chemscore.Hbond>
2.7440

> <Gold.PLP.Chemscore.CHOScore>
0.0000

> <Gold.PLP.Chemscore.Metal>
0.0000

> <Gold.Chemscore.Hbonds>
donor molecule, donor type, donor heavy atom, donor atom, acceptor molecule, acceptor atom, score
      L1  H     3    19       P1  8029  0.99
      L1  H     9    21       P1  8029  1.00
      P1  H  6933  6944       L1     1  0.74

> <Gold.PLP.Chemscore.Internal.Correction>
0.0095

> <Gold.Rescore>
     Score         DG    S(hbond)    S(metal)    S(lipo)     H(rot)  DE(clash)    DE(int)     intcor
     19.08     -22.63       2.59        0.00      94.55       1.00       1.07       2.48       ----

> <Gold.Chemscore.Fitness>
19.0840

> <Gold.Chemscore.DG>
-22.6322

> <Gold.Chemscore.ZeroCoef>
-5.4800

> <Gold.Chemscore.Hbond>
2.5898

> <Gold.Chemscore.Metal>
0.0000

> <Gold.Chemscore.Lipo>
94.5487

> <Gold.Chemscore.Internal_Hbond>
0.0000

> <Gold.Chemscore.DEClash>
1.0708

> <Gold.Chemscore.DEInternal>
2.4774

> <Gold.Chemscore.Rot>
1.0000

> <Gold.Chemscore.Internal.Correction>
   9.000000E+99

> <Gold.Chemscore.Hbonds>
donor molecule, donor type, donor heavy atom, donor atom, acceptor molecule, acceptor atom, score
      L1  H     3    19       P1  8029  0.94
      L1  H     9    21       P1  8029  0.84
      P1  H  6933  6944       L1     1  0.73

> <Gold.Chemscore.Hbond.Weighted>
-8.6500

> <Gold.Chemscore.Metal.Weighted>
-0.0000

> <Gold.Chemscore.Lipo.Weighted>
-11.0622

> <Gold.Chemscore.Internal_Hbond.Weighted>
0.0000

> <Gold.Chemscore.DEClash.Weighted>
1.0708

> <Gold.Chemscore.DEInternal.Weighted>
2.4774

> <Gold.Chemscore.Rot.Weighted>
2.5600

> <Gold.Chemscore.Internal.Correction.Weighted>
   9.000000E+99

> <Gold.Protein.RotatedTorsions>
[ 6907 6896 6895 6894 ] final -143.24 input  -60.11 | X-H torsion
[ 7974 7965 7964 7962 ] final  169.67 input  175.53 | X-H torsion
[ 8008 7997 7996 7995 ] final   77.73 input   59.86 | X-H torsion
[ 10167 10162 10161 10158 ] final -144.73 input  -65.29 | X-H torsion
[ 10718 10713 10712 10709 ] final   98.00 input   66.30 | X-H torsion
[ 10763 10752 10751 10750 ] final   10.82 input  -60.55 | X-H torsion
[ 11005 11000 10999 10996 ] final   -5.40 input  -57.11 | X-H torsion

> <Gold.Protein.ActiveResidues>
 VAL166  LYS551  ARG553  GLY616  TRP617  ASP618  TYR619  PRO620  LYS621  CYS622 
 ASP623  PHE694  ASN695  SER759  ASP760  ASP761  ALA762  ILE779  LEU786  VAL792 
 PHE793  MET794  SER795  GLU796  ALA797  LYS798  CYS799  TRP800  GLU811  SER814 

> <Gold.Protein.RotatedAtoms>
  151.0978  133.5267  159.2611 H   0  0  0  0  0  0  0  0  0  0  0  0  # atno 6907 bound_to 6896
  151.2109  135.0480  159.8921 H   0  0  0  0  0  0  0  0  0  0  0  0  # atno 6908 bound_to 6896
  152.5440  134.0793  159.8282 H   0  0  0  0  0  0  0  0  0  0  0  0  # atno 6909 bound_to 6896
  144.7347  139.9089  143.6414 H   0  0  0  0  0  0  0  0  0  0  0  0  # atno 7974 bound_to 7965
  155.8457  140.3460  155.5660 H   0  0  0  0  0  0  0  0  0  0  0  0  # atno 8008 bound_to 7997
  155.8092  140.0896  157.1933 H   0  0  0  0  0  0  0  0  0  0  0  0  # atno 8009 bound_to 7997
  154.4006  140.1451  156.3354 H   0  0  0  0  0  0  0  0  0  0  0  0  # atno 8010 bound_to 7997
  139.7872  143.8017  152.2646 H   0  0  0  0  0  0  0  0  0  0  0  0  # atno 10167 bound_to 10162
  157.6903  131.0627  150.4730 H   0  0  0  0  0  0  0  0  0  0  0  0  # atno 10718 bound_to 10713
  153.1992  135.6853  153.8253 H   0  0  0  0  0  0  0  0  0  0  0  0  # atno 10763 bound_to 10752
  153.7526  135.3221  155.3324 H   0  0  0  0  0  0  0  0  0  0  0  0  # atno 10764 bound_to 10752
  154.8161  135.4684  154.0750 H   0  0  0  0  0  0  0  0  0  0  0  0  # atno 10765 bound_to 10752
  140.6907  133.9073  155.8616 H   0  0  0  0  0  0  0  0  0  0  0  0  # atno 11005 bound_to 11000
  146.1016  139.4012  143.0343 LP  0  0  0  0  0  0  0  0  0  0  0  0  # atno 17320 bound_to 7965
  145.7570  140.9950  143.1220 LP  0  0  0  0  0  0  0  0  0  0  0  0  # atno 17321 bound_to 7965
  139.8097  144.7340  150.9713 LP  0  0  0  0  0  0  0  0  0  0  0  0  # atno 17342 bound_to 10162
  140.7820  143.4262  151.0764 LP  0  0  0  0  0  0  0  0  0  0  0  0  # atno 17343 bound_to 10162
  156.5066  130.4129  149.6324 LP  0  0  0  0  0  0  0  0  0  0  0  0  # atno 17370 bound_to 10713
  156.3279  130.7315  151.2239 LP  0  0  0  0  0  0  0  0  0  0  0  0  # atno 17371 bound_to 10713
  141.0243  134.0845  157.4085 LP  0  0  0  0  0  0  0  0  0  0  0  0  # atno 17394 bound_to 11000
  139.8924  135.0124  156.6845 LP  0  0  0  0  0  0  0  0  0  0  0  0  # atno 17395 bound_to 11000

$$$$
