AV-unprocessed.smi:2753|AV-procd|sdf|10611|dock3
  -GOLD-   2272015 63D 1   1.00000     0.00000
 Structure written by MMmdl.
 28 29  0  0  0  0  0  0  0  0  2 V2000
  152.2880  144.4705  157.2753 F   0  0  0  0  0  0  0  0  0  0  0  0
  151.6155  143.6406  158.0720 C   0  0  0  0  0  0  0  0  0  0  0  0
  152.3962  143.3637  159.1156 F   0  0  0  0  0  0  0  0  0  0  0  0
  150.5499  144.2971  158.5286 F   0  0  0  0  0  0  0  0  0  0  0  0
  151.2139  142.3951  157.3529 C   0  0  0  0  0  0  0  0  0  0  0  0
  151.4903  141.0688  157.5990 C   0  0  0  0  0  0  0  0  0  0  0  0
  150.8830  140.2710  156.6275 N   0  0  0  0  0  0  0  0  0  0  0  0
  150.2585  141.1280  155.8240 C   0  0  0  0  0  0  0  0  0  0  0  0
  149.4540  140.7575  154.6165 C   0  0  2  0  0  0  0  0  0  0  0  0
  148.0082  141.2834  154.7022 C   0  0  0  0  0  0  0  0  0  0  0  0
  147.2073  140.8664  153.4590 C   0  0  0  0  0  0  0  0  0  0  0  0
  147.2721  139.3447  153.2487 C   0  0  0  0  0  0  0  0  0  0  0  0
  148.6765  138.8893  153.1608 N   0  3  0  0  0  0  0  0  0  0  0  0
  149.4723  139.2363  154.3591 C   0  0  0  0  0  0  0  0  0  0  0  0
  150.4249  142.3972  156.2150 N   0  0  0  0  0  0  0  0  0  0  0  0
  150.0421  143.2157  155.7635 H   0  0  0  0  0  0  0  0  0  0  0  0
  152.0761  140.6293  158.3931 H   0  0  0  0  0  0  0  0  0  0  0  0
  149.9249  141.2390  153.7574 H   0  0  0  0  0  0  0  0  0  0  0  0
  147.5208  140.8895  155.5953 H   0  0  0  0  0  0  0  0  0  0  0  0
  148.0058  142.3697  154.7998 H   0  0  0  0  0  0  0  0  0  0  0  0
  146.1696  141.1853  153.5603 H   0  0  0  0  0  0  0  0  0  0  0  0
  147.6028  141.3761  152.5794 H   0  0  0  0  0  0  0  0  0  0  0  0
  146.7770  138.8264  154.0709 H   0  0  0  0  0  0  0  0  0  0  0  0
  146.7485  139.0654  152.3341 H   0  0  0  0  0  0  0  0  0  0  0  0
  148.6884  137.8865  153.0397 H   0  0  0  0  0  0  0  0  0  0  0  0
  150.4951  138.8872  154.2146 H   0  0  0  0  0  0  0  0  0  0  0  0
  149.0700  138.6971  155.2179 H   0  0  0  0  0  0  0  0  0  0  0  0
  149.1042  139.3199  152.3534 H   0  0  0  0  0  0  0  0  0  0  0  0
  1  2  1  0  0  0  0
  2  3  1  0  0  0  0
  2  4  1  0  0  0  0
  2  5  1  0  0  0  0
  5  6  2  0  0  0  0
  5 15  1  0  0  0  0
  6 17  1  0  0  0  0
  6  7  1  0  0  0  0
  7  8  2  0  0  0  0
  8 15  1  0  0  0  0
  8  9  1  0  0  0  0
  9 14  1  0  0  0  0
  9 10  1  0  0  0  0
  9 18  1  0  0  0  0
 10 11  1  0  0  0  0
 10 19  1  0  0  0  0
 10 20  1  0  0  0  0
 11 12  1  0  0  0  0
 11 21  1  0  0  0  0
 11 22  1  0  0  0  0
 12 13  1  0  0  0  0
 12 23  1  0  0  0  0
 12 24  1  0  0  0  0
 13 14  1  0  0  0  0
 13 25  1  0  0  0  0
 13 28  1  0  0  0  0
 14 26  1  0  0  0  0
 14 27  1  0  0  0  0
 15 16  1  0  0  0  0
M  CHG  1  13   1
M  END
> <s_m_source_file>
AV-unprocessed.smi

> <i_m_source_file_index>
2753

> <i_lp_mmshare_version>
43012

> <i_f3d_flags>
0

> <s_epik_input>
RkMoRikoRiljMVtjSF1bbkhdYyhuMSlbQ0BASF0yW0NIMl1bQ0gyXVtDSDJdW05IXVtDSDJdMg==

> <s_epik_cmdline>
J2VwaWtfcHl0aG9uJywgJy1waCcsICc3LjAnLCAnLXRuJywgJzgnLCAnLW1hJywgJzIwMCcsICctbWV0YWxfYmluZGluZycsICctaW1hZScsICc8aW5maWxlLm1hZT4nLCAnLW9tYWUnLCAnPG91dGZpbGUubWFlPic=

> <r_lp_tautomer_probability>
0.5

> <r_epik_Ionization_Penalty>
0.0187699

> <r_epik_Ionization_Penalty_Charging>
0.00116734

> <r_epik_Ionization_Penalty_Neutral>
0.0176026

> <r_epik_State_Penalty>
1.08926

> <r_epik_Charging_Adjusted_Penalty>
1.09042

> <i_epik_Tot_Q>
1

> <i_epik_Tot_abs_Q>
1

> <r_epik_Metal_State_Penalty>
1.1514

> <b_epik_Metal_Only>
0

> <s_lp_Force_Field>
OPLS_2005

> <r_lp_Energy>
13.0643

> <b_lp_Chiralities_Consistent>
1

> <s_lp_Variant>
AV-unprocessed.smi:2753-3

> <Gold.Version>
5.8.1

> <Gold.Id.Protein>
6NUR|6NUR_protein|mol2

> <Gold.PLP.Fitness>
47.0415

> <Gold.PLP.PLP>
-35.2749

> <Gold.PLP.part.hbond>
-2.9319

> <Gold.PLP.part.metal>
0.0000

> <Gold.PLP.part.buried>
-5.1475

> <Gold.PLP.part.nonpolar>
-28.7112

> <Gold.PLP.part.repulsive>
0.1746

> <Gold.PLP.ligand.clash>
0.0000

> <Gold.PLP.ligand.torsion>
0.0204

> <Gold.PLP.Chemscore.Hbond>
3.9265

> <Gold.PLP.Chemscore.CHOScore>
0.0000

> <Gold.PLP.Chemscore.Metal>
0.0000

> <Gold.Chemscore.Hbonds>
donor molecule, donor type, donor heavy atom, donor atom, acceptor molecule, acceptor atom, score
      L1  H    13    25       P1  7948  1.98
      L1  H    13    28       P1  7957  0.86
      L1  H    15    16       P1  8028  1.00

> <Gold.PLP.Chemscore.Internal.Correction>
0.0279

> <Gold.Rescore>
     Score         DG    S(hbond)    S(metal)    S(lipo)     H(rot)  DE(clash)    DE(int)     intcor
     19.36     -19.45       2.97        0.00      56.41       1.00       0.08       0.01       ----

> <Gold.Chemscore.Fitness>
19.3590

> <Gold.Chemscore.DG>
-19.4502

> <Gold.Chemscore.ZeroCoef>
-5.4800

> <Gold.Chemscore.Hbond>
2.9732

> <Gold.Chemscore.Metal>
0.0000

> <Gold.Chemscore.Lipo>
56.4068

> <Gold.Chemscore.Internal_Hbond>
0.0000

> <Gold.Chemscore.DEClash>
0.0763

> <Gold.Chemscore.DEInternal>
0.0149

> <Gold.Chemscore.Rot>
1.0000

> <Gold.Chemscore.Internal.Correction>
   9.000000E+99

> <Gold.Chemscore.Hbonds>
donor molecule, donor type, donor heavy atom, donor atom, acceptor molecule, acceptor atom, score
      L1  H    13    25       P1  7948  0.88
      L1  H    13    28       P1  7957  0.84
      L1  H    15    16       P1  8028  0.97

> <Gold.Chemscore.Hbond.Weighted>
-9.9306

> <Gold.Chemscore.Metal.Weighted>
-0.0000

> <Gold.Chemscore.Lipo.Weighted>
-6.5996

> <Gold.Chemscore.Internal_Hbond.Weighted>
0.0000

> <Gold.Chemscore.DEClash.Weighted>
0.0763

> <Gold.Chemscore.DEInternal.Weighted>
0.0149

> <Gold.Chemscore.Rot.Weighted>
2.5600

> <Gold.Chemscore.Internal.Correction.Weighted>
   9.000000E+99

> <Gold.Protein.RotatedTorsions>
[ 6907 6896 6895 6894 ] final  -37.76 input  -60.11 | X-H torsion
[ 7974 7965 7964 7962 ] final  126.34 input  175.53 | X-H torsion
[ 8008 7997 7996 7995 ] final -163.61 input   59.86 | X-H torsion
[ 10167 10162 10161 10158 ] final -147.51 input  -65.29 | X-H torsion
[ 10718 10713 10712 10709 ] final -115.02 input   66.30 | X-H torsion
[ 10763 10752 10751 10750 ] final  -72.19 input  -60.55 | X-H torsion
[ 11005 11000 10999 10996 ] final  144.61 input  -57.11 | X-H torsion

> <Gold.Protein.ActiveResidues>
 VAL166  LYS551  ARG553  GLY616  TRP617  ASP618  TYR619  PRO620  LYS621  CYS622 
 ASP623  PHE694  ASN695  SER759  ASP760  ASP761  ALA762  ILE779  LEU786  VAL792 
 PHE793  MET794  SER795  GLU796  ALA797  LYS798  CYS799  TRP800  GLU811  SER814 

> <Gold.Protein.RotatedAtoms>
  151.0107  134.9394  159.8005 H   0  0  0  0  0  0  0  0  0  0  0  0  # atno 6907 bound_to 6896
  152.5301  134.3032  159.9096 H   0  0  0  0  0  0  0  0  0  0  0  0  # atno 6908 bound_to 6896
  151.3038  133.4068  159.2676 H   0  0  0  0  0  0  0  0  0  0  0  0  # atno 6909 bound_to 6896
  145.0628  139.3791  143.4997 H   0  0  0  0  0  0  0  0  0  0  0  0  # atno 7974 bound_to 7965
  155.8238  140.0923  157.1833 H   0  0  0  0  0  0  0  0  0  0  0  0  # atno 8008 bound_to 7997
  154.3979  140.1432  156.3592 H   0  0  0  0  0  0  0  0  0  0  0  0  # atno 8009 bound_to 7997
  155.8238  140.3445  155.5533 H   0  0  0  0  0  0  0  0  0  0  0  0  # atno 8010 bound_to 7997
  139.7615  143.8370  152.2608 H   0  0  0  0  0  0  0  0  0  0  0  0  # atno 10167 bound_to 10162
  156.0868  130.6058  150.8851 H   0  0  0  0  0  0  0  0  0  0  0  0  # atno 10718 bound_to 10713
  154.4422  135.5938  153.6137 H   0  0  0  0  0  0  0  0  0  0  0  0  # atno 10763 bound_to 10752
  152.9806  135.6001  154.3708 H   0  0  0  0  0  0  0  0  0  0  0  0  # atno 10764 bound_to 10752
  154.3559  135.2841  155.2325 H   0  0  0  0  0  0  0  0  0  0  0  0  # atno 10765 bound_to 10752
  140.0646  134.9186  157.1242 H   0  0  0  0  0  0  0  0  0  0  0  0  # atno 11005 bound_to 11000
  146.3525  140.0334  142.8648 LP  0  0  0  0  0  0  0  0  0  0  0  0  # atno 17320 bound_to 7965
  145.1388  140.9559  143.4501 LP  0  0  0  0  0  0  0  0  0  0  0  0  # atno 17321 bound_to 7965
  139.8377  144.7224  150.9370 LP  0  0  0  0  0  0  0  0  0  0  0  0  # atno 17342 bound_to 10162
  140.7807  143.4011  151.1147 LP  0  0  0  0  0  0  0  0  0  0  0  0  # atno 17343 bound_to 10162
  157.6005  131.0941  150.8969 LP  0  0  0  0  0  0  0  0  0  0  0  0  # atno 17370 bound_to 10713
  156.9127  130.5286  149.5280 LP  0  0  0  0  0  0  0  0  0  0  0  0  # atno 17371 bound_to 10713
  140.3718  134.2382  155.7177 LP  0  0  0  0  0  0  0  0  0  0  0  0  # atno 17394 bound_to 11000
  141.1987  133.8028  157.0569 LP  0  0  0  0  0  0  0  0  0  0  0  0  # atno 17395 bound_to 11000

$$$$
