AV-unprocessed.smi:2271|AV-procd|sdf|9160|dock7
  -GOLD-   2272012373D 1   1.00000     0.00000
 Structure written by MMmdl.
 46 47  0  0  0  0  0  0  0  0  2 V2000
  153.4223  141.1817  160.1935 C   0  0  0  0  0  0  0  0  0  0  0  0
  152.6575  142.3554  159.6187 C   0  0  0  0  0  0  0  0  0  0  0  0
  152.7200  143.6275  160.2207 C   0  0  0  0  0  0  0  0  0  0  0  0
  151.9879  144.6752  159.6338 C   0  0  0  0  0  0  0  0  0  0  0  0
  151.2295  144.4101  158.4772 C   0  0  0  0  0  0  0  0  0  0  0  0
  151.2215  143.1048  157.9357 C   0  0  0  0  0  0  0  0  0  0  0  0
  150.4210  142.9387  156.7742 N   0  0  0  0  0  0  0  0  0  0  0  0
  150.2266  141.8200  156.0538 C   0  0  0  0  0  0  0  0  0  0  0  0
  150.7717  140.7354  156.2613 O   0  0  0  0  0  0  0  0  0  0  0  0
  149.3441  142.0254  155.0646 N   0  0  0  0  0  0  0  0  0  0  0  0
  148.9077  141.0202  154.0993 C   0  0  0  0  0  0  0  0  0  0  0  0
  148.7433  139.6205  154.7301 C   0  0  2  0  0  0  0  0  0  0  0  0
  149.9832  138.7207  154.5498 C   0  0  0  0  0  0  0  0  0  0  0  0
  149.7576  137.3165  155.1325 C   0  0  0  0  0  0  0  0  0  0  0  0
  148.5637  136.6715  154.5313 N   0  3  1  0  0  0  0  0  0  0  0  0
  148.4057  135.2598  154.9643 C   0  0  0  0  0  0  0  0  0  0  0  0
  147.2115  134.5680  154.2861 C   0  0  0  0  0  0  0  0  0  0  0  0
  147.4431  134.4609  152.8976 O   0  0  0  0  0  0  0  0  0  0  0  0
  147.3432  137.4931  154.7397 C   0  0  0  0  0  0  0  0  0  0  0  0
  147.5169  138.8993  154.1426 C   0  0  0  0  0  0  0  0  0  0  0  0
  151.9303  142.1009  158.5099 N   0  0  0  0  0  0  0  0  0  0  0  0
  153.8757  141.4357  161.1520 H   0  0  0  0  0  0  0  0  0  0  0  0
  154.2159  140.8783  159.5100 H   0  0  0  0  0  0  0  0  0  0  0  0
  152.7575  140.3312  160.3478 H   0  0  0  0  0  0  0  0  0  0  0  0
  153.3120  143.7988  161.1078 H   0  0  0  0  0  0  0  0  0  0  0  0
  152.0070  145.6662  160.0626 H   0  0  0  0  0  0  0  0  0  0  0  0
  150.6615  145.2040  158.0143 H   0  0  0  0  0  0  0  0  0  0  0  0
  149.9238  143.7622  156.4693 H   0  0  0  0  0  0  0  0  0  0  0  0
  148.9469  142.9486  154.9681 H   0  0  0  0  0  0  0  0  0  0  0  0
  147.9501  141.3539  153.6983 H   0  0  0  0  0  0  0  0  0  0  0  0
  149.5898  140.9774  153.2482 H   0  0  0  0  0  0  0  0  0  0  0  0
  148.5742  139.7522  155.8002 H   0  0  0  0  0  0  0  0  0  0  0  0
  150.2314  138.6419  153.4903 H   0  0  0  0  0  0  0  0  0  0  0  0
  150.8511  139.1638  155.0379 H   0  0  0  0  0  0  0  0  0  0  0  0
  150.6419  136.7076  154.9409 H   0  0  0  0  0  0  0  0  0  0  0  0
  149.6381  137.3716  156.2157 H   0  0  0  0  0  0  0  0  0  0  0  0
  149.3077  134.6939  154.7263 H   0  0  0  0  0  0  0  0  0  0  0  0
  148.3011  135.2214  156.0495 H   0  0  0  0  0  0  0  0  0  0  0  0
  147.0898  133.5627  154.6899 H   0  0  0  0  0  0  0  0  0  0  0  0
  146.2743  135.0941  154.4635 H   0  0  0  0  0  0  0  0  0  0  0  0
  148.0411  135.1456  152.6375 H   0  0  0  0  0  0  0  0  0  0  0  0
  146.4808  137.0172  154.2746 H   0  0  0  0  0  0  0  0  0  0  0  0
  147.1265  137.5627  155.8069 H   0  0  0  0  0  0  0  0  0  0  0  0
  146.6164  139.4865  154.3264 H   0  0  0  0  0  0  0  0  0  0  0  0
  147.6176  138.8223  153.0587 H   0  0  0  0  0  0  0  0  0  0  0  0
  148.7344  136.6402  153.5359 H   0  0  0  0  0  0  0  0  0  0  0  0
  1  2  1  0  0  0  0
  1 22  1  0  0  0  0
  1 23  1  0  0  0  0
  1 24  1  0  0  0  0
  2 21  1  0  0  0  0
  2  3  2  0  0  0  0
  3  4  1  0  0  0  0
  3 25  1  0  0  0  0
  4  5  2  0  0  0  0
  4 26  1  0  0  0  0
  5  6  1  0  0  0  0
  5 27  1  0  0  0  0
  6  7  1  0  0  0  0
  6 21  2  0  0  0  0
  7  8  1  0  0  0  0
  7 28  1  0  0  0  0
  8  9  2  0  0  0  0
  8 10  1  0  0  0  0
 10 11  1  0  0  0  0
 10 29  1  0  0  0  0
 11 12  1  0  0  0  0
 11 30  1  0  0  0  0
 11 31  1  0  0  0  0
 12 20  1  0  0  0  0
 12 13  1  0  0  0  0
 12 32  1  0  0  0  0
 13 14  1  0  0  0  0
 13 33  1  0  0  0  0
 13 34  1  0  0  0  0
 14 15  1  0  0  0  0
 14 35  1  0  0  0  0
 14 36  1  0  0  0  0
 15 16  1  0  0  0  0
 15 19  1  0  0  0  0
 15 46  1  0  0  0  0
 16 17  1  0  0  0  0
 16 37  1  0  0  0  0
 16 38  1  0  0  0  0
 17 18  1  0  0  0  0
 17 39  1  0  0  0  0
 17 40  1  0  0  0  0
 18 41  1  0  0  0  0
 19 20  1  0  0  0  0
 19 42  1  0  0  0  0
 19 43  1  0  0  0  0
 20 44  1  0  0  0  0
 20 45  1  0  0  0  0
M  CHG  1  15   1
M  END
> <s_m_source_file>
AV-unprocessed.smi

> <i_m_source_file_index>
2271

> <i_lp_mmshare_version>
43012

> <i_f3d_flags>
0

> <s_epik_input>
W0NIM11jMVtjSF1bY0hdW2NIXWMobjEpW05IXUMoPU8pW05IXVtDSDJdW0NIXTJbQ0gyXVtDSDJdTihbQ0gyXVtDSDJdMilbQ0gyXVtDSDJdW09IXQ==

> <s_epik_cmdline>
J2VwaWtfcHl0aG9uJywgJy1waCcsICc3LjAnLCAnLXRuJywgJzgnLCAnLW1hJywgJzIwMCcsICctbWV0YWxfYmluZGluZycsICctaW1hZScsICc8aW5maWxlLm1hZT4nLCAnLW9tYWUnLCAnPG91dGZpbGUubWFlPic=

> <r_epik_Ionization_Penalty>
0.00184663

> <r_epik_Ionization_Penalty_Charging>
0.00177223

> <r_epik_Ionization_Penalty_Neutral>
7.44064e-05

> <r_epik_State_Penalty>
0.00120075

> <r_epik_Charging_Adjusted_Penalty>
0.00297297

> <i_epik_Tot_Q>
1

> <i_epik_Tot_abs_Q>
1

> <r_epik_Metal_State_Penalty>
-0

> <b_epik_Metal_Only>
0

> <s_lp_Force_Field>
OPLS_2005

> <r_lp_Energy>
18.6881

> <b_lp_Chiralities_Consistent>
1

> <s_lp_Variant>
AV-unprocessed.smi:2271-1

> <Gold.Version>
5.8.1

> <Gold.Id.Protein>
6NUR|6NUR_protein|mol2

> <Gold.PLP.Fitness>
53.6629

> <Gold.PLP.PLP>
-40.0069

> <Gold.PLP.part.hbond>
-4.0000

> <Gold.PLP.part.metal>
0.0000

> <Gold.PLP.part.buried>
-5.3265

> <Gold.PLP.part.nonpolar>
-31.8024

> <Gold.PLP.part.repulsive>
0.2818

> <Gold.PLP.ligand.clash>
0.0000

> <Gold.PLP.ligand.torsion>
0.6811

> <Gold.PLP.Chemscore.Hbond>
4.9920

> <Gold.PLP.Chemscore.CHOScore>
0.0000

> <Gold.PLP.Chemscore.Metal>
0.0000

> <Gold.Chemscore.Hbonds>
donor molecule, donor type, donor heavy atom, donor atom, acceptor molecule, acceptor atom, score
      L1  H     7    28       P1  8028  1.00
      L1  H    10    29       P1  8028  0.94
      L1  H    15    46       P1  7948  2.00
      L1  H    18    41       P1  7948  1.00

> <Gold.PLP.Chemscore.Internal.Correction>
0.0422

> <Gold.Rescore>
     Score         DG    S(hbond)    S(metal)    S(lipo)     H(rot)  DE(clash)    DE(int)     intcor
     18.56     -23.30       3.94        0.00      92.15       2.39       0.04       4.70       ----

> <Gold.Chemscore.Fitness>
18.5631

> <Gold.Chemscore.DG>
-23.3033

> <Gold.Chemscore.ZeroCoef>
-5.4800

> <Gold.Chemscore.Hbond>
3.9428

> <Gold.Chemscore.Metal>
0.0000

> <Gold.Chemscore.Lipo>
92.1530

> <Gold.Chemscore.Internal_Hbond>
0.0000

> <Gold.Chemscore.DEClash>
0.0368

> <Gold.Chemscore.DEInternal>
4.7033

> <Gold.Chemscore.Rot>
2.3935

> <Gold.Chemscore.Internal.Correction>
   9.000000E+99

> <Gold.Chemscore.Hbonds>
donor molecule, donor type, donor heavy atom, donor atom, acceptor molecule, acceptor atom, score
      L1  H     7    28       P1  8028  0.99
      L1  H    10    29       P1  8028  0.91
      L1  H    15    46       P1  7948  1.00
      L1  H    18    41       P1  7948  0.94

> <Gold.Chemscore.Hbond.Weighted>
-13.1689

> <Gold.Chemscore.Metal.Weighted>
-0.0000

> <Gold.Chemscore.Lipo.Weighted>
-10.7819

> <Gold.Chemscore.Internal_Hbond.Weighted>
0.0000

> <Gold.Chemscore.DEClash.Weighted>
0.0368

> <Gold.Chemscore.DEInternal.Weighted>
4.7033

> <Gold.Chemscore.Rot.Weighted>
6.1274

> <Gold.Chemscore.Internal.Correction.Weighted>
   9.000000E+99

> <Gold.Protein.RotatedTorsions>
[ 6907 6896 6895 6894 ] final  109.83 input  -60.11 | X-H torsion
[ 7974 7965 7964 7962 ] final   71.41 input  175.53 | X-H torsion
[ 8008 7997 7996 7995 ] final  155.58 input   59.86 | X-H torsion
[ 10167 10162 10161 10158 ] final   19.85 input  -65.29 | X-H torsion
[ 10718 10713 10712 10709 ] final   -0.13 input   66.30 | X-H torsion
[ 10763 10752 10751 10750 ] final  -88.55 input  -60.55 | X-H torsion
[ 11005 11000 10999 10996 ] final  -60.70 input  -57.11 | X-H torsion

> <Gold.Protein.ActiveResidues>
 VAL166  LYS551  ARG553  GLY616  TRP617  ASP618  TYR619  PRO620  LYS621  CYS622 
 ASP623  PHE694  ASN695  SER759  ASP760  ASP761  ALA762  ILE779  LEU786  VAL792 
 PHE793  MET794  SER795  GLU796  ALA797  LYS798  CYS799  TRP800  GLU811  SER814 

> <Gold.Protein.RotatedAtoms>
  152.5049  133.8887  159.7382 H   0  0  0  0  0  0  0  0  0  0  0  0  # atno 6907 bound_to 6896
  150.9332  133.6734  159.2813 H   0  0  0  0  0  0  0  0  0  0  0  0  # atno 6908 bound_to 6896
  151.4071  135.0984  159.9626 H   0  0  0  0  0  0  0  0  0  0  0  0  # atno 6909 bound_to 6896
  145.7661  139.2822  143.1348 H   0  0  0  0  0  0  0  0  0  0  0  0  # atno 7974 bound_to 7965
  156.2470  140.1936  156.6822 H   0  0  0  0  0  0  0  0  0  0  0  0  # atno 8008 bound_to 7997
  154.6313  140.0595  156.9761 H   0  0  0  0  0  0  0  0  0  0  0  0  # atno 8009 bound_to 7997
  155.1706  140.3268  155.4396 H   0  0  0  0  0  0  0  0  0  0  0  0  # atno 8010 bound_to 7997
  140.5548  143.9444  150.6602 H   0  0  0  0  0  0  0  0  0  0  0  0  # atno 10167 bound_to 10162
  156.8250  130.5469  149.5693 H   0  0  0  0  0  0  0  0  0  0  0  0  # atno 10718 bound_to 10713
  154.6458  135.5373  153.7842 H   0  0  0  0  0  0  0  0  0  0  0  0  # atno 10763 bound_to 10752
  153.0358  135.6470  154.1092 H   0  0  0  0  0  0  0  0  0  0  0  0  # atno 10764 bound_to 10752
  154.1013  135.2933  155.3231 H   0  0  0  0  0  0  0  0  0  0  0  0  # atno 10765 bound_to 10752
  141.1297  133.6624  156.5263 H   0  0  0  0  0  0  0  0  0  0  0  0  # atno 11005 bound_to 11000
  146.0216  140.8343  142.9920 LP  0  0  0  0  0  0  0  0  0  0  0  0  # atno 17320 bound_to 7965
  144.6821  140.2637  143.7315 LP  0  0  0  0  0  0  0  0  0  0  0  0  # atno 17321 bound_to 7965
  140.2880  143.3344  152.1089 LP  0  0  0  0  0  0  0  0  0  0  0  0  # atno 17342 bound_to 10162
  139.5043  144.6773  151.6098 LP  0  0  0  0  0  0  0  0  0  0  0  0  # atno 17343 bound_to 10162
  156.0967  130.5937  150.9825 LP  0  0  0  0  0  0  0  0  0  0  0  0  # atno 17370 bound_to 10713
  157.6437  131.0907  150.8198 LP  0  0  0  0  0  0  0  0  0  0  0  0  # atno 17371 bound_to 10713
  140.4251  134.7152  157.4911 LP  0  0  0  0  0  0  0  0  0  0  0  0  # atno 17394 bound_to 11000
  140.0332  134.6375  155.9078 LP  0  0  0  0  0  0  0  0  0  0  0  0  # atno 17395 bound_to 11000

$$$$
