AV-unprocessed.smi:1454|AV-procd|sdf|5913|dock6
  -GOLD-   22720 5593D 1   1.00000     0.00000
 Structure written by MMmdl.
 44 45  0  0  0  0  0  0  0  0  1 V2000
  147.2061  134.2846  156.2547 O   0  0  0  0  0  0  0  0  0  0  0  0
  148.0038  134.8560  155.5105 C   0  0  0  0  0  0  0  0  0  0  0  0
  149.3140  135.4318  156.0582 C   0  0  0  0  0  0  0  0  0  0  0  0
  149.1006  136.5408  157.1078 C   0  0  0  0  0  0  0  0  0  0  0  0
  148.1406  136.1375  158.1291 N   0  0  0  0  0  0  0  0  0  0  0  0
  148.2256  136.4417  159.4333 C   0  0  0  0  0  0  0  0  0  0  0  0
  149.1506  137.0987  159.9127 O   0  0  0  0  0  0  0  0  0  0  0  0
  147.0914  135.9211  160.3316 C   0  0  0  0  0  0  0  0  0  0  0  0
  147.2941  136.3217  161.8120 C   0  0  0  0  0  0  0  0  0  0  0  0
  147.3890  135.0209  162.6195 C   0  0  0  0  0  0  0  0  0  0  0  0
  147.7516  133.9417  161.6034 C   0  0  0  0  0  0  0  0  0  0  0  0
  147.0269  134.3815  160.3324 C   0  0  0  0  0  0  0  0  0  0  0  0
  147.7967  135.0058  154.1943 N   0  0  0  0  0  0  0  0  0  0  0  0
  146.6238  134.5117  153.4862 C   0  0  0  0  0  0  0  0  0  0  0  0
  147.0366  133.7290  152.2326 C   0  0  0  0  0  0  0  0  0  0  0  0
  145.8368  133.2278  151.4530 C   0  0  0  0  0  0  0  0  0  0  0  0
  144.5323  133.3461  151.9752 C   0  0  0  0  0  0  0  0  0  0  0  0
  143.4511  132.8593  151.2156 C   0  0  0  0  0  0  0  0  0  0  0  0
  143.7218  132.2726  149.9631 C   0  0  0  0  0  0  0  0  0  0  0  0
  144.9667  132.1539  149.4532 N   0  0  0  0  0  0  0  0  0  0  0  0
  145.9977  132.6236  150.1880 C   0  0  0  0  0  0  0  0  0  0  0  0
  149.8894  134.6142  156.4934 H   0  0  0  0  0  0  0  0  0  0  0  0
  149.9028  135.8203  155.2260 H   0  0  0  0  0  0  0  0  0  0  0  0
  150.0470  136.8184  157.5752 H   0  0  0  0  0  0  0  0  0  0  0  0
  148.7127  137.4421  156.6318 H   0  0  0  0  0  0  0  0  0  0  0  0
  147.3476  135.5940  157.8201 H   0  0  0  0  0  0  0  0  0  0  0  0
  146.1420  136.3171  159.9672 H   0  0  0  0  0  0  0  0  0  0  0  0
  148.2040  136.9082  161.9533 H   0  0  0  0  0  0  0  0  0  0  0  0
  146.4697  136.9382  162.1716 H   0  0  0  0  0  0  0  0  0  0  0  0
  148.1105  135.0856  163.4347 H   0  0  0  0  0  0  0  0  0  0  0  0
  146.4163  134.7934  163.0579 H   0  0  0  0  0  0  0  0  0  0  0  0
  148.8293  133.9376  161.4352 H   0  0  0  0  0  0  0  0  0  0  0  0
  147.4604  132.9430  161.9295 H   0  0  0  0  0  0  0  0  0  0  0  0
  145.9847  134.0629  160.3779 H   0  0  0  0  0  0  0  0  0  0  0  0
  147.4601  133.9261  159.4404 H   0  0  0  0  0  0  0  0  0  0  0  0
  148.4975  135.4874  153.6495 H   0  0  0  0  0  0  0  0  0  0  0  0
  146.0434  133.8703  154.1515 H   0  0  0  0  0  0  0  0  0  0  0  0
  145.9866  135.3538  153.2113 H   0  0  0  0  0  0  0  0  0  0  0  0
  147.6464  134.3571  151.5817 H   0  0  0  0  0  0  0  0  0  0  0  0
  147.6584  132.8767  152.5105 H   0  0  0  0  0  0  0  0  0  0  0  0
  144.3618  133.7987  152.9411 H   0  0  0  0  0  0  0  0  0  0  0  0
  142.4386  132.9322  151.5840 H   0  0  0  0  0  0  0  0  0  0  0  0
  142.9168  131.8871  149.3552 H   0  0  0  0  0  0  0  0  0  0  0  0
  146.9805  132.5110  149.7541 H   0  0  0  0  0  0  0  0  0  0  0  0
  1  2  2  0  0  0  0
  2  3  1  0  0  0  0
  2 13  1  0  0  0  0
  3  4  1  0  0  0  0
  3 22  1  0  0  0  0
  3 23  1  0  0  0  0
  4  5  1  0  0  0  0
  4 24  1  0  0  0  0
  4 25  1  0  0  0  0
  5  6  1  0  0  0  0
  5 26  1  0  0  0  0
  6  7  2  0  0  0  0
  6  8  1  0  0  0  0
  8 12  1  0  0  0  0
  8  9  1  0  0  0  0
  8 27  1  0  0  0  0
  9 10  1  0  0  0  0
  9 28  1  0  0  0  0
  9 29  1  0  0  0  0
 10 11  1  0  0  0  0
 10 30  1  0  0  0  0
 10 31  1  0  0  0  0
 11 12  1  0  0  0  0
 11 32  1  0  0  0  0
 11 33  1  0  0  0  0
 12 34  1  0  0  0  0
 12 35  1  0  0  0  0
 13 14  1  0  0  0  0
 13 36  1  0  0  0  0
 14 15  1  0  0  0  0
 14 37  1  0  0  0  0
 14 38  1  0  0  0  0
 15 16  1  0  0  0  0
 15 39  1  0  0  0  0
 15 40  1  0  0  0  0
 16 21  1  0  0  0  0
 16 17  2  0  0  0  0
 17 18  1  0  0  0  0
 17 41  1  0  0  0  0
 18 19  2  0  0  0  0
 18 42  1  0  0  0  0
 19 20  1  0  0  0  0
 19 43  1  0  0  0  0
 20 21  2  0  0  0  0
 21 44  1  0  0  0  0
M  END
> <s_m_source_file>
AV-unprocessed.smi

> <i_m_source_file_index>
1454

> <i_lp_mmshare_version>
43012

> <i_f3d_flags>
0

> <s_epik_input>
W2NIXTFuW2NIXVtjSF1bY0hdYzFbQ0gyXVtDSDJdW05IXUMoPU8pW0NIMl1bQ0gyXVtOSF1DKD1PKVtDSF0yW0NIMl1bQ0gyXVtDSDJdW0NIMl0y

> <s_epik_cmdline>
J2VwaWtfcHl0aG9uJywgJy1waCcsICc3LjAnLCAnLXRuJywgJzgnLCAnLW1hJywgJzIwMCcsICctbWV0YWxfYmluZGluZycsICctaW1hZScsICc8aW5maWxlLm1hZT4nLCAnLW9tYWUnLCAnPG91dGZpbGUubWFlPic=

> <r_epik_Ionization_Penalty>
0.013238

> <r_epik_Ionization_Penalty_Charging>
0

> <r_epik_Ionization_Penalty_Neutral>
0.013238

> <r_epik_State_Penalty>
0.0102918

> <r_epik_Charging_Adjusted_Penalty>
0.0102918

> <i_epik_Tot_Q>
0

> <i_epik_Tot_abs_Q>
0

> <r_epik_Metal_State_Penalty>
0.0100665

> <b_epik_Metal_Only>
0

> <s_lp_Force_Field>
OPLS_2005

> <r_lp_Energy>
20.9977

> <b_lp_Chiralities_Consistent>
1

> <s_lp_Variant>
AV-unprocessed.smi:1454-1

> <Gold.Version>
5.8.1

> <Gold.Id.Protein>
6NUR|6NUR_protein|mol2

> <Gold.PLP.Fitness>
43.2397

> <Gold.PLP.PLP>
-34.5418

> <Gold.PLP.part.hbond>
-2.2300

> <Gold.PLP.part.metal>
0.0000

> <Gold.PLP.part.buried>
-5.5206

> <Gold.PLP.part.nonpolar>
-28.1532

> <Gold.PLP.part.repulsive>
0.1932

> <Gold.PLP.ligand.clash>
0.0000

> <Gold.PLP.ligand.torsion>
0.3114

> <Gold.PLP.Chemscore.Hbond>
1.0918

> <Gold.PLP.Chemscore.CHOScore>
1.9638

> <Gold.PLP.Chemscore.Metal>
0.0000

> <Gold.Chemscore.Hbonds>
donor molecule, donor type, donor heavy atom, donor atom, acceptor molecule, acceptor atom, score
      L1  H    13    36       P1  7948  0.91
      P1  H  6931  6943       L1     7  0.17
      L1  C    19    43       P1 10952  0.81
      L1  C    21    44       P1 10747  0.76

> <Gold.PLP.Chemscore.Internal.Correction>
0.1539

> <Gold.Rescore>
     Score         DG    S(hbond)    S(metal)    S(lipo)     H(rot)  DE(clash)    DE(int)     intcor
     14.01     -14.37       1.09        0.00      90.66       2.10       0.01       0.35       ----

> <Gold.Chemscore.Fitness>
14.0087

> <Gold.Chemscore.DG>
-14.3671

> <Gold.Chemscore.ZeroCoef>
-5.4800

> <Gold.Chemscore.Hbond>
1.0916

> <Gold.Chemscore.Metal>
0.0000

> <Gold.Chemscore.Lipo>
90.6583

> <Gold.Chemscore.Internal_Hbond>
0.0000

> <Gold.Chemscore.DEClash>
0.0075

> <Gold.Chemscore.DEInternal>
0.3510

> <Gold.Chemscore.Rot>
2.0961

> <Gold.Chemscore.Internal.Correction>
   9.000000E+99

> <Gold.Chemscore.Hbonds>
donor molecule, donor type, donor heavy atom, donor atom, acceptor molecule, acceptor atom, score
      L1  H    13    36       P1  7948  0.87
      P1  H  6931  6943       L1     7  0.17

> <Gold.Chemscore.Hbond.Weighted>
-3.6460

> <Gold.Chemscore.Metal.Weighted>
-0.0000

> <Gold.Chemscore.Lipo.Weighted>
-10.6070

> <Gold.Chemscore.Internal_Hbond.Weighted>
0.0000

> <Gold.Chemscore.DEClash.Weighted>
0.0075

> <Gold.Chemscore.DEInternal.Weighted>
0.3510

> <Gold.Chemscore.Rot.Weighted>
5.3660

> <Gold.Chemscore.Internal.Correction.Weighted>
   9.000000E+99

> <Gold.Protein.RotatedTorsions>
[ 6907 6896 6895 6894 ] final   76.49 input  -60.11 | X-H torsion
[ 7974 7965 7964 7962 ] final   67.63 input  175.53 | X-H torsion
[ 8008 7997 7996 7995 ] final   81.00 input   59.86 | X-H torsion
[ 10167 10162 10161 10158 ] final -124.98 input  -65.29 | X-H torsion
[ 10718 10713 10712 10709 ] final  -15.41 input   66.30 | X-H torsion
[ 10763 10752 10751 10750 ] final   26.44 input  -60.55 | X-H torsion
[ 11005 11000 10999 10996 ] final   36.62 input  -57.11 | X-H torsion

> <Gold.Protein.ActiveResidues>
 VAL166  LYS551  ARG553  GLY616  TRP617  ASP618  TYR619  PRO620  LYS621  CYS622 
 ASP623  PHE694  ASN695  SER759  ASP760  ASP761  ALA762  ILE779  LEU786  VAL792 
 PHE793  MET794  SER795  GLU796  ALA797  LYS798  CYS799  TRP800  GLU811  SER814 

> <Gold.Protein.RotatedAtoms>
  152.5075  134.3960  159.9400 H   0  0  0  0  0  0  0  0  0  0  0  0  # atno 6907 bound_to 6896
  151.3922  133.3779  159.2730 H   0  0  0  0  0  0  0  0  0  0  0  0  # atno 6908 bound_to 6896
  150.9424  134.8852  159.7679 H   0  0  0  0  0  0  0  0  0  0  0  0  # atno 6909 bound_to 6896
  145.8123  139.3039  143.1091 H   0  0  0  0  0  0  0  0  0  0  0  0  # atno 7974 bound_to 7965
  155.8912  140.3438  155.5958 H   0  0  0  0  0  0  0  0  0  0  0  0  # atno 8008 bound_to 7997
  155.7608  140.0832  157.2175 H   0  0  0  0  0  0  0  0  0  0  0  0  # atno 8009 bound_to 7997
  154.4033  140.1536  156.2818 H   0  0  0  0  0  0  0  0  0  0  0  0  # atno 8010 bound_to 7997
  139.9869  143.5682  152.2357 H   0  0  0  0  0  0  0  0  0  0  0  0  # atno 10167 bound_to 10162
  156.6021  130.4827  149.6235 H   0  0  0  0  0  0  0  0  0  0  0  0  # atno 10718 bound_to 10713
  153.0622  135.6560  154.0436 H   0  0  0  0  0  0  0  0  0  0  0  0  # atno 10763 bound_to 10752
  154.0101  135.2929  155.3395 H   0  0  0  0  0  0  0  0  0  0  0  0  # atno 10764 bound_to 10752
  154.6965  135.5261  153.8534 H   0  0  0  0  0  0  0  0  0  0  0  0  # atno 10765 bound_to 10752
  140.2307  134.3530  155.7965 H   0  0  0  0  0  0  0  0  0  0  0  0  # atno 11005 bound_to 11000
  145.9763  140.8719  143.0137 LP  0  0  0  0  0  0  0  0  0  0  0  0  # atno 17320 bound_to 7965
  144.6756  140.2017  143.7386 LP  0  0  0  0  0  0  0  0  0  0  0  0  # atno 17321 bound_to 7965
  139.6368  144.7651  151.2421 LP  0  0  0  0  0  0  0  0  0  0  0  0  # atno 17342 bound_to 10162
  140.7469  143.6384  150.8357 LP  0  0  0  0  0  0  0  0  0  0  0  0  # atno 17343 bound_to 10162
  156.2460  130.6879  151.1600 LP  0  0  0  0  0  0  0  0  0  0  0  0  # atno 17370 bound_to 10713
  157.7277  131.0637  150.5855 LP  0  0  0  0  0  0  0  0  0  0  0  0  # atno 17371 bound_to 10713
  141.2218  133.7244  156.8727 LP  0  0  0  0  0  0  0  0  0  0  0  0  # atno 17394 bound_to 11000
  140.1753  134.9071  157.2883 LP  0  0  0  0  0  0  0  0  0  0  0  0  # atno 17395 bound_to 11000

$$$$
