#       Name:                AV-unprocessed.smi:114
#       Creating user name   scv26
#       Creation time:       Thu Mar 26 18:22:54 2020


#       File generated by GOLD software.
#

@<TRIPOS>MOLECULE
AV-unprocessed.smi:114
    43    45     1
SMALL
NO_CHARGES


@<TRIPOS>ATOM
      1 ****        -5.0454   0.6942  -0.2122 N.pl3          1 S1                 0.0000
      2 ****        -3.8281   1.2208  -0.4057 C.ar           1 S1                 0.0000
      3 ****        -3.7328   2.5453  -0.6673 N.ar           1 S1                 0.0000
      4 ****        -2.5360   3.1116  -0.8676 C.ar           1 S1                 0.0000
      5 ****        -2.5355   4.4409  -1.1228 F              1 S1                 0.0000
      6 ****        -1.3405   2.5119  -0.8440 N.ar           1 S1                 0.0000
      7 ****        -1.4350   1.1766  -0.5802 C.ar           1 S1                 0.0000
      8 ****        -2.6369   0.4571  -0.3496 C.ar           1 S1                 0.0000
      9 ****        -2.3498  -0.8806  -0.1144 N.2            1 S1                 0.0000
     10 ****        -1.0477  -0.9426  -0.2041 C.2            1 S1                 0.0000
     11 ****        -0.4171   0.2543  -0.4745 N.pl3          1 S1                 0.0000
     12 ****         1.0445   0.5391  -0.6391 C.3            1 S1                 0.0000
     13 ****         1.6502  -0.6366  -1.0881 O.3            1 S1                 0.0000
     14 ****         2.6715  -1.0637  -0.1874 C.3            1 S1                 0.0000
     15 ****         2.7845  -2.5981  -0.1673 C.3            1 S1                 0.0000
     16 ****         3.5407  -3.0413  -1.2733 O.3            1 S1                 0.0000
     17 ****         2.3154  -0.4063   1.1537 C.3            1 S1                 0.0000
     18 ****         1.4035  -1.1976   1.8980 O.3            1 S1                 0.0000
     19 ****         1.7112   0.9143   0.6977 C.3            1 S1                 0.0000
     20 ****         0.8601   1.5031   1.6658 O.3            1 S1                 0.0000
     21 ****         1.0921   1.3265  -1.3921 H              1 S1                 0.0000
     22 ****         3.6125  -0.6262  -0.5269 H              1 S1                 0.0000
     23 ****         3.2018  -0.2497   1.7693 H              1 S1                 0.0000
     24 ****         2.5182   1.6121   0.4707 H              1 S1                 0.0000
     25 ****        -5.1412  -0.2918  -0.0157 H              1 S1                 0.0000
     26 ****        -5.8636   1.2837  -0.2629 H              1 S1                 0.0000
     27 ****        -0.5109  -1.8709  -0.0738 H              1 S1                 0.0000
     28 ****         3.3038  -2.9258   0.7339 H              1 S1                 0.0000
     29 ****         1.8019  -3.0707  -0.1678 H              1 S1                 0.0000
     30 ****         3.5981  -3.9840  -1.2395 H              1 S1                 0.0000
     31 ****         1.1919  -0.7374   2.6961 H              1 S1                 0.0000
     32 ****         0.1174   0.9323   1.7921 H              1 S1                 0.0000
     33 ****        -4.5608   3.1042  -0.7113 LP             1 S1                 0.0000
     34 ****        -0.4755   2.9883  -1.0019 LP             1 S1                 0.0000
     35 ****        -2.9904  -1.6238   0.0787 LP             1 S1                 0.0000
     36 ****         2.0554  -0.4726  -1.9875 LP             1 S1                 0.0000
     37 ****         0.9574  -1.3541  -1.1605 LP             1 S1                 0.0000
     38 ****         4.4585  -2.6460  -1.2345 LP             1 S1                 0.0000
     39 ****         3.0927  -2.7610  -2.1223 LP             1 S1                 0.0000
     40 ****         1.8219  -2.0791   2.1171 LP             1 S1                 0.0000
     41 ****         0.5717  -1.3471   1.3635 LP             1 S1                 0.0000
     42 ****         0.5490   2.3973   1.3440 LP             1 S1                 0.0000
     43 ****         1.3536   1.6125   2.5286 LP             1 S1                 0.0000
@<TRIPOS>BOND
    1    1    2 1     
    2    1   25 1     
    3    1   26 1     
    4    2    8 ar    
    5    2    3 ar    
    6    3    4 ar    
    7    4    5 1     
    8    4    6 ar    
    9    6    7 ar    
   10    7   11 1     
   11    7    8 ar    
   12    8    9 1     
   13    9   10 2     
   14   10   11 1     
   15   10   27 1     
   16   11   12 1     
   17   12   21 1     
   18   12   19 1     
   19   12   13 1     
   20   13   14 1     
   21   14   22 1     
   22   14   15 1     
   23   14   17 1     
   24   15   16 1     
   25   15   28 1     
   26   15   29 1     
   27   16   30 1     
   28   17   23 1     
   29   17   18 1     
   30   17   19 1     
   31   18   31 1     
   32   19   24 1     
   33   19   20 1     
   34   20   32 1     
   35    3   33 1     
   36    6   34 1     
   37    9   35 1     
   38   13   36 1     
   39   13   37 1     
   40   16   38 1     
   41   16   39 1     
   42   18   40 1     
   43   18   41 1     
   44   20   42 1     
   45   20   43 1     
@<TRIPOS>SUBSTRUCTURE
      1 S1             1
@<TRIPOS>SET
LONE_PAIRS      STATIC     ATOMS    <user>   **** ""
11 33 34 35 36 37 38 39 40 41 42 43
DONOR_HYDROGENS      STATIC     ATOMS    <user>   **** ""
5 25 26 30 31 32
ATOM$BLUE        STATIC     ATOMS    COLORGROUP SYSTEM
11 33 34 35 36 37 38 39 40 41 42 43
ATOM$RED        STATIC     ATOMS    COLORGROUP SYSTEM
5 25 26 30 31 32
