#       Name:                AV-unprocessed.smi:1802
#       Creating user name   scv26
#       Creation time:       Fri Mar 27 08:53:36 2020


#       File generated by GOLD software.
#

@<TRIPOS>MOLECULE
AV-unprocessed.smi:1802
    45    46     1
SMALL
NO_CHARGES


@<TRIPOS>ATOM
      1 ****        -0.6568   3.5253  -0.1160 C.3            1 S1                 0.0000
      2 ****        -1.7492   2.8190   0.7063 C.3            1 S1                 0.0000
      3 ****        -3.1722   3.1479   0.2182 C.3            1 S1                 0.0000
      4 ****        -3.4899   2.4262  -1.0989 C.3            1 S1                 0.0000
      5 ****        -3.2318   0.9158  -0.9773 C.3            1 S1                 0.0000
      6 ****        -1.8382   0.6427  -0.5410 N.4            1 S1                 1.0000
      7 ****        -1.5171  -0.8066  -0.5622 C.3            1 S1                 0.0000
      8 ****        -0.0072  -1.0691  -0.6802 C.3            1 S1                 0.0000
      9 ****         0.3183  -2.5682  -0.7817 C.3            1 S1                 0.0000
     10 ****         1.7558  -2.7974  -0.8738 N.am           1 S1                 0.0000
     11 ****         2.6202  -2.7620   0.1508 C.2            1 S1                 0.0000
     12 ****         2.2122  -2.5292   1.2913 O.2            1 S1                 0.0000
     13 ****         3.9028  -2.9906  -0.2100 N.pl3          1 S1                -1.0000
     14 ****         4.8733  -2.9704   0.7187 C.2            1 S1                 0.0000
     15 ****         5.3485  -4.0903   1.2868 N.2            1 S1                 0.0000
     16 ****         6.3466  -3.8474   2.2208 N.2            1 S1                 0.0000
     17 ****         6.6066  -2.5444   2.3264 C.2            1 S1                 0.0000
     18 ****         5.6585  -1.4965   1.2926 S.3            1 S1                 0.0000
     19 ****        -1.5373   1.2922   0.7644 C.3            1 S1                 0.0000
     20 ****        -0.6487   3.1941  -1.1544 H              1 S1                 0.0000
     21 ****         0.3324   3.3278   0.2981 H              1 S1                 0.0000
     22 ****        -0.8016   4.6058  -0.1132 H              1 S1                 0.0000
     23 ****        -1.6600   3.1996   1.7246 H              1 S1                 0.0000
     24 ****        -3.8921   2.8366   0.9764 H              1 S1                 0.0000
     25 ****        -3.2993   4.2248   0.1011 H              1 S1                 0.0000
     26 ****        -4.5297   2.6036  -1.3758 H              1 S1                 0.0000
     27 ****        -2.8854   2.8396  -1.9068 H              1 S1                 0.0000
     28 ****        -3.9304   0.4686  -0.2685 H              1 S1                 0.0000
     29 ****        -3.4166   0.4462  -1.9443 H              1 S1                 0.0000
     30 ****        -1.9279  -1.2916   0.3247 H              1 S1                 0.0000
     31 ****        -2.0047  -1.2701  -1.4210 H              1 S1                 0.0000
     32 ****         0.3853  -0.5538  -1.5579 H              1 S1                 0.0000
     33 ****         0.5142  -0.6506   0.1800 H              1 S1                 0.0000
     34 ****        -0.0907  -3.1100   0.0727 H              1 S1                 0.0000
     35 ****        -0.1489  -2.9925  -1.6707 H              1 S1                 0.0000
     36 ****         2.1311  -2.9975  -1.7896 H              1 S1                 0.0000
     37 ****         7.3630  -2.1985   3.0148 H              1 S1                 0.0000
     38 ****        -0.5128   1.0867   1.0723 H              1 S1                 0.0000
     39 ****        -2.1809   0.8598   1.5323 H              1 S1                 0.0000
     40 ****        -1.2386   1.0750  -1.2293 H              1 S1                 0.0000
     41 ****         1.2383  -2.3673   1.4506 LP             1 S1                 0.0000
     42 ****         2.8553  -2.5024   2.0566 LP             1 S1                 0.0000
     43 ****         4.1288  -3.1745  -1.1666 LP             1 S1                 0.0000
     44 ****         5.0172  -5.0062   1.0602 LP             1 S1                 0.0000
     45 ****         6.8113  -4.5594   2.7473 LP             1 S1                 0.0000
@<TRIPOS>BOND
    1    1    2 1     
    2    1   20 1     
    3    1   21 1     
    4    1   22 1     
    5    2   19 1     
    6    2    3 1     
    7    2   23 1     
    8    3    4 1     
    9    3   24 1     
   10    3   25 1     
   11    4    5 1     
   12    4   26 1     
   13    4   27 1     
   14    5    6 1     
   15    5   28 1     
   16    5   29 1     
   17    6    7 1     
   18    6   19 1     
   19    6   40 1     
   20    7    8 1     
   21    7   30 1     
   22    7   31 1     
   23    8    9 1     
   24    8   32 1     
   25    8   33 1     
   26    9   10 1     
   27    9   34 1     
   28    9   35 1     
   29   10   11 am    
   30   10   36 1     
   31   11   12 2     
   32   11   13 1     
   33   13   14 1     
   34   14   18 1     
   35   14   15 2     
   36   15   16 1     
   37   16   17 2     
   38   17   18 1     
   39   17   37 1     
   40   19   38 1     
   41   19   39 1     
   42   12   41 1     
   43   12   42 1     
   44   13   43 1     
   45   15   44 1     
   46   16   45 1     
@<TRIPOS>SUBSTRUCTURE
      1 S1             1
@<TRIPOS>SET
LONE_PAIRS      STATIC     ATOMS    <user>   **** ""
5 41 42 43 44 45
DONOR_HYDROGENS      STATIC     ATOMS    <user>   **** ""
2 40 36
ATOM$BLUE        STATIC     ATOMS    COLORGROUP SYSTEM
5 41 42 43 44 45
ATOM$RED        STATIC     ATOMS    COLORGROUP SYSTEM
2 40 36
