AV-unprocessed.smi:2178|AV-procd|sdf|8853|dock9
  -GOLD-   2272012 43D 1   1.00000     0.00000
 Structure written by MMmdl.
 46 48  0  0  0  0  0  0  0  0  1 V2000
  156.6242  138.6259  164.4673 C   0  0  0  0  0  0  0  0  0  0  0  0
  156.2048  139.8407  165.2739 C   0  0  0  0  0  0  0  0  0  0  0  0
  156.1674  139.7657  166.6816 C   0  0  0  0  0  0  0  0  0  0  0  0
  155.7700  140.8824  167.4399 C   0  0  0  0  0  0  0  0  0  0  0  0
  155.4016  142.0766  166.7935 C   0  0  0  0  0  0  0  0  0  0  0  0
  155.4332  142.1628  165.3863 C   0  0  0  0  0  0  0  0  0  0  0  0
  155.0148  143.4552  164.7103 C   0  0  0  0  0  0  0  0  0  0  0  0
  155.8501  141.0459  164.6234 C   0  0  0  0  0  0  0  0  0  0  0  0
  155.8862  141.1151  163.2547 O   0  0  0  0  0  0  0  0  0  0  0  0
  154.8795  140.3422  162.6172 C   0  0  0  0  0  0  0  0  0  0  0  0
  154.3597  141.1143  161.3970 C   0  0  1  0  0  0  0  0  0  0  0  0
  155.3218  141.0282  160.3650 O   0  0  0  0  0  0  0  0  0  0  0  0
  153.0029  140.5773  160.8992 C   0  0  0  0  0  0  0  0  0  0  0  0
  152.4816  141.3383  159.7716 N   0  0  0  0  0  0  0  0  0  0  0  0
  152.1440  140.8936  158.5344 C   0  0  0  0  0  0  0  0  0  0  0  0
  152.2782  139.4453  158.1576 C   0  0  0  0  0  0  0  0  0  0  0  0
  152.7404  139.2339  156.8384 O   0  0  0  0  0  0  0  0  0  0  0  0
  151.6843  141.8244  157.6940 N   0  0  0  0  0  0  0  0  0  0  0  0
  151.7311  142.9756  158.4550 C   0  0  0  0  0  0  0  0  0  0  0  0
  151.3779  144.3055  158.1328 C   0  0  0  0  0  0  0  0  0  0  0  0
  151.5130  145.3320  159.0907 C   0  0  0  0  0  0  0  0  0  0  0  0
  152.0002  145.0437  160.3822 C   0  0  0  0  0  0  0  0  0  0  0  0
  152.3575  143.7250  160.7235 C   0  0  0  0  0  0  0  0  0  0  0  0
  152.2229  142.7050  159.7626 C   0  0  0  0  0  0  0  0  0  0  0  0
  156.6774  137.7338  165.0918 H   0  0  0  0  0  0  0  0  0  0  0  0
  157.6053  138.7864  164.0204 H   0  0  0  0  0  0  0  0  0  0  0  0
  155.9089  138.4326  163.6675 H   0  0  0  0  0  0  0  0  0  0  0  0
  156.4414  138.8507  167.1861 H   0  0  0  0  0  0  0  0  0  0  0  0
  155.7426  140.8210  168.5178 H   0  0  0  0  0  0  0  0  0  0  0  0
  155.0908  142.9268  167.3831 H   0  0  0  0  0  0  0  0  0  0  0  0
  154.4932  143.2570  163.7737 H   0  0  0  0  0  0  0  0  0  0  0  0
  155.8892  144.0699  164.4963 H   0  0  0  0  0  0  0  0  0  0  0  0
  154.3431  144.0295  165.3489 H   0  0  0  0  0  0  0  0  0  0  0  0
  155.3077  139.3896  162.3025 H   0  0  0  0  0  0  0  0  0  0  0  0
  154.0598  140.1158  163.3016 H   0  0  0  0  0  0  0  0  0  0  0  0
  154.2615  142.1675  161.6629 H   0  0  0  0  0  0  0  0  0  0  0  0
  156.1680  141.2479  160.7241 H   0  0  0  0  0  0  0  0  0  0  0  0
  153.0812  139.5238  160.6315 H   0  0  0  0  0  0  0  0  0  0  0  0
  152.2663  140.6286  161.7015 H   0  0  0  0  0  0  0  0  0  0  0  0
  152.9698  138.9556  158.8429 H   0  0  0  0  0  0  0  0  0  0  0  0
  151.3083  138.9594  158.2678 H   0  0  0  0  0  0  0  0  0  0  0  0
  151.9973  139.0457  156.2865 H   0  0  0  0  0  0  0  0  0  0  0  0
  151.0029  144.5363  157.1467 H   0  0  0  0  0  0  0  0  0  0  0  0
  151.2413  146.3452  158.8331 H   0  0  0  0  0  0  0  0  0  0  0  0
  152.1000  145.8354  161.1102 H   0  0  0  0  0  0  0  0  0  0  0  0
  152.7316  143.5003  161.7113 H   0  0  0  0  0  0  0  0  0  0  0  0
  1  2  1  0  0  0  0
  1 25  1  0  0  0  0
  1 26  1  0  0  0  0
  1 27  1  0  0  0  0
  2  8  1  0  0  0  0
  2  3  2  0  0  0  0
  3  4  1  0  0  0  0
  3 28  1  0  0  0  0
  4  5  2  0  0  0  0
  4 29  1  0  0  0  0
  5  6  1  0  0  0  0
  5 30  1  0  0  0  0
  6  7  1  0  0  0  0
  6  8  2  0  0  0  0
  7 31  1  0  0  0  0
  7 32  1  0  0  0  0
  7 33  1  0  0  0  0
  8  9  1  0  0  0  0
  9 10  1  0  0  0  0
 10 11  1  0  0  0  0
 10 34  1  0  0  0  0
 10 35  1  0  0  0  0
 11 12  1  0  0  0  0
 11 13  1  0  0  0  0
 11 36  1  0  0  0  0
 12 37  1  0  0  0  0
 13 14  1  0  0  0  0
 13 38  1  0  0  0  0
 13 39  1  0  0  0  0
 14 24  1  0  0  0  0
 14 15  1  0  0  0  0
 15 16  1  0  0  0  0
 15 18  2  0  0  0  0
 16 17  1  0  0  0  0
 16 40  1  0  0  0  0
 16 41  1  0  0  0  0
 17 42  1  0  0  0  0
 18 19  1  0  0  0  0
 19 24  2  0  0  0  0
 19 20  1  0  0  0  0
 20 21  2  0  0  0  0
 20 43  1  0  0  0  0
 21 22  1  0  0  0  0
 21 44  1  0  0  0  0
 22 23  2  0  0  0  0
 22 45  1  0  0  0  0
 23 24  1  0  0  0  0
 23 46  1  0  0  0  0
M  END
> <s_m_source_file>
AV-unprocessed.smi

> <i_m_source_file_index>
2178

> <i_lp_mmshare_version>
43012

> <i_f3d_flags>
0

> <s_epik_input>
W0NIM11jMVtjSF1bY0hdW2NIXWMoW0NIM10pYzFPW0NIMl1bQ0BIXShbT0hdKVtDSDJdbihjKG4yKVtDSDJdW09IXSljKGMyMylbY0hdW2NIXVtjSF1bY0hdMw==

> <s_epik_cmdline>
J2VwaWtfcHl0aG9uJywgJy1waCcsICc3LjAnLCAnLXRuJywgJzgnLCAnLW1hJywgJzIwMCcsICctbWV0YWxfYmluZGluZycsICctaW1hZScsICc8aW5maWxlLm1hZT4nLCAnLW9tYWUnLCAnPG91dGZpbGUubWFlPic=

> <r_lp_tautomer_probability>
1

> <r_epik_Ionization_Penalty>
0.0555874

> <r_epik_Ionization_Penalty_Charging>
0

> <r_epik_Ionization_Penalty_Neutral>
0.0555874

> <r_epik_State_Penalty>
0.0478234

> <r_epik_Charging_Adjusted_Penalty>
0.0478234

> <i_epik_Tot_Q>
0

> <i_epik_Tot_abs_Q>
0

> <r_epik_Metal_State_Penalty>
4.98044e-05

> <b_epik_Metal_Only>
0

> <s_lp_Force_Field>
OPLS_2005

> <r_lp_Energy>
18.9383

> <b_lp_Chiralities_Consistent>
1

> <s_lp_Variant>
AV-unprocessed.smi:2178-2

> <Gold.Version>
5.8.1

> <Gold.Id.Protein>
6NUR|6NUR_protein|mol2

> <Gold.PLP.Fitness>
54.9245

> <Gold.PLP.PLP>
-53.3636

> <Gold.PLP.part.hbond>
-2.6265

> <Gold.PLP.part.metal>
0.0000

> <Gold.PLP.part.buried>
-5.1544

> <Gold.PLP.part.nonpolar>
-45.7996

> <Gold.PLP.part.repulsive>
0.0210

> <Gold.PLP.ligand.clash>
0.0000

> <Gold.PLP.ligand.torsion>
0.7975

> <Gold.PLP.Chemscore.Hbond>
1.0000

> <Gold.PLP.Chemscore.CHOScore>
0.0000

> <Gold.PLP.Chemscore.Metal>
0.0000

> <Gold.Chemscore.Hbonds>
donor molecule, donor type, donor heavy atom, donor atom, acceptor molecule, acceptor atom, score
      P1  H  7997  8008       L1    17  1.00

> <Gold.PLP.Chemscore.Internal.Correction>
0.1560

> <Gold.Rescore>
     Score         DG    S(hbond)    S(metal)    S(lipo)     H(rot)  DE(clash)    DE(int)     intcor
     14.64     -18.96       0.93        0.00     153.34       2.96       2.68       1.64       ----

> <Gold.Chemscore.Fitness>
14.6379

> <Gold.Chemscore.DG>
-18.9643

> <Gold.Chemscore.ZeroCoef>
-5.4800

> <Gold.Chemscore.Hbond>
0.9316

> <Gold.Chemscore.Metal>
0.0000

> <Gold.Chemscore.Lipo>
153.3355

> <Gold.Chemscore.Internal_Hbond>
0.0000

> <Gold.Chemscore.DEClash>
2.6845

> <Gold.Chemscore.DEInternal>
1.6418

> <Gold.Chemscore.Rot>
2.9561

> <Gold.Chemscore.Internal.Correction>
   9.000000E+99

> <Gold.Chemscore.Hbonds>
donor molecule, donor type, donor heavy atom, donor atom, acceptor molecule, acceptor atom, score
      P1  H  7997  8008       L1    17  0.55

> <Gold.Chemscore.Hbond.Weighted>
-3.1117

> <Gold.Chemscore.Metal.Weighted>
-0.0000

> <Gold.Chemscore.Lipo.Weighted>
-17.9403

> <Gold.Chemscore.Internal_Hbond.Weighted>
0.0000

> <Gold.Chemscore.DEClash.Weighted>
2.6845

> <Gold.Chemscore.DEInternal.Weighted>
1.6418

> <Gold.Chemscore.Rot.Weighted>
7.5677

> <Gold.Chemscore.Internal.Correction.Weighted>
   9.000000E+99

> <Gold.Protein.RotatedTorsions>
[ 6907 6896 6895 6894 ] final   11.96 input  -60.11 | X-H torsion
[ 7974 7965 7964 7962 ] final   96.92 input  175.53 | X-H torsion
[ 8008 7997 7996 7995 ] final  -68.41 input   59.86 | X-H torsion
[ 10167 10162 10161 10158 ] final  107.93 input  -65.29 | X-H torsion
[ 10718 10713 10712 10709 ] final  -68.76 input   66.30 | X-H torsion
[ 10763 10752 10751 10750 ] final -161.41 input  -60.55 | X-H torsion
[ 11005 11000 10999 10996 ] final -138.24 input  -57.11 | X-H torsion

> <Gold.Protein.ActiveResidues>
 VAL166  LYS551  ARG553  GLY616  TRP617  ASP618  TYR619  PRO620  LYS621  CYS622 
 ASP623  PHE694  ASN695  SER759  ASP760  ASP761  ALA762  ILE779  LEU786  VAL792 
 PHE793  MET794  SER795  GLU796  ALA797  LYS798  CYS799  TRP800  GLU811  SER814 

> <Gold.Protein.RotatedAtoms>
  151.7627  135.0806  160.0347 H   0  0  0  0  0  0  0  0  0  0  0  0  # atno 6907 bound_to 6896
  152.3342  133.5988  159.5839 H   0  0  0  0  0  0  0  0  0  0  0  0  # atno 6908 bound_to 6896
  150.7440  133.9738  159.3596 H   0  0  0  0  0  0  0  0  0  0  0  0  # atno 6909 bound_to 6896
  145.4324  139.2309  143.3137 H   0  0  0  0  0  0  0  0  0  0  0  0  # atno 7974 bound_to 7965
  154.4866  140.0873  156.7501 H   0  0  0  0  0  0  0  0  0  0  0  0  # atno 8008 bound_to 7997
  155.4334  140.3450  155.4264 H   0  0  0  0  0  0  0  0  0  0  0  0  # atno 8009 bound_to 7997
  156.1271  140.1490  156.9109 H   0  0  0  0  0  0  0  0  0  0  0  0  # atno 8010 bound_to 7997
  139.6887  144.7110  151.1387 H   0  0  0  0  0  0  0  0  0  0  0  0  # atno 10167 bound_to 10162
  156.0489  130.4300  150.2048 H   0  0  0  0  0  0  0  0  0  0  0  0  # atno 10718 bound_to 10713
  154.7305  135.3045  154.8898 H   0  0  0  0  0  0  0  0  0  0  0  0  # atno 10763 bound_to 10752
  153.9742  135.6738  153.4752 H   0  0  0  0  0  0  0  0  0  0  0  0  # atno 10764 bound_to 10752
  153.0914  135.4957  154.8618 H   0  0  0  0  0  0  0  0  0  0  0  0  # atno 10765 bound_to 10752
  140.8634  134.2140  157.4694 H   0  0  0  0  0  0  0  0  0  0  0  0  # atno 11005 bound_to 11000
  146.2600  140.5063  142.8857 LP  0  0  0  0  0  0  0  0  0  0  0  0  # atno 17320 bound_to 7965
  144.8174  140.6491  143.6375 LP  0  0  0  0  0  0  0  0  0  0  0  0  # atno 17321 bound_to 7965
  140.7676  143.5591  150.9119 LP  0  0  0  0  0  0  0  0  0  0  0  0  # atno 17342 bound_to 10162
  139.9267  143.6541  152.3085 LP  0  0  0  0  0  0  0  0  0  0  0  0  # atno 17343 bound_to 10162
  157.0134  130.9958  151.3359 LP  0  0  0  0  0  0  0  0  0  0  0  0  # atno 17370 bound_to 10713
  157.5394  130.8110  149.8011 LP  0  0  0  0  0  0  0  0  0  0  0  0  # atno 17371 bound_to 10713
  139.8708  134.9740  156.4832 LP  0  0  0  0  0  0  0  0  0  0  0  0  # atno 17394 bound_to 11000
  140.8656  133.8027  155.9310 LP  0  0  0  0  0  0  0  0  0  0  0  0  # atno 17395 bound_to 11000

$$$$
