AV-unprocessed.smi:203|AV-procd|sdf|1588|dock5
  -GOLD-   2262019483D 1   1.00000     0.00000
 Structure written by MMmdl.
 57 61  0  0  0  0  0  0  0  0  1 V2000
  155.8032  137.3076  162.5234 O   0  0  0  0  0  0  0  0  0  0  0  0
  155.3080  137.6519  161.4529 C   0  0  0  0  0  0  0  0  0  0  0  0
  153.8113  137.6974  161.1980 C   0  0  0  0  0  0  0  0  0  0  0  0
  153.6952  138.4003  159.8311 C   0  0  1  0  0  0  0  0  0  0  0  0
  153.0540  139.8229  159.9006 C   0  0  1  0  0  0  0  0  0  0  0  0
  153.8781  140.8105  160.7691 C   0  0  0  0  0  0  0  0  0  0  0  0
  153.2335  142.2018  160.8180 C   0  0  0  0  0  0  0  0  0  0  0  0
  153.0355  142.7339  159.3949 C   0  0  0  0  0  0  0  0  0  0  0  0
  152.2058  141.7437  158.5675 C   0  0  0  0  0  0  0  0  0  0  0  0
  152.8088  140.4110  158.5709 N   0  0  0  0  0  0  0  0  0  0  0  0
  152.1916  139.6140  157.6704 C   0  0  0  0  0  0  0  0  0  0  0  0
  152.4516  139.8440  156.3599 N   0  0  0  0  0  0  0  0  0  0  0  0
  151.8811  139.0802  155.4232 C   0  0  0  0  0  0  0  0  0  0  0  0
  151.0374  138.0573  155.5788 N   0  0  0  0  0  0  0  0  0  0  0  0
  150.7687  137.8315  156.8972 C   0  0  0  0  0  0  0  0  0  0  0  0
  151.2969  138.5574  158.0008 C   0  0  0  0  0  0  0  0  0  0  0  0
  150.7961  138.0437  159.1911 N   0  0  0  0  0  0  0  0  0  0  0  0
  150.0138  137.0700  158.8123 C   0  0  0  0  0  0  0  0  0  0  0  0
  149.9398  136.8729  157.4522 N   0  0  0  0  0  0  0  0  0  0  0  0
  149.1486  135.8692  156.7633 C   0  0  0  0  0  0  0  0  0  0  0  0
  149.7766  134.4620  156.8580 C   0  0  1  0  0  0  0  0  0  0  0  0
  149.5509  133.8997  158.1354 O   0  0  0  0  0  0  0  0  0  0  0  0
  149.2783  133.4689  155.7877 C   0  0  2  0  0  0  0  0  0  0  0  0
  150.0362  132.1377  155.7590 C   0  0  0  0  0  0  0  0  0  0  0  0
  149.9551  131.6929  154.3048 C   0  0  0  0  0  0  0  0  0  0  0  0
  149.3001  132.8726  153.5852 C   0  0  0  0  0  0  0  0  0  0  0  0
  149.4714  133.9669  154.4718 O   0  0  0  0  0  0  0  0  0  0  0  0
  155.1286  138.3865  159.2532 C   0  0  0  0  0  0  0  0  0  0  0  0
  155.9826  138.0271  160.3684 N   0  0  0  0  0  0  0  0  0  0  0  0
  153.4310  136.6764  161.1476 H   0  0  0  0  0  0  0  0  0  0  0  0
  153.2809  138.2130  161.9985 H   0  0  0  0  0  0  0  0  0  0  0  0
  153.0693  137.7606  159.2083 H   0  0  0  0  0  0  0  0  0  0  0  0
  152.0817  139.7151  160.3824 H   0  0  0  0  0  0  0  0  0  0  0  0
  153.9832  140.4386  161.7875 H   0  0  0  0  0  0  0  0  0  0  0  0
  154.8900  140.9080  160.3757 H   0  0  0  0  0  0  0  0  0  0  0  0
  152.2723  142.1466  161.3307 H   0  0  0  0  0  0  0  0  0  0  0  0
  153.8578  142.8862  161.3930 H   0  0  0  0  0  0  0  0  0  0  0  0
  152.5418  143.7055  159.4216 H   0  0  0  0  0  0  0  0  0  0  0  0
  154.0054  142.8881  158.9202 H   0  0  0  0  0  0  0  0  0  0  0  0
  151.1937  141.6867  158.9710 H   0  0  0  0  0  0  0  0  0  0  0  0
  152.1190  142.1104  157.5435 H   0  0  0  0  0  0  0  0  0  0  0  0
  152.1374  139.3232  154.4026 H   0  0  0  0  0  0  0  0  0  0  0  0
  149.4637  136.4654  159.5189 H   0  0  0  0  0  0  0  0  0  0  0  0
  148.1427  135.8739  157.1852 H   0  0  0  0  0  0  0  0  0  0  0  0
  149.0482  136.1752  155.7220 H   0  0  0  0  0  0  0  0  0  0  0  0
  150.8591  134.5514  156.7593 H   0  0  0  0  0  0  0  0  0  0  0  0
  149.2147  133.0238  158.0205 H   0  0  0  0  0  0  0  0  0  0  0  0
  148.2165  133.2572  155.9325 H   0  0  0  0  0  0  0  0  0  0  0  0
  151.0811  132.2733  156.0392 H   0  0  0  0  0  0  0  0  0  0  0  0
  149.6029  131.4088  156.4443 H   0  0  0  0  0  0  0  0  0  0  0  0
  150.9547  131.5034  153.9121 H   0  0  0  0  0  0  0  0  0  0  0  0
  149.3688  130.7813  154.1841 H   0  0  0  0  0  0  0  0  0  0  0  0
  149.7468  133.0731  152.6110 H   0  0  0  0  0  0  0  0  0  0  0  0
  148.2339  132.6912  153.4411 H   0  0  0  0  0  0  0  0  0  0  0  0
  155.2250  137.6290  158.4743 H   0  0  0  0  0  0  0  0  0  0  0  0
  155.4297  139.3412  158.8219 H   0  0  0  0  0  0  0  0  0  0  0  0
  156.9902  138.0693  160.3164 H   0  0  0  0  0  0  0  0  0  0  0  0
  1  2  2  0  0  0  0
  2 29  1  0  0  0  0
  2  3  1  0  0  0  0
  3  4  1  0  0  0  0
  3 30  1  0  0  0  0
  3 31  1  0  0  0  0
  4  5  1  0  0  0  0
  4 28  1  0  0  0  0
  4 32  1  0  0  0  0
  5 10  1  0  0  0  0
  5  6  1  0  0  0  0
  5 33  1  0  0  0  0
  6  7  1  0  0  0  0
  6 34  1  0  0  0  0
  6 35  1  0  0  0  0
  7  8  1  0  0  0  0
  7 36  1  0  0  0  0
  7 37  1  0  0  0  0
  8  9  1  0  0  0  0
  8 38  1  0  0  0  0
  8 39  1  0  0  0  0
  9 10  1  0  0  0  0
  9 40  1  0  0  0  0
  9 41  1  0  0  0  0
 10 11  1  0  0  0  0
 11 16  1  0  0  0  0
 11 12  2  0  0  0  0
 12 13  1  0  0  0  0
 13 14  2  0  0  0  0
 13 42  1  0  0  0  0
 14 15  1  0  0  0  0
 15 19  1  0  0  0  0
 15 16  2  0  0  0  0
 16 17  1  0  0  0  0
 17 18  2  0  0  0  0
 18 19  1  0  0  0  0
 18 43  1  0  0  0  0
 19 20  1  0  0  0  0
 20 21  1  0  0  0  0
 20 44  1  0  0  0  0
 20 45  1  0  0  0  0
 21 22  1  0  0  0  0
 21 23  1  0  0  0  0
 21 46  1  0  0  0  0
 22 47  1  0  0  0  0
 23 27  1  0  0  0  0
 23 24  1  0  0  0  0
 23 48  1  0  0  0  0
 24 25  1  0  0  0  0
 24 49  1  0  0  0  0
 24 50  1  0  0  0  0
 25 26  1  0  0  0  0
 25 51  1  0  0  0  0
 25 52  1  0  0  0  0
 26 27  1  0  0  0  0
 26 53  1  0  0  0  0
 26 54  1  0  0  0  0
 28 29  1  0  0  0  0
 28 55  1  0  0  0  0
 28 56  1  0  0  0  0
 29 57  1  0  0  0  0
M  END
> <s_m_source_file>
AV-unprocessed.smi

> <i_m_source_file_index>
203

> <i_lp_mmshare_version>
43012

> <i_f3d_flags>
0

> <s_epik_input>
Tz1DMVtDSDJdW0NASF0oW0NIMl1bTkhdMSlbQ0BASF0yW0NIMl1bQ0gyXVtDSDJdW0NIMl1OMmMobltjSF1uMyljKGMzNCluW2NIXW40W0NIMl1bQ0BIXShbT0hdKVtDQEBIXTVbQ0gyXVtDSDJdW0NIMl1PNQ==

> <s_epik_cmdline>
J2VwaWtfcHl0aG9uJywgJy1waCcsICc3LjAnLCAnLXRuJywgJzgnLCAnLW1hJywgJzIwMCcsICctbWV0YWxfYmluZGluZycsICctaW1hZScsICc8aW5maWxlLm1hZT4nLCAnLW9tYWUnLCAnPG91dGZpbGUubWFlPic=

> <r_lp_tautomer_probability>
1

> <r_epik_Ionization_Penalty>
0.00175146

> <r_epik_Ionization_Penalty_Charging>
0

> <r_epik_Ionization_Penalty_Neutral>
0.00175146

> <r_epik_State_Penalty>
0.00109045

> <r_epik_Charging_Adjusted_Penalty>
0.00109045

> <i_epik_Tot_Q>
0

> <i_epik_Tot_abs_Q>
0

> <r_epik_Metal_State_Penalty>
-0

> <b_epik_Metal_Only>
0

> <s_lp_Force_Field>
OPLS_2005

> <r_lp_Energy>
57.1274

> <b_lp_Chiralities_Consistent>
1

> <s_lp_Variant>
AV-unprocessed.smi:203-7

> <Gold.Version>
5.8.1

> <Gold.Id.Protein>
6NUR|6NUR_protein|mol2

> <Gold.PLP.Fitness>
44.7674

> <Gold.PLP.PLP>
-40.3521

> <Gold.PLP.part.hbond>
-2.7430

> <Gold.PLP.part.metal>
0.0000

> <Gold.PLP.part.buried>
-6.0044

> <Gold.PLP.part.nonpolar>
-31.5260

> <Gold.PLP.part.repulsive>
0.1853

> <Gold.PLP.ligand.clash>
0.0000

> <Gold.PLP.ligand.torsion>
0.9389

> <Gold.PLP.Chemscore.Hbond>
2.0000

> <Gold.PLP.Chemscore.CHOScore>
0.0000

> <Gold.PLP.Chemscore.Metal>
0.0000

> <Gold.Chemscore.Hbonds>
donor molecule, donor type, donor heavy atom, donor atom, acceptor molecule, acceptor atom, score
      P1  H  6896  6908       L1    22  1.00
      P1  H  7997  8009       L1    12  1.00

> <Gold.PLP.Chemscore.Internal.Correction>
0.2930

> <Gold.Rescore>
     Score         DG    S(hbond)    S(metal)    S(lipo)     H(rot)  DE(clash)    DE(int)     intcor
     13.86     -14.80       1.74        0.00      89.30       2.72       0.04       0.90       ----

> <Gold.Chemscore.Fitness>
13.8568

> <Gold.Chemscore.DG>
-14.7999

> <Gold.Chemscore.ZeroCoef>
-5.4800

> <Gold.Chemscore.Hbond>
1.7448

> <Gold.Chemscore.Metal>
0.0000

> <Gold.Chemscore.Lipo>
89.2986

> <Gold.Chemscore.Internal_Hbond>
0.0000

> <Gold.Chemscore.DEClash>
0.0402

> <Gold.Chemscore.DEInternal>
0.9029

> <Gold.Chemscore.Rot>
2.7171

> <Gold.Chemscore.Internal.Correction>
   9.000000E+99

> <Gold.Chemscore.Hbonds>
donor molecule, donor type, donor heavy atom, donor atom, acceptor molecule, acceptor atom, score
      P1  H  6896  6908       L1    22  0.64
      P1  H  7997  8009       L1    12  0.34

> <Gold.Chemscore.Hbond.Weighted>
-5.8277

> <Gold.Chemscore.Metal.Weighted>
-0.0000

> <Gold.Chemscore.Lipo.Weighted>
-10.4479

> <Gold.Chemscore.Internal_Hbond.Weighted>
0.0000

> <Gold.Chemscore.DEClash.Weighted>
0.0402

> <Gold.Chemscore.DEInternal.Weighted>
0.9029

> <Gold.Chemscore.Rot.Weighted>
6.9557

> <Gold.Chemscore.Internal.Correction.Weighted>
   9.000000E+99

> <Gold.Protein.RotatedTorsions>
[ 6907 6896 6895 6894 ] final  122.02 input  -60.11 | X-H torsion
[ 7974 7965 7964 7962 ] final  -25.83 input  175.53 | X-H torsion
[ 8008 7997 7996 7995 ] final -165.42 input   59.86 | X-H torsion
[ 10167 10162 10161 10158 ] final -152.10 input  -65.29 | X-H torsion
[ 10718 10713 10712 10709 ] final  104.56 input   66.30 | X-H torsion
[ 10763 10752 10751 10750 ] final   46.98 input  -60.55 | X-H torsion
[ 11005 11000 10999 10996 ] final -171.58 input  -57.11 | X-H torsion

> <Gold.Protein.ActiveResidues>
 VAL166  LYS551  ARG553  GLY616  TRP617  ASP618  TYR619  PRO620  LYS621  CYS622 
 ASP623  PHE694  ASN695  SER759  ASP760  ASP761  ALA762  ILE779  LEU786  VAL792 
 PHE793  MET794  SER795  GLU796  ALA797  LYS798  CYS799  TRP800  GLU811  SER814 

> <Gold.Protein.RotatedAtoms>
  152.4276  133.7221  159.6539 H   0  0  0  0  0  0  0  0  0  0  0  0  # atno 6907 bound_to 6896
  150.8153  133.8338  159.3169 H   0  0  0  0  0  0  0  0  0  0  0  0  # atno 6908 bound_to 6896
  151.6036  135.1047  160.0117 H   0  0  0  0  0  0  0  0  0  0  0  0  # atno 6909 bound_to 6896
  146.1466  140.4938  142.8629 H   0  0  0  0  0  0  0  0  0  0  0  0  # atno 7974 bound_to 7965
  155.8495  140.0961  157.1684 H   0  0  0  0  0  0  0  0  0  0  0  0  # atno 8008 bound_to 7997
  154.3985  140.1386  156.3889 H   0  0  0  0  0  0  0  0  0  0  0  0  # atno 8009 bound_to 7997
  155.7977  140.3454  155.5387 H   0  0  0  0  0  0  0  0  0  0  0  0  # atno 8010 bound_to 7997
  139.7210  143.8957  152.2503 H   0  0  0  0  0  0  0  0  0  0  0  0  # atno 10167 bound_to 10162
  157.6736  131.0807  150.5725 H   0  0  0  0  0  0  0  0  0  0  0  0  # atno 10718 bound_to 10713
  152.9804  135.5991  154.3687 H   0  0  0  0  0  0  0  0  0  0  0  0  # atno 10763 bound_to 10752
  154.3363  135.2768  155.2448 H   0  0  0  0  0  0  0  0  0  0  0  0  # atno 10764 bound_to 10752
  154.4549  135.5980  153.6272 H   0  0  0  0  0  0  0  0  0  0  0  0  # atno 10765 bound_to 10752
  140.5067  134.5842  157.5005 H   0  0  0  0  0  0  0  0  0  0  0  0  # atno 11005 bound_to 11000
  144.7853  140.5924  143.6578 LP  0  0  0  0  0  0  0  0  0  0  0  0  # atno 17320 bound_to 7965
  145.4923  139.1488  143.3702 LP  0  0  0  0  0  0  0  0  0  0  0  0  # atno 17321 bound_to 7965
  139.8853  144.6995  150.8831 LP  0  0  0  0  0  0  0  0  0  0  0  0  # atno 17342 bound_to 10162
  140.7753  143.3628  151.1795 LP  0  0  0  0  0  0  0  0  0  0  0  0  # atno 17343 bound_to 10162
  156.6026  130.4358  149.5891 LP  0  0  0  0  0  0  0  0  0  0  0  0  # atno 17370 bound_to 10713
  156.2494  130.6898  151.1630 LP  0  0  0  0  0  0  0  0  0  0  0  0  # atno 17371 bound_to 10713
  139.9682  134.7337  156.0094 LP  0  0  0  0  0  0  0  0  0  0  0  0  # atno 17394 bound_to 11000
  141.1407  133.6565  156.3722 LP  0  0  0  0  0  0  0  0  0  0  0  0  # atno 17395 bound_to 11000

$$$$
