#       Name:                AV-unprocessed.smi:224
#       Creating user name   scv26
#       Creation time:       Thu Mar 26 20:18:57 2020


#       File generated by GOLD software.
#

@<TRIPOS>MOLECULE
AV-unprocessed.smi:224
    65    68     1
SMALL
NO_CHARGES


@<TRIPOS>ATOM
      1 ****        -3.6495   5.8983   3.0206 C.3            1 S1                 0.0000
      2 ****        -2.4369   4.9613   3.0953 C.3            1 S1                 0.0000
      3 ****        -2.2078   4.6592   4.4570 O.3            1 S1                 0.0000
      4 ****        -2.6764   3.6545   2.3128 C.3            1 S1                 0.0000
      5 ****        -1.4622   2.8007   2.2301 N.4            1 S1                 1.0000
      6 ****        -0.4669   3.2670   1.2269 C.3            1 S1                 0.0000
      7 ****         0.8210   2.4266   1.2961 C.3            1 S1                 0.0000
      8 ****         0.5276   0.9984   1.1928 N.pl3          1 S1                 0.0000
      9 ****         0.5352   0.4009  -0.0297 C.ar           1 S1                 0.0000
     10 ****         0.4254   1.1636  -1.1507 N.ar           1 S1                 0.0000
     11 ****         0.4043   0.5955  -2.3594 C.ar           1 S1                 0.0000
     12 ****         0.4848  -0.6978  -2.6731 N.ar           1 S1                 0.0000
     13 ****         0.6168  -1.4702  -1.5576 C.ar           1 S1                 0.0000
     14 ****         0.6498  -1.0081  -0.2108 C.ar           1 S1                 0.0000
     15 ****         0.8033  -2.0881   0.6514 N.2            1 S1                 0.0000
     16 ****         0.8468  -3.1263  -0.1378 C.2            1 S1                 0.0000
     17 ****         0.7480  -2.8455  -1.4815 N.pl3          1 S1                 0.0000
     18 ****         0.7719  -3.8028  -2.5766 C.3            1 S1                 0.0000
     19 ****         2.1931  -4.0834  -3.1182 C.3            1 S1                 0.0000
     20 ****         2.7324  -2.8859  -3.6505 O.3            1 S1                 0.0000
     21 ****         3.1629  -4.6265  -2.0718 C.3            1 S1                 0.0000
     22 ****         4.0636  -5.5443  -2.8863 C.3            1 S1                 0.0000
     23 ****         3.1500  -6.1527  -3.7823 O.3            1 S1                 0.0000
     24 ****         2.2233  -5.1635  -4.2183 C.3            1 S1                 0.0000
     25 ****        -0.4509   0.5157   2.1663 C.3            1 S1                 0.0000
     26 ****        -1.7575   1.3402   2.1273 C.3            1 S1                 0.0000
     27 ****        -2.6418   0.9780   0.9140 C.3            1 S1                 0.0000
     28 ****        -3.8618   6.1820   1.9894 H              1 S1                 0.0000
     29 ****        -3.4737   6.8157   3.5837 H              1 S1                 0.0000
     30 ****        -4.5447   5.4253   3.4259 H              1 S1                 0.0000
     31 ****        -1.5693   5.4957   2.7102 H              1 S1                 0.0000
     32 ****        -1.3745   4.2221   4.5408 H              1 S1                 0.0000
     33 ****        -3.4840   3.1054   2.7998 H              1 S1                 0.0000
     34 ****        -3.0244   3.8759   1.3026 H              1 S1                 0.0000
     35 ****        -0.9000   3.2190   0.2273 H              1 S1                 0.0000
     36 ****        -0.2125   4.3115   1.4003 H              1 S1                 0.0000
     37 ****         1.5320   2.7425   0.5315 H              1 S1                 0.0000
     38 ****         1.3163   2.5987   2.2525 H              1 S1                 0.0000
     39 ****         0.3084   1.2732  -3.1949 H              1 S1                 0.0000
     40 ****         0.9584  -4.1316   0.2413 H              1 S1                 0.0000
     41 ****         0.3166  -4.7295  -2.2244 H              1 S1                 0.0000
     42 ****         0.1282  -3.4319  -3.3753 H              1 S1                 0.0000
     43 ****         3.5897  -3.0728  -4.0015 H              1 S1                 0.0000
     44 ****         3.7100  -3.8521  -1.5321 H              1 S1                 0.0000
     45 ****         2.6272  -5.2282  -1.3367 H              1 S1                 0.0000
     46 ****         4.8060  -4.9731  -3.4455 H              1 S1                 0.0000
     47 ****         4.5812  -6.2824  -2.2735 H              1 S1                 0.0000
     48 ****         1.2492  -5.6288  -4.3726 H              1 S1                 0.0000
     49 ****         2.5467  -4.7610  -5.1798 H              1 S1                 0.0000
     50 ****        -0.6800  -0.5408   2.0377 H              1 S1                 0.0000
     51 ****         0.0012   0.6025   3.1549 H              1 S1                 0.0000
     52 ****        -2.3233   1.0676   3.0193 H              1 S1                 0.0000
     53 ****        -2.8072  -0.0986   0.8662 H              1 S1                 0.0000
     54 ****        -2.1924   1.2785  -0.0314 H              1 S1                 0.0000
     55 ****        -3.6237   1.4469   0.9742 H              1 S1                 0.0000
     56 ****        -1.0077   2.9016   3.1261 H              1 S1                 0.0000
     57 ****        -2.9350   4.0613   4.7942 LP             1 S1                 0.0000
     58 ****        -2.1975   5.5050   4.9904 LP             1 S1                 0.0000
     59 ****         0.3599   2.1582  -1.0692 LP             1 S1                 0.0000
     60 ****         0.4525  -1.0552  -3.6065 LP             1 S1                 0.0000
     61 ****         0.8660  -2.0726   1.6493 LP             1 S1                 0.0000
     62 ****         2.8063  -2.1988  -2.9277 LP             1 S1                 0.0000
     63 ****         2.1379  -2.5422  -4.3775 LP             1 S1                 0.0000
     64 ****         2.6619  -6.8914  -3.3174 LP             1 S1                 0.0000
     65 ****         3.6440  -6.5229  -4.5690 LP             1 S1                 0.0000
@<TRIPOS>BOND
    1    1    2 1     
    2    1   28 1     
    3    1   29 1     
    4    1   30 1     
    5    2    3 1     
    6    2    4 1     
    7    2   31 1     
    8    3   32 1     
    9    4    5 1     
   10    4   33 1     
   11    4   34 1     
   12    5   26 1     
   13    5    6 1     
   14    5   56 1     
   15    6    7 1     
   16    6   35 1     
   17    6   36 1     
   18    7    8 1     
   19    7   37 1     
   20    7   38 1     
   21    8    9 1     
   22    8   25 1     
   23    9   14 ar    
   24    9   10 ar    
   25   10   11 ar    
   26   11   12 ar    
   27   11   39 1     
   28   12   13 ar    
   29   13   17 1     
   30   13   14 ar    
   31   14   15 1     
   32   15   16 2     
   33   16   17 1     
   34   16   40 1     
   35   17   18 1     
   36   18   19 1     
   37   18   41 1     
   38   18   42 1     
   39   19   24 1     
   40   19   20 1     
   41   19   21 1     
   42   20   43 1     
   43   21   22 1     
   44   21   44 1     
   45   21   45 1     
   46   22   23 1     
   47   22   46 1     
   48   22   47 1     
   49   23   24 1     
   50   24   48 1     
   51   24   49 1     
   52   25   26 1     
   53   25   50 1     
   54   25   51 1     
   55   26   27 1     
   56   26   52 1     
   57   27   53 1     
   58   27   54 1     
   59   27   55 1     
   60    3   57 1     
   61    3   58 1     
   62   10   59 1     
   63   12   60 1     
   64   15   61 1     
   65   20   62 1     
   66   20   63 1     
   67   23   64 1     
   68   23   65 1     
@<TRIPOS>SUBSTRUCTURE
      1 S1             1
@<TRIPOS>SET
LONE_PAIRS      STATIC     ATOMS    <user>   **** ""
9 57 58 59 60 61 62 63 64 65
DONOR_HYDROGENS      STATIC     ATOMS    <user>   **** ""
3 32 56 43
ATOM$BLUE        STATIC     ATOMS    COLORGROUP SYSTEM
9 57 58 59 60 61 62 63 64 65
ATOM$RED        STATIC     ATOMS    COLORGROUP SYSTEM
3 32 56 43
