AV-unprocessed.smi:1103|AV-procd|sdf|4772|dock2
  -GOLD-   22720 3313D 1   1.00000     0.00000
 Structure written by MMmdl.
 44 45  0  0  0  0  0  0  0  0  2 V2000
  145.7016  134.8019  151.3118 C   0  0  0  0  0  0  0  0  0  0  0  0
  145.8708  134.9888  152.8261 C   0  0  0  0  0  0  0  0  0  0  0  0
  147.1799  134.4931  153.3228 N   0  3  2  0  0  0  0  0  0  0  0  0
  147.3320  133.0289  153.1175 C   0  0  0  0  0  0  0  0  0  0  0  0
  148.7324  132.5445  153.5263 C   0  0  0  0  0  0  0  0  0  0  0  0
  149.0562  132.9455  154.9728 C   0  0  0  0  0  0  0  0  0  0  0  0
  148.8694  134.4594  155.1869 C   0  0  1  0  0  0  0  0  0  0  0  0
  150.0085  135.2791  154.5355 C   0  0  0  0  0  0  0  0  0  0  0  0
  150.1918  136.5866  155.1582 N   0  0  0  0  0  0  0  0  0  0  0  0
  151.1985  137.4362  154.9013 C   0  0  0  0  0  0  0  0  0  0  0  0
  152.0753  137.2149  154.0662 O   0  0  0  0  0  0  0  0  0  0  0  0
  151.2228  138.7342  155.7093 C   0  0  0  0  0  0  0  0  0  0  0  0
  150.2311  139.6709  155.2140 N   0  0  0  0  0  0  0  0  0  0  0  0
  148.9706  139.4037  154.7224 C   0  0  0  0  0  0  0  0  0  0  0  0
  148.4074  140.5957  154.3641 C   0  0  0  0  0  0  0  0  0  0  0  0
  147.0500  140.8522  153.7757 C   0  0  0  0  0  0  0  0  0  0  0  0
  149.4182  141.5474  154.6818 C   0  0  0  0  0  0  0  0  0  0  0  0
  150.5076  140.9924  155.1881 N   0  0  0  0  0  0  0  0  0  0  0  0
  147.4493  134.8753  154.7358 C   0  0  0  0  0  0  0  0  0  0  0  0
  144.7122  135.1313  150.9943 H   0  0  0  0  0  0  0  0  0  0  0  0
  145.8015  133.7529  151.0327 H   0  0  0  0  0  0  0  0  0  0  0  0
  146.4311  135.3751  150.7403 H   0  0  0  0  0  0  0  0  0  0  0  0
  145.7382  136.0360  153.1022 H   0  0  0  0  0  0  0  0  0  0  0  0
  145.0666  134.4383  153.3161 H   0  0  0  0  0  0  0  0  0  0  0  0
  146.5702  132.5007  153.6933 H   0  0  0  0  0  0  0  0  0  0  0  0
  147.1631  132.7829  152.0684 H   0  0  0  0  0  0  0  0  0  0  0  0
  148.7934  131.4607  153.4217 H   0  0  0  0  0  0  0  0  0  0  0  0
  149.4784  132.9560  152.8459 H   0  0  0  0  0  0  0  0  0  0  0  0
  148.3950  132.4021  155.6493 H   0  0  0  0  0  0  0  0  0  0  0  0
  150.0712  132.6425  155.2322 H   0  0  0  0  0  0  0  0  0  0  0  0
  148.9333  134.6400  156.2611 H   0  0  0  0  0  0  0  0  0  0  0  0
  150.9501  134.7401  154.6455 H   0  0  0  0  0  0  0  0  0  0  0  0
  149.8514  135.3841  153.4613 H   0  0  0  0  0  0  0  0  0  0  0  0
  149.5204  136.8524  155.8649 H   0  0  0  0  0  0  0  0  0  0  0  0
  151.0084  138.5162  156.7564 H   0  0  0  0  0  0  0  0  0  0  0  0
  152.2106  139.1973  155.6739 H   0  0  0  0  0  0  0  0  0  0  0  0
  148.5842  138.3964  154.6657 H   0  0  0  0  0  0  0  0  0  0  0  0
  147.0069  141.8117  153.2598 H   0  0  0  0  0  0  0  0  0  0  0  0
  146.2759  140.8642  154.5430 H   0  0  0  0  0  0  0  0  0  0  0  0
  146.7730  140.0863  153.0508 H   0  0  0  0  0  0  0  0  0  0  0  0
  149.3928  142.6201  154.5578 H   0  0  0  0  0  0  0  0  0  0  0  0
  147.3084  135.9448  154.8808 H   0  0  0  0  0  0  0  0  0  0  0  0
  146.7103  134.3898  155.3754 H   0  0  0  0  0  0  0  0  0  0  0  0
  147.8888  134.9365  152.7555 H   0  0  0  0  0  0  0  0  0  0  0  0
  1  2  1  0  0  0  0
  1 20  1  0  0  0  0
  1 21  1  0  0  0  0
  1 22  1  0  0  0  0
  2  3  1  0  0  0  0
  2 23  1  0  0  0  0
  2 24  1  0  0  0  0
  3 19  1  0  0  0  0
  3  4  1  0  0  0  0
  3 44  1  0  0  0  0
  4  5  1  0  0  0  0
  4 25  1  0  0  0  0
  4 26  1  0  0  0  0
  5  6  1  0  0  0  0
  5 27  1  0  0  0  0
  5 28  1  0  0  0  0
  6  7  1  0  0  0  0
  6 29  1  0  0  0  0
  6 30  1  0  0  0  0
  7  8  1  0  0  0  0
  7 19  1  0  0  0  0
  7 31  1  0  0  0  0
  8  9  1  0  0  0  0
  8 32  1  0  0  0  0
  8 33  1  0  0  0  0
  9 10  1  0  0  0  0
  9 34  1  0  0  0  0
 10 11  2  0  0  0  0
 10 12  1  0  0  0  0
 12 13  1  0  0  0  0
 12 35  1  0  0  0  0
 12 36  1  0  0  0  0
 13 18  1  0  0  0  0
 13 14  1  0  0  0  0
 14 15  2  0  0  0  0
 14 37  1  0  0  0  0
 15 16  1  0  0  0  0
 15 17  1  0  0  0  0
 16 38  1  0  0  0  0
 16 39  1  0  0  0  0
 16 40  1  0  0  0  0
 17 18  2  0  0  0  0
 17 41  1  0  0  0  0
 19 42  1  0  0  0  0
 19 43  1  0  0  0  0
M  CHG  1   3   1
M  END
> <s_m_source_file>
AV-unprocessed.smi

> <i_m_source_file_index>
1103

> <i_lp_mmshare_version>
43012

> <i_f3d_flags>
0

> <s_epik_input>
W0NIM11bQ0gyXU4xW0NIMl1bQ0gyXVtDSDJdW0NASF0oW0NIMl0xKVtDSDJdW05IXUMoPU8pW0NIMl1uMltjSF1jKFtDSDNdKVtjSF1uMg==

> <s_epik_cmdline>
J2VwaWtfcHl0aG9uJywgJy1waCcsICc3LjAnLCAnLXRuJywgJzgnLCAnLW1hJywgJzIwMCcsICctbWV0YWxfYmluZGluZycsICctaW1hZScsICc8aW5maWxlLm1hZT4nLCAnLW9tYWUnLCAnPG91dGZpbGUubWFlPic=

> <r_lp_tautomer_probability>
1

> <r_epik_Ionization_Penalty>
0.000672456

> <r_epik_Ionization_Penalty_Charging>
0.000647327

> <r_epik_Ionization_Penalty_Neutral>
2.51297e-05

> <r_epik_State_Penalty>
0.000409793

> <r_epik_Charging_Adjusted_Penalty>
0.00105712

> <i_epik_Tot_Q>
1

> <i_epik_Tot_abs_Q>
1

> <r_epik_Metal_State_Penalty>
-0

> <b_epik_Metal_Only>
0

> <s_lp_Force_Field>
OPLS_2005

> <r_lp_Energy>
19.6745

> <b_lp_Chiralities_Consistent>
1

> <s_lp_Variant>
AV-unprocessed.smi:1103-2

> <Gold.Version>
5.8.1

> <Gold.Id.Protein>
6NUR|6NUR_protein|mol2

> <Gold.PLP.Fitness>
44.2295

> <Gold.PLP.PLP>
-32.6987

> <Gold.PLP.part.hbond>
-3.0000

> <Gold.PLP.part.metal>
0.0000

> <Gold.PLP.part.buried>
-1.5284

> <Gold.PLP.part.nonpolar>
-28.2131

> <Gold.PLP.part.repulsive>
0.6296

> <Gold.PLP.ligand.clash>
0.0000

> <Gold.PLP.ligand.torsion>
0.8175

> <Gold.PLP.Chemscore.Hbond>
3.5488

> <Gold.PLP.Chemscore.CHOScore>
0.8146

> <Gold.PLP.Chemscore.Metal>
0.0000

> <Gold.Chemscore.Hbonds>
donor molecule, donor type, donor heavy atom, donor atom, acceptor molecule, acceptor atom, score
      L1  H     3    44       P1  7948  2.00
      P1  H  7989  7998       L1    18  0.51
      P1  H 10752 10764       L1    11  0.98
      L1  C    17    41       P1  8028  1.00

> <Gold.PLP.Chemscore.Internal.Correction>
0.0756

> <Gold.Rescore>
     Score         DG    S(hbond)    S(metal)    S(lipo)     H(rot)  DE(clash)    DE(int)     intcor
     15.51     -16.21       2.01        0.00      71.10       1.68       0.20       0.50       ----

> <Gold.Chemscore.Fitness>
15.5100

> <Gold.Chemscore.DG>
-16.2105

> <Gold.Chemscore.ZeroCoef>
-5.4800

> <Gold.Chemscore.Hbond>
2.0115

> <Gold.Chemscore.Metal>
0.0000

> <Gold.Chemscore.Lipo>
71.0999

> <Gold.Chemscore.Internal_Hbond>
0.0000

> <Gold.Chemscore.DEClash>
0.1985

> <Gold.Chemscore.DEInternal>
0.5020

> <Gold.Chemscore.Rot>
1.6823

> <Gold.Chemscore.Internal.Correction>
   9.000000E+99

> <Gold.Chemscore.Hbonds>
donor molecule, donor type, donor heavy atom, donor atom, acceptor molecule, acceptor atom, score
      L1  H     3    44       P1  7948  0.94
      P1  H  7989  7998       L1    18  0.01
      P1  H 10752 10764       L1    11  0.92

> <Gold.Chemscore.Hbond.Weighted>
-6.7184

> <Gold.Chemscore.Metal.Weighted>
-0.0000

> <Gold.Chemscore.Lipo.Weighted>
-8.3187

> <Gold.Chemscore.Internal_Hbond.Weighted>
0.0000

> <Gold.Chemscore.DEClash.Weighted>
0.1985

> <Gold.Chemscore.DEInternal.Weighted>
0.5020

> <Gold.Chemscore.Rot.Weighted>
4.3066

> <Gold.Chemscore.Internal.Correction.Weighted>
   9.000000E+99

> <Gold.Protein.RotatedTorsions>
[ 6907 6896 6895 6894 ] final -145.00 input  -60.11 | X-H torsion
[ 7974 7965 7964 7962 ] final  -47.07 input  175.53 | X-H torsion
[ 8008 7997 7996 7995 ] final  123.67 input   59.86 | X-H torsion
[ 10167 10162 10161 10158 ] final  -67.04 input  -65.29 | X-H torsion
[ 10718 10713 10712 10709 ] final   61.65 input   66.30 | X-H torsion
[ 10763 10752 10751 10750 ] final  -89.62 input  -60.55 | X-H torsion
[ 11005 11000 10999 10996 ] final  -92.84 input  -57.11 | X-H torsion

> <Gold.Protein.ActiveResidues>
 VAL166  LYS551  ARG553  GLY616  TRP617  ASP618  TYR619  PRO620  LYS621  CYS622 
 ASP623  PHE694  ASN695  SER759  ASP760  ASP761  ALA762  ILE779  LEU786  VAL792 
 PHE793  MET794  SER795  GLU796  ALA797  LYS798  CYS799  TRP800  GLU811  SER814 

> <Gold.Protein.RotatedAtoms>
  151.1217  133.5099  159.2601 H   0  0  0  0  0  0  0  0  0  0  0  0  # atno 6907 bound_to 6896
  151.1854  135.0379  159.8820 H   0  0  0  0  0  0  0  0  0  0  0  0  # atno 6908 bound_to 6896
  152.5456  134.1064  159.8393 H   0  0  0  0  0  0  0  0  0  0  0  0  # atno 6909 bound_to 6896
  145.9653  140.7438  142.9437 H   0  0  0  0  0  0  0  0  0  0  0  0  # atno 7974 bound_to 7965
  156.2774  140.2757  156.1665 H   0  0  0  0  0  0  0  0  0  0  0  0  # atno 8008 bound_to 7997
  155.0699  140.0387  157.2623 H   0  0  0  0  0  0  0  0  0  0  0  0  # atno 8009 bound_to 7997
  154.7048  140.2656  155.6690 H   0  0  0  0  0  0  0  0  0  0  0  0  # atno 8010 bound_to 7997
  140.5613  143.2313  151.6723 H   0  0  0  0  0  0  0  0  0  0  0  0  # atno 10167 bound_to 10162
  157.5843  130.9006  149.9487 H   0  0  0  0  0  0  0  0  0  0  0  0  # atno 10718 bound_to 10713
  154.6572  135.5334  153.7974 H   0  0  0  0  0  0  0  0  0  0  0  0  # atno 10763 bound_to 10752
  153.0420  135.6497  154.0927 H   0  0  0  0  0  0  0  0  0  0  0  0  # atno 10764 bound_to 10752
  154.0839  135.2945  155.3265 H   0  0  0  0  0  0  0  0  0  0  0  0  # atno 10765 bound_to 10752
  141.1512  133.7848  157.0076 H   0  0  0  0  0  0  0  0  0  0  0  0  # atno 11005 bound_to 11000
  144.6824  140.2659  143.7312 LP  0  0  0  0  0  0  0  0  0  0  0  0  # atno 17320 bound_to 7965
  145.7982  139.1953  143.2063 LP  0  0  0  0  0  0  0  0  0  0  0  0  # atno 17321 bound_to 7965
  139.5071  144.3657  152.0519 LP  0  0  0  0  0  0  0  0  0  0  0  0  # atno 17342 bound_to 10162
  140.2784  144.3887  150.6127 LP  0  0  0  0  0  0  0  0  0  0  0  0  # atno 17343 bound_to 10162
  156.0891  130.3665  150.0430 LP  0  0  0  0  0  0  0  0  0  0  0  0  # atno 17370 bound_to 10713
  156.8564  130.9476  151.3621 LP  0  0  0  0  0  0  0  0  0  0  0  0  # atno 17371 bound_to 10713
  140.0898  134.9599  157.1759 LP  0  0  0  0  0  0  0  0  0  0  0  0  # atno 17394 bound_to 11000
  140.3461  134.2650  155.7205 LP  0  0  0  0  0  0  0  0  0  0  0  0  # atno 17395 bound_to 11000

$$$$
