AV-unprocessed.smi:86|AV-procd|sdf|813|dock10
  -GOLD-   2262017213D 1   1.00000     0.00000
 Structure written by MMmdl.
 51 55  0  0  0  0  0  0  0  0  1 V2000
  145.8824  134.5248  160.2826 O   0  0  0  0  0  0  0  0  0  0  0  0
  146.9221  134.6007  159.3285 C   0  0  0  0  0  0  0  0  0  0  0  0
  147.5792  135.9919  159.3251 C   0  0  0  0  0  0  0  0  0  0  0  0
  148.7577  136.0294  158.3308 C   0  0  0  0  0  0  0  0  0  0  0  0
  149.5515  137.2469  158.4069 N   0  0  0  0  0  0  0  0  0  0  0  0
  150.7282  137.4215  159.0976 C   0  0  0  0  0  0  0  0  0  0  0  0
  151.2507  138.6133  159.0114 N   0  0  0  0  0  0  0  0  0  0  0  0
  150.3653  139.3250  158.2086 C   0  0  0  0  0  0  0  0  0  0  0  0
  150.3135  140.6624  157.7117 C   0  0  0  0  0  0  0  0  0  0  0  0
  151.2416  141.6211  157.9675 N   0  0  0  0  0  0  0  0  0  0  0  0
  150.9466  143.0451  157.9425 C   0  0  0  0  0  0  0  0  0  0  0  0
  152.2599  143.7092  158.3610 C   0  0  1  0  0  0  0  0  0  0  0  0
  152.1542  145.1529  158.8909 C   0  0  0  0  0  0  0  0  0  0  0  0
  151.5814  145.2297  160.3139 C   0  0  0  0  0  0  0  0  0  0  0  0
  152.3641  144.3133  161.2666 C   0  0  1  0  0  0  0  0  0  0  0  0
  151.8073  144.3997  162.5613 O   0  0  0  0  0  0  0  0  0  0  0  0
  152.3030  142.8575  160.7813 C   0  0  0  0  0  0  0  0  0  0  0  0
  152.8638  142.6986  159.3508 C   0  0  1  0  0  0  0  0  0  0  0  0
  152.4517  141.3505  158.7397 C   0  0  0  0  0  0  0  0  0  0  0  0
  149.2465  140.9945  156.9379 N   0  0  0  0  0  0  0  0  0  0  0  0
  148.3001  140.0943  156.6597 C   0  0  0  0  0  0  0  0  0  0  0  0
  148.2219  138.8215  157.0477 N   0  0  0  0  0  0  0  0  0  0  0  0
  149.2855  138.4759  157.8273 C   0  0  0  0  0  0  0  0  0  0  0  0
  146.5992  137.1709  159.2508 C   0  0  0  0  0  0  0  0  0  0  0  0
  146.7099  137.4284  160.6667 O   0  0  0  0  0  0  0  0  0  0  0  0
  147.8621  136.5616  160.7225 C   0  0  0  0  0  0  0  0  0  0  0  0
  145.4397  135.3591  160.3125 H   0  0  0  0  0  0  0  0  0  0  0  0
  147.6545  133.8313  159.5749 H   0  0  0  0  0  0  0  0  0  0  0  0
  146.5271  134.3372  158.3474 H   0  0  0  0  0  0  0  0  0  0  0  0
  149.4171  135.1736  158.4779 H   0  0  0  0  0  0  0  0  0  0  0  0
  148.3930  135.9400  157.3068 H   0  0  0  0  0  0  0  0  0  0  0  0
  151.1930  136.6342  159.6724 H   0  0  0  0  0  0  0  0  0  0  0  0
  150.6370  143.3748  156.9506 H   0  0  0  0  0  0  0  0  0  0  0  0
  150.1462  143.2643  158.6498 H   0  0  0  0  0  0  0  0  0  0  0  0
  152.8987  143.7283  157.4763 H   0  0  0  0  0  0  0  0  0  0  0  0
  153.1512  145.5954  158.8957 H   0  0  0  0  0  0  0  0  0  0  0  0
  151.5570  145.7600  158.2102 H   0  0  0  0  0  0  0  0  0  0  0  0
  151.6199  146.2606  160.6681 H   0  0  0  0  0  0  0  0  0  0  0  0
  150.5281  144.9464  160.3041 H   0  0  0  0  0  0  0  0  0  0  0  0
  153.4031  144.6403  161.3224 H   0  0  0  0  0  0  0  0  0  0  0  0
  152.5125  144.4409  163.1893 H   0  0  0  0  0  0  0  0  0  0  0  0
  152.8553  142.2101  161.4635 H   0  0  0  0  0  0  0  0  0  0  0  0
  151.2667  142.5162  160.8113 H   0  0  0  0  0  0  0  0  0  0  0  0
  153.9495  142.7976  159.3841 H   0  0  0  0  0  0  0  0  0  0  0  0
  152.2980  140.5935  159.5101 H   0  0  0  0  0  0  0  0  0  0  0  0
  153.2218  140.9870  158.0587 H   0  0  0  0  0  0  0  0  0  0  0  0
  147.4894  140.4443  156.0379 H   0  0  0  0  0  0  0  0  0  0  0  0
  146.9604  138.0119  158.6566 H   0  0  0  0  0  0  0  0  0  0  0  0
  145.5873  136.8927  158.9541 H   0  0  0  0  0  0  0  0  0  0  0  0
  147.7971  135.8261  161.5250 H   0  0  0  0  0  0  0  0  0  0  0  0
  148.7877  137.1343  160.7932 H   0  0  0  0  0  0  0  0  0  0  0  0
  1  2  1  0  0  0  0
  1 27  1  0  0  0  0
  2  3  1  0  0  0  0
  2 28  1  0  0  0  0
  2 29  1  0  0  0  0
  3 26  1  0  0  0  0
  3  4  1  0  0  0  0
  3 24  1  0  0  0  0
  4  5  1  0  0  0  0
  4 30  1  0  0  0  0
  4 31  1  0  0  0  0
  5 23  1  0  0  0  0
  5  6  1  0  0  0  0
  6  7  2  0  0  0  0
  6 32  1  0  0  0  0
  7  8  1  0  0  0  0
  8 23  2  0  0  0  0
  8  9  1  0  0  0  0
  9 10  1  0  0  0  0
  9 20  2  0  0  0  0
 10 19  1  0  0  0  0
 10 11  1  0  0  0  0
 11 12  1  0  0  0  0
 11 33  1  0  0  0  0
 11 34  1  0  0  0  0
 12 18  1  0  0  0  0
 12 13  1  0  0  0  0
 12 35  1  0  0  0  0
 13 14  1  0  0  0  0
 13 36  1  0  0  0  0
 13 37  1  0  0  0  0
 14 15  1  0  0  0  0
 14 38  1  0  0  0  0
 14 39  1  0  0  0  0
 15 16  1  0  0  0  0
 15 17  1  0  0  0  0
 15 40  1  0  0  0  0
 16 41  1  0  0  0  0
 17 18  1  0  0  0  0
 17 42  1  0  0  0  0
 17 43  1  0  0  0  0
 18 19  1  0  0  0  0
 18 44  1  0  0  0  0
 19 45  1  0  0  0  0
 19 46  1  0  0  0  0
 20 21  1  0  0  0  0
 21 22  2  0  0  0  0
 21 47  1  0  0  0  0
 22 23  1  0  0  0  0
 24 25  1  0  0  0  0
 24 48  1  0  0  0  0
 24 49  1  0  0  0  0
 25 26  1  0  0  0  0
 26 50  1  0  0  0  0
 26 51  1  0  0  0  0
M  END
> <s_m_source_file>
AV-unprocessed.smi

> <i_m_source_file_index>
86

> <i_lp_mmshare_version>
43012

> <i_f3d_flags>
0

> <s_epik_input>
W0NIMl0xT1tDSDJdQzEoW0NIMl1bT0hdKVtDSDJdbihbY0hdbjIpYyhjMjMpbltjSF1uYzNOKFtDSDJdNClbQ0gyXVtDQEBIXShbQ0BIXTQ1KVtDSDJdW0NASF0oW09IXSlbQ0gyXVtDSDJdNQ==

> <s_epik_cmdline>
J2VwaWtfcHl0aG9uJywgJy1waCcsICc3LjAnLCAnLXRuJywgJzgnLCAnLW1hJywgJzIwMCcsICctbWV0YWxfYmluZGluZycsICctaW1hZScsICc8aW5maWxlLm1hZT4nLCAnLW9tYWUnLCAnPG91dGZpbGUubWFlPic=

> <r_lp_tautomer_probability>
1

> <r_epik_Ionization_Penalty>
0.00425795

> <r_epik_Ionization_Penalty_Charging>
0

> <r_epik_Ionization_Penalty_Neutral>
0.00425795

> <r_epik_State_Penalty>
0.00299946

> <r_epik_Charging_Adjusted_Penalty>
0.00299946

> <i_epik_Tot_Q>
0

> <i_epik_Tot_abs_Q>
0

> <r_epik_Metal_State_Penalty>
-0

> <b_epik_Metal_Only>
0

> <s_lp_Force_Field>
OPLS_2005

> <r_lp_Energy>
54.7951

> <b_lp_Chiralities_Consistent>
1

> <s_lp_Variant>
AV-unprocessed.smi:86-2

> <Gold.Version>
5.8.1

> <Gold.Id.Protein>
6NUR|6NUR_protein|mol2

> <Gold.PLP.Fitness>
48.8674

> <Gold.PLP.PLP>
-46.7564

> <Gold.PLP.part.hbond>
-3.0317

> <Gold.PLP.part.metal>
0.0000

> <Gold.PLP.part.buried>
-7.5678

> <Gold.PLP.part.nonpolar>
-36.6527

> <Gold.PLP.part.repulsive>
0.0480

> <Gold.PLP.ligand.clash>
0.0000

> <Gold.PLP.ligand.torsion>
0.6701

> <Gold.PLP.Chemscore.Hbond>
1.0000

> <Gold.PLP.Chemscore.CHOScore>
0.0000

> <Gold.PLP.Chemscore.Metal>
0.0000

> <Gold.Chemscore.Hbonds>
donor molecule, donor type, donor heavy atom, donor atom, acceptor molecule, acceptor atom, score
      P1  H  6934  6947       L1    25  1.00

> <Gold.PLP.Chemscore.Internal.Correction>
0.4512

> <Gold.Rescore>
     Score         DG    S(hbond)    S(metal)    S(lipo)     H(rot)  DE(clash)    DE(int)     intcor
     10.37     -13.72       0.75        0.00     109.38       2.76       0.81       2.53       ----

> <Gold.Chemscore.Fitness>
10.3690

> <Gold.Chemscore.DG>
-13.7182

> <Gold.Chemscore.ZeroCoef>
-5.4800

> <Gold.Chemscore.Hbond>
0.7528

> <Gold.Chemscore.Metal>
0.0000

> <Gold.Chemscore.Lipo>
109.3782

> <Gold.Chemscore.Internal_Hbond>
0.0000

> <Gold.Chemscore.DEClash>
0.8146

> <Gold.Chemscore.DEInternal>
2.5346

> <Gold.Chemscore.Rot>
2.7630

> <Gold.Chemscore.Internal.Correction>
   9.000000E+99

> <Gold.Chemscore.Hbonds>
donor molecule, donor type, donor heavy atom, donor atom, acceptor molecule, acceptor atom, score
      P1  H  6934  6947       L1    25  0.58

> <Gold.Chemscore.Hbond.Weighted>
-2.5143

> <Gold.Chemscore.Metal.Weighted>
-0.0000

> <Gold.Chemscore.Lipo.Weighted>
-12.7972

> <Gold.Chemscore.Internal_Hbond.Weighted>
0.0000

> <Gold.Chemscore.DEClash.Weighted>
0.8146

> <Gold.Chemscore.DEInternal.Weighted>
2.5346

> <Gold.Chemscore.Rot.Weighted>
7.0734

> <Gold.Chemscore.Internal.Correction.Weighted>
   9.000000E+99

> <Gold.Protein.RotatedTorsions>
[ 6907 6896 6895 6894 ] final  179.46 input  -60.11 | X-H torsion
[ 7974 7965 7964 7962 ] final   55.66 input  175.53 | X-H torsion
[ 8008 7997 7996 7995 ] final   81.53 input   59.86 | X-H torsion
[ 10167 10162 10161 10158 ] final  -14.78 input  -65.29 | X-H torsion
[ 10718 10713 10712 10709 ] final   81.79 input   66.30 | X-H torsion
[ 10763 10752 10751 10750 ] final  -66.88 input  -60.55 | X-H torsion
[ 11005 11000 10999 10996 ] final  111.90 input  -57.11 | X-H torsion

> <Gold.Protein.ActiveResidues>
 VAL166  LYS551  ARG553  GLY616  TRP617  ASP618  TYR619  PRO620  LYS621  CYS622 
 ASP623  PHE694  ASN695  SER759  ASP760  ASP761  ALA762  ILE779  LEU786  VAL792 
 PHE793  MET794  SER795  GLU796  ALA797  LYS798  CYS799  TRP800  GLU811  SER814 

> <Gold.Protein.RotatedAtoms>
  151.6712  133.3314  159.3196 H   0  0  0  0  0  0  0  0  0  0  0  0  # atno 6907 bound_to 6896
  150.7866  134.6860  159.6480 H   0  0  0  0  0  0  0  0  0  0  0  0  # atno 6908 bound_to 6896
  152.3938  134.6403  160.0149 H   0  0  0  0  0  0  0  0  0  0  0  0  # atno 6909 bound_to 6896
  145.9480  139.3947  143.0323 H   0  0  0  0  0  0  0  0  0  0  0  0  # atno 7974 bound_to 7965
  155.8984  140.3435  155.6008 H   0  0  0  0  0  0  0  0  0  0  0  0  # atno 8008 bound_to 7997
  155.7529  140.0822  157.2211 H   0  0  0  0  0  0  0  0  0  0  0  0  # atno 8009 bound_to 7997
  154.4041  140.1550  156.2732 H   0  0  0  0  0  0  0  0  0  0  0  0  # atno 8010 bound_to 7997
  140.7207  143.5286  150.9546 H   0  0  0  0  0  0  0  0  0  0  0  0  # atno 10167 bound_to 10162
  157.6842  131.0019  150.2279 H   0  0  0  0  0  0  0  0  0  0  0  0  # atno 10718 bound_to 10713
  154.3663  135.6105  153.5717 H   0  0  0  0  0  0  0  0  0  0  0  0  # atno 10763 bound_to 10752
  152.9791  135.5827  154.4574 H   0  0  0  0  0  0  0  0  0  0  0  0  # atno 10764 bound_to 10752
  154.4320  135.2848  155.1883 H   0  0  0  0  0  0  0  0  0  0  0  0  # atno 10765 bound_to 10752
  139.8914  134.9518  156.6504 H   0  0  0  0  0  0  0  0  0  0  0  0  # atno 11005 bound_to 11000
  145.8210  140.9679  143.0899 LP  0  0  0  0  0  0  0  0  0  0  0  0  # atno 17320 bound_to 7965
  144.6790  140.0041  143.7484 LP  0  0  0  0  0  0  0  0  0  0  0  0  # atno 17321 bound_to 7965
  139.9006  143.6841  152.3132 LP  0  0  0  0  0  0  0  0  0  0  0  0  # atno 17342 bound_to 10162
  139.7189  144.7606  151.0988 LP  0  0  0  0  0  0  0  0  0  0  0  0  # atno 17343 bound_to 10162
  156.2917  130.3746  149.7835 LP  0  0  0  0  0  0  0  0  0  0  0  0  # atno 17370 bound_to 10713
  156.5492  130.8334  151.3294 LP  0  0  0  0  0  0  0  0  0  0  0  0  # atno 17371 bound_to 10713
  140.7525  133.8885  155.8357 LP  0  0  0  0  0  0  0  0  0  0  0  0  # atno 17394 bound_to 11000
  140.9989  134.1178  157.4337 LP  0  0  0  0  0  0  0  0  0  0  0  0  # atno 17395 bound_to 11000

$$$$
