#       Name:                AV-unprocessed.smi:2772
#       Creating user name   scv26
#       Creation time:       Fri Mar 27 15:12:04 2020


#       File generated by GOLD software.
#

@<TRIPOS>MOLECULE
AV-unprocessed.smi:2772
    58    60     1
SMALL
NO_CHARGES


@<TRIPOS>ATOM
      1 ****        -8.5593   4.6946  -0.6315 C.3            1 S1                 0.0000
      2 ****        -7.4019   3.7515  -0.3799 C.ar           1 S1                 0.0000
      3 ****        -7.5655   2.3510  -0.3455 C.ar           1 S1                 0.0000
      4 ****        -6.4430   1.5328  -0.1022 C.ar           1 S1                 0.0000
      5 ****        -5.1747   2.1223   0.0960 C.ar           1 S1                 0.0000
      6 ****        -4.0760   1.2564   0.3515 N.am           1 S1                 0.0000
      7 ****        -2.7613   1.5222   0.2610 C.2            1 S1                 0.0000
      8 ****        -2.2756   2.5940  -0.0993 O.2            1 S1                 0.0000
      9 ****        -2.0234   0.4541   0.5969 N.am           1 S1                 0.0000
     10 ****        -0.5637   0.4118   0.5982 C.3            1 S1                 0.0000
     11 ****        -0.0176   0.1610  -0.8159 C.3            1 S1                 0.0000
     12 ****         1.5140   0.0371  -0.7980 C.3            1 S1                 0.0000
     13 ****         1.9737  -1.0537   0.1098 N.4            1 S1                 1.0000
     14 ****         3.4504  -1.2964  -0.0033 C.3            1 S1                 0.0000
     15 ****         3.7802  -2.0754  -1.2993 C.3            1 S1                 0.0000
     16 ****         5.2879  -2.3414  -1.4488 C.3            1 S1                 0.0000
     17 ****         5.8187  -3.0795  -0.2787 N.4            1 S1                 1.0000
     18 ****         7.2417  -3.4481  -0.4424 C.3            1 S1                 0.0000
     19 ****         5.5662  -2.3502   0.9864 C.3            1 S1                 0.0000
     20 ****         4.0642  -2.0807   1.1846 C.3            1 S1                 0.0000
     21 ****         1.4634  -0.8309   1.4950 C.3            1 S1                 0.0000
     22 ****        -0.0702  -0.7046   1.5272 C.3            1 S1                 0.0000
     23 ****        -5.0772   3.5364   0.0618 C.ar           1 S1                 0.0000
     24 ****        -6.1775   4.2842  -0.1735 N.pl3          1 S1                 1.0000
     25 ****        -9.3935   4.1714  -1.1001 H              1 S1                 0.0000
     26 ****        -8.2574   5.5091  -1.2909 H              1 S1                 0.0000
     27 ****        -8.9075   5.1230   0.3086 H              1 S1                 0.0000
     28 ****        -8.5375   1.9063  -0.5017 H              1 S1                 0.0000
     29 ****        -6.5591   0.4589  -0.0734 H              1 S1                 0.0000
     30 ****        -4.3200   0.3062   0.5909 H              1 S1                 0.0000
     31 ****        -2.5046  -0.3878   0.8781 H              1 S1                 0.0000
     32 ****        -0.1787   1.3641   0.9692 H              1 S1                 0.0000
     33 ****        -0.4530  -0.7497  -1.2305 H              1 S1                 0.0000
     34 ****        -0.3088   0.9739  -1.4826 H              1 S1                 0.0000
     35 ****         1.8498  -0.1349  -1.8188 H              1 S1                 0.0000
     36 ****         1.9574   0.9828  -0.4818 H              1 S1                 0.0000
     37 ****         3.9461  -0.3244  -0.0383 H              1 S1                 0.0000
     38 ****         3.2435  -3.0254  -1.3023 H              1 S1                 0.0000
     39 ****         3.4458  -1.5361  -2.1841 H              1 S1                 0.0000
     40 ****         5.4664  -2.9211  -2.3555 H              1 S1                 0.0000
     41 ****         5.8264  -1.3990  -1.5641 H              1 S1                 0.0000
     42 ****         7.8713  -2.5601  -0.5116 H              1 S1                 0.0000
     43 ****         7.3849  -4.0406  -1.3466 H              1 S1                 0.0000
     44 ****         7.5845  -4.0457   0.4030 H              1 S1                 0.0000
     45 ****         5.9436  -2.9362   1.8255 H              1 S1                 0.0000
     46 ****         6.1197  -1.4096   0.9832 H              1 S1                 0.0000
     47 ****         3.9538  -1.5234   2.1152 H              1 S1                 0.0000
     48 ****         3.5414  -3.0291   1.3174 H              1 S1                 0.0000
     49 ****         1.7210  -1.6671   2.1436 H              1 S1                 0.0000
     50 ****         1.9262   0.0627   1.9168 H              1 S1                 0.0000
     51 ****        -0.4004  -0.5124   2.5490 H              1 S1                 0.0000
     52 ****        -0.5162  -1.6562   1.2330 H              1 S1                 0.0000
     53 ****        -4.1736   4.1042   0.2234 H              1 S1                 0.0000
     54 ****         1.5273  -1.9027  -0.2072 H              1 S1                 0.0000
     55 ****         5.3049  -3.9476  -0.2229 H              1 S1                 0.0000
     56 ****        -6.0786   5.2996  -0.1933 H              1 S1                 0.0000
     57 ****        -2.8740   3.3537  -0.3538 LP             1 S1                 0.0000
     58 ****        -1.2825   2.7052  -0.1376 LP             1 S1                 0.0000
@<TRIPOS>BOND
    1    1    2 1     
    2    1   25 1     
    3    1   26 1     
    4    1   27 1     
    5    2   24 ar    
    6    2    3 ar    
    7    3    4 ar    
    8    3   28 1     
    9    4    5 ar    
   10    4   29 1     
   11    5    6 1     
   12    5   23 ar    
   13    6    7 am    
   14    6   30 1     
   15    7    8 2     
   16    7    9 am    
   17    9   10 1     
   18    9   31 1     
   19   10   22 1     
   20   10   11 1     
   21   10   32 1     
   22   11   12 1     
   23   11   33 1     
   24   11   34 1     
   25   12   13 1     
   26   12   35 1     
   27   12   36 1     
   28   13   14 1     
   29   13   21 1     
   30   13   54 1     
   31   14   20 1     
   32   14   15 1     
   33   14   37 1     
   34   15   16 1     
   35   15   38 1     
   36   15   39 1     
   37   16   17 1     
   38   16   40 1     
   39   16   41 1     
   40   17   18 1     
   41   17   19 1     
   42   17   55 1     
   43   18   42 1     
   44   18   43 1     
   45   18   44 1     
   46   19   20 1     
   47   19   45 1     
   48   19   46 1     
   49   20   47 1     
   50   20   48 1     
   51   21   22 1     
   52   21   49 1     
   53   21   50 1     
   54   22   51 1     
   55   22   52 1     
   56   23   24 ar    
   57   23   53 1     
   58   24   56 1     
   59    8   57 1     
   60    8   58 1     
@<TRIPOS>SUBSTRUCTURE
      1 S1             1
@<TRIPOS>SET
LONE_PAIRS      STATIC     ATOMS    <user>   **** ""
2 57 58
DONOR_HYDROGENS      STATIC     ATOMS    <user>   **** ""
5 30 31 54 55 56
ATOM$BLUE        STATIC     ATOMS    COLORGROUP SYSTEM
2 57 58
ATOM$RED        STATIC     ATOMS    COLORGROUP SYSTEM
5 30 31 54 55 56
