#       Name:                AV-unprocessed.smi:3132
#       Creating user name   scv26
#       Creation time:       Fri Mar 27 17:32:05 2020


#       File generated by GOLD software.
#

@<TRIPOS>MOLECULE
AV-unprocessed.smi:3132
    38    39     1
SMALL
NO_CHARGES


@<TRIPOS>ATOM
      1 ****         0.3070  -2.9443  -2.2503 C.3            1 S1                 0.0000
      2 ****         0.4102  -2.0701  -0.9934 C.3            1 S1                 0.0000
      3 ****         1.8819  -1.8608  -0.5745 C.3            1 S1                 0.0000
      4 ****         2.0201  -1.1375   0.6942 N.pl3          1 S1                 0.0000
      5 ****         2.3796   0.1747   0.8693 C.2            1 S1                 0.0000
      6 ****         2.3551   0.4096   2.2198 C.2            1 S1                 0.0000
      7 ****         1.9885  -0.7694   2.8117 N.pl3          1 S1                 1.0000
      8 ****         1.7881  -1.7097   1.8826 C.2            1 S1                 0.0000
      9 ****        -0.2462  -0.7885  -1.2497 N.am           1 S1                 0.0000
     10 ****        -0.9883  -0.0985  -0.3686 C.2            1 S1                 0.0000
     11 ****        -1.2223  -0.4941   0.7743 O.2            1 S1                 0.0000
     12 ****        -1.5030   1.2644  -0.8433 C.3            1 S1                 0.0000
     13 ****        -2.8474   1.6888  -0.2226 C.3            1 S1                 0.0000
     14 ****        -2.4556   2.7701   0.7643 C.3            1 S1                 0.0000
     15 ****        -1.2394   3.3804   0.0823 C.3            1 S1                 0.0000
     16 ****        -0.5543   2.2508  -0.4377 O.3            1 S1                 0.0000
     17 ****         0.7608  -3.9222  -2.0866 H              1 S1                 0.0000
     18 ****         0.8114  -2.4822  -3.0998 H              1 S1                 0.0000
     19 ****        -0.7342  -3.1092  -2.5301 H              1 S1                 0.0000
     20 ****        -0.1118  -2.5976  -0.1930 H              1 S1                 0.0000
     21 ****         2.3861  -2.8215  -0.4592 H              1 S1                 0.0000
     22 ****         2.4278  -1.3080  -1.3406 H              1 S1                 0.0000
     23 ****         2.6097   0.8293   0.0411 H              1 S1                 0.0000
     24 ****         2.5638   1.3040   2.7886 H              1 S1                 0.0000
     25 ****         1.4862  -2.7270   2.0574 H              1 S1                 0.0000
     26 ****        -0.1045  -0.3804  -2.1627 H              1 S1                 0.0000
     27 ****        -1.5851   1.2696  -1.9316 H              1 S1                 0.0000
     28 ****        -3.4908   2.1095  -0.9967 H              1 S1                 0.0000
     29 ****        -3.4012   0.8771   0.2514 H              1 S1                 0.0000
     30 ****        -3.2512   3.4928   0.9482 H              1 S1                 0.0000
     31 ****        -2.1677   2.3245   1.7177 H              1 S1                 0.0000
     32 ****        -1.5412   4.0328  -0.7387 H              1 S1                 0.0000
     33 ****        -0.6119   3.9519   0.7666 H              1 S1                 0.0000
     34 ****         1.8800  -0.9108   3.8082 H              1 S1                 0.0000
     35 ****        -0.8528  -1.3695   1.0859 LP             1 S1                 0.0000
     36 ****        -1.7818   0.0602   1.3906 LP             1 S1                 0.0000
     37 ****        -0.0042   2.5281  -1.2254 LP             1 S1                 0.0000
     38 ****         0.0426   1.8690   0.2680 LP             1 S1                 0.0000
@<TRIPOS>BOND
    1    1    2 1     
    2    1   17 1     
    3    1   18 1     
    4    1   19 1     
    5    2    3 1     
    6    2    9 1     
    7    2   20 1     
    8    3    4 1     
    9    3   21 1     
   10    3   22 1     
   11    4    8 1     
   12    4    5 1     
   13    5    6 2     
   14    5   23 1     
   15    6    7 1     
   16    6   24 1     
   17    7    8 2     
   18    7   34 1     
   19    8   25 1     
   20    9   10 am    
   21    9   26 1     
   22   10   11 2     
   23   10   12 1     
   24   12   16 1     
   25   12   13 1     
   26   12   27 1     
   27   13   14 1     
   28   13   28 1     
   29   13   29 1     
   30   14   15 1     
   31   14   30 1     
   32   14   31 1     
   33   15   16 1     
   34   15   32 1     
   35   15   33 1     
   36   11   35 1     
   37   11   36 1     
   38   16   37 1     
   39   16   38 1     
@<TRIPOS>SUBSTRUCTURE
      1 S1             1
@<TRIPOS>SET
LONE_PAIRS      STATIC     ATOMS    <user>   **** ""
4 35 36 37 38
DONOR_HYDROGENS      STATIC     ATOMS    <user>   **** ""
2 34 26
ATOM$BLUE        STATIC     ATOMS    COLORGROUP SYSTEM
4 35 36 37 38
ATOM$RED        STATIC     ATOMS    COLORGROUP SYSTEM
2 34 26
