#       Name:                AV-unprocessed.smi:49
#       Creating user name   scv26
#       Creation time:       Thu Mar 26 16:34:52 2020


#       File generated by GOLD software.
#

@<TRIPOS>MOLECULE
AV-unprocessed.smi:49
    32    33     1
SMALL
NO_CHARGES


@<TRIPOS>ATOM
      1 ****        -4.2066   1.4138   0.9454 C.3            1 S1                 0.0000
      2 ****        -3.9076  -0.0496   0.6049 C.3            1 S1                 0.0000
      3 ****        -2.4256  -0.3521   0.6432 C.2            1 S1                 0.0000
      4 ****        -1.5778  -0.2241  -0.3728 N.2            1 S1                 0.0000
      5 ****        -0.3761  -0.5672   0.1090 C.2            1 S1                 0.0000
      6 ****         0.9030  -0.5473  -0.7010 C.3            1 S1                 0.0000
      7 ****         1.6482   0.7873  -0.6296 C.3            1 S1                 0.0000
      8 ****         3.0800   0.3799  -0.9606 C.3            1 S1                 0.0000
      9 ****         4.0242   1.3159  -0.4850 O.3            1 S1                 0.0000
     10 ****         3.2215  -0.9856  -0.2797 C.3            1 S1                 0.0000
     11 ****         1.8655  -1.5691  -0.2442 N.4            1 S1                 1.0000
     12 ****        -0.4576  -0.8797   1.4120 N.2            1 S1                 0.0000
     13 ****        -1.7291  -0.7438   1.7249 N.pl3          1 S1                -1.0000
     14 ****         0.6655  -0.7676  -1.7426 H              1 S1                 0.0000
     15 ****         3.1892   0.2690  -2.0404 H              1 S1                 0.0000
     16 ****        -5.2783   1.6098   0.9121 H              1 S1                 0.0000
     17 ****        -3.7210   2.0876   0.2390 H              1 S1                 0.0000
     18 ****        -3.8517   1.6636   1.9458 H              1 S1                 0.0000
     19 ****        -4.4196  -0.7083   1.3071 H              1 S1                 0.0000
     20 ****        -4.2916  -0.2879  -0.3874 H              1 S1                 0.0000
     21 ****         1.2395   1.5423  -1.3019 H              1 S1                 0.0000
     22 ****         1.6041   1.1829   0.3872 H              1 S1                 0.0000
     23 ****         3.8681   2.1455  -0.9106 H              1 S1                 0.0000
     24 ****         3.9265  -1.6373  -0.7961 H              1 S1                 0.0000
     25 ****         3.5610  -0.8718   0.7509 H              1 S1                 0.0000
     26 ****         1.6430  -1.8233   0.7081 H              1 S1                 0.0000
     27 ****         1.8034  -2.3840  -0.8369 H              1 S1                 0.0000
     28 ****        -1.7929   0.0681  -1.3047 LP             1 S1                 0.0000
     29 ****         4.9487   0.9982  -0.6955 LP             1 S1                 0.0000
     30 ****         3.9250   1.4212   0.5045 LP             1 S1                 0.0000
     31 ****         0.2891  -1.1569   2.0166 LP             1 S1                 0.0000
     32 ****        -2.1187  -0.9073   2.6312 LP             1 S1                 0.0000
@<TRIPOS>BOND
    1    1    2 1     
    2    1   16 1     
    3    1   17 1     
    4    1   18 1     
    5    2    3 1     
    6    2   19 1     
    7    2   20 1     
    8    3   13 1     
    9    3    4 2     
   10    4    5 1     
   11    5    6 1     
   12    5   12 2     
   13    6   14 1     
   14    6   11 1     
   15    6    7 1     
   16    7    8 1     
   17    7   21 1     
   18    7   22 1     
   19    8   15 1     
   20    8    9 1     
   21    8   10 1     
   22    9   23 1     
   23   10   11 1     
   24   10   24 1     
   25   10   25 1     
   26   11   26 1     
   27   11   27 1     
   28   12   13 1     
   29    4   28 1     
   30    9   29 1     
   31    9   30 1     
   32   12   31 1     
   33   13   32 1     
@<TRIPOS>SUBSTRUCTURE
      1 S1             1
@<TRIPOS>SET
LONE_PAIRS      STATIC     ATOMS    <user>   **** ""
5 28 29 30 31 32
DONOR_HYDROGENS      STATIC     ATOMS    <user>   **** ""
3 23 26 27
ATOM$BLUE        STATIC     ATOMS    COLORGROUP SYSTEM
5 28 29 30 31 32
ATOM$RED        STATIC     ATOMS    COLORGROUP SYSTEM
3 23 26 27
