#       Name:                AV-unprocessed.smi:967
#       Creating user name   scv26
#       Creation time:       Fri Mar 27 02:19:29 2020


#       File generated by GOLD software.
#

@<TRIPOS>MOLECULE
AV-unprocessed.smi:967
    48    49     1
SMALL
NO_CHARGES


@<TRIPOS>ATOM
      1 ****        -6.5870  -1.5745   0.7538 C.3            1 S1                 0.0000
      2 ****        -5.9561  -0.3469   1.2135 N.3            1 S1                 0.0000
      3 ****        -6.5945   0.8944   0.8035 C.3            1 S1                 0.0000
      4 ****        -4.5688  -0.3361   1.0167 C.ar           1 S1                 0.0000
      5 ****        -4.0105  -0.3316  -0.2818 C.ar           1 S1                 0.0000
      6 ****        -2.6091  -0.3178  -0.4175 C.ar           1 S1                 0.0000
      7 ****        -1.8094  -0.3006   0.7498 C.ar           1 S1                 0.0000
      8 ****        -0.3886  -0.3049   0.7447 N.am           1 S1                 0.0000
      9 ****         0.4444   0.0984  -0.2298 C.2            1 S1                 0.0000
     10 ****         0.0957   0.5842  -1.3056 O.2            1 S1                 0.0000
     11 ****         1.7246  -0.0771   0.1284 N.am           1 S1                 0.0000
     12 ****         2.8945   0.2676  -0.6753 C.3            1 S1                 0.0000
     13 ****         3.8079  -0.9635  -0.8167 C.3            1 S1                 0.0000
     14 ****         5.0912  -0.6285  -1.5971 C.3            1 S1                 0.0000
     15 ****         5.8533   0.5615  -0.9836 C.3            1 S1                 0.0000
     16 ****         6.4221   0.1860   0.2554 O.3            1 S1                 0.0000
     17 ****         4.9354   1.7845  -0.7955 C.3            1 S1                 0.0000
     18 ****         3.6509   1.4387  -0.0215 C.3            1 S1                 0.0000
     19 ****        -2.4678  -0.3226   1.9966 C.ar           1 S1                 0.0000
     20 ****        -3.8105  -0.3345   2.1342 N.ar           1 S1                 0.0000
     21 ****        -6.0380  -2.4490   1.1052 H              1 S1                 0.0000
     22 ****        -6.6305  -1.6081  -0.3353 H              1 S1                 0.0000
     23 ****        -7.6052  -1.6401   1.1379 H              1 S1                 0.0000
     24 ****        -6.0566   1.7574   1.1983 H              1 S1                 0.0000
     25 ****        -7.6166   0.9335   1.1806 H              1 S1                 0.0000
     26 ****        -6.6287   0.9759  -0.2836 H              1 S1                 0.0000
     27 ****        -4.6403  -0.3423  -1.1592 H              1 S1                 0.0000
     28 ****        -2.1798  -0.3353  -1.4071 H              1 S1                 0.0000
     29 ****         0.0461  -0.5976   1.6075 H              1 S1                 0.0000
     30 ****         1.9076  -0.4773   1.0370 H              1 S1                 0.0000
     31 ****         2.5883   0.5754  -1.6767 H              1 S1                 0.0000
     32 ****         4.0718  -1.3445   0.1710 H              1 S1                 0.0000
     33 ****         3.2728  -1.7679  -1.3228 H              1 S1                 0.0000
     34 ****         5.7373  -1.5054  -1.6513 H              1 S1                 0.0000
     35 ****         4.8241  -0.3852  -2.6264 H              1 S1                 0.0000
     36 ****         6.6791   0.8341  -1.6416 H              1 S1                 0.0000
     37 ****         7.0081  -0.5408   0.1088 H              1 S1                 0.0000
     38 ****         5.4732   2.5875  -0.2904 H              1 S1                 0.0000
     39 ****         4.6600   2.1745  -1.7762 H              1 S1                 0.0000
     40 ****         3.0066   2.3173   0.0275 H              1 S1                 0.0000
     41 ****         3.9046   1.1863   1.0092 H              1 S1                 0.0000
     42 ****        -1.9003  -0.3251   2.9158 H              1 S1                 0.0000
     43 ****        -6.1133  -0.3698   2.2008 LP             1 S1                 0.0000
     44 ****        -0.8761   0.7047  -1.5083 LP             1 S1                 0.0000
     45 ****         0.7842   0.8584  -1.9770 LP             1 S1                 0.0000
     46 ****         5.6987  -0.0867   0.8897 LP             1 S1                 0.0000
     47 ****         6.9301   0.9564   0.6405 LP             1 S1                 0.0000
     48 ****        -4.2330  -0.3419   3.0405 LP             1 S1                 0.0000
@<TRIPOS>BOND
    1    1    2 1     
    2    1   21 1     
    3    1   22 1     
    4    1   23 1     
    5    2    3 1     
    6    2    4 1     
    7    3   24 1     
    8    3   25 1     
    9    3   26 1     
   10    4   20 ar    
   11    4    5 ar    
   12    5    6 ar    
   13    5   27 1     
   14    6    7 ar    
   15    6   28 1     
   16    7    8 1     
   17    7   19 ar    
   18    8    9 am    
   19    8   29 1     
   20    9   10 2     
   21    9   11 am    
   22   11   12 1     
   23   11   30 1     
   24   12   18 1     
   25   12   13 1     
   26   12   31 1     
   27   13   14 1     
   28   13   32 1     
   29   13   33 1     
   30   14   15 1     
   31   14   34 1     
   32   14   35 1     
   33   15   16 1     
   34   15   17 1     
   35   15   36 1     
   36   16   37 1     
   37   17   18 1     
   38   17   38 1     
   39   17   39 1     
   40   18   40 1     
   41   18   41 1     
   42   19   20 ar    
   43   19   42 1     
   44    2   43 1     
   45   10   44 1     
   46   10   45 1     
   47   16   46 1     
   48   16   47 1     
   49   20   48 1     
@<TRIPOS>SUBSTRUCTURE
      1 S1             1
@<TRIPOS>SET
LONE_PAIRS      STATIC     ATOMS    <user>   **** ""
6 43 44 45 46 47 48
DONOR_HYDROGENS      STATIC     ATOMS    <user>   **** ""
3 29 30 37
ATOM$BLUE        STATIC     ATOMS    COLORGROUP SYSTEM
6 43 44 45 46 47 48
ATOM$RED        STATIC     ATOMS    COLORGROUP SYSTEM
3 29 30 37
