AV-unprocessed.smi:1641|AV-procd|sdf|6562|dock2
  -GOLD-   22720 7243D 1   1.00000     0.00000
 Structure written by MMmdl.
 42 43  0  0  0  0  0  0  0  0  2 V2000
  153.4497  137.5201  156.8428 C   0  0  0  0  0  0  0  0  0  0  0  0
  152.4645  138.1616  155.9268 C   0  0  0  0  0  0  0  0  0  0  0  0
  152.4695  139.4739  155.6626 N   0  0  0  0  0  0  0  0  0  0  0  0
  151.4624  139.8367  154.7792 N   0  0  0  0  0  0  0  0  0  0  0  0
  150.7263  138.7829  154.4005 C   0  0  0  0  0  0  0  0  0  0  0  0
  149.6312  138.8683  153.5002 N   0  0  0  0  0  0  0  0  0  0  0  0
  148.3931  138.3639  153.6448 C   0  0  0  0  0  0  0  0  0  0  0  0
  147.9916  137.7252  154.6179 O   0  0  0  0  0  0  0  0  0  0  0  0
  147.6238  138.6462  152.5832 N   0  0  0  0  0  0  0  0  0  0  0  0
  146.2332  138.2338  152.4290 C   0  0  0  0  0  0  0  0  0  0  0  0
  146.0892  137.1009  151.3945 C   0  0  0  0  0  0  0  0  0  0  0  0
  144.6690  136.7302  151.1550 N   0  3  1  0  0  0  0  0  0  0  0  0
  144.5056  135.5401  150.2845 C   0  0  0  0  0  0  0  0  0  0  0  0
  144.7800  134.2361  151.0610 C   0  0  2  0  0  0  0  0  0  0  0  0
  144.5348  132.9906  150.2027 C   0  0  0  0  0  0  0  0  0  0  0  0
  143.9070  134.1779  152.1839 O   0  0  0  0  0  0  0  0  0  0  0  0
  144.1103  135.2490  153.0995 C   0  0  2  0  0  0  0  0  0  0  0  0
  143.1719  135.0381  154.2925 C   0  0  0  0  0  0  0  0  0  0  0  0
  143.8429  136.5899  152.3817 C   0  0  0  0  0  0  0  0  0  0  0  0
  151.2085  137.2471  155.1009 S   0  0  0  0  0  0  0  0  0  0  0  0
  153.8218  138.2421  157.5705 H   0  0  0  0  0  0  0  0  0  0  0  0
  154.2922  137.1332  156.2694 H   0  0  0  0  0  0  0  0  0  0  0  0
  152.9822  136.6947  157.3798 H   0  0  0  0  0  0  0  0  0  0  0  0
  149.8142  139.3730  152.6454 H   0  0  0  0  0  0  0  0  0  0  0  0
  148.0315  139.1736  151.8246 H   0  0  0  0  0  0  0  0  0  0  0  0
  145.8824  137.9128  153.4090 H   0  0  0  0  0  0  0  0  0  0  0  0
  145.6206  139.0912  152.1451 H   0  0  0  0  0  0  0  0  0  0  0  0
  146.5216  137.4424  150.4530 H   0  0  0  0  0  0  0  0  0  0  0  0
  146.6714  136.2306  151.6967 H   0  0  0  0  0  0  0  0  0  0  0  0
  143.4811  135.5313  149.9092 H   0  0  0  0  0  0  0  0  0  0  0  0
  145.1493  135.6156  149.4074 H   0  0  0  0  0  0  0  0  0  0  0  0
  145.8148  134.2154  151.4072 H   0  0  0  0  0  0  0  0  0  0  0  0
  145.1879  132.9809  149.3296 H   0  0  0  0  0  0  0  0  0  0  0  0
  143.5036  132.9490  149.8509 H   0  0  0  0  0  0  0  0  0  0  0  0
  144.7289  132.0812  150.7719 H   0  0  0  0  0  0  0  0  0  0  0  0
  145.1369  135.2147  153.4665 H   0  0  0  0  0  0  0  0  0  0  0  0
  143.2949  135.8281  155.0338 H   0  0  0  0  0  0  0  0  0  0  0  0
  143.3760  134.0869  154.7847 H   0  0  0  0  0  0  0  0  0  0  0  0
  142.1277  135.0325  153.9790 H   0  0  0  0  0  0  0  0  0  0  0  0
  143.9990  137.4279  153.0598 H   0  0  0  0  0  0  0  0  0  0  0  0
  142.7943  136.6352  152.0840 H   0  0  0  0  0  0  0  0  0  0  0  0
  144.2830  137.5047  150.6336 H   0  0  0  0  0  0  0  0  0  0  0  0
  1  2  1  0  0  0  0
  1 21  1  0  0  0  0
  1 22  1  0  0  0  0
  1 23  1  0  0  0  0
  2 20  1  0  0  0  0
  2  3  2  0  0  0  0
  3  4  1  0  0  0  0
  4  5  2  0  0  0  0
  5  6  1  0  0  0  0
  5 20  1  0  0  0  0
  6  7  1  0  0  0  0
  6 24  1  0  0  0  0
  7  8  2  0  0  0  0
  7  9  1  0  0  0  0
  9 10  1  0  0  0  0
  9 25  1  0  0  0  0
 10 11  1  0  0  0  0
 10 26  1  0  0  0  0
 10 27  1  0  0  0  0
 11 12  1  0  0  0  0
 11 28  1  0  0  0  0
 11 29  1  0  0  0  0
 12 19  1  0  0  0  0
 12 13  1  0  0  0  0
 12 42  1  0  0  0  0
 13 14  1  0  0  0  0
 13 30  1  0  0  0  0
 13 31  1  0  0  0  0
 14 15  1  0  0  0  0
 14 16  1  0  0  0  0
 14 32  1  0  0  0  0
 15 33  1  0  0  0  0
 15 34  1  0  0  0  0
 15 35  1  0  0  0  0
 16 17  1  0  0  0  0
 17 18  1  0  0  0  0
 17 19  1  0  0  0  0
 17 36  1  0  0  0  0
 18 37  1  0  0  0  0
 18 38  1  0  0  0  0
 18 39  1  0  0  0  0
 19 40  1  0  0  0  0
 19 41  1  0  0  0  0
M  CHG  1  12   1
M  END
> <s_m_source_file>
AV-unprocessed.smi

> <i_m_source_file_index>
1641

> <i_lp_mmshare_version>
43012

> <i_f3d_flags>
0

> <s_epik_input>
W0NIM11jMW5uYyhzMSlbTkhdQyg9TylbTkhdW0NIMl1bQ0gyXU4yW0NIMl1bQ0BASF0oW0NIM10pT1tDQEBIXShbQ0gzXSlbQ0gyXTI=

> <s_epik_cmdline>
J2VwaWtfcHl0aG9uJywgJy1waCcsICc3LjAnLCAnLXRuJywgJzgnLCAnLW1hJywgJzIwMCcsICctbWV0YWxfYmluZGluZycsICctaW1hZScsICc8aW5maWxlLm1hZT4nLCAnLW9tYWUnLCAnPG91dGZpbGUubWFlPic=

> <r_lp_tautomer_probability>
1

> <r_epik_Ionization_Penalty>
0.700114

> <r_epik_Ionization_Penalty_Charging>
0.695697

> <r_epik_Ionization_Penalty_Neutral>
0.00441638

> <r_epik_State_Penalty>
0.717972

> <r_epik_Charging_Adjusted_Penalty>
1.41367

> <i_epik_Tot_Q>
1

> <i_epik_Tot_abs_Q>
1

> <r_epik_Metal_State_Penalty>
1.06958

> <b_epik_Metal_Only>
0

> <s_lp_Force_Field>
OPLS_2005

> <r_lp_Energy>
15.6889

> <b_lp_Chiralities_Consistent>
1

> <s_lp_Variant>
AV-unprocessed.smi:1641-7

> <Gold.Version>
5.8.1

> <Gold.Id.Protein>
6NUR|6NUR_protein|mol2

> <Gold.PLP.Fitness>
45.2023

> <Gold.PLP.PLP>
-31.5060

> <Gold.PLP.part.hbond>
-6.5644

> <Gold.PLP.part.metal>
0.0000

> <Gold.PLP.part.buried>
-2.4653

> <Gold.PLP.part.nonpolar>
-24.1537

> <Gold.PLP.part.repulsive>
0.5275

> <Gold.PLP.ligand.clash>
0.0000

> <Gold.PLP.ligand.torsion>
0.5786

> <Gold.PLP.Chemscore.Hbond>
4.9440

> <Gold.PLP.Chemscore.CHOScore>
0.0000

> <Gold.PLP.Chemscore.Metal>
0.0000

> <Gold.Chemscore.Hbonds>
donor molecule, donor type, donor heavy atom, donor atom, acceptor molecule, acceptor atom, score
      L1  H     6    24       P1  7957  1.00
      L1  H     9    25       P1  7957  0.94
      L1  H    12    42       P1 10171  0.71
      P1  H  7989  7998       L1     4  1.00
      P1  H  7997  8008       L1     3  0.91

> <Gold.PLP.Chemscore.Internal.Correction>
0.0215

> <Gold.Rescore>
     Score         DG    S(hbond)    S(metal)    S(lipo)     H(rot)  DE(clash)    DE(int)     intcor
     21.52     -23.18       4.43        0.00      60.47       1.64       1.30       0.35       ----

> <Gold.Chemscore.Fitness>
21.5198

> <Gold.Chemscore.DG>
-23.1751

> <Gold.Chemscore.ZeroCoef>
-5.4800

> <Gold.Chemscore.Hbond>
4.4336

> <Gold.Chemscore.Metal>
0.0000

> <Gold.Chemscore.Lipo>
60.4671

> <Gold.Chemscore.Internal_Hbond>
0.0000

> <Gold.Chemscore.DEClash>
1.3032

> <Gold.Chemscore.DEInternal>
0.3522

> <Gold.Chemscore.Rot>
1.6358

> <Gold.Chemscore.Internal.Correction>
   9.000000E+99

> <Gold.Chemscore.Hbonds>
donor molecule, donor type, donor heavy atom, donor atom, acceptor molecule, acceptor atom, score
      L1  H     6    24       P1  7957  0.97
      L1  H     9    25       P1  7957  0.89
      L1  H    12    42       P1 10171  0.71
      P1  H  7989  7998       L1     4  0.69
      P1  H  7997  8008       L1     3  0.49

> <Gold.Chemscore.Hbond.Weighted>
-14.8083

> <Gold.Chemscore.Metal.Weighted>
-0.0000

> <Gold.Chemscore.Lipo.Weighted>
-7.0746

> <Gold.Chemscore.Internal_Hbond.Weighted>
0.0000

> <Gold.Chemscore.DEClash.Weighted>
1.3032

> <Gold.Chemscore.DEInternal.Weighted>
0.3522

> <Gold.Chemscore.Rot.Weighted>
4.1878

> <Gold.Chemscore.Internal.Correction.Weighted>
   9.000000E+99

> <Gold.Protein.RotatedTorsions>
[ 6907 6896 6895 6894 ] final  -17.29 input  -60.11 | X-H torsion
[ 7974 7965 7964 7962 ] final  103.45 input  175.53 | X-H torsion
[ 8008 7997 7996 7995 ] final  -34.08 input   59.86 | X-H torsion
[ 10167 10162 10161 10158 ] final  104.34 input  -65.29 | X-H torsion
[ 10718 10713 10712 10709 ] final   95.66 input   66.30 | X-H torsion
[ 10763 10752 10751 10750 ] final   45.64 input  -60.55 | X-H torsion
[ 11005 11000 10999 10996 ] final  133.36 input  -57.11 | X-H torsion

> <Gold.Protein.ActiveResidues>
 VAL166  LYS551  ARG553  GLY616  TRP617  ASP618  TYR619  PRO620  LYS621  CYS622 
 ASP623  PHE694  ASN695  SER759  ASP760  ASP761  ALA762  ILE779  LEU786  VAL792 
 PHE793  MET794  SER795  GLU796  ALA797  LYS798  CYS799  TRP800  GLU811  SER814 

> <Gold.Protein.RotatedAtoms>
  151.2955  135.0754  159.9219 H   0  0  0  0  0  0  0  0  0  0  0  0  # atno 6907 bound_to 6896
  152.5308  133.9887  159.7851 H   0  0  0  0  0  0  0  0  0  0  0  0  # atno 6908 bound_to 6896
  151.0165  133.5865  159.2707 H   0  0  0  0  0  0  0  0  0  0  0  0  # atno 6909 bound_to 6896
  145.3458  139.2451  143.3585 H   0  0  0  0  0  0  0  0  0  0  0  0  # atno 7974 bound_to 7965
  154.4131  140.1693  156.1991 H   0  0  0  0  0  0  0  0  0  0  0  0  # atno 8008 bound_to 7997
  155.9539  140.3399  155.6408 H   0  0  0  0  0  0  0  0  0  0  0  0  # atno 8009 bound_to 7997
  155.6835  140.0725  157.2466 H   0  0  0  0  0  0  0  0  0  0  0  0  # atno 8010 bound_to 7997
  139.7186  144.7063  151.0910 H   0  0  0  0  0  0  0  0  0  0  0  0  # atno 10167 bound_to 10162
  157.6936  131.0553  150.4372 H   0  0  0  0  0  0  0  0  0  0  0  0  # atno 10718 bound_to 10713
  152.9821  135.6033  154.3470 H   0  0  0  0  0  0  0  0  0  0  0  0  # atno 10763 bound_to 10752
  154.3162  135.2770  155.2544 H   0  0  0  0  0  0  0  0  0  0  0  0  # atno 10764 bound_to 10752
  154.4731  135.5936  153.6391 H   0  0  0  0  0  0  0  0  0  0  0  0  # atno 10765 bound_to 10752
  139.9846  134.9536  156.9713 H   0  0  0  0  0  0  0  0  0  0  0  0  # atno 11005 bound_to 11000
  146.2989  140.4064  142.8711 LP  0  0  0  0  0  0  0  0  0  0  0  0  # atno 17320 bound_to 7965
  144.8756  140.7331  143.6019 LP  0  0  0  0  0  0  0  0  0  0  0  0  # atno 17321 bound_to 7965
  140.7749  143.5196  150.9552 LP  0  0  0  0  0  0  0  0  0  0  0  0  # atno 17342 bound_to 10162
  139.8883  143.6985  152.3148 LP  0  0  0  0  0  0  0  0  0  0  0  0  # atno 17343 bound_to 10162
  156.4734  130.4057  149.6505 LP  0  0  0  0  0  0  0  0  0  0  0  0  # atno 17370 bound_to 10713
  156.3577  130.7465  151.2433 LP  0  0  0  0  0  0  0  0  0  0  0  0  # atno 17371 bound_to 10713
  140.5027  134.1081  155.7254 LP  0  0  0  0  0  0  0  0  0  0  0  0  # atno 17394 bound_to 11000
  141.1513  133.8963  157.2089 LP  0  0  0  0  0  0  0  0  0  0  0  0  # atno 17395 bound_to 11000

$$$$
