AV-unprocessed.smi:3082|AV-procd|sdf|11743|dock9
  -GOLD-   2272017133D 1   1.00000     0.00000
 Structure written by MMmdl.
 28 29  0  0  0  0  0  0  0  0  2 V2000
  149.0882  133.1592  154.8234 C   0  0  0  0  0  0  0  0  0  0  0  0
  147.9140  133.4148  153.9231 C   0  0  0  0  0  0  0  0  0  0  0  0
  146.6454  133.9579  154.2725 C   0  0  0  0  0  0  0  0  0  0  0  0
  145.8273  134.0573  153.2379 N   0  0  0  0  0  0  0  0  0  0  0  0
  146.5398  133.5813  152.1927 N   0  0  0  0  0  0  0  0  0  0  0  0
  145.9517  133.5360  150.8623 C   0  0  1  0  0  0  0  0  0  0  0  0
  145.9216  132.0991  150.3032 C   0  0  0  0  0  0  0  0  0  0  0  0
  145.2760  132.0830  148.9091 C   0  0  0  0  0  0  0  0  0  0  0  0
  143.8812  132.7300  148.9426 C   0  0  0  0  0  0  0  0  0  0  0  0
  143.9531  134.1026  149.4896 N   0  3  0  0  0  0  0  0  0  0  0  0
  144.5364  134.1528  150.8482 C   0  0  0  0  0  0  0  0  0  0  0  0
  147.8027  133.1852  152.5810 C   0  0  0  0  0  0  0  0  0  0  0  0
  148.8717  133.4250  155.8585 H   0  0  0  0  0  0  0  0  0  0  0  0
  149.9607  133.7381  154.5198 H   0  0  0  0  0  0  0  0  0  0  0  0
  149.3791  132.1086  154.8162 H   0  0  0  0  0  0  0  0  0  0  0  0
  146.2974  134.2824  155.2421 H   0  0  0  0  0  0  0  0  0  0  0  0
  146.5884  134.1378  150.2110 H   0  0  0  0  0  0  0  0  0  0  0  0
  146.9321  131.6923  150.2510 H   0  0  0  0  0  0  0  0  0  0  0  0
  145.3565  131.4448  150.9685 H   0  0  0  0  0  0  0  0  0  0  0  0
  145.9127  132.6189  148.2040 H   0  0  0  0  0  0  0  0  0  0  0  0
  145.2035  131.0583  148.5437 H   0  0  0  0  0  0  0  0  0  0  0  0
  143.4577  132.7689  147.9387 H   0  0  0  0  0  0  0  0  0  0  0  0
  143.2008  132.1351  149.5536 H   0  0  0  0  0  0  0  0  0  0  0  0
  144.5235  134.6645  148.8742 H   0  0  0  0  0  0  0  0  0  0  0  0
  143.8730  133.6227  151.5333 H   0  0  0  0  0  0  0  0  0  0  0  0
  144.5711  135.1914  151.1785 H   0  0  0  0  0  0  0  0  0  0  0  0
  148.5135  132.7770  151.8775 H   0  0  0  0  0  0  0  0  0  0  0  0
  143.0220  134.4933  149.5187 H   0  0  0  0  0  0  0  0  0  0  0  0
  1  2  1  0  0  0  0
  1 13  1  0  0  0  0
  1 14  1  0  0  0  0
  1 15  1  0  0  0  0
  2 12  2  0  0  0  0
  2  3  1  0  0  0  0
  3  4  2  0  0  0  0
  3 16  1  0  0  0  0
  4  5  1  0  0  0  0
  5  6  1  0  0  0  0
  5 12  1  0  0  0  0
  6 11  1  0  0  0  0
  6  7  1  0  0  0  0
  6 17  1  0  0  0  0
  7  8  1  0  0  0  0
  7 18  1  0  0  0  0
  7 19  1  0  0  0  0
  8  9  1  0  0  0  0
  8 20  1  0  0  0  0
  8 21  1  0  0  0  0
  9 10  1  0  0  0  0
  9 22  1  0  0  0  0
  9 23  1  0  0  0  0
 10 11  1  0  0  0  0
 10 24  1  0  0  0  0
 10 28  1  0  0  0  0
 11 25  1  0  0  0  0
 11 26  1  0  0  0  0
 12 27  1  0  0  0  0
M  CHG  1  10   1
M  END
> <s_m_source_file>
AV-unprocessed.smi

> <i_m_source_file_index>
3082

> <i_lp_mmshare_version>
43012

> <i_f3d_flags>
0

> <s_epik_input>
W0NIM11jMVtjSF1ubihbY0hdMSlbQ0BASF0yW0NIMl1bQ0gyXVtDSDJdW05IXVtDSDJdMg==

> <s_epik_cmdline>
J2VwaWtfcHl0aG9uJywgJy1waCcsICc3LjAnLCAnLXRuJywgJzgnLCAnLW1hJywgJzIwMCcsICctbWV0YWxfYmluZGluZycsICctaW1hZScsICc8aW5maWxlLm1hZT4nLCAnLW9tYWUnLCAnPG91dGZpbGUubWFlPic=

> <r_lp_tautomer_probability>
1

> <r_epik_Ionization_Penalty>
0.000667973

> <r_epik_Ionization_Penalty_Charging>
0.000651447

> <r_epik_Ionization_Penalty_Neutral>
1.65255e-05

> <r_epik_State_Penalty>
-0

> <r_epik_Charging_Adjusted_Penalty>
0.000651447

> <i_epik_Tot_Q>
1

> <i_epik_Tot_abs_Q>
1

> <r_epik_Metal_State_Penalty>
-0

> <b_epik_Metal_Only>
0

> <s_lp_Force_Field>
OPLS_2005

> <r_lp_Energy>
15.6496

> <b_lp_Chiralities_Consistent>
1

> <s_lp_Variant>
AV-unprocessed.smi:3082-2

> <Gold.Version>
5.8.1

> <Gold.Id.Protein>
6NUR|6NUR_protein|mol2

> <Gold.PLP.Fitness>
36.6572

> <Gold.PLP.PLP>
-24.6634

> <Gold.PLP.part.hbond>
-2.0000

> <Gold.PLP.part.metal>
0.0000

> <Gold.PLP.part.buried>
-2.2324

> <Gold.PLP.part.nonpolar>
-21.6530

> <Gold.PLP.part.repulsive>
0.1791

> <Gold.PLP.ligand.clash>
0.0000

> <Gold.PLP.ligand.torsion>
0.0120

> <Gold.PLP.Chemscore.Hbond>
3.0000

> <Gold.PLP.Chemscore.CHOScore>
1.0000

> <Gold.PLP.Chemscore.Metal>
0.0000

> <Gold.Chemscore.Hbonds>
donor molecule, donor type, donor heavy atom, donor atom, acceptor molecule, acceptor atom, score
      L1  H    10    24       P1  7921  0.98
      L1  H    10    28       P1 10186  2.00
      L1  C    12    27       P1 10747  1.00

> <Gold.PLP.Chemscore.Internal.Correction>
0.0179

> <Gold.Rescore>
     Score         DG    S(hbond)    S(metal)    S(lipo)     H(rot)  DE(clash)    DE(int)     intcor
     17.57     -17.70       1.94        0.00      70.84       1.00       0.10       0.03       ----

> <Gold.Chemscore.Fitness>
17.5703

> <Gold.Chemscore.DG>
-17.6972

> <Gold.Chemscore.ZeroCoef>
-5.4800

> <Gold.Chemscore.Hbond>
1.9428

> <Gold.Chemscore.Metal>
0.0000

> <Gold.Chemscore.Lipo>
70.8398

> <Gold.Chemscore.Internal_Hbond>
0.0000

> <Gold.Chemscore.DEClash>
0.0996

> <Gold.Chemscore.DEInternal>
0.0274

> <Gold.Chemscore.Rot>
1.0000

> <Gold.Chemscore.Internal.Correction>
   9.000000E+99

> <Gold.Chemscore.Hbonds>
donor molecule, donor type, donor heavy atom, donor atom, acceptor molecule, acceptor atom, score
      L1  H    10    24       P1  7921  0.86
      L1  H    10    28       P1 10186  0.92

> <Gold.Chemscore.Hbond.Weighted>
-6.4890

> <Gold.Chemscore.Metal.Weighted>
-0.0000

> <Gold.Chemscore.Lipo.Weighted>
-8.2883

> <Gold.Chemscore.Internal_Hbond.Weighted>
0.0000

> <Gold.Chemscore.DEClash.Weighted>
0.0996

> <Gold.Chemscore.DEInternal.Weighted>
0.0274

> <Gold.Chemscore.Rot.Weighted>
2.5600

> <Gold.Chemscore.Internal.Correction.Weighted>
   9.000000E+99

> <Gold.Protein.RotatedTorsions>
[ 6907 6896 6895 6894 ] final  137.68 input  -60.11 | X-H torsion
[ 7974 7965 7964 7962 ] final   47.95 input  175.53 | X-H torsion
[ 8008 7997 7996 7995 ] final   -4.41 input   59.86 | X-H torsion
[ 10167 10162 10161 10158 ] final  133.28 input  -65.29 | X-H torsion
[ 10718 10713 10712 10709 ] final  124.37 input   66.30 | X-H torsion
[ 10763 10752 10751 10750 ] final  105.35 input  -60.55 | X-H torsion
[ 11005 11000 10999 10996 ] final -112.91 input  -57.11 | X-H torsion

> <Gold.Protein.ActiveResidues>
 VAL166  LYS551  ARG553  GLY616  TRP617  ASP618  TYR619  PRO620  LYS621  CYS622 
 ASP623  PHE694  ASN695  SER759  ASP760  ASP761  ALA762  ILE779  LEU786  VAL792 
 PHE793  MET794  SER795  GLU796  ALA797  LYS798  CYS799  TRP800  GLU811  SER814 

> <Gold.Protein.RotatedAtoms>
  152.2753  133.5420  159.5463 H   0  0  0  0  0  0  0  0  0  0  0  0  # atno 6907 bound_to 6896
  150.7175  134.0640  159.3850 H   0  0  0  0  0  0  0  0  0  0  0  0  # atno 6908 bound_to 6896
  151.8553  135.0543  160.0514 H   0  0  0  0  0  0  0  0  0  0  0  0  # atno 6909 bound_to 6896
  146.0250  139.4696  142.9873 H   0  0  0  0  0  0  0  0  0  0  0  0  # atno 7974 bound_to 7965
  154.6146  140.2484  155.7626 H   0  0  0  0  0  0  0  0  0  0  0  0  # atno 8008 bound_to 7997
  156.2391  140.2939  156.0343 H   0  0  0  0  0  0  0  0  0  0  0  0  # atno 8009 bound_to 7997
  155.1996  140.0394  157.2905 H   0  0  0  0  0  0  0  0  0  0  0  0  # atno 8010 bound_to 7997
  139.5304  144.6623  151.4973 H   0  0  0  0  0  0  0  0  0  0  0  0  # atno 10167 bound_to 10162
  157.5590  131.1090  150.8571 H   0  0  0  0  0  0  0  0  0  0  0  0  # atno 10718 bound_to 10713
  153.3782  135.3913  155.1837 H   0  0  0  0  0  0  0  0  0  0  0  0  # atno 10763 bound_to 10752
  154.8704  135.3719  154.4891 H   0  0  0  0  0  0  0  0  0  0  0  0  # atno 10764 bound_to 10752
  153.5366  135.7085  153.5718 H   0  0  0  0  0  0  0  0  0  0  0  0  # atno 10765 bound_to 10752
  141.0646  133.9479  157.2602 H   0  0  0  0  0  0  0  0  0  0  0  0  # atno 11005 bound_to 11000
  145.7132  141.0099  143.1442 LP  0  0  0  0  0  0  0  0  0  0  0  0  # atno 17320 bound_to 7965
  144.7006  139.8782  143.7445 LP  0  0  0  0  0  0  0  0  0  0  0  0  # atno 17321 bound_to 7965
  140.6477  143.8760  150.6754 LP  0  0  0  0  0  0  0  0  0  0  0  0  # atno 17342 bound_to 10162
  140.2115  143.3880  152.1715 LP  0  0  0  0  0  0  0  0  0  0  0  0  # atno 17343 bound_to 10162
  156.9074  130.5268  149.5281 LP  0  0  0  0  0  0  0  0  0  0  0  0  # atno 17370 bound_to 10713
  156.0645  130.5691  150.9261 LP  0  0  0  0  0  0  0  0  0  0  0  0  # atno 17371 bound_to 10713
  139.9465  135.0183  156.8866 LP  0  0  0  0  0  0  0  0  0  0  0  0  # atno 17394 bound_to 11000
  140.5798  134.0363  155.7460 LP  0  0  0  0  0  0  0  0  0  0  0  0  # atno 17395 bound_to 11000

$$$$
