AV-unprocessed.smi:1679|AV-procd|sdf|6735|dock1
  -GOLD-   22720 7483D 1   1.00000     0.00000
 Structure written by MMmdl.
 44 45  0  0  0  0  0  0  0  0  2 V2000
  153.4830  141.9230  160.8371 C   0  0  0  0  0  0  0  0  0  0  0  0
  153.1103  143.2469  160.1542 C   0  0  2  0  0  0  0  0  0  0  0  0
  152.1881  144.1056  161.0427 C   0  0  0  0  0  0  0  0  0  0  0  0
  151.8675  145.4567  160.3862 C   0  0  0  0  0  0  0  0  0  0  0  0
  151.2674  145.2688  158.9851 C   0  0  0  0  0  0  0  0  0  0  0  0
  152.1820  144.4095  158.0944 C   0  0  0  0  0  0  0  0  0  0  0  0
  152.5015  143.0501  158.7438 C   0  0  2  0  0  0  0  0  0  0  0  0
  151.2793  142.3285  158.8259 O   0  0  0  0  0  0  0  0  0  0  0  0
  150.5366  142.2489  157.6194 C   0  0  0  0  0  0  0  0  0  0  0  0
  150.8312  140.9027  156.9390 C   0  0  0  0  0  0  0  0  0  0  0  0
  149.7188  140.4722  156.0967 N   0  0  0  0  0  0  0  0  0  0  0  0
  149.8428  139.9015  154.8878 C   0  0  0  0  0  0  0  0  0  0  0  0
  150.9318  139.6286  154.3821 O   0  0  0  0  0  0  0  0  0  0  0  0
  148.5380  139.5717  154.1505 C   0  0  0  0  0  0  0  0  0  0  0  0
  147.4930  140.5805  154.3899 N   0  0  0  0  0  0  0  0  0  0  0  0
  147.3597  141.6050  153.4363 C   0  0  0  0  0  0  0  0  0  0  0  0
  146.4158  142.5590  153.5418 C   0  0  0  0  0  0  0  0  0  0  0  0
  145.5144  142.5129  154.6857 C   0  0  0  0  0  0  0  0  0  0  0  0
  144.6372  143.3679  154.7915 O   0  0  0  0  0  0  0  0  0  0  0  0
  145.6922  141.5086  155.5930 N   0  5  0  0  0  0  0  0  0  0  0  0
  146.6597  140.5466  155.4739 C   0  0  0  0  0  0  0  0  0  0  0  0
  146.8044  139.6536  156.3088 O   0  0  0  0  0  0  0  0  0  0  0  0
  152.6001  141.3164  161.0365 H   0  0  0  0  0  0  0  0  0  0  0  0
  153.9801  142.1019  161.7907 H   0  0  0  0  0  0  0  0  0  0  0  0
  154.1606  141.3366  160.2165 H   0  0  0  0  0  0  0  0  0  0  0  0
  154.0412  143.8011  160.0263 H   0  0  0  0  0  0  0  0  0  0  0  0
  151.2600  143.5699  161.2434 H   0  0  0  0  0  0  0  0  0  0  0  0
  152.6568  144.2772  162.0120 H   0  0  0  0  0  0  0  0  0  0  0  0
  151.1756  146.0180  161.0147 H   0  0  0  0  0  0  0  0  0  0  0  0
  152.7772  146.0542  160.3169 H   0  0  0  0  0  0  0  0  0  0  0  0
  150.2877  144.7964  159.0700 H   0  0  0  0  0  0  0  0  0  0  0  0
  151.1010  146.2402  158.5193 H   0  0  0  0  0  0  0  0  0  0  0  0
  151.7139  144.2565  157.1216 H   0  0  0  0  0  0  0  0  0  0  0  0
  153.1111  144.9487  157.9062 H   0  0  0  0  0  0  0  0  0  0  0  0
  153.2151  142.5275  158.1038 H   0  0  0  0  0  0  0  0  0  0  0  0
  149.4734  142.3259  157.8501 H   0  0  0  0  0  0  0  0  0  0  0  0
  150.7816  143.0710  156.9464 H   0  0  0  0  0  0  0  0  0  0  0  0
  151.7569  140.9565  156.3633 H   0  0  0  0  0  0  0  0  0  0  0  0
  150.9851  140.1376  157.7003 H   0  0  0  0  0  0  0  0  0  0  0  0
  148.7875  140.6496  156.4429 H   0  0  0  0  0  0  0  0  0  0  0  0
  148.7538  139.4790  153.0850 H   0  0  0  0  0  0  0  0  0  0  0  0
  148.1803  138.5860  154.4532 H   0  0  0  0  0  0  0  0  0  0  0  0
  148.0617  141.5631  152.6167 H   0  0  0  0  0  0  0  0  0  0  0  0
  146.3248  143.3347  152.7961 H   0  0  0  0  0  0  0  0  0  0  0  0
  1  2  1  0  0  0  0
  1 23  1  0  0  0  0
  1 24  1  0  0  0  0
  1 25  1  0  0  0  0
  2  7  1  0  0  0  0
  2  3  1  0  0  0  0
  2 26  1  0  0  0  0
  3  4  1  0  0  0  0
  3 27  1  0  0  0  0
  3 28  1  0  0  0  0
  4  5  1  0  0  0  0
  4 29  1  0  0  0  0
  4 30  1  0  0  0  0
  5  6  1  0  0  0  0
  5 31  1  0  0  0  0
  5 32  1  0  0  0  0
  6  7  1  0  0  0  0
  6 33  1  0  0  0  0
  6 34  1  0  0  0  0
  7  8  1  0  0  0  0
  7 35  1  0  0  0  0
  8  9  1  0  0  0  0
  9 10  1  0  0  0  0
  9 36  1  0  0  0  0
  9 37  1  0  0  0  0
 10 11  1  0  0  0  0
 10 38  1  0  0  0  0
 10 39  1  0  0  0  0
 11 12  1  0  0  0  0
 11 40  1  0  0  0  0
 12 13  2  0  0  0  0
 12 14  1  0  0  0  0
 14 15  1  0  0  0  0
 14 41  1  0  0  0  0
 14 42  1  0  0  0  0
 15 21  1  0  0  0  0
 15 16  1  0  0  0  0
 16 17  2  0  0  0  0
 16 43  1  0  0  0  0
 17 18  1  0  0  0  0
 17 44  1  0  0  0  0
 18 19  2  0  0  0  0
 18 20  1  0  0  0  0
 20 21  1  0  0  0  0
 21 22  2  0  0  0  0
M  CHG  1  20  -1
M  END
> <s_m_source_file>
AV-unprocessed.smi

> <i_m_source_file_index>
1679

> <i_lp_mmshare_version>
43012

> <i_f3d_flags>
0

> <s_epik_input>
W0NIM11bQ0BASF0xW0NIMl1bQ0gyXVtDSDJdW0NIMl1bQ0BIXTFPW0NIMl1bQ0gyXVtOSF1DKD1PKVtDSDJdbjJbY0hdW2NIXWMoPU8pW25IXWMyPU8=

> <s_epik_cmdline>
J2VwaWtfcHl0aG9uJywgJy1waCcsICc3LjAnLCAnLXRuJywgJzgnLCAnLW1hJywgJzIwMCcsICctbWV0YWxfYmluZGluZycsICctaW1hZScsICc8aW5maWxlLm1hZT4nLCAnLW9tYWUnLCAnPG91dGZpbGUubWFlPic=

> <r_lp_tautomer_probability>
0.999537

> <r_epik_Ionization_Penalty>
3.07454

> <r_epik_Ionization_Penalty_Charging>
2.80088e-08

> <r_epik_Ionization_Penalty_Neutral>
3.07454

> <r_epik_State_Penalty>
3.07357

> <r_epik_Charging_Adjusted_Penalty>
3.07357

> <i_epik_Tot_Q>
-1

> <i_epik_Tot_abs_Q>
1

> <r_epik_Metal_State_Penalty>
0.45948

> <b_epik_Metal_Only>
1

> <s_lp_Force_Field>
OPLS_2005

> <r_lp_Energy>
19.9019

> <b_lp_Chiralities_Consistent>
1

> <s_lp_Variant>
AV-unprocessed.smi:1679-7

> <Gold.Version>
5.8.1

> <Gold.Id.Protein>
6NUR|6NUR_protein|mol2

> <Gold.PLP.Fitness>
51.2295

> <Gold.PLP.PLP>
-47.5445

> <Gold.PLP.part.hbond>
-1.0000

> <Gold.PLP.part.metal>
0.0000

> <Gold.PLP.part.buried>
-7.1778

> <Gold.PLP.part.nonpolar>
-38.8570

> <Gold.PLP.part.repulsive>
0.4891

> <Gold.PLP.ligand.clash>
0.0000

> <Gold.PLP.ligand.torsion>
1.2856

> <Gold.PLP.Chemscore.Hbond>
1.0000

> <Gold.PLP.Chemscore.CHOScore>
1.0000

> <Gold.PLP.Chemscore.Metal>
0.0000

> <Gold.Chemscore.Hbonds>
donor molecule, donor type, donor heavy atom, donor atom, acceptor molecule, acceptor atom, score
      P1  H  7989  7998       L1    13  1.00
      L1  C    16    43       P1  7957  0.85

> <Gold.PLP.Chemscore.Internal.Correction>
0.2562

> <Gold.Rescore>
     Score         DG    S(hbond)    S(metal)    S(lipo)     H(rot)  DE(clash)    DE(int)     intcor
     15.11     -16.51       0.98        0.00     119.87       2.45       0.11       1.29       ----

> <Gold.Chemscore.Fitness>
15.1087

> <Gold.Chemscore.DG>
-16.5069

> <Gold.Chemscore.ZeroCoef>
-5.4800

> <Gold.Chemscore.Hbond>
0.9795

> <Gold.Chemscore.Metal>
0.0000

> <Gold.Chemscore.Lipo>
119.8701

> <Gold.Chemscore.Internal_Hbond>
0.0000

> <Gold.Chemscore.DEClash>
0.1096

> <Gold.Chemscore.DEInternal>
1.2887

> <Gold.Chemscore.Rot>
2.4490

> <Gold.Chemscore.Internal.Correction>
   9.000000E+99

> <Gold.Chemscore.Hbonds>
donor molecule, donor type, donor heavy atom, donor atom, acceptor molecule, acceptor atom, score
      P1  H  7989  7998       L1    13  0.91

> <Gold.Chemscore.Hbond.Weighted>
-3.2715

> <Gold.Chemscore.Metal.Weighted>
-0.0000

> <Gold.Chemscore.Lipo.Weighted>
-14.0248

> <Gold.Chemscore.Internal_Hbond.Weighted>
0.0000

> <Gold.Chemscore.DEClash.Weighted>
0.1096

> <Gold.Chemscore.DEInternal.Weighted>
1.2887

> <Gold.Chemscore.Rot.Weighted>
6.2694

> <Gold.Chemscore.Internal.Correction.Weighted>
   9.000000E+99

> <Gold.Protein.RotatedTorsions>
[ 6907 6896 6895 6894 ] final  124.50 input  -60.11 | X-H torsion
[ 7974 7965 7964 7962 ] final -173.15 input  175.53 | X-H torsion
[ 8008 7997 7996 7995 ] final  -55.34 input   59.86 | X-H torsion
[ 10167 10162 10161 10158 ] final -136.17 input  -65.29 | X-H torsion
[ 10718 10713 10712 10709 ] final   74.98 input   66.30 | X-H torsion
[ 10763 10752 10751 10750 ] final -145.62 input  -60.55 | X-H torsion
[ 11005 11000 10999 10996 ] final  146.95 input  -57.11 | X-H torsion

> <Gold.Protein.ActiveResidues>
 VAL166  LYS551  ARG553  GLY616  TRP617  ASP618  TYR619  PRO620  LYS621  CYS622 
 ASP623  PHE694  ASN695  SER759  ASP760  ASP761  ALA762  ILE779  LEU786  VAL792 
 PHE793  MET794  SER795  GLU796  ALA797  LYS798  CYS799  TRP800  GLU811  SER814 

> <Gold.Protein.RotatedAtoms>
  152.4072  133.6908  159.6366 H   0  0  0  0  0  0  0  0  0  0  0  0  # atno 6907 bound_to 6896
  150.7956  133.8687  159.3261 H   0  0  0  0  0  0  0  0  0  0  0  0  # atno 6908 bound_to 6896
  151.6438  135.1011  160.0198 H   0  0  0  0  0  0  0  0  0  0  0  0  # atno 6909 bound_to 6896
  144.7140  140.1665  143.6371 H   0  0  0  0  0  0  0  0  0  0  0  0  # atno 7974 bound_to 7965
  154.4192  140.1155  156.5461 H   0  0  0  0  0  0  0  0  0  0  0  0  # atno 8008 bound_to 7997
  155.6458  140.3496  155.4711 H   0  0  0  0  0  0  0  0  0  0  0  0  # atno 8009 bound_to 7997
  155.9834  140.1165  157.0696 H   0  0  0  0  0  0  0  0  0  0  0  0  # atno 8010 bound_to 7997
  139.8704  143.6964  152.2640 H   0  0  0  0  0  0  0  0  0  0  0  0  # atno 10167 bound_to 10162
  157.6615  130.9704  150.1288 H   0  0  0  0  0  0  0  0  0  0  0  0  # atno 10718 bound_to 10713
  154.8375  135.3408  154.6532 H   0  0  0  0  0  0  0  0  0  0  0  0  # atno 10763 bound_to 10752
  153.7146  135.6962  153.5033 H   0  0  0  0  0  0  0  0  0  0  0  0  # atno 10764 bound_to 10752
  153.2426  135.4379  155.0668 H   0  0  0  0  0  0  0  0  0  0  0  0  # atno 10765 bound_to 10752
  140.0835  134.9083  157.1539 H   0  0  0  0  0  0  0  0  0  0  0  0  # atno 11005 bound_to 11000
  145.8982  139.2415  143.1509 LP  0  0  0  0  0  0  0  0  0  0  0  0  # atno 17320 bound_to 7965
  145.9836  140.8662  143.0102 LP  0  0  0  0  0  0  0  0  0  0  0  0  # atno 17321 bound_to 7965
  139.7289  144.7587  151.0834 LP  0  0  0  0  0  0  0  0  0  0  0  0  # atno 17342 bound_to 10162
  140.7761  143.5113  150.9649 LP  0  0  0  0  0  0  0  0  0  0  0  0  # atno 17343 bound_to 10162
  156.2140  130.3669  149.8636 LP  0  0  0  0  0  0  0  0  0  0  0  0  # atno 17370 bound_to 10713
  156.6507  130.8742  151.3530 LP  0  0  0  0  0  0  0  0  0  0  0  0  # atno 17371 bound_to 10713
  140.3453  134.2659  155.7206 LP  0  0  0  0  0  0  0  0  0  0  0  0  # atno 17394 bound_to 11000
  141.2055  133.7859  157.0230 LP  0  0  0  0  0  0  0  0  0  0  0  0  # atno 17395 bound_to 11000

$$$$
