AV-unprocessed.smi:414|AV-procd|sdf|2517|dock7
  -GOLD-   2262022463D 1   1.00000     0.00000
 Structure written by MMmdl.
 37 38  0  0  0  0  0  0  0  0  2 V2000
  152.4006  143.4628  162.3857 C   0  0  0  0  0  0  0  0  0  0  0  0
  152.2238  144.2111  161.0568 C   0  0  2  0  0  0  0  0  0  0  0  0
  150.7359  144.4606  160.7444 C   0  0  0  0  0  0  0  0  0  0  0  0
  150.5526  145.2068  159.4109 C   0  0  0  0  0  0  0  0  0  0  0  0
  151.2408  144.4810  158.2359 C   0  0  2  0  0  0  0  0  0  0  0  0
  150.5507  143.2366  157.9023 N   0  0  0  0  0  0  0  0  0  0  0  0
  150.8368  142.4400  156.8615 C   0  0  0  0  0  0  0  0  0  0  0  0
  151.7224  142.6887  156.0422 O   0  0  0  0  0  0  0  0  0  0  0  0
  149.9627  141.1885  156.7082 C   0  0  0  0  0  0  0  0  0  0  0  0
  150.6785  140.0744  156.0666 N   0  0  0  0  0  0  0  0  0  0  0  0
  150.0889  139.4785  154.9377 C   0  0  0  0  0  0  0  0  0  0  0  0
  150.6762  138.4572  154.2853 C   0  0  0  0  0  0  0  0  0  0  0  0
  151.9578  137.9685  154.7792 C   0  0  0  0  0  0  0  0  0  0  0  0
  152.5053  137.0322  154.2003 O   0  0  0  0  0  0  0  0  0  0  0  0
  152.4920  138.5833  155.8749 N   0  5  0  0  0  0  0  0  0  0  0  0
  151.8850  139.6237  156.5260 C   0  0  0  0  0  0  0  0  0  0  0  0
  152.3864  140.1668  157.5111 O   0  0  0  0  0  0  0  0  0  0  0  0
  152.7214  144.2000  158.5568 C   0  0  0  0  0  0  0  0  0  0  0  0
  152.8988  143.4590  159.8941 C   0  0  0  0  0  0  0  0  0  0  0  0
  151.9230  142.4828  162.3555 H   0  0  0  0  0  0  0  0  0  0  0  0
  151.9617  144.0215  163.2128 H   0  0  0  0  0  0  0  0  0  0  0  0
  153.4562  143.3116  162.6138 H   0  0  0  0  0  0  0  0  0  0  0  0
  152.7133  145.1808  161.1585 H   0  0  0  0  0  0  0  0  0  0  0  0
  150.2014  143.5104  160.7077 H   0  0  0  0  0  0  0  0  0  0  0  0
  150.2783  145.0377  161.5487 H   0  0  0  0  0  0  0  0  0  0  0  0
  149.4909  145.3464  159.2041 H   0  0  0  0  0  0  0  0  0  0  0  0
  150.9742  146.2083  159.5052 H   0  0  0  0  0  0  0  0  0  0  0  0
  151.2106  145.1317  157.3600 H   0  0  0  0  0  0  0  0  0  0  0  0
  149.8038  142.9525  158.5197 H   0  0  0  0  0  0  0  0  0  0  0  0
  149.5767  140.8774  157.6810 H   0  0  0  0  0  0  0  0  0  0  0  0
  149.0817  141.4609  156.1257 H   0  0  0  0  0  0  0  0  0  0  0  0
  149.1435  139.9035  154.6338 H   0  0  0  0  0  0  0  0  0  0  0  0
  150.2122  138.0136  153.4166 H   0  0  0  0  0  0  0  0  0  0  0  0
  153.1802  143.6283  157.7490 H   0  0  0  0  0  0  0  0  0  0  0  0
  153.2617  145.1465  158.6018 H   0  0  0  0  0  0  0  0  0  0  0  0
  153.9622  143.3330  160.0999 H   0  0  0  0  0  0  0  0  0  0  0  0
  152.4827  142.4539  159.8139 H   0  0  0  0  0  0  0  0  0  0  0  0
  1  2  1  0  0  0  0
  1 20  1  0  0  0  0
  1 21  1  0  0  0  0
  1 22  1  0  0  0  0
  2 19  1  0  0  0  0
  2  3  1  0  0  0  0
  2 23  1  0  0  0  0
  3  4  1  0  0  0  0
  3 24  1  0  0  0  0
  3 25  1  0  0  0  0
  4  5  1  0  0  0  0
  4 26  1  0  0  0  0
  4 27  1  0  0  0  0
  5  6  1  0  0  0  0
  5 18  1  0  0  0  0
  5 28  1  0  0  0  0
  6  7  1  0  0  0  0
  6 29  1  0  0  0  0
  7  8  2  0  0  0  0
  7  9  1  0  0  0  0
  9 10  1  0  0  0  0
  9 30  1  0  0  0  0
  9 31  1  0  0  0  0
 10 16  1  0  0  0  0
 10 11  1  0  0  0  0
 11 12  2  0  0  0  0
 11 32  1  0  0  0  0
 12 13  1  0  0  0  0
 12 33  1  0  0  0  0
 13 14  2  0  0  0  0
 13 15  1  0  0  0  0
 15 16  1  0  0  0  0
 16 17  2  0  0  0  0
 18 19  1  0  0  0  0
 18 34  1  0  0  0  0
 18 35  1  0  0  0  0
 19 36  1  0  0  0  0
 19 37  1  0  0  0  0
M  CHG  1  15  -1
M  END
> <s_m_source_file>
AV-unprocessed.smi

> <i_m_source_file_index>
414

> <i_lp_mmshare_version>
43012

> <i_f3d_flags>
0

> <s_epik_input>
W0NIM11bQ0BASF0xW0NIMl1bQ0gyXVtDQEhdKFtDSDJdW0NIMl0xKVtOSF1DKD1PKVtDSDJdbjJbY0hdW2NIXWMoPU8pW25IXWMyPU8=

> <s_epik_cmdline>
J2VwaWtfcHl0aG9uJywgJy1waCcsICc3LjAnLCAnLXRuJywgJzgnLCAnLW1hJywgJzIwMCcsICctbWV0YWxfYmluZGluZycsICctaW1hZScsICc8aW5maWxlLm1hZT4nLCAnLW9tYWUnLCAnPG91dGZpbGUubWFlPic=

> <r_lp_tautomer_probability>
0.999537

> <r_epik_Ionization_Penalty>
3.11551

> <r_epik_Ionization_Penalty_Charging>
2.90498e-08

> <r_epik_Ionization_Penalty_Neutral>
3.11551

> <r_epik_State_Penalty>
3.11459

> <r_epik_Charging_Adjusted_Penalty>
3.11459

> <i_epik_Tot_Q>
-1

> <i_epik_Tot_abs_Q>
1

> <r_epik_Metal_State_Penalty>
0.463083

> <b_epik_Metal_Only>
1

> <s_lp_Force_Field>
OPLS_2005

> <r_lp_Energy>
16.6581

> <b_lp_Chiralities_Consistent>
1

> <s_lp_Variant>
AV-unprocessed.smi:414-4

> <Gold.Version>
5.8.1

> <Gold.Id.Protein>
6NUR|6NUR_protein|mol2

> <Gold.PLP.Fitness>
41.4416

> <Gold.PLP.PLP>
-36.6251

> <Gold.PLP.part.hbond>
-2.4958

> <Gold.PLP.part.metal>
0.0000

> <Gold.PLP.part.buried>
2.4619

> <Gold.PLP.part.nonpolar>
-37.1490

> <Gold.PLP.part.repulsive>
1.8991

> <Gold.PLP.ligand.clash>
0.0000

> <Gold.PLP.ligand.torsion>
0.4398

> <Gold.PLP.Chemscore.Hbond>
1.8960

> <Gold.PLP.Chemscore.CHOScore>
0.0000

> <Gold.PLP.Chemscore.Metal>
0.0000

> <Gold.Chemscore.Hbonds>
donor molecule, donor type, donor heavy atom, donor atom, acceptor molecule, acceptor atom, score
      P1  H  7997  8008       L1    17  0.47
      P1  H 10752 10763       L1    14  0.54

> <Gold.PLP.Chemscore.Internal.Correction>
0.0080

> <Gold.Rescore>
     Score         DG    S(hbond)    S(metal)    S(lipo)     H(rot)  DE(clash)    DE(int)     intcor
     12.89     -19.49       1.73        0.00     106.53       1.65       4.97       1.63       ----

> <Gold.Chemscore.Fitness>
12.8876

> <Gold.Chemscore.DG>
-19.4916

> <Gold.Chemscore.ZeroCoef>
-5.4800

> <Gold.Chemscore.Hbond>
1.7318

> <Gold.Chemscore.Metal>
0.0000

> <Gold.Chemscore.Lipo>
106.5293

> <Gold.Chemscore.Internal_Hbond>
0.0000

> <Gold.Chemscore.DEClash>
4.9750

> <Gold.Chemscore.DEInternal>
1.6291

> <Gold.Chemscore.Rot>
1.6549

> <Gold.Chemscore.Internal.Correction>
   9.000000E+99

> <Gold.Chemscore.Hbonds>
donor molecule, donor type, donor heavy atom, donor atom, acceptor molecule, acceptor atom, score
      P1  H  7997  8008       L1    17  0.05
      P1  H 10752 10763       L1    14  0.54

> <Gold.Chemscore.Hbond.Weighted>
-5.7842

> <Gold.Chemscore.Metal.Weighted>
-0.0000

> <Gold.Chemscore.Lipo.Weighted>
-12.4639

> <Gold.Chemscore.Internal_Hbond.Weighted>
0.0000

> <Gold.Chemscore.DEClash.Weighted>
4.9750

> <Gold.Chemscore.DEInternal.Weighted>
1.6291

> <Gold.Chemscore.Rot.Weighted>
4.2364

> <Gold.Chemscore.Internal.Correction.Weighted>
   9.000000E+99

> <Gold.Protein.RotatedTorsions>
[ 6907 6896 6895 6894 ] final   96.60 input  -60.11 | X-H torsion
[ 7974 7965 7964 7962 ] final  -76.18 input  175.53 | X-H torsion
[ 8008 7997 7996 7995 ] final  -63.01 input   59.86 | X-H torsion
[ 10167 10162 10161 10158 ] final  108.97 input  -65.29 | X-H torsion
[ 10718 10713 10712 10709 ] final   80.04 input   66.30 | X-H torsion
[ 10763 10752 10751 10750 ] final   21.67 input  -60.55 | X-H torsion
[ 11005 11000 10999 10996 ] final   57.52 input  -57.11 | X-H torsion

> <Gold.Protein.ActiveResidues>
 VAL166  LYS551  ARG553  GLY616  TRP617  ASP618  TYR619  PRO620  LYS621  CYS622 
 ASP623  PHE694  ASN695  SER759  ASP760  ASP761  ALA762  ILE779  LEU786  VAL792 
 PHE793  MET794  SER795  GLU796  ALA797  LYS798  CYS799  TRP800  GLU811  SER814 

> <Gold.Protein.RotatedAtoms>
  152.5433  134.0861  159.8256 H   0  0  0  0  0  0  0  0  0  0  0  0  # atno 6907 bound_to 6896
  151.0957  133.5274  159.2620 H   0  0  0  0  0  0  0  0  0  0  0  0  # atno 6908 bound_to 6896
  151.2049  135.0466  159.8941 H   0  0  0  0  0  0  0  0  0  0  0  0  # atno 6909 bound_to 6896
  145.6162  140.9374  143.1163 H   0  0  0  0  0  0  0  0  0  0  0  0  # atno 7974 bound_to 7965
  154.4531  140.0984  156.6677 H   0  0  0  0  0  0  0  0  0  0  0  0  # atno 8008 bound_to 7997
  155.5223  140.3479  155.4391 H   0  0  0  0  0  0  0  0  0  0  0  0  # atno 8009 bound_to 7997
  156.0722  140.1352  156.9804 H   0  0  0  0  0  0  0  0  0  0  0  0  # atno 8010 bound_to 7997
  139.6804  144.7118  151.1526 H   0  0  0  0  0  0  0  0  0  0  0  0  # atno 10167 bound_to 10162
  157.6795  130.9941  150.2021 H   0  0  0  0  0  0  0  0  0  0  0  0  # atno 10718 bound_to 10713
  153.0977  135.6664  153.9732 H   0  0  0  0  0  0  0  0  0  0  0  0  # atno 10763 bound_to 10752
  153.9311  135.3004  155.3447 H   0  0  0  0  0  0  0  0  0  0  0  0  # atno 10764 bound_to 10752
  154.7396  135.5085  153.9175 H   0  0  0  0  0  0  0  0  0  0  0  0  # atno 10765 bound_to 10752
  140.0446  134.5823  155.9338 H   0  0  0  0  0  0  0  0  0  0  0  0  # atno 11005 bound_to 11000
  144.7249  139.7907  143.7368 LP  0  0  0  0  0  0  0  0  0  0  0  0  # atno 17320 bound_to 7965
  146.1466  139.4537  143.0075 LP  0  0  0  0  0  0  0  0  0  0  0  0  # atno 17321 bound_to 7965
  140.7650  143.5708  150.8998 LP  0  0  0  0  0  0  0  0  0  0  0  0  # atno 17342 bound_to 10162
  139.9380  143.6415  152.3060 LP  0  0  0  0  0  0  0  0  0  0  0  0  # atno 17343 bound_to 10162
  156.2710  130.3722  149.8032 LP  0  0  0  0  0  0  0  0  0  0  0  0  # atno 17370 bound_to 10713
  156.5749  130.8440  151.3367 LP  0  0  0  0  0  0  0  0  0  0  0  0  # atno 17371 bound_to 10713
  141.1900  133.6567  156.5395 LP  0  0  0  0  0  0  0  0  0  0  0  0  # atno 17394 bound_to 11000
  140.4013  134.7354  157.4781 LP  0  0  0  0  0  0  0  0  0  0  0  0  # atno 17395 bound_to 11000

$$$$
