AV-unprocessed.smi:258|AV-procd|sdf|1971|dock8
  -GOLD-   2262021133D 1   1.00000     0.00000
 Structure written by MMmdl.
 57 60  0  0  0  0  0  0  0  0  1 V2000
  142.7230  133.5937  158.5187 O   0  0  0  0  0  0  0  0  0  0  0  0
  142.5967  133.6151  159.9247 C   0  0  0  0  0  0  0  0  0  0  0  0
  143.8682  134.1900  160.5605 C   0  0  0  0  0  0  0  0  0  0  0  0
  144.9716  133.3693  160.2051 O   0  0  0  0  0  0  0  0  0  0  0  0
  146.2425  133.9011  160.5559 C   0  0  2  0  0  0  0  0  0  0  0  0
  146.3303  134.1742  162.0710 C   0  0  0  0  0  0  0  0  0  0  0  0
  147.6460  134.8921  162.4067 C   0  0  0  0  0  0  0  0  0  0  0  0
  147.7980  136.1783  161.5797 C   0  0  0  0  0  0  0  0  0  0  0  0
  147.6547  135.8995  160.1523 N   0  0  0  0  0  0  0  0  0  0  0  0
  148.1264  136.8061  159.2575 C   0  0  0  0  0  0  0  0  0  0  0  0
  147.2332  137.3318  158.3786 N   0  0  0  0  0  0  0  0  0  0  0  0
  147.6216  138.2279  157.4675 C   0  0  0  0  0  0  0  0  0  0  0  0
  148.8377  138.7353  157.2633 N   0  0  0  0  0  0  0  0  0  0  0  0
  149.7415  138.2175  158.1427 C   0  0  0  0  0  0  0  0  0  0  0  0
  149.4792  137.2542  159.1602 C   0  0  0  0  0  0  0  0  0  0  0  0
  150.6552  136.9824  159.8535 N   0  0  0  0  0  0  0  0  0  0  0  0
  151.5539  137.7338  159.2794 C   0  0  0  0  0  0  0  0  0  0  0  0
  151.0879  138.5154  158.2482 N   0  0  0  0  0  0  0  0  0  0  0  0
  151.8560  139.4510  157.4465 C   0  0  0  0  0  0  0  0  0  0  0  0
  151.5538  140.9375  157.7641 C   0  0  1  0  0  0  0  0  0  0  0  0
  150.0875  141.3337  157.4495 C   0  0  0  0  0  0  0  0  0  0  0  0
  149.8617  142.7111  157.6671 O   0  0  0  0  0  0  0  0  0  0  0  0
  151.9883  141.2562  159.2186 C   0  0  1  0  0  0  0  0  0  0  0  0
  153.3058  140.6563  159.6751 C   0  0  0  0  0  0  0  0  0  0  0  0
  153.5773  141.4524  160.9484 C   0  0  0  0  0  0  0  0  0  0  0  0
  153.0143  142.7438  160.7299 O   0  0  0  0  0  0  0  0  0  0  0  0
  152.1869  142.7335  159.5695 C   0  0  0  0  0  0  0  0  0  0  0  0
  146.4236  135.2084  159.7641 C   0  0  0  0  0  0  0  0  0  0  0  0
  143.6001  133.8617  158.2921 H   0  0  0  0  0  0  0  0  0  0  0  0
  141.7429  134.2478  160.1692 H   0  0  0  0  0  0  0  0  0  0  0  0
  142.3785  132.6165  160.3047 H   0  0  0  0  0  0  0  0  0  0  0  0
  144.0133  135.2295  160.2655 H   0  0  0  0  0  0  0  0  0  0  0  0
  143.7603  134.1741  161.6459 H   0  0  0  0  0  0  0  0  0  0  0  0
  147.0325  133.2089  160.2580 H   0  0  0  0  0  0  0  0  0  0  0  0
  145.4866  134.7906  162.3843 H   0  0  0  0  0  0  0  0  0  0  0  0
  146.2684  133.2468  162.6397 H   0  0  0  0  0  0  0  0  0  0  0  0
  147.6844  135.1267  163.4706 H   0  0  0  0  0  0  0  0  0  0  0  0
  148.4866  134.2272  162.2048 H   0  0  0  0  0  0  0  0  0  0  0  0
  147.0397  136.9015  161.8820 H   0  0  0  0  0  0  0  0  0  0  0  0
  148.7739  136.6220  161.7807 H   0  0  0  0  0  0  0  0  0  0  0  0
  146.8466  138.5915  156.8089 H   0  0  0  0  0  0  0  0  0  0  0  0
  152.5845  137.7479  159.6027 H   0  0  0  0  0  0  0  0  0  0  0  0
  152.9160  139.2417  157.5950 H   0  0  0  0  0  0  0  0  0  0  0  0
  151.6445  139.2375  156.3979 H   0  0  0  0  0  0  0  0  0  0  0  0
  152.1996  141.5429  157.1260 H   0  0  0  0  0  0  0  0  0  0  0  0
  149.8312  141.0862  156.4191 H   0  0  0  0  0  0  0  0  0  0  0  0
  149.3814  140.8004  158.0828 H   0  0  0  0  0  0  0  0  0  0  0  0
  149.4776  143.0808  156.8867 H   0  0  0  0  0  0  0  0  0  0  0  0
  151.2255  140.8595  159.8910 H   0  0  0  0  0  0  0  0  0  0  0  0
  153.2461  139.5826  159.8548 H   0  0  0  0  0  0  0  0  0  0  0  0
  154.1053  140.8347  158.9577 H   0  0  0  0  0  0  0  0  0  0  0  0
  153.0706  140.9932  161.7981 H   0  0  0  0  0  0  0  0  0  0  0  0
  154.6402  141.5146  161.1829 H   0  0  0  0  0  0  0  0  0  0  0  0
  152.7134  143.2689  158.7799 H   0  0  0  0  0  0  0  0  0  0  0  0
  151.2438  143.2480  159.7533 H   0  0  0  0  0  0  0  0  0  0  0  0
  146.4102  134.9819  158.6976 H   0  0  0  0  0  0  0  0  0  0  0  0
  145.5813  135.8759  159.9513 H   0  0  0  0  0  0  0  0  0  0  0  0
  1  2  1  0  0  0  0
  1 29  1  0  0  0  0
  2  3  1  0  0  0  0
  2 30  1  0  0  0  0
  2 31  1  0  0  0  0
  3  4  1  0  0  0  0
  3 32  1  0  0  0  0
  3 33  1  0  0  0  0
  4  5  1  0  0  0  0
  5 28  1  0  0  0  0
  5  6  1  0  0  0  0
  5 34  1  0  0  0  0
  6  7  1  0  0  0  0
  6 35  1  0  0  0  0
  6 36  1  0  0  0  0
  7  8  1  0  0  0  0
  7 37  1  0  0  0  0
  7 38  1  0  0  0  0
  8  9  1  0  0  0  0
  8 39  1  0  0  0  0
  8 40  1  0  0  0  0
  9 10  1  0  0  0  0
  9 28  1  0  0  0  0
 10 15  1  0  0  0  0
 10 11  2  0  0  0  0
 11 12  1  0  0  0  0
 12 13  2  0  0  0  0
 12 41  1  0  0  0  0
 13 14  1  0  0  0  0
 14 18  1  0  0  0  0
 14 15  2  0  0  0  0
 15 16  1  0  0  0  0
 16 17  2  0  0  0  0
 17 18  1  0  0  0  0
 17 42  1  0  0  0  0
 18 19  1  0  0  0  0
 19 20  1  0  0  0  0
 19 43  1  0  0  0  0
 19 44  1  0  0  0  0
 20 21  1  0  0  0  0
 20 23  1  0  0  0  0
 20 45  1  0  0  0  0
 21 22  1  0  0  0  0
 21 46  1  0  0  0  0
 21 47  1  0  0  0  0
 22 48  1  0  0  0  0
 23 27  1  0  0  0  0
 23 24  1  0  0  0  0
 23 49  1  0  0  0  0
 24 25  1  0  0  0  0
 24 50  1  0  0  0  0
 24 51  1  0  0  0  0
 25 26  1  0  0  0  0
 25 52  1  0  0  0  0
 25 53  1  0  0  0  0
 26 27  1  0  0  0  0
 27 54  1  0  0  0  0
 27 55  1  0  0  0  0
 28 56  1  0  0  0  0
 28 57  1  0  0  0  0
M  END
> <s_m_source_file>
AV-unprocessed.smi

> <i_m_source_file_index>
258

> <i_lp_mmshare_version>
43012

> <i_f3d_flags>
0

> <s_epik_input>
W09IXVtDSDJdW0NIMl1PW0NAQEhdMVtDSDJdW0NIMl1bQ0gyXU4oW0NIMl0xKWMobltjSF1uMiljKGMyMyluW2NIXW4zW0NIMl1bQ0BIXShbQ0gyXVtPSF0pW0NAQEhdNFtDSDJdW0NIMl1PW0NIMl00

> <s_epik_cmdline>
J2VwaWtfcHl0aG9uJywgJy1waCcsICc3LjAnLCAnLXRuJywgJzgnLCAnLW1hJywgJzIwMCcsICctbWV0YWxfYmluZGluZycsICctaW1hZScsICc8aW5maWxlLm1hZT4nLCAnLW9tYWUnLCAnPG91dGZpbGUubWFlPic=

> <r_lp_tautomer_probability>
1

> <r_epik_Ionization_Penalty>
0.00349036

> <r_epik_Ionization_Penalty_Charging>
0

> <r_epik_Ionization_Penalty_Neutral>
0.00349036

> <r_epik_State_Penalty>
0.00229798

> <r_epik_Charging_Adjusted_Penalty>
0.00229798

> <i_epik_Tot_Q>
0

> <i_epik_Tot_abs_Q>
0

> <r_epik_Metal_State_Penalty>
-0

> <b_epik_Metal_Only>
0

> <s_lp_Force_Field>
OPLS_2005

> <r_lp_Energy>
47.622

> <b_lp_Chiralities_Consistent>
1

> <s_lp_Variant>
AV-unprocessed.smi:258-7

> <Gold.Version>
5.8.1

> <Gold.Id.Protein>
6NUR|6NUR_protein|mol2

> <Gold.PLP.Fitness>
49.0810

> <Gold.PLP.PLP>
-40.7280

> <Gold.PLP.part.hbond>
-3.2961

> <Gold.PLP.part.metal>
0.0000

> <Gold.PLP.part.buried>
-7.4841

> <Gold.PLP.part.nonpolar>
-30.8081

> <Gold.PLP.part.repulsive>
0.0082

> <Gold.PLP.ligand.clash>
0.0000

> <Gold.PLP.ligand.torsion>
0.7460

> <Gold.PLP.Chemscore.Hbond>
2.9750

> <Gold.PLP.Chemscore.CHOScore>
0.0000

> <Gold.PLP.Chemscore.Metal>
0.0000

> <Gold.Chemscore.Hbonds>
donor molecule, donor type, donor heavy atom, donor atom, acceptor molecule, acceptor atom, score
      L1  H    22    48       P1  8028  0.76
      P1  H  6896  6907       L1    16  1.00
      P1  H 11000 11005       L1     1  0.98

> <Gold.PLP.Chemscore.Internal.Correction>
0.9201

> <Gold.Rescore>
     Score         DG    S(hbond)    S(metal)    S(lipo)     H(rot)  DE(clash)    DE(int)     intcor
     12.98     -14.77       2.80        0.00      92.02       4.22       0.00       1.79       ----

> <Gold.Chemscore.Fitness>
12.9839

> <Gold.Chemscore.DG>
-14.7703

> <Gold.Chemscore.ZeroCoef>
-5.4800

> <Gold.Chemscore.Hbond>
2.7960

> <Gold.Chemscore.Metal>
0.0000

> <Gold.Chemscore.Lipo>
92.0225

> <Gold.Chemscore.Internal_Hbond>
0.0000

> <Gold.Chemscore.DEClash>
0.0000

> <Gold.Chemscore.DEInternal>
1.7864

> <Gold.Chemscore.Rot>
4.2246

> <Gold.Chemscore.Internal.Correction>
   9.000000E+99

> <Gold.Chemscore.Hbonds>
donor molecule, donor type, donor heavy atom, donor atom, acceptor molecule, acceptor atom, score
      L1  H    22    48       P1  8028  0.71
      P1  H  6896  6907       L1    16  0.72
      P1  H 11000 11005       L1     1  0.89

> <Gold.Chemscore.Hbond.Weighted>
-9.3385

> <Gold.Chemscore.Metal.Weighted>
-0.0000

> <Gold.Chemscore.Lipo.Weighted>
-10.7666

> <Gold.Chemscore.Internal_Hbond.Weighted>
0.0000

> <Gold.Chemscore.DEClash.Weighted>
0.0000

> <Gold.Chemscore.DEInternal.Weighted>
1.7864

> <Gold.Chemscore.Rot.Weighted>
10.8149

> <Gold.Chemscore.Internal.Correction.Weighted>
   9.000000E+99

> <Gold.Protein.RotatedTorsions>
[ 6907 6896 6895 6894 ] final  -21.89 input  -60.11 | X-H torsion
[ 7974 7965 7964 7962 ] final  163.38 input  175.53 | X-H torsion
[ 8008 7997 7996 7995 ] final  -38.24 input   59.86 | X-H torsion
[ 10167 10162 10161 10158 ] final  133.10 input  -65.29 | X-H torsion
[ 10718 10713 10712 10709 ] final -131.58 input   66.30 | X-H torsion
[ 10763 10752 10751 10750 ] final  -46.92 input  -60.55 | X-H torsion
[ 11005 11000 10999 10996 ] final -112.39 input  -57.11 | X-H torsion

> <Gold.Protein.ActiveResidues>
 VAL166  LYS551  ARG553  GLY616  TRP617  ASP618  TYR619  PRO620  LYS621  CYS622 
 ASP623  PHE694  ASN695  SER759  ASP760  ASP761  ALA762  ILE779  LEU786  VAL792 
 PHE793  MET794  SER795  GLU796  ALA797  LYS798  CYS799  TRP800  GLU811  SER814 

> <Gold.Protein.RotatedAtoms>
  151.2266  135.0539  159.8970 H   0  0  0  0  0  0  0  0  0  0  0  0  # atno 6907 bound_to 6896
  152.5409  134.0582  159.8150 H   0  0  0  0  0  0  0  0  0  0  0  0  # atno 6908 bound_to 6896
  151.0756  133.5382  159.2655 H   0  0  0  0  0  0  0  0  0  0  0  0  # atno 6909 bound_to 6896
  144.7592  139.8174  143.6338 H   0  0  0  0  0  0  0  0  0  0  0  0  # atno 7974 bound_to 7965
  154.4040  140.1583  156.2668 H   0  0  0  0  0  0  0  0  0  0  0  0  # atno 8008 bound_to 7997
  155.8988  140.3434  155.5989 H   0  0  0  0  0  0  0  0  0  0  0  0  # atno 8009 bound_to 7997
  155.7472  140.0800  157.2209 H   0  0  0  0  0  0  0  0  0  0  0  0  # atno 8010 bound_to 7997
  139.5311  144.6631  151.4947 H   0  0  0  0  0  0  0  0  0  0  0  0  # atno 10167 bound_to 10162
  156.2259  130.7007  151.0806 H   0  0  0  0  0  0  0  0  0  0  0  0  # atno 10718 bound_to 10713
  154.0528  135.6629  153.4802 H   0  0  0  0  0  0  0  0  0  0  0  0  # atno 10763 bound_to 10752
  153.0457  135.5116  154.7734 H   0  0  0  0  0  0  0  0  0  0  0  0  # atno 10764 bound_to 10752
  154.6746  135.3035  154.9662 H   0  0  0  0  0  0  0  0  0  0  0  0  # atno 10765 bound_to 10752
  141.0677  133.9431  157.2545 H   0  0  0  0  0  0  0  0  0  0  0  0  # atno 11005 bound_to 11000
  146.1638  139.4761  142.9971 LP  0  0  0  0  0  0  0  0  0  0  0  0  # atno 17320 bound_to 7965
  145.6674  141.0225  143.1676 LP  0  0  0  0  0  0  0  0  0  0  0  0  # atno 17321 bound_to 7965
  140.6490  143.8736  150.6766 LP  0  0  0  0  0  0  0  0  0  0  0  0  # atno 17342 bound_to 10162
  140.2095  143.3895  152.1729 LP  0  0  0  0  0  0  0  0  0  0  0  0  # atno 17343 bound_to 10162
  157.7110  131.0734  150.6500 LP  0  0  0  0  0  0  0  0  0  0  0  0  # atno 17370 bound_to 10713
  156.6566  130.4500  149.5701 LP  0  0  0  0  0  0  0  0  0  0  0  0  # atno 17371 bound_to 10713
  139.9493  135.0178  156.8946 LP  0  0  0  0  0  0  0  0  0  0  0  0  # atno 17394 bound_to 11000
  140.5738  134.0418  155.7439 LP  0  0  0  0  0  0  0  0  0  0  0  0  # atno 17395 bound_to 11000

$$$$
