#       Name:                AV-unprocessed.smi:1726
#       Creating user name   scv26
#       Creation time:       Fri Mar 27 08:17:06 2020


#       File generated by GOLD software.
#

@<TRIPOS>MOLECULE
AV-unprocessed.smi:1726
    47    48     1
SMALL
NO_CHARGES


@<TRIPOS>ATOM
      1 ****        -3.3512  -0.9581  -3.1515 C.3            1 S1                 0.0000
      2 ****        -3.4845  -2.0651  -2.0955 C.3            1 S1                 0.0000
      3 ****        -3.1606  -1.5902  -0.7264 N.4            1 S1                 1.0000
      4 ****        -3.7505  -2.4620   0.3227 C.3            1 S1                 0.0000
      5 ****        -3.5215  -1.8777   1.7264 C.3            1 S1                 0.0000
      6 ****        -2.0288  -1.6420   1.9894 C.3            1 S1                 0.0000
      7 ****        -1.4325  -0.7614   0.8806 C.3            1 S1                 0.0000
      8 ****        -0.0001  -0.5867   1.1029 N.am           1 S1                 0.0000
      9 ****         0.7448   0.4052   0.5938 C.2            1 S1                 0.0000
     10 ****         0.2864   1.2794  -0.1412 O.2            1 S1                 0.0000
     11 ****         2.0286   0.2894   0.9800 N.am           1 S1                 0.0000
     12 ****         3.1255   1.1193   0.6914 C.2            1 S1                 0.0000
     13 ****         3.0385   2.3813   0.1949 C.2            1 S1                 0.0000
     14 ****         4.2177   3.1878  -0.0736 C.2            1 S1                 0.0000
     15 ****         4.1068   4.6188  -0.5770 C.3            1 S1                 0.0000
     16 ****         5.1334   5.3603  -0.1586 F              1 S1                 0.0000
     17 ****         4.1024   4.6303  -1.9094 F              1 S1                 0.0000
     18 ****         2.9786   5.1890  -0.1537 F              1 S1                 0.0000
     19 ****         5.4062   2.6308   0.2240 C.2            1 S1                 0.0000
     20 ****         5.5045   1.3343   0.7338 N.am           1 S1                 0.0000
     21 ****         4.4438   0.5368   0.9918 C.2            1 S1                 0.0000
     22 ****         4.6128  -0.5942   1.4466 O.2            1 S1                 0.0000
     23 ****        -1.7044  -1.3831  -0.5061 C.3            1 S1                 0.0000
     24 ****         6.4329   0.9843   0.9215 H              1 S1                 0.0000
     25 ****        -3.6913  -1.3152  -4.1239 H              1 S1                 0.0000
     26 ****        -2.3203  -0.6276  -3.2744 H              1 S1                 0.0000
     27 ****        -3.9557  -0.0892  -2.8903 H              1 S1                 0.0000
     28 ****        -4.5164  -2.4183  -2.1170 H              1 S1                 0.0000
     29 ****        -2.8600  -2.9218  -2.3530 H              1 S1                 0.0000
     30 ****        -4.8225  -2.5708   0.1535 H              1 S1                 0.0000
     31 ****        -3.3154  -3.4606   0.2541 H              1 S1                 0.0000
     32 ****        -4.0638  -0.9363   1.8247 H              1 S1                 0.0000
     33 ****        -3.9303  -2.5502   2.4813 H              1 S1                 0.0000
     34 ****        -1.8922  -1.1717   2.9641 H              1 S1                 0.0000
     35 ****        -1.5089  -2.6003   2.0280 H              1 S1                 0.0000
     36 ****        -1.9136   0.2179   0.9291 H              1 S1                 0.0000
     37 ****         0.4556  -1.2664   1.6946 H              1 S1                 0.0000
     38 ****         2.2577  -0.5233   1.5339 H              1 S1                 0.0000
     39 ****         2.0825   2.8354  -0.0068 H              1 S1                 0.0000
     40 ****         6.3582   3.1261   0.1019 H              1 S1                 0.0000
     41 ****        -1.1829  -2.3369  -0.6033 H              1 S1                 0.0000
     42 ****        -1.3045  -0.7269  -1.2781 H              1 S1                 0.0000
     43 ****        -3.6042  -0.6883  -0.6248 H              1 S1                 0.0000
     44 ****        -0.6837   1.2704  -0.3840 LP             1 S1                 0.0000
     45 ****         0.8839   1.9986  -0.4956 LP             1 S1                 0.0000
     46 ****         3.8247  -1.1802   1.6352 LP             1 S1                 0.0000
     47 ****         5.5382  -0.9273   1.6276 LP             1 S1                 0.0000
@<TRIPOS>BOND
    1    1    2 1     
    2    1   25 1     
    3    1   26 1     
    4    1   27 1     
    5    2    3 1     
    6    2   28 1     
    7    2   29 1     
    8    3   23 1     
    9    3    4 1     
   10    3   43 1     
   11    4    5 1     
   12    4   30 1     
   13    4   31 1     
   14    5    6 1     
   15    5   32 1     
   16    5   33 1     
   17    6    7 1     
   18    6   34 1     
   19    6   35 1     
   20    7    8 1     
   21    7   23 1     
   22    7   36 1     
   23    8    9 am    
   24    8   37 1     
   25    9   10 2     
   26    9   11 am    
   27   11   12 1     
   28   11   38 1     
   29   12   21 1     
   30   12   13 2     
   31   13   14 1     
   32   13   39 1     
   33   14   15 1     
   34   14   19 2     
   35   15   16 1     
   36   15   17 1     
   37   15   18 1     
   38   19   20 1     
   39   19   40 1     
   40   20   24 1     
   41   20   21 am    
   42   21   22 2     
   43   23   41 1     
   44   23   42 1     
   45   10   44 1     
   46   10   45 1     
   47   22   46 1     
   48   22   47 1     
@<TRIPOS>SUBSTRUCTURE
      1 S1             1
@<TRIPOS>SET
LONE_PAIRS      STATIC     ATOMS    <user>   **** ""
4 44 45 46 47
DONOR_HYDROGENS      STATIC     ATOMS    <user>   **** ""
4 43 37 38 24
ATOM$BLUE        STATIC     ATOMS    COLORGROUP SYSTEM
4 44 45 46 47
ATOM$RED        STATIC     ATOMS    COLORGROUP SYSTEM
4 43 37 38 24
