AV-unprocessed.smi:3030|AV-procd|sdf|11539|dock9
  -GOLD-   2272016483D 1   1.00000     0.00000
 Structure written by MMmdl.
 52 53  0  0  0  0  0  0  0  0  1 V2000
  153.6352  142.8489  163.4780 C   0  0  0  0  0  0  0  0  0  0  0  0
  152.7990  143.1640  162.2328 C   0  0  0  0  0  0  0  0  0  0  0  0
  153.0426  142.2072  161.1631 N   0  0  0  0  0  0  0  0  0  0  0  0
  154.1004  141.3064  161.2255 C   0  0  0  0  0  0  0  0  0  0  0  0
  154.3469  140.3657  160.2935 C   0  0  0  0  0  0  0  0  0  0  0  0
  153.4533  140.2557  159.1227 C   0  0  0  0  0  0  0  0  0  0  0  0
  153.6480  139.4070  158.2525 O   0  0  0  0  0  0  0  0  0  0  0  0
  152.3200  141.2162  159.0571 C   0  0  0  0  0  0  0  0  0  0  0  0
  151.4724  141.0996  157.9431 N   0  0  0  0  0  0  0  0  0  0  0  0
  150.3219  141.7427  157.6735 C   0  0  0  0  0  0  0  0  0  0  0  0
  149.7878  142.5968  158.3806 O   0  0  0  0  0  0  0  0  0  0  0  0
  149.8201  141.3435  156.4958 N   0  0  0  0  0  0  0  0  0  0  0  0
  148.6076  141.8613  155.8691 C   0  0  2  0  0  0  0  0  0  0  0  0
  147.3936  141.7024  156.8033 C   0  0  0  0  0  0  0  0  0  0  0  0
  146.1606  142.4349  156.2364 C   0  0  2  0  0  0  0  0  0  0  0  0
  144.9311  142.2470  157.1367 C   0  0  0  0  0  0  0  0  0  0  0  0
  145.8744  141.9972  154.7853 C   0  0  0  0  0  0  0  0  0  0  0  0
  147.1267  142.1140  153.8947 C   0  0  0  0  0  0  0  0  0  0  0  0
  148.3172  141.2897  154.4474 C   0  0  2  0  0  0  0  0  0  0  0  0
  148.0970  139.7388  154.3411 C   0  0  0  0  0  0  0  0  0  0  0  0
  149.3986  138.9133  154.3872 C   0  0  0  0  0  0  0  0  0  0  0  0
  147.3306  139.3403  153.0633 C   0  0  0  0  0  0  0  0  0  0  0  0
  152.1856  142.1121  160.0684 C   0  0  0  0  0  0  0  0  0  0  0  0
  153.4390  143.5724  164.2692 H   0  0  0  0  0  0  0  0  0  0  0  0
  154.7019  142.8809  163.2544 H   0  0  0  0  0  0  0  0  0  0  0  0
  153.4034  141.8574  163.8678 H   0  0  0  0  0  0  0  0  0  0  0  0
  151.7389  143.1617  162.4894 H   0  0  0  0  0  0  0  0  0  0  0  0
  153.0251  144.1705  161.8788 H   0  0  0  0  0  0  0  0  0  0  0  0
  154.7314  141.4201  162.0953 H   0  0  0  0  0  0  0  0  0  0  0  0
  155.1839  139.6887  160.3827 H   0  0  0  0  0  0  0  0  0  0  0  0
  151.7965  140.4512  157.2401 H   0  0  0  0  0  0  0  0  0  0  0  0
  150.3267  140.6385  155.9808 H   0  0  0  0  0  0  0  0  0  0  0  0
  148.7702  142.9362  155.7635 H   0  0  0  0  0  0  0  0  0  0  0  0
  147.1700  140.6469  156.9601 H   0  0  0  0  0  0  0  0  0  0  0  0
  147.6322  142.1106  157.7865 H   0  0  0  0  0  0  0  0  0  0  0  0
  146.3903  143.5015  156.2182 H   0  0  0  0  0  0  0  0  0  0  0  0
  144.6434  141.1971  157.2010 H   0  0  0  0  0  0  0  0  0  0  0  0
  144.0754  142.8043  156.7549 H   0  0  0  0  0  0  0  0  0  0  0  0
  145.1286  142.6005  158.1492 H   0  0  0  0  0  0  0  0  0  0  0  0
  145.5032  140.9723  154.7702 H   0  0  0  0  0  0  0  0  0  0  0  0
  145.0762  142.6122  154.3680 H   0  0  0  0  0  0  0  0  0  0  0  0
  146.8894  141.8450  152.8670 H   0  0  0  0  0  0  0  0  0  0  0  0
  147.4173  143.1641  153.8408 H   0  0  0  0  0  0  0  0  0  0  0  0
  149.1753  141.5261  153.8166 H   0  0  0  0  0  0  0  0  0  0  0  0
  147.4867  139.4091  155.1812 H   0  0  0  0  0  0  0  0  0  0  0  0
  150.1407  139.2986  153.6872 H   0  0  0  0  0  0  0  0  0  0  0  0
  149.2174  137.8692  154.1307 H   0  0  0  0  0  0  0  0  0  0  0  0
  149.8383  138.8990  155.3826 H   0  0  0  0  0  0  0  0  0  0  0  0
  147.8211  139.7276  152.1696 H   0  0  0  0  0  0  0  0  0  0  0  0
  146.3029  139.7013  153.0724 H   0  0  0  0  0  0  0  0  0  0  0  0
  147.2665  138.2566  152.9602 H   0  0  0  0  0  0  0  0  0  0  0  0
  151.3884  142.8370  160.1104 H   0  0  0  0  0  0  0  0  0  0  0  0
  1  2  1  0  0  0  0
  1 24  1  0  0  0  0
  1 25  1  0  0  0  0
  1 26  1  0  0  0  0
  2  3  1  0  0  0  0
  2 27  1  0  0  0  0
  2 28  1  0  0  0  0
  3 23  1  0  0  0  0
  3  4  1  0  0  0  0
  4  5  2  0  0  0  0
  4 29  1  0  0  0  0
  5  6  1  0  0  0  0
  5 30  1  0  0  0  0
  6  7  2  0  0  0  0
  6  8  1  0  0  0  0
  8  9  1  0  0  0  0
  8 23  2  0  0  0  0
  9 10  1  0  0  0  0
  9 31  1  0  0  0  0
 10 11  2  0  0  0  0
 10 12  1  0  0  0  0
 12 13  1  0  0  0  0
 12 32  1  0  0  0  0
 13 19  1  0  0  0  0
 13 14  1  0  0  0  0
 13 33  1  0  0  0  0
 14 15  1  0  0  0  0
 14 34  1  0  0  0  0
 14 35  1  0  0  0  0
 15 16  1  0  0  0  0
 15 17  1  0  0  0  0
 15 36  1  0  0  0  0
 16 37  1  0  0  0  0
 16 38  1  0  0  0  0
 16 39  1  0  0  0  0
 17 18  1  0  0  0  0
 17 40  1  0  0  0  0
 17 41  1  0  0  0  0
 18 19  1  0  0  0  0
 18 42  1  0  0  0  0
 18 43  1  0  0  0  0
 19 20  1  0  0  0  0
 19 44  1  0  0  0  0
 20 21  1  0  0  0  0
 20 22  1  0  0  0  0
 20 45  1  0  0  0  0
 21 46  1  0  0  0  0
 21 47  1  0  0  0  0
 21 48  1  0  0  0  0
 22 49  1  0  0  0  0
 22 50  1  0  0  0  0
 22 51  1  0  0  0  0
 23 52  1  0  0  0  0
M  END
> <s_m_source_file>
AV-unprocessed.smi

> <i_m_source_file_index>
3030

> <i_lp_mmshare_version>
43012

> <i_f3d_flags>
0

> <s_epik_input>
W0NIM11bQ0gyXW4xW2NIXVtjSF1jKD1PKWMoW2NIXTEpW05IXUMoPU8pW05IXVtDQEBIXTJbQ0gyXVtDQEBIXShbQ0gzXSlbQ0gyXVtDSDJdW0NASF0yW0NIXShbQ0gzXSlbQ0gzXQ==

> <s_epik_cmdline>
J2VwaWtfcHl0aG9uJywgJy1waCcsICc3LjAnLCAnLXRuJywgJzgnLCAnLW1hJywgJzIwMCcsICctbWV0YWxfYmluZGluZycsICctaW1hZScsICc8aW5maWxlLm1hZT4nLCAnLW9tYWUnLCAnPG91dGZpbGUubWFlPic=

> <r_lp_tautomer_probability>
1

> <r_epik_Ionization_Penalty>
0.00147933

> <r_epik_Ionization_Penalty_Charging>
0.00145753

> <r_epik_Ionization_Penalty_Neutral>
2.17987e-05

> <r_epik_State_Penalty>
0.00097457

> <r_epik_Charging_Adjusted_Penalty>
0.0024321

> <i_epik_Tot_Q>
0

> <i_epik_Tot_abs_Q>
0

> <r_epik_Metal_State_Penalty>
-0

> <b_epik_Metal_Only>
0

> <s_lp_Force_Field>
OPLS_2005

> <r_lp_Energy>
13.9811

> <b_lp_Chiralities_Consistent>
1

> <s_lp_Variant>
AV-unprocessed.smi:3030-7

> <Gold.Version>
5.8.1

> <Gold.Id.Protein>
6NUR|6NUR_protein|mol2

> <Gold.PLP.Fitness>
46.5353

> <Gold.PLP.PLP>
-44.6505

> <Gold.PLP.part.hbond>
-1.0000

> <Gold.PLP.part.metal>
0.0000

> <Gold.PLP.part.buried>
-3.4896

> <Gold.PLP.part.nonpolar>
-39.7361

> <Gold.PLP.part.repulsive>
0.2553

> <Gold.PLP.ligand.clash>
0.0000

> <Gold.PLP.ligand.torsion>
0.5899

> <Gold.PLP.Chemscore.Hbond>
1.0000

> <Gold.PLP.Chemscore.CHOScore>
0.0000

> <Gold.PLP.Chemscore.Metal>
0.0000

> <Gold.Chemscore.Hbonds>
donor molecule, donor type, donor heavy atom, donor atom, acceptor molecule, acceptor atom, score
      P1  H  7997  8008       L1     7  1.00

> <Gold.PLP.Chemscore.Internal.Correction>
0.0646

> <Gold.Rescore>
     Score         DG    S(hbond)    S(metal)    S(lipo)     H(rot)  DE(clash)    DE(int)     intcor
     13.09     -18.01       0.95        0.00     107.69       1.27       1.80       3.12       ----

> <Gold.Chemscore.Fitness>
13.0884

> <Gold.Chemscore.DG>
-18.0057

> <Gold.Chemscore.ZeroCoef>
-5.4800

> <Gold.Chemscore.Hbond>
0.9500

> <Gold.Chemscore.Metal>
0.0000

> <Gold.Chemscore.Lipo>
107.6947

> <Gold.Chemscore.Internal_Hbond>
0.0000

> <Gold.Chemscore.DEClash>
1.8015

> <Gold.Chemscore.DEInternal>
3.1158

> <Gold.Chemscore.Rot>
1.2685

> <Gold.Chemscore.Internal.Correction>
   9.000000E+99

> <Gold.Chemscore.Hbonds>
donor molecule, donor type, donor heavy atom, donor atom, acceptor molecule, acceptor atom, score
      P1  H  7997  8008       L1     7  0.80

> <Gold.Chemscore.Hbond.Weighted>
-3.1729

> <Gold.Chemscore.Metal.Weighted>
-0.0000

> <Gold.Chemscore.Lipo.Weighted>
-12.6003

> <Gold.Chemscore.Internal_Hbond.Weighted>
0.0000

> <Gold.Chemscore.DEClash.Weighted>
1.8015

> <Gold.Chemscore.DEInternal.Weighted>
3.1158

> <Gold.Chemscore.Rot.Weighted>
3.2474

> <Gold.Chemscore.Internal.Correction.Weighted>
   9.000000E+99

> <Gold.Protein.RotatedTorsions>
[ 6907 6896 6895 6894 ] final   74.95 input  -60.11 | X-H torsion
[ 7974 7965 7964 7962 ] final  -73.14 input  175.53 | X-H torsion
[ 8008 7997 7996 7995 ] final  -75.45 input   59.86 | X-H torsion
[ 10167 10162 10161 10158 ] final   14.40 input  -65.29 | X-H torsion
[ 10718 10713 10712 10709 ] final  -70.94 input   66.30 | X-H torsion
[ 10763 10752 10751 10750 ] final  -53.18 input  -60.55 | X-H torsion
[ 11005 11000 10999 10996 ] final   43.13 input  -57.11 | X-H torsion

> <Gold.Protein.ActiveResidues>
 VAL166  LYS551  ARG553  GLY616  TRP617  ASP618  TYR619  PRO620  LYS621  CYS622 
 ASP623  PHE694  ASN695  SER759  ASP760  ASP761  ALA762  ILE779  LEU786  VAL792 
 PHE793  MET794  SER795  GLU796  ALA797  LYS798  CYS799  TRP800  GLU811  SER814 

> <Gold.Protein.RotatedAtoms>
  152.5002  134.4194  159.9475 H   0  0  0  0  0  0  0  0  0  0  0  0  # atno 6907 bound_to 6896
  151.4166  133.3705  159.2758 H   0  0  0  0  0  0  0  0  0  0  0  0  # atno 6908 bound_to 6896
  150.9253  134.8692  159.7575 H   0  0  0  0  0  0  0  0  0  0  0  0  # atno 6909 bound_to 6896
  145.6560  140.9267  143.0959 H   0  0  0  0  0  0  0  0  0  0  0  0  # atno 7974 bound_to 7965
  154.5418  140.0744  156.8522 H   0  0  0  0  0  0  0  0  0  0  0  0  # atno 8008 bound_to 7997
  155.3166  140.3393  155.4224 H   0  0  0  0  0  0  0  0  0  0  0  0  # atno 8009 bound_to 7997
  156.1881  140.1676  156.8131 H   0  0  0  0  0  0  0  0  0  0  0  0  # atno 8010 bound_to 7997
  140.5938  143.8742  150.6899 H   0  0  0  0  0  0  0  0  0  0  0  0  # atno 10167 bound_to 10162
  156.0385  130.4341  150.2370 H   0  0  0  0  0  0  0  0  0  0  0  0  # atno 10718 bound_to 10713
  154.1547  135.6484  153.4972 H   0  0  0  0  0  0  0  0  0  0  0  0  # atno 10763 bound_to 10752
  153.0127  135.5346  154.6772 H   0  0  0  0  0  0  0  0  0  0  0  0  # atno 10764 bound_to 10752
  154.6069  135.2949  155.0446 H   0  0  0  0  0  0  0  0  0  0  0  0  # atno 10765 bound_to 10752
  140.1674  134.4265  155.8278 H   0  0  0  0  0  0  0  0  0  0  0  0  # atno 11005 bound_to 11000
  144.7105  139.8388  143.7416 LP  0  0  0  0  0  0  0  0  0  0  0  0  # atno 17320 bound_to 7965
  146.1164  139.4176  143.0255 LP  0  0  0  0  0  0  0  0  0  0  0  0  # atno 17321 bound_to 7965
  140.2271  143.3764  152.1596 LP  0  0  0  0  0  0  0  0  0  0  0  0  # atno 17342 bound_to 10162
  139.5245  144.7084  151.5282 LP  0  0  0  0  0  0  0  0  0  0  0  0  # atno 17343 bound_to 10162
  157.0467  131.0051  151.3266 LP  0  0  0  0  0  0  0  0  0  0  0  0  # atno 17370 bound_to 10713
  157.5170  130.7974  149.7767 LP  0  0  0  0  0  0  0  0  0  0  0  0  # atno 17371 bound_to 10713
  141.2215  133.6940  156.7703 LP  0  0  0  0  0  0  0  0  0  0  0  0  # atno 17394 bound_to 11000
  140.2417  134.8608  157.3580 LP  0  0  0  0  0  0  0  0  0  0  0  0  # atno 17395 bound_to 11000

$$$$
