#       Name:                AV-unprocessed.smi:1900
#       Creating user name   scv26
#       Creation time:       Fri Mar 27 09:45:17 2020


#       File generated by GOLD software.
#

@<TRIPOS>MOLECULE
AV-unprocessed.smi:1900
    49    50     1
SMALL
NO_CHARGES


@<TRIPOS>ATOM
      1 ****        -5.2613   2.7022   1.1430 C.3            1 S1                 0.0000
      2 ****        -3.7882   2.4638   0.7930 C.3            1 S1                 0.0000
      3 ****        -3.4126   0.9724   0.8601 C.3            1 S1                 0.0000
      4 ****        -2.0096   0.7699   0.4301 N.4            1 S1                 1.0000
      5 ****        -1.5707  -0.6409   0.5748 C.3            1 S1                 0.0000
      6 ****        -0.0394  -0.7794   0.6288 C.3            1 S1                 0.0000
      7 ****         0.4056  -2.2334   0.8599 C.3            1 S1                 0.0000
      8 ****         1.8587  -2.3582   0.8955 N.am           1 S1                 0.0000
      9 ****         2.6530  -2.3884  -0.1845 C.2            1 S1                 0.0000
     10 ****         2.2348  -2.2832  -1.3377 O.2            1 S1                 0.0000
     11 ****         3.9417  -2.5491   0.1585 N.am           1 S1                 0.0000
     12 ****         5.0579  -2.6447  -0.7109 C.2            1 S1                 0.0000
     13 ****         6.3942  -2.8838  -0.2894 C.2            1 S1                 0.0000
     14 ****         7.2268  -2.9233  -1.3200 N.2            1 S1                 0.0000
     15 ****         6.4354  -2.7084  -2.3949 N.pl3          1 S1                 0.0000
     16 ****         5.1079  -2.5327  -2.0721 C.2            1 S1                 0.0000
     17 ****        -1.8076   1.3166  -0.9346 C.3            1 S1                 0.0000
     18 ****        -2.2343   2.7956  -1.0109 C.3            1 S1                 0.0000
     19 ****        -1.2492   3.7559  -0.3206 C.3            1 S1                 0.0000
     20 ****        -3.5690   2.9498  -0.5287 O.3            1 S1                 0.0000
     21 ****         6.8114  -2.6862  -3.3323 H              1 S1                 0.0000
     22 ****        -5.4870   2.3561   2.1520 H              1 S1                 0.0000
     23 ****        -5.9220   2.1768   0.4526 H              1 S1                 0.0000
     24 ****        -5.5058   3.7636   1.0943 H              1 S1                 0.0000
     25 ****        -3.1786   3.0280   1.4990 H              1 S1                 0.0000
     26 ****        -3.5419   0.6111   1.8813 H              1 S1                 0.0000
     27 ****        -4.0766   0.3831   0.2254 H              1 S1                 0.0000
     28 ****        -1.9784  -1.0462   1.5020 H              1 S1                 0.0000
     29 ****        -1.9863  -1.2438  -0.2342 H              1 S1                 0.0000
     30 ****         0.4014  -0.4164  -0.2991 H              1 S1                 0.0000
     31 ****         0.3557  -0.1485   1.4262 H              1 S1                 0.0000
     32 ****         0.0123  -2.5964   1.8100 H              1 S1                 0.0000
     33 ****        -0.0027  -2.8858   0.0861 H              1 S1                 0.0000
     34 ****         2.2876  -2.4507   1.8048 H              1 S1                 0.0000
     35 ****         4.1450  -2.6296   1.1440 H              1 S1                 0.0000
     36 ****         6.7793  -3.0299   0.7091 H              1 S1                 0.0000
     37 ****         4.3504  -2.3508  -2.8199 H              1 S1                 0.0000
     38 ****        -0.7668   1.2237  -1.2427 H              1 S1                 0.0000
     39 ****        -2.3967   0.7308  -1.6422 H              1 S1                 0.0000
     40 ****        -2.2610   3.0780  -2.0637 H              1 S1                 0.0000
     41 ****        -0.2700   3.7131  -0.7982 H              1 S1                 0.0000
     42 ****        -1.1050   3.5168   0.7325 H              1 S1                 0.0000
     43 ****        -1.6012   4.7857  -0.3855 H              1 S1                 0.0000
     44 ****        -1.4386   1.3172   1.0584 H              1 S1                 0.0000
     45 ****         1.2558  -2.1682  -1.5060 LP             1 S1                 0.0000
     46 ****         2.8742  -2.3128  -2.1060 LP             1 S1                 0.0000
     47 ****         8.2148  -3.0770  -1.3057 LP             1 S1                 0.0000
     48 ****        -3.7940   3.9240  -0.5430 LP             1 S1                 0.0000
     49 ****        -4.1816   2.4571  -1.1467 LP             1 S1                 0.0000
@<TRIPOS>BOND
    1    1    2 1     
    2    1   22 1     
    3    1   23 1     
    4    1   24 1     
    5    2   20 1     
    6    2    3 1     
    7    2   25 1     
    8    3    4 1     
    9    3   26 1     
   10    3   27 1     
   11    4    5 1     
   12    4   17 1     
   13    4   44 1     
   14    5    6 1     
   15    5   28 1     
   16    5   29 1     
   17    6    7 1     
   18    6   30 1     
   19    6   31 1     
   20    7    8 1     
   21    7   32 1     
   22    7   33 1     
   23    8    9 am    
   24    8   34 1     
   25    9   10 2     
   26    9   11 am    
   27   11   12 1     
   28   11   35 1     
   29   12   16 2     
   30   12   13 1     
   31   13   14 2     
   32   13   36 1     
   33   14   15 1     
   34   15   21 1     
   35   15   16 1     
   36   16   37 1     
   37   17   18 1     
   38   17   38 1     
   39   17   39 1     
   40   18   19 1     
   41   18   20 1     
   42   18   40 1     
   43   19   41 1     
   44   19   42 1     
   45   19   43 1     
   46   10   45 1     
   47   10   46 1     
   48   14   47 1     
   49   20   48 1     
   50   20   49 1     
@<TRIPOS>SUBSTRUCTURE
      1 S1             1
@<TRIPOS>SET
LONE_PAIRS      STATIC     ATOMS    <user>   **** ""
5 45 46 47 48 49
DONOR_HYDROGENS      STATIC     ATOMS    <user>   **** ""
4 44 34 35 21
ATOM$BLUE        STATIC     ATOMS    COLORGROUP SYSTEM
5 45 46 47 48 49
ATOM$RED        STATIC     ATOMS    COLORGROUP SYSTEM
4 44 34 35 21
