#       Name:                AV-unprocessed.smi:1129
#       Creating user name   scv26
#       Creation time:       Fri Mar 27 03:41:25 2020


#       File generated by GOLD software.
#

@<TRIPOS>MOLECULE
AV-unprocessed.smi:1129
    49    50     1
SMALL
NO_CHARGES


@<TRIPOS>ATOM
      1 ****        -4.4954   7.1266  -0.0820 C.3            1 S1                 0.0000
      2 ****        -4.0673   5.7823  -0.2127 O.3            1 S1                 0.0000
      3 ****        -2.6844   5.6240   0.0567 C.3            1 S1                 0.0000
      4 ****        -2.3154   4.1438  -0.0744 C.3            1 S1                 0.0000
      5 ****        -0.9235   3.9949   0.1891 O.3            1 S1                 0.0000
      6 ****        -0.3734   2.7308   0.1326 C.ar           1 S1                 0.0000
      7 ****         1.0033   2.5837   0.3930 C.ar           1 S1                 0.0000
      8 ****         1.5693   1.2961   0.3399 C.ar           1 S1                 0.0000
      9 ****         0.7450   0.1932   0.0392 C.ar           1 S1                 0.0000
     10 ****         1.3486  -1.0922  -0.0187 N.am           1 S1                 0.0000
     11 ****         0.7668  -2.3009   0.0924 C.2            1 S1                 0.0000
     12 ****        -0.4366  -2.4825   0.2765 O.2            1 S1                 0.0000
     13 ****         1.7125  -3.5069  -0.0006 C.3            1 S1                 0.0000
     14 ****         1.3275  -4.4252  -1.1720 C.3            1 S1                 0.0000
     15 ****         2.3142  -5.5969  -1.3003 C.3            1 S1                 0.0000
     16 ****         2.6264  -6.2811   0.0390 C.2            1 S1                 0.0000
     17 ****         3.1260  -7.4036   0.0424 O.2            1 S1                 0.0000
     18 ****         2.3793  -5.6188   1.1829 N.am           1 S1                 0.0000
     19 ****         1.7092  -4.3244   1.3092 C.3            1 S1                 0.0000
     20 ****        -0.6239   0.4464  -0.2215 C.ar           1 S1                 0.0000
     21 ****        -1.1723   1.6792  -0.1741 N.ar           1 S1                 0.0000
     22 ****        -5.5573   7.1976  -0.3172 H              1 S1                 0.0000
     23 ****        -3.9547   7.7822  -0.7660 H              1 S1                 0.0000
     24 ****        -4.3517   7.4881   0.9369 H              1 S1                 0.0000
     25 ****        -2.0970   6.2186  -0.6444 H              1 S1                 0.0000
     26 ****        -2.4545   5.9770   1.0631 H              1 S1                 0.0000
     27 ****        -2.9016   3.5556   0.6337 H              1 S1                 0.0000
     28 ****        -2.5503   3.7948  -1.0813 H              1 S1                 0.0000
     29 ****         1.6137   3.4428   0.6290 H              1 S1                 0.0000
     30 ****         2.6233   1.1599   0.5340 H              1 S1                 0.0000
     31 ****         2.3557  -1.0939  -0.0923 H              1 S1                 0.0000
     32 ****         2.7268  -3.1429  -0.1764 H              1 S1                 0.0000
     33 ****         0.3185  -4.8167  -1.0303 H              1 S1                 0.0000
     34 ****         1.3101  -3.8617  -2.1059 H              1 S1                 0.0000
     35 ****         1.9295  -6.3345  -2.0057 H              1 S1                 0.0000
     36 ****         3.2571  -5.2349  -1.7116 H              1 S1                 0.0000
     37 ****         2.6253  -6.0813   2.0462 H              1 S1                 0.0000
     38 ****         2.1930  -3.7588   2.1061 H              1 S1                 0.0000
     39 ****         0.6886  -4.5203   1.6416 H              1 S1                 0.0000
     40 ****        -1.3100  -0.3393  -0.4959 H              1 S1                 0.0000
     41 ****        -4.2488   5.4774  -1.1477 LP             1 S1                 0.0000
     42 ****        -4.5857   5.2169   0.4288 LP             1 S1                 0.0000
     43 ****        -0.7582   4.3477   1.1101 LP             1 S1                 0.0000
     44 ****        -0.4352   4.5591  -0.4766 LP             1 S1                 0.0000
     45 ****        -1.0543  -1.6999   0.3537 LP             1 S1                 0.0000
     46 ****        -0.7966  -3.4127   0.3488 LP             1 S1                 0.0000
     47 ****         3.3261  -7.8645  -0.8222 LP             1 S1                 0.0000
     48 ****         3.3325  -7.8564   0.9098 LP             1 S1                 0.0000
     49 ****        -2.1455   1.8136  -0.3609 LP             1 S1                 0.0000
@<TRIPOS>BOND
    1    1    2 1     
    2    1   22 1     
    3    1   23 1     
    4    1   24 1     
    5    2    3 1     
    6    3    4 1     
    7    3   25 1     
    8    3   26 1     
    9    4    5 1     
   10    4   27 1     
   11    4   28 1     
   12    5    6 1     
   13    6   21 ar    
   14    6    7 ar    
   15    7    8 ar    
   16    7   29 1     
   17    8    9 ar    
   18    8   30 1     
   19    9   10 1     
   20    9   20 ar    
   21   10   11 am    
   22   10   31 1     
   23   11   12 2     
   24   11   13 1     
   25   13   19 1     
   26   13   14 1     
   27   13   32 1     
   28   14   15 1     
   29   14   33 1     
   30   14   34 1     
   31   15   16 1     
   32   15   35 1     
   33   15   36 1     
   34   16   17 2     
   35   16   18 am    
   36   18   19 1     
   37   18   37 1     
   38   19   38 1     
   39   19   39 1     
   40   20   21 ar    
   41   20   40 1     
   42    2   41 1     
   43    2   42 1     
   44    5   43 1     
   45    5   44 1     
   46   12   45 1     
   47   12   46 1     
   48   17   47 1     
   49   17   48 1     
   50   21   49 1     
@<TRIPOS>SUBSTRUCTURE
      1 S1             1
@<TRIPOS>SET
LONE_PAIRS      STATIC     ATOMS    <user>   **** ""
9 41 42 43 44 45 46 47 48 49
DONOR_HYDROGENS      STATIC     ATOMS    <user>   **** ""
2 31 37
ATOM$BLUE        STATIC     ATOMS    COLORGROUP SYSTEM
9 41 42 43 44 45 46 47 48 49
ATOM$RED        STATIC     ATOMS    COLORGROUP SYSTEM
2 31 37
