#       Name:                AV-unprocessed.smi:330
#       Creating user name   scv26
#       Creation time:       Thu Mar 26 22:26:07 2020


#       File generated by GOLD software.
#

@<TRIPOS>MOLECULE
AV-unprocessed.smi:330
    40    42     1
SMALL
NO_CHARGES


@<TRIPOS>ATOM
      1 ****        -2.5677   2.3473   1.8112 C.3            1 S1                 0.0000
      2 ****        -2.8636   2.7397   0.3737 C.2            1 S1                 0.0000
      3 ****        -3.3065   3.9344  -0.0319 C.2            1 S1                 0.0000
      4 ****        -3.5035   4.0292  -1.7649 S.3            1 S1                 0.0000
      5 ****        -2.9396   2.3276  -1.9310 C.2            1 S1                 0.0000
      6 ****        -2.8461   1.7590  -3.0177 O.2            1 S1                 0.0000
      7 ****        -2.6530   1.8204  -0.6636 N.am           1 S1                 0.0000
      8 ****        -2.1770   0.4483  -0.4439 C.3            1 S1                 0.0000
      9 ****        -0.6483   0.3228  -0.4838 C.2            1 S1                 0.0000
     10 ****         0.0551   1.2510  -0.8852 O.2            1 S1                 0.0000
     11 ****        -0.1504  -0.8493  -0.0612 N.am           1 S1                 0.0000
     12 ****         1.2641  -1.2029  -0.0066 C.3            1 S1                 0.0000
     13 ****         1.7511  -1.8432  -1.2957 C.3            1 S1                 0.0000
     14 ****         3.2075  -1.7981  -1.6949 C.3            1 S1                 0.0000
     15 ****         2.1840  -1.0056  -2.4757 C.3            1 S1                 0.0000
     16 ****         1.5694  -2.1001   1.1787 C.3            1 S1                 0.0000
     17 ****         1.7696  -1.5243   2.5600 C.3            1 S1                 0.0000
     18 ****         2.9395  -2.1259   1.8144 C.3            1 S1                 0.0000
     19 ****        -2.4902   3.2359   2.4383 H              1 S1                 0.0000
     20 ****        -1.6260   1.8048   1.8952 H              1 S1                 0.0000
     21 ****        -3.3693   1.7230   2.2062 H              1 S1                 0.0000
     22 ****        -3.5245   4.7839   0.5982 H              1 S1                 0.0000
     23 ****        -2.5539   0.0573   0.5015 H              1 S1                 0.0000
     24 ****        -2.5898  -0.2083  -1.2114 H              1 S1                 0.0000
     25 ****        -0.8038  -1.5541   0.2481 H              1 S1                 0.0000
     26 ****         1.8405  -0.2870   0.1401 H              1 S1                 0.0000
     27 ****         1.2285  -2.7659  -1.5419 H              1 S1                 0.0000
     28 ****         3.8943  -1.2376  -1.0639 H              1 S1                 0.0000
     29 ****         3.6261  -2.6838  -2.1680 H              1 S1                 0.0000
     30 ****         1.9187  -1.3638  -3.4682 H              1 S1                 0.0000
     31 ****         2.1922   0.0761  -2.3573 H              1 S1                 0.0000
     32 ****         1.0526  -3.0575   1.1407 H              1 S1                 0.0000
     33 ****         1.7452  -0.4415   2.6665 H              1 S1                 0.0000
     34 ****         1.3652  -2.0848   3.4005 H              1 S1                 0.0000
     35 ****         3.3155  -3.0871   2.1583 H              1 S1                 0.0000
     36 ****         3.6930  -1.4393   1.4337 H              1 S1                 0.0000
     37 ****        -3.0884   2.2437  -3.8581 LP             1 S1                 0.0000
     38 ****        -2.5277   0.8120  -3.0607 LP             1 S1                 0.0000
     39 ****        -0.3688   2.1032  -1.1917 LP             1 S1                 0.0000
     40 ****         1.0501   1.1522  -0.9045 LP             1 S1                 0.0000
@<TRIPOS>BOND
    1    1    2 1     
    2    1   19 1     
    3    1   20 1     
    4    1   21 1     
    5    2    7 1     
    6    2    3 2     
    7    3    4 1     
    8    3   22 1     
    9    4    5 1     
   10    5    6 2     
   11    5    7 am    
   12    7    8 1     
   13    8    9 1     
   14    8   23 1     
   15    8   24 1     
   16    9   10 2     
   17    9   11 am    
   18   11   12 1     
   19   11   25 1     
   20   12   13 1     
   21   12   16 1     
   22   12   26 1     
   23   13   15 1     
   24   13   14 1     
   25   13   27 1     
   26   14   15 1     
   27   14   28 1     
   28   14   29 1     
   29   15   30 1     
   30   15   31 1     
   31   16   18 1     
   32   16   17 1     
   33   16   32 1     
   34   17   18 1     
   35   17   33 1     
   36   17   34 1     
   37   18   35 1     
   38   18   36 1     
   39    6   37 1     
   40    6   38 1     
   41   10   39 1     
   42   10   40 1     
@<TRIPOS>SUBSTRUCTURE
      1 S1             1
@<TRIPOS>SET
LONE_PAIRS      STATIC     ATOMS    <user>   **** ""
4 37 38 39 40
DONOR_HYDROGENS      STATIC     ATOMS    <user>   **** ""
1 25
ATOM$BLUE        STATIC     ATOMS    COLORGROUP SYSTEM
4 37 38 39 40
ATOM$RED        STATIC     ATOMS    COLORGROUP SYSTEM
1 25
