AV-unprocessed.smi:229|AV-procd|sdf|1762|dock8
  -GOLD-   2262020293D 1   1.00000     0.00000
 Structure written by MMmdl.
 58 62  0  0  0  0  0  0  0  0  1 V2000
  152.0567  144.1779  161.1307 C   0  0  0  0  0  0  0  0  0  0  0  0
  153.0198  143.2547  161.8874 C   0  0  0  0  0  0  0  0  0  0  0  0
  153.0923  141.8446  161.2830 C   0  0  1  0  0  0  0  0  0  0  0  0
  152.7107  141.8376  159.7938 C   0  0  0  0  0  0  0  0  0  0  0  0
  152.8753  140.4947  159.2575 N   0  0  0  0  0  0  0  0  0  0  0  0
  152.3773  140.2965  158.0193 C   0  0  0  0  0  0  0  0  0  0  0  0
  152.9454  139.3117  157.2811 N   0  0  0  0  0  0  0  0  0  0  0  0
  152.5046  139.0649  156.0434 C   0  0  0  0  0  0  0  0  0  0  0  0
  151.5305  139.6770  155.3661 N   0  0  0  0  0  0  0  0  0  0  0  0
  150.9656  140.6749  156.1044 C   0  0  0  0  0  0  0  0  0  0  0  0
  151.3249  141.0524  157.4288 C   0  0  0  0  0  0  0  0  0  0  0  0
  150.5364  142.1184  157.8464 N   0  0  0  0  0  0  0  0  0  0  0  0
  149.7508  142.3522  156.8304 C   0  0  0  0  0  0  0  0  0  0  0  0
  149.9385  141.5279  155.7441 N   0  0  0  0  0  0  0  0  0  0  0  0
  149.2126  141.5606  154.4863 C   0  0  0  0  0  0  0  0  0  0  0  0
  147.7338  141.1455  154.6451 C   0  0  1  0  0  0  0  0  0  0  0  0
  147.6484  140.2290  155.7196 O   0  0  0  0  0  0  0  0  0  0  0  0
  146.8023  142.3328  154.9620 C   0  0  1  0  0  0  0  0  0  0  0  0
  146.5912  143.3101  153.8040 C   0  0  0  0  0  0  0  0  0  0  0  0
  145.2612  143.9670  154.1318 C   0  0  0  0  0  0  0  0  0  0  0  0
  144.6005  142.9878  155.1046 C   0  0  0  0  0  0  0  0  0  0  0  0
  145.4751  141.8688  155.1622 O   0  0  0  0  0  0  0  0  0  0  0  0
  154.2295  139.9880  159.4222 C   0  0  0  0  0  0  0  0  0  0  0  0
  154.6567  140.0452  160.9082 C   0  0  2  0  0  0  0  0  0  0  0  0
  156.1424  139.7340  161.0640 C   0  0  0  0  0  0  0  0  0  0  0  0
  156.1574  138.2550  161.4185 C   0  0  0  0  0  0  0  0  0  0  0  0
  155.0511  138.1450  162.2938 O   0  0  0  0  0  0  0  0  0  0  0  0
  153.9964  138.9457  161.7735 C   0  0  0  0  0  0  0  0  0  0  0  0
  154.4317  141.3628  161.4209 O   0  0  0  0  0  0  0  0  0  0  0  0
  152.0377  145.1710  161.5800 H   0  0  0  0  0  0  0  0  0  0  0  0
  151.0388  143.7875  161.1461 H   0  0  0  0  0  0  0  0  0  0  0  0
  152.3563  144.2903  160.0883 H   0  0  0  0  0  0  0  0  0  0  0  0
  154.0137  143.7034  161.8783 H   0  0  0  0  0  0  0  0  0  0  0  0
  152.7208  143.1926  162.9345 H   0  0  0  0  0  0  0  0  0  0  0  0
  152.4021  141.1994  161.8272 H   0  0  0  0  0  0  0  0  0  0  0  0
  151.6774  142.1635  159.6659 H   0  0  0  0  0  0  0  0  0  0  0  0
  153.3440  142.5395  159.2507 H   0  0  0  0  0  0  0  0  0  0  0  0
  153.0044  138.2627  155.5210 H   0  0  0  0  0  0  0  0  0  0  0  0
  149.0065  143.1353  156.8468 H   0  0  0  0  0  0  0  0  0  0  0  0
  149.2832  142.5654  154.0673 H   0  0  0  0  0  0  0  0  0  0  0  0
  149.7270  140.8963  153.7917 H   0  0  0  0  0  0  0  0  0  0  0  0
  147.3968  140.6504  153.7334 H   0  0  0  0  0  0  0  0  0  0  0  0
  147.5286  140.7173  156.5198 H   0  0  0  0  0  0  0  0  0  0  0  0
  147.1432  142.8766  155.8456 H   0  0  0  0  0  0  0  0  0  0  0  0
  147.4031  144.0309  153.7024 H   0  0  0  0  0  0  0  0  0  0  0  0
  146.5049  142.7637  152.8638 H   0  0  0  0  0  0  0  0  0  0  0  0
  145.4087  144.9357  154.6106 H   0  0  0  0  0  0  0  0  0  0  0  0
  144.6625  144.1226  153.2337 H   0  0  0  0  0  0  0  0  0  0  0  0
  144.5136  143.4315  156.0975 H   0  0  0  0  0  0  0  0  0  0  0  0
  143.6052  142.6834  154.7791 H   0  0  0  0  0  0  0  0  0  0  0  0
  154.3002  138.9671  159.0434 H   0  0  0  0  0  0  0  0  0  0  0  0
  154.9032  140.5973  158.8178 H   0  0  0  0  0  0  0  0  0  0  0  0
  156.7363  139.9654  160.1792 H   0  0  0  0  0  0  0  0  0  0  0  0
  156.5597  140.3012  161.8976 H   0  0  0  0  0  0  0  0  0  0  0  0
  155.9959  137.6348  160.5355 H   0  0  0  0  0  0  0  0  0  0  0  0
  157.0853  137.9434  161.8986 H   0  0  0  0  0  0  0  0  0  0  0  0
  153.4169  139.3459  162.6049 H   0  0  0  0  0  0  0  0  0  0  0  0
  153.3314  138.3176  161.1793 H   0  0  0  0  0  0  0  0  0  0  0  0
  1  2  1  0  0  0  0
  1 30  1  0  0  0  0
  1 31  1  0  0  0  0
  1 32  1  0  0  0  0
  2  3  1  0  0  0  0
  2 33  1  0  0  0  0
  2 34  1  0  0  0  0
  3 29  1  0  0  0  0
  3  4  1  0  0  0  0
  3 35  1  0  0  0  0
  4  5  1  0  0  0  0
  4 36  1  0  0  0  0
  4 37  1  0  0  0  0
  5  6  1  0  0  0  0
  5 23  1  0  0  0  0
  6 11  1  0  0  0  0
  6  7  2  0  0  0  0
  7  8  1  0  0  0  0
  8  9  2  0  0  0  0
  8 38  1  0  0  0  0
  9 10  1  0  0  0  0
 10 14  1  0  0  0  0
 10 11  2  0  0  0  0
 11 12  1  0  0  0  0
 12 13  2  0  0  0  0
 13 14  1  0  0  0  0
 13 39  1  0  0  0  0
 14 15  1  0  0  0  0
 15 16  1  0  0  0  0
 15 40  1  0  0  0  0
 15 41  1  0  0  0  0
 16 17  1  0  0  0  0
 16 18  1  0  0  0  0
 16 42  1  0  0  0  0
 17 43  1  0  0  0  0
 18 22  1  0  0  0  0
 18 19  1  0  0  0  0
 18 44  1  0  0  0  0
 19 20  1  0  0  0  0
 19 45  1  0  0  0  0
 19 46  1  0  0  0  0
 20 21  1  0  0  0  0
 20 47  1  0  0  0  0
 20 48  1  0  0  0  0
 21 22  1  0  0  0  0
 21 49  1  0  0  0  0
 21 50  1  0  0  0  0
 23 24  1  0  0  0  0
 23 51  1  0  0  0  0
 23 52  1  0  0  0  0
 24 28  1  0  0  0  0
 24 25  1  0  0  0  0
 24 29  1  0  0  0  0
 25 26  1  0  0  0  0
 25 53  1  0  0  0  0
 25 54  1  0  0  0  0
 26 27  1  0  0  0  0
 26 55  1  0  0  0  0
 26 56  1  0  0  0  0
 27 28  1  0  0  0  0
 28 57  1  0  0  0  0
 28 58  1  0  0  0  0
M  END
> <s_m_source_file>
AV-unprocessed.smi

> <i_m_source_file_index>
229

> <i_lp_mmshare_version>
43012

> <i_f3d_flags>
0

> <s_epik_input>
W0NIMl0xT1tDSDJdW0NIMl1bQ0BdMTJbQ0gyXU4oW0NIMl1bQ0BIXShPMilbQ0gyXVtDSDNdKWMobltjSF1uMyljKGMzNCluW2NIXW40W0NIMl1bQ0BIXShbT0hdKVtDQEBIXTVbQ0gyXVtDSDJdW0NIMl1PNQ==

> <s_epik_cmdline>
J2VwaWtfcHl0aG9uJywgJy1waCcsICc3LjAnLCAnLXRuJywgJzgnLCAnLW1hJywgJzIwMCcsICctbWV0YWxfYmluZGluZycsICctaW1hZScsICc8aW5maWxlLm1hZT4nLCAnLW9tYWUnLCAnPG91dGZpbGUubWFlPic=

> <r_lp_tautomer_probability>
1

> <r_epik_Ionization_Penalty>
0.00318402

> <r_epik_Ionization_Penalty_Charging>
0

> <r_epik_Ionization_Penalty_Neutral>
0.00318402

> <r_epik_State_Penalty>
0.00215642

> <r_epik_Charging_Adjusted_Penalty>
0.00215642

> <i_epik_Tot_Q>
0

> <i_epik_Tot_abs_Q>
0

> <r_epik_Metal_State_Penalty>
-0

> <b_epik_Metal_Only>
0

> <s_lp_Force_Field>
OPLS_2005

> <r_lp_Energy>
58.1289

> <b_lp_Chiralities_Consistent>
1

> <s_lp_Variant>
AV-unprocessed.smi:229-16

> <Gold.Version>
5.8.1

> <Gold.Id.Protein>
6NUR|6NUR_protein|mol2

> <Gold.PLP.Fitness>
53.2036

> <Gold.PLP.PLP>
-48.4145

> <Gold.PLP.part.hbond>
-2.9917

> <Gold.PLP.part.metal>
0.0000

> <Gold.PLP.part.buried>
0.9591

> <Gold.PLP.part.nonpolar>
-44.4369

> <Gold.PLP.part.repulsive>
0.2394

> <Gold.PLP.ligand.clash>
0.0000

> <Gold.PLP.ligand.torsion>
1.6209

> <Gold.PLP.Chemscore.Hbond>
1.7459

> <Gold.PLP.Chemscore.CHOScore>
0.8665

> <Gold.PLP.Chemscore.Metal>
0.0000

> <Gold.Chemscore.Hbonds>
donor molecule, donor type, donor heavy atom, donor atom, acceptor molecule, acceptor atom, score
      P1  H  7989  7998       L1     9  0.41
      P1  H  7997  8008       L1     7  1.00
      L1  C    13    39       P1  8028  0.84

> <Gold.PLP.Chemscore.Internal.Correction>
0.1939

> <Gold.Rescore>
     Score         DG    S(hbond)    S(metal)    S(lipo)     H(rot)  DE(clash)    DE(int)     intcor
     12.53     -14.89       1.00        0.00     105.63       2.46       0.12       2.24       ----

> <Gold.Chemscore.Fitness>
12.5251

> <Gold.Chemscore.DG>
-14.8883

> <Gold.Chemscore.ZeroCoef>
-5.4800

> <Gold.Chemscore.Hbond>
1.0016

> <Gold.Chemscore.Metal>
0.0000

> <Gold.Chemscore.Lipo>
105.6264

> <Gold.Chemscore.Internal_Hbond>
0.0000

> <Gold.Chemscore.DEClash>
0.1236

> <Gold.Chemscore.DEInternal>
2.2396

> <Gold.Chemscore.Rot>
2.4591

> <Gold.Chemscore.Internal.Correction>
   9.000000E+99

> <Gold.Chemscore.Hbonds>
donor molecule, donor type, donor heavy atom, donor atom, acceptor molecule, acceptor atom, score
      P1  H  7989  7998       L1     9  0.05
      P1  H  7997  8008       L1     7  0.08

> <Gold.Chemscore.Hbond.Weighted>
-3.3454

> <Gold.Chemscore.Metal.Weighted>
-0.0000

> <Gold.Chemscore.Lipo.Weighted>
-12.3583

> <Gold.Chemscore.Internal_Hbond.Weighted>
0.0000

> <Gold.Chemscore.DEClash.Weighted>
0.1236

> <Gold.Chemscore.DEInternal.Weighted>
2.2396

> <Gold.Chemscore.Rot.Weighted>
6.2953

> <Gold.Chemscore.Internal.Correction.Weighted>
   9.000000E+99

> <Gold.Protein.RotatedTorsions>
[ 6907 6896 6895 6894 ] final  122.68 input  -60.11 | X-H torsion
[ 7974 7965 7964 7962 ] final -161.21 input  175.53 | X-H torsion
[ 8008 7997 7996 7995 ] final  -79.47 input   59.86 | X-H torsion
[ 10167 10162 10161 10158 ] final  103.79 input  -65.29 | X-H torsion
[ 10718 10713 10712 10709 ] final  -21.58 input   66.30 | X-H torsion
[ 10763 10752 10751 10750 ] final  -58.87 input  -60.55 | X-H torsion
[ 11005 11000 10999 10996 ] final -160.93 input  -57.11 | X-H torsion

> <Gold.Protein.ActiveResidues>
 VAL166  LYS551  ARG553  GLY616  TRP617  ASP618  TYR619  PRO620  LYS621  CYS622 
 ASP623  PHE694  ASN695  SER759  ASP760  ASP761  ALA762  ILE779  LEU786  VAL792 
 PHE793  MET794  SER795  GLU796  ALA797  LYS798  CYS799  TRP800  GLU811  SER814 

> <Gold.Protein.RotatedAtoms>
  152.4223  133.7137  159.6493 H   0  0  0  0  0  0  0  0  0  0  0  0  # atno 6907 bound_to 6896
  150.8099  133.8430  159.3193 H   0  0  0  0  0  0  0  0  0  0  0  0  # atno 6908 bound_to 6896
  151.6143  135.1039  160.0139 H   0  0  0  0  0  0  0  0  0  0  0  0  # atno 6909 bound_to 6896
  144.7399  140.3431  143.6131 H   0  0  0  0  0  0  0  0  0  0  0  0  # atno 7974 bound_to 7965
  154.5788  140.0678  156.9074 H   0  0  0  0  0  0  0  0  0  0  0  0  # atno 8008 bound_to 7997
  155.2500  140.3351  155.4265 H   0  0  0  0  0  0  0  0  0  0  0  0  # atno 8009 bound_to 7997
  156.2174  140.1784  156.7542 H   0  0  0  0  0  0  0  0  0  0  0  0  # atno 8010 bound_to 7997
  139.7232  144.7053  151.0838 H   0  0  0  0  0  0  0  0  0  0  0  0  # atno 10167 bound_to 10162
  156.5163  130.4622  149.6621 H   0  0  0  0  0  0  0  0  0  0  0  0  # atno 10718 bound_to 10713
  154.2449  135.6336  153.5220 H   0  0  0  0  0  0  0  0  0  0  0  0  # atno 10763 bound_to 10752
  152.9923  135.5551  154.5870 H   0  0  0  0  0  0  0  0  0  0  0  0  # atno 10764 bound_to 10752
  154.5384  135.2893  155.1092 H   0  0  0  0  0  0  0  0  0  0  0  0  # atno 10765 bound_to 10752
  140.6260  134.4700  157.5227 H   0  0  0  0  0  0  0  0  0  0  0  0  # atno 11005 bound_to 11000
  145.7354  139.1748  143.2406 LP  0  0  0  0  0  0  0  0  0  0  0  0  # atno 17320 bound_to 7965
  146.1174  140.7352  142.9474 LP  0  0  0  0  0  0  0  0  0  0  0  0  # atno 17321 bound_to 7965
  140.7758  143.5138  150.9619 LP  0  0  0  0  0  0  0  0  0  0  0  0  # atno 17342 bound_to 10162
  139.8826  143.7053  152.3155 LP  0  0  0  0  0  0  0  0  0  0  0  0  # atno 17343 bound_to 10162
  156.3192  130.7271  151.2180 LP  0  0  0  0  0  0  0  0  0  0  0  0  # atno 17370 bound_to 10713
  157.7443  131.0460  150.4872 LP  0  0  0  0  0  0  0  0  0  0  0  0  # atno 17371 bound_to 10713
  139.9134  134.8296  156.1448 LP  0  0  0  0  0  0  0  0  0  0  0  0  # atno 17394 bound_to 11000
  141.0709  133.6797  156.2138 LP  0  0  0  0  0  0  0  0  0  0  0  0  # atno 17395 bound_to 11000

$$$$
