AV-unprocessed.smi:422|AV-procd|sdf|2536|dock9
  -GOLD-   2262022493D 1   1.00000     0.00000
 Structure written by MMmdl.
 43 45  0  0  0  0  0  0  0  0  1 V2000
  152.1190  142.5819  162.3179 C   0  0  0  0  0  0  0  0  0  0  0  0
  152.1815  141.8999  161.0308 N   0  0  0  0  0  0  0  0  0  0  0  0
  152.6882  140.6688  160.7856 C   0  0  0  0  0  0  0  0  0  0  0  0
  153.1801  139.9071  161.6180 O   0  0  0  0  0  0  0  0  0  0  0  0
  152.5425  140.4120  159.4647 N   0  0  0  0  0  0  0  0  0  0  0  0
  152.9307  139.1870  158.7712 C   0  0  0  0  0  0  0  0  0  0  0  0
  152.2850  137.9436  159.4209 C   0  0  2  0  0  0  0  0  0  0  0  0
  153.0424  136.8024  159.0737 O   0  0  0  0  0  0  0  0  0  0  0  0
  150.8470  137.7128  158.9335 C   0  0  0  0  0  0  0  0  0  0  0  0
  150.3879  136.4850  159.4732 O   0  0  0  0  0  0  0  0  0  0  0  0
  149.1173  136.0957  158.9836 C   0  0  0  0  0  0  0  0  0  0  0  0
  148.4305  135.1468  159.9462 C   0  0  0  0  0  0  0  0  0  0  0  0
  147.7011  135.6518  161.0435 C   0  0  0  0  0  0  0  0  0  0  0  0
  147.0591  134.7687  161.9336 C   0  0  0  0  0  0  0  0  0  0  0  0
  147.1458  133.3778  161.7315 C   0  0  0  0  0  0  0  0  0  0  0  0
  147.8765  132.8700  160.6402 C   0  0  0  0  0  0  0  0  0  0  0  0
  148.5198  133.7514  159.7495 C   0  0  0  0  0  0  0  0  0  0  0  0
  149.2229  133.2519  158.7047 F   0  0  0  0  0  0  0  0  0  0  0  0
  151.8982  141.4971  158.8528 C   0  0  0  0  0  0  0  0  0  0  0  0
  151.4975  141.7075  157.5217 C   0  0  0  0  0  0  0  0  0  0  0  0
  150.8523  142.9308  157.2262 C   0  0  0  0  0  0  0  0  0  0  0  0
  150.6244  143.8962  158.2415 C   0  0  0  0  0  0  0  0  0  0  0  0
  151.0355  143.6577  159.5742 C   0  0  0  0  0  0  0  0  0  0  0  0
  151.6738  142.4340  159.8392 C   0  0  0  0  0  0  0  0  0  0  0  0
  152.7253  142.0823  163.0749 H   0  0  0  0  0  0  0  0  0  0  0  0
  151.0894  142.6151  162.6746 H   0  0  0  0  0  0  0  0  0  0  0  0
  152.4818  143.6057  162.2229 H   0  0  0  0  0  0  0  0  0  0  0  0
  152.6130  139.2807  157.7321 H   0  0  0  0  0  0  0  0  0  0  0  0
  154.0176  139.0966  158.7262 H   0  0  0  0  0  0  0  0  0  0  0  0
  152.2761  138.0294  160.5087 H   0  0  0  0  0  0  0  0  0  0  0  0
  153.1053  136.7601  158.1314 H   0  0  0  0  0  0  0  0  0  0  0  0
  150.2015  138.5375  159.2403 H   0  0  0  0  0  0  0  0  0  0  0  0
  150.8184  137.6581  157.8439 H   0  0  0  0  0  0  0  0  0  0  0  0
  148.4824  136.9729  158.8502 H   0  0  0  0  0  0  0  0  0  0  0  0
  149.2254  135.6239  158.0059 H   0  0  0  0  0  0  0  0  0  0  0  0
  147.6281  136.7173  161.2053 H   0  0  0  0  0  0  0  0  0  0  0  0
  146.4998  135.1587  162.7713 H   0  0  0  0  0  0  0  0  0  0  0  0
  146.6534  132.7008  162.4138 H   0  0  0  0  0  0  0  0  0  0  0  0
  147.9443  131.8031  160.4864 H   0  0  0  0  0  0  0  0  0  0  0  0
  151.6699  140.9695  156.7535 H   0  0  0  0  0  0  0  0  0  0  0  0
  150.5285  143.1314  156.2154 H   0  0  0  0  0  0  0  0  0  0  0  0
  150.1292  144.8234  157.9943 H   0  0  0  0  0  0  0  0  0  0  0  0
  150.8625  144.3857  160.3528 H   0  0  0  0  0  0  0  0  0  0  0  0
  1  2  1  0  0  0  0
  1 25  1  0  0  0  0
  1 26  1  0  0  0  0
  1 27  1  0  0  0  0
  2 24  1  0  0  0  0
  2  3  1  0  0  0  0
  3  4  2  0  0  0  0
  3  5  1  0  0  0  0
  5  6  1  0  0  0  0
  5 19  1  0  0  0  0
  6  7  1  0  0  0  0
  6 28  1  0  0  0  0
  6 29  1  0  0  0  0
  7  8  1  0  0  0  0
  7  9  1  0  0  0  0
  7 30  1  0  0  0  0
  8 31  1  0  0  0  0
  9 10  1  0  0  0  0
  9 32  1  0  0  0  0
  9 33  1  0  0  0  0
 10 11  1  0  0  0  0
 11 12  1  0  0  0  0
 11 34  1  0  0  0  0
 11 35  1  0  0  0  0
 12 17  1  0  0  0  0
 12 13  2  0  0  0  0
 13 14  1  0  0  0  0
 13 36  1  0  0  0  0
 14 15  2  0  0  0  0
 14 37  1  0  0  0  0
 15 16  1  0  0  0  0
 15 38  1  0  0  0  0
 16 17  2  0  0  0  0
 16 39  1  0  0  0  0
 17 18  1  0  0  0  0
 19 24  2  0  0  0  0
 19 20  1  0  0  0  0
 20 21  2  0  0  0  0
 20 40  1  0  0  0  0
 21 22  1  0  0  0  0
 21 41  1  0  0  0  0
 22 23  2  0  0  0  0
 22 42  1  0  0  0  0
 23 24  1  0  0  0  0
 23 43  1  0  0  0  0
M  END
> <s_m_source_file>
AV-unprocessed.smi

> <i_m_source_file_index>
422

> <i_lp_mmshare_version>
43012

> <i_f3d_flags>
0

> <s_epik_input>
W2NIXTFbY0hdW2NIXVtjSF1jKGMxMiluKFtDSDNdKWMoPU8pbjJbQ0gyXVtDQEhdKFtPSF0pW0NIMl1PW0NIMl1jM1tjSF1bY0hdW2NIXVtjSF1jM0Y=

> <s_epik_cmdline>
J2VwaWtfcHl0aG9uJywgJy1waCcsICc3LjAnLCAnLXRuJywgJzgnLCAnLW1hJywgJzIwMCcsICctbWV0YWxfYmluZGluZycsICctaW1hZScsICc8aW5maWxlLm1hZT4nLCAnLW9tYWUnLCAnPG91dGZpbGUubWFlPic=

> <r_lp_tautomer_probability>
1

> <r_epik_Ionization_Penalty>
1.0795e-06

> <r_epik_Ionization_Penalty_Charging>
2.82452e-09

> <r_epik_Ionization_Penalty_Neutral>
1.07667e-06

> <r_epik_State_Penalty>
-0

> <r_epik_Charging_Adjusted_Penalty>
2.82452e-09

> <i_epik_Tot_Q>
0

> <i_epik_Tot_abs_Q>
0

> <r_epik_Metal_State_Penalty>
-0

> <b_epik_Metal_Only>
0

> <s_lp_Force_Field>
OPLS_2005

> <r_lp_Energy>
45.4687

> <b_lp_Chiralities_Consistent>
1

> <s_lp_Variant>
AV-unprocessed.smi:422-1

> <Gold.Version>
5.8.1

> <Gold.Id.Protein>
6NUR|6NUR_protein|mol2

> <Gold.PLP.Fitness>
58.0738

> <Gold.PLP.PLP>
-56.4908

> <Gold.PLP.part.hbond>
-1.6302

> <Gold.PLP.part.metal>
0.0000

> <Gold.PLP.part.buried>
-4.2437

> <Gold.PLP.part.nonpolar>
-49.9980

> <Gold.PLP.part.repulsive>
0.0000

> <Gold.PLP.ligand.clash>
0.0000

> <Gold.PLP.ligand.torsion>
0.7255

> <Gold.PLP.Chemscore.Hbond>
1.0000

> <Gold.PLP.Chemscore.CHOScore>
0.0000

> <Gold.PLP.Chemscore.Metal>
0.0000

> <Gold.Chemscore.Hbonds>
donor molecule, donor type, donor heavy atom, donor atom, acceptor molecule, acceptor atom, score
      P1  H  6896  6909       L1    10  1.00

> <Gold.PLP.Chemscore.Internal.Correction>
0.0339

> <Gold.Rescore>
     Score         DG    S(hbond)    S(metal)    S(lipo)     H(rot)  DE(clash)    DE(int)     intcor
     18.57     -19.11       0.99        0.00     140.46       2.38       0.14       0.40       ----

> <Gold.Chemscore.Fitness>
18.5706

> <Gold.Chemscore.DG>
-19.1096

> <Gold.Chemscore.ZeroCoef>
-5.4800

> <Gold.Chemscore.Hbond>
0.9851

> <Gold.Chemscore.Metal>
0.0000

> <Gold.Chemscore.Lipo>
140.4643

> <Gold.Chemscore.Internal_Hbond>
0.0000

> <Gold.Chemscore.DEClash>
0.1431

> <Gold.Chemscore.DEInternal>
0.3959

> <Gold.Chemscore.Rot>
2.3809

> <Gold.Chemscore.Internal.Correction>
   9.000000E+99

> <Gold.Chemscore.Hbonds>
donor molecule, donor type, donor heavy atom, donor atom, acceptor molecule, acceptor atom, score
      P1  H  6896  6909       L1    10  0.60

> <Gold.Chemscore.Hbond.Weighted>
-3.2903

> <Gold.Chemscore.Metal.Weighted>
-0.0000

> <Gold.Chemscore.Lipo.Weighted>
-16.4343

> <Gold.Chemscore.Internal_Hbond.Weighted>
0.0000

> <Gold.Chemscore.DEClash.Weighted>
0.1431

> <Gold.Chemscore.DEInternal.Weighted>
0.3959

> <Gold.Chemscore.Rot.Weighted>
6.0951

> <Gold.Chemscore.Internal.Correction.Weighted>
   9.000000E+99

> <Gold.Protein.RotatedTorsions>
[ 6907 6896 6895 6894 ] final   97.52 input  -60.11 | X-H torsion
[ 7974 7965 7964 7962 ] final  134.55 input  175.53 | X-H torsion
[ 8008 7997 7996 7995 ] final -105.32 input   59.86 | X-H torsion
[ 10167 10162 10161 10158 ] final  161.32 input  -65.29 | X-H torsion
[ 10718 10713 10712 10709 ] final  105.27 input   66.30 | X-H torsion
[ 10763 10752 10751 10750 ] final  -59.25 input  -60.55 | X-H torsion
[ 11005 11000 10999 10996 ] final   18.69 input  -57.11 | X-H torsion

> <Gold.Protein.ActiveResidues>
 VAL166  LYS551  ARG553  GLY616  TRP617  ASP618  TYR619  PRO620  LYS621  CYS622 
 ASP623  PHE694  ASN695  SER759  ASP760  ASP761  ALA762  ILE779  LEU786  VAL792 
 PHE793  MET794  SER795  GLU796  ALA797  LYS798  CYS799  TRP800  GLU811  SER814 

> <Gold.Protein.RotatedAtoms>
  152.5422  134.0720  159.8197 H   0  0  0  0  0  0  0  0  0  0  0  0  # atno 6907 bound_to 6896
  151.0833  133.5365  159.2626 H   0  0  0  0  0  0  0  0  0  0  0  0  # atno 6908 bound_to 6896
  151.2184  135.0517  159.8994 H   0  0  0  0  0  0  0  0  0  0  0  0  # atno 6909 bound_to 6896
  144.9752  139.4562  143.5413 H   0  0  0  0  0  0  0  0  0  0  0  0  # atno 7974 bound_to 7965
  154.8981  140.0413  157.1877 H   0  0  0  0  0  0  0  0  0  0  0  0  # atno 8008 bound_to 7997
  154.8471  140.2923  155.5601 H   0  0  0  0  0  0  0  0  0  0  0  0  # atno 8009 bound_to 7997
  156.2994  140.2471  156.3424 H   0  0  0  0  0  0  0  0  0  0  0  0  # atno 8010 bound_to 7997
  139.4848  144.4547  151.8783 H   0  0  0  0  0  0  0  0  0  0  0  0  # atno 10167 bound_to 10162
  157.6711  131.0823  150.5831 H   0  0  0  0  0  0  0  0  0  0  0  0  # atno 10718 bound_to 10713
  154.2507  135.6326  153.5239 H   0  0  0  0  0  0  0  0  0  0  0  0  # atno 10763 bound_to 10752
  152.9913  135.5564  154.5810 H   0  0  0  0  0  0  0  0  0  0  0  0  # atno 10764 bound_to 10752
  154.5337  135.2890  155.1132 H   0  0  0  0  0  0  0  0  0  0  0  0  # atno 10765 bound_to 10752
  140.4220  134.1509  155.7673 H   0  0  0  0  0  0  0  0  0  0  0  0  # atno 11005 bound_to 11000
  146.3393  139.8990  142.8797 LP  0  0  0  0  0  0  0  0  0  0  0  0  # atno 17320 bound_to 7965
  145.2500  141.0040  143.3886 LP  0  0  0  0  0  0  0  0  0  0  0  0  # atno 17321 bound_to 7965
  140.4006  144.2498  150.5893 LP  0  0  0  0  0  0  0  0  0  0  0  0  # atno 17342 bound_to 10162
  140.5060  143.2304  151.8607 LP  0  0  0  0  0  0  0  0  0  0  0  0  # atno 17343 bound_to 10162
  156.6131  130.4385  149.5851 LP  0  0  0  0  0  0  0  0  0  0  0  0  # atno 17370 bound_to 10713
  156.2414  130.6853  151.1559 LP  0  0  0  0  0  0  0  0  0  0  0  0  # atno 17371 bound_to 10713
  141.1780  133.8473  157.1355 LP  0  0  0  0  0  0  0  0  0  0  0  0  # atno 17394 bound_to 11000
  140.0194  134.9953  157.0560 LP  0  0  0  0  0  0  0  0  0  0  0  0  # atno 17395 bound_to 11000

$$$$
