#       Name:                AV-unprocessed.smi:2571
#       Creating user name   scv26
#       Creation time:       Fri Mar 27 14:12:41 2020


#       File generated by GOLD software.
#

@<TRIPOS>MOLECULE
AV-unprocessed.smi:2571
    46    48     1
SMALL
NO_CHARGES


@<TRIPOS>ATOM
      1 ****        -3.7096   1.4044   1.2698 C.3            1 S1                 0.0000
      2 ****        -2.3102   1.4732   1.4998 O.3            1 S1                 0.0000
      3 ****        -1.6074   0.2903   1.5768 C.ar           1 S1                 0.0000
      4 ****        -2.1966  -0.9951   1.4804 C.ar           1 S1                 0.0000
      5 ****        -1.3971  -2.1514   1.5572 C.ar           1 S1                 0.0000
      6 ****        -0.0046  -2.0402   1.7241 C.ar           1 S1                 0.0000
      7 ****         0.5968  -0.7674   1.8199 C.ar           1 S1                 0.0000
      8 ****         2.1085  -0.6216   1.9419 C.3            1 S1                 0.0000
      9 ****         2.6839  -1.6117   2.7709 O.3            1 S1                 0.0000
     10 ****         2.8122  -0.6646   0.5690 C.3            1 S1                 0.0000
     11 ****         2.4099   0.4405  -0.2894 N.pl3          1 S1                 0.0000
     12 ****         2.9935   1.6563  -0.1292 N.2            1 S1                 0.0000
     13 ****         2.3978   2.4637  -1.0042 C.2            1 S1                 0.0000
     14 ****         1.3995   1.7884  -1.7581 C.2            1 S1                 0.0000
     15 ****         0.4518   2.1752  -2.7986 C.2            1 S1                 0.0000
     16 ****        -0.3581   1.2728  -3.2571 N.2            1 S1                 0.0000
     17 ****        -0.3279  -0.0417  -2.7781 N.am           1 S1                 0.0000
     18 ****        -1.3118  -0.9367  -3.3826 C.3            1 S1                 0.0000
     19 ****         0.5355  -0.5112  -1.8285 C.2            1 S1                 0.0000
     20 ****         0.5640  -1.6798  -1.4437 O.2            1 S1                 0.0000
     21 ****         1.4526   0.5193  -1.2831 C.2            1 S1                 0.0000
     22 ****        -0.2127   0.3865   1.7552 C.ar           1 S1                 0.0000
     23 ****        -4.1152   2.4145   1.2158 H              1 S1                 0.0000
     24 ****        -4.2224   0.8863   2.0814 H              1 S1                 0.0000
     25 ****        -3.9337   0.9084   0.3243 H              1 S1                 0.0000
     26 ****        -3.2599  -1.1211   1.3442 H              1 S1                 0.0000
     27 ****        -1.8527  -3.1274   1.4771 H              1 S1                 0.0000
     28 ****         0.5993  -2.9352   1.7587 H              1 S1                 0.0000
     29 ****         2.3229   0.3363   2.4182 H              1 S1                 0.0000
     30 ****         2.3271  -1.5169   3.6407 H              1 S1                 0.0000
     31 ****         3.8935  -0.6057   0.7047 H              1 S1                 0.0000
     32 ****         2.6238  -1.6099   0.0613 H              1 S1                 0.0000
     33 ****         2.6988   3.4997  -1.0529 H              1 S1                 0.0000
     34 ****         0.4284   3.1981  -3.1744 H              1 S1                 0.0000
     35 ****        -0.8152  -1.7526  -3.9099 H              1 S1                 0.0000
     36 ****        -1.9498  -0.4185  -4.1005 H              1 S1                 0.0000
     37 ****        -1.9597  -1.3674  -2.6176 H              1 S1                 0.0000
     38 ****         0.2447   1.3635   1.8161 H              1 S1                 0.0000
     39 ****        -2.1746   1.9563   2.3648 LP             1 S1                 0.0000
     40 ****        -1.9123   2.0072   0.7538 LP             1 S1                 0.0000
     41 ****         3.6766  -1.4940   2.7984 LP             1 S1                 0.0000
     42 ****         2.4658  -2.5199   2.4136 LP             1 S1                 0.0000
     43 ****         3.7210   1.8958   0.5138 LP             1 S1                 0.0000
     44 ****        -1.0173   1.5208  -3.9669 LP             1 S1                 0.0000
     45 ****        -0.0703  -2.3492  -1.8304 LP             1 S1                 0.0000
     46 ****         1.2215  -1.9600  -0.7443 LP             1 S1                 0.0000
@<TRIPOS>BOND
    1    1    2 1     
    2    1   23 1     
    3    1   24 1     
    4    1   25 1     
    5    2    3 1     
    6    3   22 ar    
    7    3    4 ar    
    8    4    5 ar    
    9    4   26 1     
   10    5    6 ar    
   11    5   27 1     
   12    6    7 ar    
   13    6   28 1     
   14    7    8 1     
   15    7   22 ar    
   16    8    9 1     
   17    8   10 1     
   18    8   29 1     
   19    9   30 1     
   20   10   11 1     
   21   10   31 1     
   22   10   32 1     
   23   11   21 1     
   24   11   12 1     
   25   12   13 2     
   26   13   14 1     
   27   13   33 1     
   28   14   21 2     
   29   14   15 1     
   30   15   16 2     
   31   15   34 1     
   32   16   17 1     
   33   17   18 1     
   34   17   19 am    
   35   18   35 1     
   36   18   36 1     
   37   18   37 1     
   38   19   20 2     
   39   19   21 1     
   40   22   38 1     
   41    2   39 1     
   42    2   40 1     
   43    9   41 1     
   44    9   42 1     
   45   12   43 1     
   46   16   44 1     
   47   20   45 1     
   48   20   46 1     
@<TRIPOS>SUBSTRUCTURE
      1 S1             1
@<TRIPOS>SET
LONE_PAIRS      STATIC     ATOMS    <user>   **** ""
8 39 40 41 42 43 44 45 46
DONOR_HYDROGENS      STATIC     ATOMS    <user>   **** ""
1 30
ATOM$BLUE        STATIC     ATOMS    COLORGROUP SYSTEM
8 39 40 41 42 43 44 45 46
ATOM$RED        STATIC     ATOMS    COLORGROUP SYSTEM
1 30
