AV-unprocessed.smi:11|AV-procd|sdf|55|dock1
  -GOLD-   2262015173D 1   1.00000     0.00000
 Structure written by MMmdl.
 33 35  0  0  0  0  0  0  0  0  1 V2000
  146.4949  137.8003  153.9520 C   0  0  0  0  0  0  0  0  0  0  0  0
  146.3897  139.2492  154.4568 C   0  0  0  0  0  0  0  0  0  0  0  0
  147.0956  140.3106  153.5769 C   0  0  1  0  0  0  0  0  0  0  0  0
  146.5776  140.2254  152.2636 O   0  0  0  0  0  0  0  0  0  0  0  0
  146.9923  141.7430  154.1236 C   0  0  0  0  0  0  0  0  0  0  0  0
  148.1525  141.8229  155.1136 C   0  0  0  0  0  0  0  0  0  0  0  0
  149.1873  140.9762  154.5378 N   0  0  0  0  0  0  0  0  0  0  0  0
  150.3306  140.6110  155.2770 C   0  0  0  0  0  0  0  0  0  0  0  0
  151.1485  139.6598  154.7567 N   0  0  0  0  0  0  0  0  0  0  0  0
  152.2456  139.2859  155.4211 C   0  0  0  0  0  0  0  0  0  0  0  0
  152.6977  139.7226  156.5985 N   0  0  0  0  0  0  0  0  0  0  0  0
  151.8694  140.6656  157.1287 C   0  0  0  0  0  0  0  0  0  0  0  0
  152.0206  141.3214  158.3324 N   0  0  0  0  0  0  0  0  0  0  0  0
  150.9715  142.2003  158.5358 C   0  0  0  0  0  0  0  0  0  0  0  0
  150.1176  142.1315  157.4646 C   0  0  0  0  0  0  0  0  0  0  0  0
  150.6694  141.1669  156.5455 C   0  0  0  0  0  0  0  0  0  0  0  0
  148.6171  140.0755  153.5451 C   0  0  0  0  0  0  0  0  0  0  0  0
  152.7757  141.1928  158.9904 H   0  0  0  0  0  0  0  0  0  0  0  0
  146.0201  137.1168  154.6560 H   0  0  0  0  0  0  0  0  0  0  0  0
  147.5333  137.4871  153.8439 H   0  0  0  0  0  0  0  0  0  0  0  0
  146.0007  137.6668  152.9906 H   0  0  0  0  0  0  0  0  0  0  0  0
  145.3351  139.5050  154.5655 H   0  0  0  0  0  0  0  0  0  0  0  0
  146.8068  139.2902  155.4639 H   0  0  0  0  0  0  0  0  0  0  0  0
  145.6440  140.3673  152.3002 H   0  0  0  0  0  0  0  0  0  0  0  0
  147.1655  142.4611  153.3203 H   0  0  0  0  0  0  0  0  0  0  0  0
  146.0319  141.9885  154.5747 H   0  0  0  0  0  0  0  0  0  0  0  0
  148.5013  142.8474  155.2458 H   0  0  0  0  0  0  0  0  0  0  0  0
  147.8497  141.4331  156.0863 H   0  0  0  0  0  0  0  0  0  0  0  0
  152.8470  138.5284  154.9412 H   0  0  0  0  0  0  0  0  0  0  0  0
  150.9164  142.8028  159.4306 H   0  0  0  0  0  0  0  0  0  0  0  0
  149.2049  142.6928  157.3335 H   0  0  0  0  0  0  0  0  0  0  0  0
  148.8626  139.0315  153.7423 H   0  0  0  0  0  0  0  0  0  0  0  0
  149.0345  140.3425  152.5734 H   0  0  0  0  0  0  0  0  0  0  0  0
  1  2  1  0  0  0  0
  1 19  1  0  0  0  0
  1 20  1  0  0  0  0
  1 21  1  0  0  0  0
  2  3  1  0  0  0  0
  2 22  1  0  0  0  0
  2 23  1  0  0  0  0
  3 17  1  0  0  0  0
  3  4  1  0  0  0  0
  3  5  1  0  0  0  0
  4 24  1  0  0  0  0
  5  6  1  0  0  0  0
  5 25  1  0  0  0  0
  5 26  1  0  0  0  0
  6  7  1  0  0  0  0
  6 27  1  0  0  0  0
  6 28  1  0  0  0  0
  7  8  1  0  0  0  0
  7 17  1  0  0  0  0
  8 16  1  0  0  0  0
  8  9  2  0  0  0  0
  9 10  1  0  0  0  0
 10 11  2  0  0  0  0
 10 29  1  0  0  0  0
 11 12  1  0  0  0  0
 12 16  2  0  0  0  0
 12 13  1  0  0  0  0
 13 18  1  0  0  0  0
 13 14  1  0  0  0  0
 14 15  2  0  0  0  0
 14 30  1  0  0  0  0
 15 16  1  0  0  0  0
 15 31  1  0  0  0  0
 17 32  1  0  0  0  0
 17 33  1  0  0  0  0
M  END
> <s_m_source_file>
AV-unprocessed.smi

> <i_m_source_file_index>
11

> <i_lp_mmshare_version>
43012

> <i_f3d_flags>
0

> <s_epik_input>
W0NIM11bQ0gyXVtDQEBdMShbT0hdKVtDSDJdW0NIMl1OKFtDSDJdMSljKG5bY0hdbjIpYyhjMjMpW2NIXVtjSF1bbkhdMw==

> <s_epik_cmdline>
J2VwaWtfcHl0aG9uJywgJy1waCcsICc3LjAnLCAnLXRuJywgJzgnLCAnLW1hJywgJzIwMCcsICctbWV0YWxfYmluZGluZycsICctaW1hZScsICc8aW5maWxlLm1hZT4nLCAnLW9tYWUnLCAnPG91dGZpbGUubWFlPic=

> <r_lp_tautomer_probability>
0.999998

> <r_epik_Ionization_Penalty>
0.0511253

> <r_epik_Ionization_Penalty_Charging>
0

> <r_epik_Ionization_Penalty_Neutral>
0.0511253

> <r_epik_State_Penalty>
0.0394181

> <r_epik_Charging_Adjusted_Penalty>
0.0394181

> <i_epik_Tot_Q>
0

> <i_epik_Tot_abs_Q>
0

> <r_epik_Metal_State_Penalty>
0.0367127

> <b_epik_Metal_Only>
0

> <s_lp_Force_Field>
OPLS_2005

> <r_lp_Energy>
27.4132

> <b_lp_Chiralities_Consistent>
1

> <s_lp_Variant>
AV-unprocessed.smi:11-1

> <Gold.Version>
5.8.1

> <Gold.Id.Protein>
6NUR|6NUR_protein|mol2

> <Gold.PLP.Fitness>
36.9690

> <Gold.PLP.PLP>
-29.5097

> <Gold.PLP.part.hbond>
-3.6944

> <Gold.PLP.part.metal>
0.0000

> <Gold.PLP.part.buried>
0.6145

> <Gold.PLP.part.nonpolar>
-27.5876

> <Gold.PLP.part.repulsive>
0.1597

> <Gold.PLP.ligand.clash>
0.0000

> <Gold.PLP.ligand.torsion>
0.1411

> <Gold.PLP.Chemscore.Hbond>
2.5000

> <Gold.PLP.Chemscore.CHOScore>
0.0000

> <Gold.PLP.Chemscore.Metal>
0.0000

> <Gold.Chemscore.Hbonds>
donor molecule, donor type, donor heavy atom, donor atom, acceptor molecule, acceptor atom, score
      L1  H     4    24       P1 10175  1.00
      P1  H  7989  7998       L1     9  0.40
      P1  H  7997  8010       L1    11  1.00

> <Gold.PLP.Chemscore.Internal.Correction>
0.2415

> <Gold.Rescore>
     Score         DG    S(hbond)    S(metal)    S(lipo)     H(rot)  DE(clash)    DE(int)     intcor
     12.29     -13.85       1.85        0.00      49.87       1.43       1.40       0.16       ----

> <Gold.Chemscore.Fitness>
12.2921

> <Gold.Chemscore.DG>
-13.8507

> <Gold.Chemscore.ZeroCoef>
-5.4800

> <Gold.Chemscore.Hbond>
1.8540

> <Gold.Chemscore.Metal>
0.0000

> <Gold.Chemscore.Lipo>
49.8702

> <Gold.Chemscore.Internal_Hbond>
0.0000

> <Gold.Chemscore.DEClash>
1.4028

> <Gold.Chemscore.DEInternal>
0.1558

> <Gold.Chemscore.Rot>
1.4283

> <Gold.Chemscore.Internal.Correction>
   9.000000E+99

> <Gold.Chemscore.Hbonds>
donor molecule, donor type, donor heavy atom, donor atom, acceptor molecule, acceptor atom, score
      L1  H     4    24       P1 10175  0.44
      P1  H  7989  7998       L1     9  0.01
      P1  H  7997  8010       L1    11  0.81

> <Gold.Chemscore.Hbond.Weighted>
-6.1924

> <Gold.Chemscore.Metal.Weighted>
-0.0000

> <Gold.Chemscore.Lipo.Weighted>
-5.8348

> <Gold.Chemscore.Internal_Hbond.Weighted>
0.0000

> <Gold.Chemscore.DEClash.Weighted>
1.4028

> <Gold.Chemscore.DEInternal.Weighted>
0.1558

> <Gold.Chemscore.Rot.Weighted>
3.6566

> <Gold.Chemscore.Internal.Correction.Weighted>
   9.000000E+99

> <Gold.Protein.RotatedTorsions>
[ 6907 6896 6895 6894 ] final   54.89 input  -60.11 | X-H torsion
[ 7974 7965 7964 7962 ] final   34.37 input  175.53 | X-H torsion
[ 8008 7997 7996 7995 ] final   63.73 input   59.86 | X-H torsion
[ 10167 10162 10161 10158 ] final  -94.63 input  -65.29 | X-H torsion
[ 10718 10713 10712 10709 ] final  -92.14 input   66.30 | X-H torsion
[ 10763 10752 10751 10750 ] final -129.35 input  -60.55 | X-H torsion
[ 11005 11000 10999 10996 ] final  103.36 input  -57.11 | X-H torsion

> <Gold.Protein.ActiveResidues>
 VAL166  LYS551  ARG553  GLY616  TRP617  ASP618  TYR619  PRO620  LYS621  CYS622 
 ASP623  PHE694  ASN695  SER759  ASP760  ASP761  ALA762  ILE779  LEU786  VAL792 
 PHE793  MET794  SER795  GLU796  ALA797  LYS798  CYS799  TRP800  GLU811  SER814 

> <Gold.Protein.RotatedAtoms>
  152.3484  134.7039  160.0243 H   0  0  0  0  0  0  0  0  0  0  0  0  # atno 6907 bound_to 6896
  151.7401  133.3316  159.3371 H   0  0  0  0  0  0  0  0  0  0  0  0  # atno 6908 bound_to 6896
  150.7524  134.6219  159.6185 H   0  0  0  0  0  0  0  0  0  0  0  0  # atno 6909 bound_to 6896
  146.1357  139.6277  142.9197 H   0  0  0  0  0  0  0  0  0  0  0  0  # atno 7974 bound_to 7965
  155.6349  140.3496  155.4695 H   0  0  0  0  0  0  0  0  0  0  0  0  # atno 8008 bound_to 7997
  155.9973  140.1206  157.0605 H   0  0  0  0  0  0  0  0  0  0  0  0  # atno 8009 bound_to 7997
  154.4237  140.1107  156.5634 H   0  0  0  0  0  0  0  0  0  0  0  0  # atno 8010 bound_to 7997
  140.3125  143.3097  152.0133 H   0  0  0  0  0  0  0  0  0  0  0  0  # atno 10167 bound_to 10162
  155.9999  130.4975  150.5581 H   0  0  0  0  0  0  0  0  0  0  0  0  # atno 10718 bound_to 10713
  154.8757  135.3898  154.3905 H   0  0  0  0  0  0  0  0  0  0  0  0  # atno 10763 bound_to 10752
  153.4641  135.7029  153.6037 H   0  0  0  0  0  0  0  0  0  0  0  0  # atno 10764 bound_to 10752
  153.4523  135.3831  155.2259 H   0  0  0  0  0  0  0  0  0  0  0  0  # atno 10765 bound_to 10752
  139.8783  134.9260  156.5198 H   0  0  0  0  0  0  0  0  0  0  0  0  # atno 11005 bound_to 11000
  145.5161  141.0434  143.2461 LP  0  0  0  0  0  0  0  0  0  0  0  0  # atno 17320 bound_to 7965
  144.7737  139.6676  143.7184 LP  0  0  0  0  0  0  0  0  0  0  0  0  # atno 17321 bound_to 7965
  139.4891  144.6374  151.6948 LP  0  0  0  0  0  0  0  0  0  0  0  0  # atno 17342 bound_to 10162
  140.5556  144.0354  150.6146 LP  0  0  0  0  0  0  0  0  0  0  0  0  # atno 17343 bound_to 10162
  157.3494  131.0731  151.1725 LP  0  0  0  0  0  0  0  0  0  0  0  0  # atno 17370 bound_to 10713
  157.2546  130.6630  149.5947 LP  0  0  0  0  0  0  0  0  0  0  0  0  # atno 17371 bound_to 10713
  140.8459  133.8169  155.9120 LP  0  0  0  0  0  0  0  0  0  0  0  0  # atno 17394 bound_to 11000
  140.9192  134.2163  157.4937 LP  0  0  0  0  0  0  0  0  0  0  0  0  # atno 17395 bound_to 11000

$$$$
