AV-unprocessed.smi:622|AV-procd|sdf|3090|dock5
  -GOLD-   22720 0 13D 1   1.00000     0.00000
 Structure written by MMmdl.
 36 37  0  0  0  0  0  0  0  0  1 V2000
  145.3356  137.3228  153.7719 O   0  0  0  0  0  0  0  0  0  0  0  0
  146.4249  137.0103  153.2915 C   0  0  0  0  0  0  0  0  0  0  0  0
  147.5128  137.7990  153.2610 N   0  0  0  0  0  0  0  0  0  0  0  0
  147.6750  139.1012  153.8059 C   0  0  0  0  0  0  0  0  0  0  0  0
  148.9288  139.6875  154.1036 C   0  0  0  0  0  0  0  0  0  0  0  0
  148.9611  140.9965  154.6217 C   0  0  0  0  0  0  0  0  0  0  0  0
  147.7413  141.6730  154.8166 C   0  0  0  0  0  0  0  0  0  0  0  0
  146.5400  141.1320  154.5237 N   0  0  0  0  0  0  0  0  0  0  0  0
  146.5171  139.8771  154.0256 C   0  0  0  0  0  0  0  0  0  0  0  0
  146.6705  135.8291  152.7058 N   0  0  0  0  0  0  0  0  0  0  0  0
  145.7206  134.7285  152.5518 C   0  0  0  0  0  0  0  0  0  0  0  0
  146.4826  133.4030  152.7405 C   0  0  0  0  0  0  0  0  0  0  0  0
  145.6391  132.1287  152.5626 C   0  0  0  0  0  0  0  0  0  0  0  0
  145.3093  131.8353  151.0901 C   0  0  0  0  0  0  0  0  0  0  0  0
  144.0519  132.5327  150.5425 C   0  0  0  0  0  0  0  0  0  0  0  0
  143.7760  133.9573  151.0547 C   0  0  0  0  0  0  0  0  0  0  0  0
  145.0099  134.8653  151.1888 C   0  0  0  0  0  0  0  0  0  0  0  0
  148.3053  137.4437  152.7465 H   0  0  0  0  0  0  0  0  0  0  0  0
  149.8596  139.1695  153.9315 H   0  0  0  0  0  0  0  0  0  0  0  0
  149.9004  141.4731  154.8599 H   0  0  0  0  0  0  0  0  0  0  0  0
  147.7306  142.6777  155.2127 H   0  0  0  0  0  0  0  0  0  0  0  0
  145.5390  139.4781  153.7993 H   0  0  0  0  0  0  0  0  0  0  0  0
  147.5970  135.6733  152.3365 H   0  0  0  0  0  0  0  0  0  0  0  0
  144.9634  134.7890  153.3356 H   0  0  0  0  0  0  0  0  0  0  0  0
  147.3398  133.3670  152.0665 H   0  0  0  0  0  0  0  0  0  0  0  0
  146.9020  133.3931  153.7476 H   0  0  0  0  0  0  0  0  0  0  0  0
  146.2239  131.2920  152.9464 H   0  0  0  0  0  0  0  0  0  0  0  0
  144.7350  132.1626  153.1714 H   0  0  0  0  0  0  0  0  0  0  0  0
  146.1680  132.0931  150.4691 H   0  0  0  0  0  0  0  0  0  0  0  0
  145.1783  130.7601  150.9629 H   0  0  0  0  0  0  0  0  0  0  0  0
  144.1218  132.5512  149.4541 H   0  0  0  0  0  0  0  0  0  0  0  0
  143.1786  131.9194  150.7673 H   0  0  0  0  0  0  0  0  0  0  0  0
  143.0682  134.4241  150.3689 H   0  0  0  0  0  0  0  0  0  0  0  0
  143.2542  133.9093  152.0112 H   0  0  0  0  0  0  0  0  0  0  0  0
  144.6674  135.8964  151.0879 H   0  0  0  0  0  0  0  0  0  0  0  0
  145.7041  134.7008  150.3636 H   0  0  0  0  0  0  0  0  0  0  0  0
  1  2  2  0  0  0  0
  2  3  1  0  0  0  0
  2 10  1  0  0  0  0
  3  4  1  0  0  0  0
  3 18  1  0  0  0  0
  4  9  1  0  0  0  0
  4  5  2  0  0  0  0
  5  6  1  0  0  0  0
  5 19  1  0  0  0  0
  6  7  2  0  0  0  0
  6 20  1  0  0  0  0
  7  8  1  0  0  0  0
  7 21  1  0  0  0  0
  8  9  2  0  0  0  0
  9 22  1  0  0  0  0
 10 11  1  0  0  0  0
 10 23  1  0  0  0  0
 11 17  1  0  0  0  0
 11 12  1  0  0  0  0
 11 24  1  0  0  0  0
 12 13  1  0  0  0  0
 12 25  1  0  0  0  0
 12 26  1  0  0  0  0
 13 14  1  0  0  0  0
 13 27  1  0  0  0  0
 13 28  1  0  0  0  0
 14 15  1  0  0  0  0
 14 29  1  0  0  0  0
 14 30  1  0  0  0  0
 15 16  1  0  0  0  0
 15 31  1  0  0  0  0
 15 32  1  0  0  0  0
 16 17  1  0  0  0  0
 16 33  1  0  0  0  0
 16 34  1  0  0  0  0
 17 35  1  0  0  0  0
 17 36  1  0  0  0  0
M  END
> <s_m_source_file>
AV-unprocessed.smi

> <i_m_source_file_index>
622

> <i_lp_mmshare_version>
43012

> <i_f3d_flags>
0

> <s_epik_input>
W2NIXTFuW2NIXVtjSF1bY0hdYzFbTkhdQyg9TylbTkhdW0NIXTJbQ0gyXVtDSDJdW0NIMl1bQ0gyXVtDSDJdW0NIMl0y

> <s_epik_cmdline>
J2VwaWtfcHl0aG9uJywgJy1waCcsICc3LjAnLCAnLXRuJywgJzgnLCAnLW1hJywgJzIwMCcsICctbWV0YWxfYmluZGluZycsICctaW1hZScsICc8aW5maWxlLm1hZT4nLCAnLW9tYWUnLCAnPG91dGZpbGUubWFlPic=

> <r_epik_Ionization_Penalty>
0.00494148

> <r_epik_Ionization_Penalty_Charging>
0

> <r_epik_Ionization_Penalty_Neutral>
0.00494148

> <r_epik_State_Penalty>
0.00355757

> <r_epik_Charging_Adjusted_Penalty>
0.00355757

> <i_epik_Tot_Q>
0

> <i_epik_Tot_abs_Q>
0

> <r_epik_Metal_State_Penalty>
-0

> <b_epik_Metal_Only>
0

> <s_lp_Force_Field>
OPLS_2005

> <r_lp_Energy>
17.9389

> <b_lp_Chiralities_Consistent>
1

> <s_lp_Variant>
AV-unprocessed.smi:622-1

> <Gold.Version>
5.8.1

> <Gold.Id.Protein>
6NUR|6NUR_protein|mol2

> <Gold.PLP.Fitness>
36.0634

> <Gold.PLP.PLP>
-25.0013

> <Gold.PLP.part.hbond>
-1.7617

> <Gold.PLP.part.metal>
0.0000

> <Gold.PLP.part.buried>
-1.3496

> <Gold.PLP.part.nonpolar>
-23.0398

> <Gold.PLP.part.repulsive>
0.3207

> <Gold.PLP.ligand.clash>
0.0000

> <Gold.PLP.ligand.torsion>
0.4504

> <Gold.PLP.Chemscore.Hbond>
1.9833

> <Gold.PLP.Chemscore.CHOScore>
2.0000

> <Gold.PLP.Chemscore.Metal>
0.0000

> <Gold.Chemscore.Hbonds>
donor molecule, donor type, donor heavy atom, donor atom, acceptor molecule, acceptor atom, score
      L1  H     3    18       P1  7948  0.98
      L1  H    10    23       P1  7948  0.98
      L1  C     7    21       P1  8028  1.00
      L1  C     9    22       P1 10175  1.00

> <Gold.PLP.Chemscore.Internal.Correction>
0.0131

> <Gold.Rescore>
     Score         DG    S(hbond)    S(metal)    S(lipo)     H(rot)  DE(clash)    DE(int)     intcor
     15.65     -17.50       1.92        0.00      69.77       1.00       0.03       1.81       ----

> <Gold.Chemscore.Fitness>
15.6520

> <Gold.Chemscore.DG>
-17.4957

> <Gold.Chemscore.ZeroCoef>
-5.4800

> <Gold.Chemscore.Hbond>
1.9199

> <Gold.Chemscore.Metal>
0.0000

> <Gold.Chemscore.Lipo>
69.7717

> <Gold.Chemscore.Internal_Hbond>
0.0000

> <Gold.Chemscore.DEClash>
0.0311

> <Gold.Chemscore.DEInternal>
1.8127

> <Gold.Chemscore.Rot>
1.0000

> <Gold.Chemscore.Internal.Correction>
   9.000000E+99

> <Gold.Chemscore.Hbonds>
donor molecule, donor type, donor heavy atom, donor atom, acceptor molecule, acceptor atom, score
      L1  H     3    18       P1  7948  0.93
      L1  H    10    23       P1  7948  0.87

> <Gold.Chemscore.Hbond.Weighted>
-6.4124

> <Gold.Chemscore.Metal.Weighted>
-0.0000

> <Gold.Chemscore.Lipo.Weighted>
-8.1633

> <Gold.Chemscore.Internal_Hbond.Weighted>
0.0000

> <Gold.Chemscore.DEClash.Weighted>
0.0311

> <Gold.Chemscore.DEInternal.Weighted>
1.8127

> <Gold.Chemscore.Rot.Weighted>
2.5600

> <Gold.Chemscore.Internal.Correction.Weighted>
   9.000000E+99

> <Gold.Protein.RotatedTorsions>
[ 6907 6896 6895 6894 ] final   26.13 input  -60.11 | X-H torsion
[ 7974 7965 7964 7962 ] final   64.31 input  175.53 | X-H torsion
[ 8008 7997 7996 7995 ] final -169.17 input   59.86 | X-H torsion
[ 10167 10162 10161 10158 ] final   60.24 input  -65.29 | X-H torsion
[ 10718 10713 10712 10709 ] final  160.48 input   66.30 | X-H torsion
[ 10763 10752 10751 10750 ] final -179.02 input  -60.55 | X-H torsion
[ 11005 11000 10999 10996 ] final  -71.80 input  -57.11 | X-H torsion

> <Gold.Protein.ActiveResidues>
 VAL166  LYS551  ARG553  GLY616  TRP617  ASP618  TYR619  PRO620  LYS621  CYS622 
 ASP623  PHE694  ASN695  SER759  ASP760  ASP761  ALA762  ILE779  LEU786  VAL792 
 PHE793  MET794  SER795  GLU796  ALA797  LYS798  CYS799  TRP800  GLU811  SER814 

> <Gold.Protein.RotatedAtoms>
  151.9829  135.0019  160.0557 H   0  0  0  0  0  0  0  0  0  0  0  0  # atno 6907 bound_to 6896
  152.1679  133.4620  159.4902 H   0  0  0  0  0  0  0  0  0  0  0  0  # atno 6908 bound_to 6896
  150.6897  134.1907  159.4327 H   0  0  0  0  0  0  0  0  0  0  0  0  # atno 6909 bound_to 6896
  145.8517  139.3258  143.0871 H   0  0  0  0  0  0  0  0  0  0  0  0  # atno 7974 bound_to 7965
  155.9013  140.1041  157.1348 H   0  0  0  0  0  0  0  0  0  0  0  0  # atno 8008 bound_to 7997
  154.4027  140.1292  156.4504 H   0  0  0  0  0  0  0  0  0  0  0  0  # atno 8009 bound_to 7997
  155.7419  140.3466  155.5111 H   0  0  0  0  0  0  0  0  0  0  0  0  # atno 8010 bound_to 7997
  140.1677  144.4307  150.6677 H   0  0  0  0  0  0  0  0  0  0  0  0  # atno 10167 bound_to 10162
  157.1498  131.0561  151.2286 H   0  0  0  0  0  0  0  0  0  0  0  0  # atno 10718 bound_to 10713
  154.5404  135.2805  155.1101 H   0  0  0  0  0  0  0  0  0  0  0  0  # atno 10763 bound_to 10752
  154.2586  135.6326  153.5270 H   0  0  0  0  0  0  0  0  0  0  0  0  # atno 10764 bound_to 10752
  152.9977  135.5600  154.5941 H   0  0  0  0  0  0  0  0  0  0  0  0  # atno 10765 bound_to 10752
  141.1598  133.6828  156.6961 H   0  0  0  0  0  0  0  0  0  0  0  0  # atno 11005 bound_to 11000
  145.9350  140.9021  143.0337 LP  0  0  0  0  0  0  0  0  0  0  0  0  # atno 17320 bound_to 7965
  144.6729  140.1470  143.7433 LP  0  0  0  0  0  0  0  0  0  0  0  0  # atno 17321 bound_to 7965
  140.6602  143.2250  151.5874 LP  0  0  0  0  0  0  0  0  0  0  0  0  # atno 17342 bound_to 10162
  139.5352  144.2802  152.1235 LP  0  0  0  0  0  0  0  0  0  0  0  0  # atno 17343 bound_to 10162
  157.4231  130.7448  149.6929 LP  0  0  0  0  0  0  0  0  0  0  0  0  # atno 17370 bound_to 10713
  155.9773  130.4065  150.3724 LP  0  0  0  0  0  0  0  0  0  0  0  0  # atno 17371 bound_to 10713
  140.2994  134.8176  157.4084 LP  0  0  0  0  0  0  0  0  0  0  0  0  # atno 17394 bound_to 11000
  140.1276  134.5138  155.8132 LP  0  0  0  0  0  0  0  0  0  0  0  0  # atno 17395 bound_to 11000

$$$$
