AV-unprocessed.smi:109|AV-procd|sdf|1034|dock6
  -GOLD-   2262018 43D 1   1.00000     0.00000
 Structure written by MMmdl.
 58 61  0  0  0  0  0  0  0  0  1 V2000
  148.4867  142.7836  154.2520 O   0  0  0  0  0  0  0  0  0  0  0  0
  147.9940  141.4647  154.1562 C   0  0  0  0  0  0  0  0  0  0  0  0
  147.8676  140.8508  155.5597 C   0  0  0  0  0  0  0  0  0  0  0  0
  148.0247  139.3141  155.5596 C   0  0  1  0  0  0  0  0  0  0  0  0
  147.2696  138.7399  154.4459 N   0  0  0  0  0  0  0  0  0  0  0  0
  146.9072  137.4377  154.4295 C   0  0  0  0  0  0  0  0  0  0  0  0
  147.1071  136.6339  155.5063 N   0  0  0  0  0  0  0  0  0  0  0  0
  146.7308  135.3529  155.4634 C   0  0  0  0  0  0  0  0  0  0  0  0
  146.1467  134.6887  154.4643 N   0  0  0  0  0  0  0  0  0  0  0  0
  145.9430  135.4896  153.3780 C   0  0  0  0  0  0  0  0  0  0  0  0
  146.2943  136.8655  153.2845 C   0  0  0  0  0  0  0  0  0  0  0  0
  145.9367  137.3596  152.0371 N   0  0  0  0  0  0  0  0  0  0  0  0
  145.4028  136.3328  151.4325 C   0  0  0  0  0  0  0  0  0  0  0  0
  145.3610  135.1680  152.1664 N   0  0  0  0  0  0  0  0  0  0  0  0
  144.8010  133.8456  151.7333 C   0  0  1  0  0  0  0  0  0  0  0  0
  144.1880  133.9866  150.4839 O   0  0  0  0  0  0  0  0  0  0  0  0
  144.7740  133.0800  149.5537 C   0  0  2  0  0  0  0  0  0  0  0  0
  143.7598  132.6802  148.4674 C   0  0  0  0  0  0  0  0  0  0  0  0
  143.3957  133.7745  147.6514 O   0  0  0  0  0  0  0  0  0  0  0  0
  145.3548  131.9578  150.4177 C   0  0  1  0  0  0  0  0  0  0  0  0
  146.3566  131.2016  149.7634 O   0  0  0  0  0  0  0  0  0  0  0  0
  145.8720  132.7391  151.6186 C   0  0  1  0  0  0  0  0  0  0  0  0
  147.1863  133.2403  151.4248 O   0  0  0  0  0  0  0  0  0  0  0  0
  149.4995  138.8258  155.5370 C   0  0  0  0  0  0  0  0  0  0  0  0
  150.4181  139.6596  156.4568 C   0  0  0  0  0  0  0  0  0  0  0  0
  151.8456  139.0898  156.4914 C   0  0  0  0  0  0  0  0  0  0  0  0
  152.4399  138.9932  155.0777 C   0  0  0  0  0  0  0  0  0  0  0  0
  151.5338  138.1679  154.1507 C   0  0  0  0  0  0  0  0  0  0  0  0
  150.1048  138.7348  154.1177 C   0  0  0  0  0  0  0  0  0  0  0  0
  144.0351  133.6135  152.4743 H   0  0  0  0  0  0  0  0  0  0  0  0
  145.5950  133.6148  149.0739 H   0  0  0  0  0  0  0  0  0  0  0  0
  144.5657  131.2843  150.7536 H   0  0  0  0  0  0  0  0  0  0  0  0
  145.8699  132.1343  152.5258 H   0  0  0  0  0  0  0  0  0  0  0  0
  148.8178  142.9172  155.1272 H   0  0  0  0  0  0  0  0  0  0  0  0
  147.0252  141.4831  153.6559 H   0  0  0  0  0  0  0  0  0  0  0  0
  148.6723  140.8816  153.5327 H   0  0  0  0  0  0  0  0  0  0  0  0
  148.6070  141.3036  156.2216 H   0  0  0  0  0  0  0  0  0  0  0  0
  146.8924  141.1254  155.9597 H   0  0  0  0  0  0  0  0  0  0  0  0
  147.5803  138.9626  156.4915 H   0  0  0  0  0  0  0  0  0  0  0  0
  147.0487  139.3771  153.6940 H   0  0  0  0  0  0  0  0  0  0  0  0
  146.9228  134.7785  156.3575 H   0  0  0  0  0  0  0  0  0  0  0  0
  145.0165  136.3986  150.4259 H   0  0  0  0  0  0  0  0  0  0  0  0
  144.1597  131.8773  147.8477 H   0  0  0  0  0  0  0  0  0  0  0  0
  142.8525  132.2981  148.9357 H   0  0  0  0  0  0  0  0  0  0  0  0
  144.1620  134.3083  147.5064 H   0  0  0  0  0  0  0  0  0  0  0  0
  147.2014  131.4990  150.0645 H   0  0  0  0  0  0  0  0  0  0  0  0
  147.6748  132.6110  150.9170 H   0  0  0  0  0  0  0  0  0  0  0  0
  149.5051  137.8152  155.9483 H   0  0  0  0  0  0  0  0  0  0  0  0
  150.4617  140.6945  156.1184 H   0  0  0  0  0  0  0  0  0  0  0  0
  150.0115  139.6818  157.4685 H   0  0  0  0  0  0  0  0  0  0  0  0
  152.4804  139.7156  157.1192 H   0  0  0  0  0  0  0  0  0  0  0  0
  151.8342  138.1012  156.9521 H   0  0  0  0  0  0  0  0  0  0  0  0
  152.5680  139.9954  154.6663 H   0  0  0  0  0  0  0  0  0  0  0  0
  153.4337  138.5468  155.1212 H   0  0  0  0  0  0  0  0  0  0  0  0
  151.9502  138.1516  153.1432 H   0  0  0  0  0  0  0  0  0  0  0  0
  151.5085  137.1319  154.4913 H   0  0  0  0  0  0  0  0  0  0  0  0
  149.4818  138.1065  153.4806 H   0  0  0  0  0  0  0  0  0  0  0  0
  150.1272  139.7213  153.6539 H   0  0  0  0  0  0  0  0  0  0  0  0
  1  2  1  0  0  0  0
  1 34  1  0  0  0  0
  2  3  1  0  0  0  0
  2 35  1  0  0  0  0
  2 36  1  0  0  0  0
  3  4  1  0  0  0  0
  3 37  1  0  0  0  0
  3 38  1  0  0  0  0
  4  5  1  0  0  0  0
  4 24  1  0  0  0  0
  4 39  1  0  0  0  0
  5  6  1  0  0  0  0
  5 40  1  0  0  0  0
  6 11  1  0  0  0  0
  6  7  2  0  0  0  0
  7  8  1  0  0  0  0
  8  9  2  0  0  0  0
  8 41  1  0  0  0  0
  9 10  1  0  0  0  0
 10 14  1  0  0  0  0
 10 11  2  0  0  0  0
 11 12  1  0  0  0  0
 12 13  2  0  0  0  0
 13 14  1  0  0  0  0
 13 42  1  0  0  0  0
 14 15  1  0  0  0  0
 15 30  1  0  0  0  0
 15 22  1  0  0  0  0
 15 16  1  0  0  0  0
 16 17  1  0  0  0  0
 17 31  1  0  0  0  0
 17 18  1  0  0  0  0
 17 20  1  0  0  0  0
 18 19  1  0  0  0  0
 18 43  1  0  0  0  0
 18 44  1  0  0  0  0
 19 45  1  0  0  0  0
 20 32  1  0  0  0  0
 20 21  1  0  0  0  0
 20 22  1  0  0  0  0
 21 46  1  0  0  0  0
 22 33  1  0  0  0  0
 22 23  1  0  0  0  0
 23 47  1  0  0  0  0
 24 29  1  0  0  0  0
 24 25  1  0  0  0  0
 24 48  1  0  0  0  0
 25 26  1  0  0  0  0
 25 49  1  0  0  0  0
 25 50  1  0  0  0  0
 26 27  1  0  0  0  0
 26 51  1  0  0  0  0
 26 52  1  0  0  0  0
 27 28  1  0  0  0  0
 27 53  1  0  0  0  0
 27 54  1  0  0  0  0
 28 29  1  0  0  0  0
 28 55  1  0  0  0  0
 28 56  1  0  0  0  0
 29 57  1  0  0  0  0
 29 58  1  0  0  0  0
M  END
> <s_m_source_file>
AV-unprocessed.smi

> <i_m_source_file_index>
109

> <i_lp_mmshare_version>
43012

> <i_f3d_flags>
0

> <s_epik_input>
W0NIMl0xW0NIMl1bQ0gyXVtDSDJdW0NIMl1bQ0hdMVtDQEhdKFtDSDJdW0NIMl1bT0hdKVtOSF1jKG5bY0hdbjIpYyhjMjMpbltjSF1uM1tDQEBIXTRPW0NASF0oW0NIMl1bT0hdKVtDQEBIXShbT0hdKVtDQEhdNFtPSF0=

> <s_epik_cmdline>
J2VwaWtfcHl0aG9uJywgJy1waCcsICc3LjAnLCAnLXRuJywgJzgnLCAnLW1hJywgJzIwMCcsICctbWV0YWxfYmluZGluZycsICctaW1hZScsICc8aW5maWxlLm1hZT4nLCAnLW9tYWUnLCAnPG91dGZpbGUubWFlPic=

> <r_lp_tautomer_probability>
1

> <r_epik_Ionization_Penalty>
0.000793976

> <r_epik_Ionization_Penalty_Charging>
0

> <r_epik_Ionization_Penalty_Neutral>
0.000793976

> <r_epik_State_Penalty>
-0

> <r_epik_Charging_Adjusted_Penalty>
0

> <i_epik_Tot_Q>
0

> <i_epik_Tot_abs_Q>
0

> <r_epik_Metal_State_Penalty>
-0

> <b_epik_Metal_Only>
0

> <s_epik_Chemistry_Notes>
This compound contains an acetal/aminal-like group ( X-CH(R)-Y where X, Y are N, S, or O) that may be acid/base labile, releasing an aldehyde.

> <s_lp_Force_Field>
OPLS_2005

> <r_lp_Energy>
63.9822

> <b_lp_Chiralities_Consistent>
1

> <s_lp_Variant>
AV-unprocessed.smi:109-4

> <Gold.Version>
5.8.1

> <Gold.Id.Protein>
6NUR|6NUR_protein|mol2

> <Gold.PLP.Fitness>
55.9454

> <Gold.PLP.PLP>
-42.5868

> <Gold.PLP.part.hbond>
-7.9131

> <Gold.PLP.part.metal>
0.0000

> <Gold.PLP.part.buried>
-2.7462

> <Gold.PLP.part.nonpolar>
-31.7559

> <Gold.PLP.part.repulsive>
0.5750

> <Gold.PLP.ligand.clash>
0.0000

> <Gold.PLP.ligand.torsion>
1.0258

> <Gold.PLP.Chemscore.Hbond>
4.3590

> <Gold.PLP.Chemscore.CHOScore>
0.7135

> <Gold.PLP.Chemscore.Metal>
0.0000

> <Gold.Chemscore.Hbonds>
donor molecule, donor type, donor heavy atom, donor atom, acceptor molecule, acceptor atom, score
      L1  H     1    34       P1  8028  0.26
      L1  H    19    45       P1  7921  1.00
      L1  H    21    46       P1 10747  0.78
      L1  H    23    47       P1 10747  0.41
      P1  H  8022  8030       L1     1  0.79
      P1  H 10192 10197       L1    19  0.85
      L1  C    13    42       P1 10171  0.73

> <Gold.PLP.Chemscore.Internal.Correction>
0.1926

> <Gold.Rescore>
     Score         DG    S(hbond)    S(metal)    S(lipo)     H(rot)  DE(clash)    DE(int)     intcor
     10.50     -12.25       2.95        0.00      93.18       5.47       0.98       0.77       ----

> <Gold.Chemscore.Fitness>
10.5006

> <Gold.Chemscore.DG>
-12.2525

> <Gold.Chemscore.ZeroCoef>
-5.4800

> <Gold.Chemscore.Hbond>
2.9534

> <Gold.Chemscore.Metal>
0.0000

> <Gold.Chemscore.Lipo>
93.1777

> <Gold.Chemscore.Internal_Hbond>
0.0000

> <Gold.Chemscore.DEClash>
0.9830

> <Gold.Chemscore.DEInternal>
0.7689

> <Gold.Chemscore.Rot>
5.4662

> <Gold.Chemscore.Internal.Correction>
   9.000000E+99

> <Gold.Chemscore.Hbonds>
donor molecule, donor type, donor heavy atom, donor atom, acceptor molecule, acceptor atom, score
      L1  H     1    34       P1  8028  0.26
      L1  H    19    45       P1  7921  0.95
      L1  H    21    46       P1 10747  0.78
      L1  H    23    47       P1 10747  0.41
      P1  H  8022  8030       L1     1  0.15
      P1  H 10192 10197       L1    19  0.14

> <Gold.Chemscore.Hbond.Weighted>
-9.8642

> <Gold.Chemscore.Metal.Weighted>
-0.0000

> <Gold.Chemscore.Lipo.Weighted>
-10.9018

> <Gold.Chemscore.Internal_Hbond.Weighted>
0.0000

> <Gold.Chemscore.DEClash.Weighted>
0.9830

> <Gold.Chemscore.DEInternal.Weighted>
0.7689

> <Gold.Chemscore.Rot.Weighted>
13.9935

> <Gold.Chemscore.Internal.Correction.Weighted>
   9.000000E+99

> <Gold.Protein.RotatedTorsions>
[ 6907 6896 6895 6894 ] final   -7.74 input  -60.11 | X-H torsion
[ 7974 7965 7964 7962 ] final  128.15 input  175.53 | X-H torsion
[ 8008 7997 7996 7995 ] final  -76.90 input   59.86 | X-H torsion
[ 10167 10162 10161 10158 ] final   33.24 input  -65.29 | X-H torsion
[ 10718 10713 10712 10709 ] final   71.01 input   66.30 | X-H torsion
[ 10763 10752 10751 10750 ] final  179.72 input  -60.55 | X-H torsion
[ 11005 11000 10999 10996 ] final    9.37 input  -57.11 | X-H torsion

> <Gold.Protein.ActiveResidues>
 VAL166  LYS551  ARG553  GLY616  TRP617  ASP618  TYR619  PRO620  LYS621  CYS622 
 ASP623  PHE694  ASN695  SER759  ASP760  ASP761  ALA762  ILE779  LEU786  VAL792 
 PHE793  MET794  SER795  GLU796  ALA797  LYS798  CYS799  TRP800  GLU811  SER814 

> <Gold.Protein.RotatedAtoms>
  151.4447  135.1024  159.9680 H   0  0  0  0  0  0  0  0  0  0  0  0  # atno 6907 bound_to 6896
  152.4910  133.8495  159.7205 H   0  0  0  0  0  0  0  0  0  0  0  0  # atno 6908 bound_to 6896
  150.9063  133.6995  159.2893 H   0  0  0  0  0  0  0  0  0  0  0  0  # atno 6909 bound_to 6896
  145.0427  139.3949  143.5094 H   0  0  0  0  0  0  0  0  0  0  0  0  # atno 7974 bound_to 7965
  154.5547  140.0719  156.8723 H   0  0  0  0  0  0  0  0  0  0  0  0  # atno 8008 bound_to 7997
  155.2926  140.3379  155.4233 H   0  0  0  0  0  0  0  0  0  0  0  0  # atno 8009 bound_to 7997
  156.1991  140.1715  156.7922 H   0  0  0  0  0  0  0  0  0  0  0  0  # atno 8010 bound_to 7997
  140.4425  144.1167  150.6176 H   0  0  0  0  0  0  0  0  0  0  0  0  # atno 10167 bound_to 10162
  157.6430  130.9506  150.0730 H   0  0  0  0  0  0  0  0  0  0  0  0  # atno 10718 bound_to 10713
  154.5243  135.2796  155.1235 H   0  0  0  0  0  0  0  0  0  0  0  0  # atno 10763 bound_to 10752
  154.2781  135.6291  153.5340 H   0  0  0  0  0  0  0  0  0  0  0  0  # atno 10764 bound_to 10752
  152.9943  135.5644  154.5740 H   0  0  0  0  0  0  0  0  0  0  0  0  # atno 10765 bound_to 10752
  140.5265  134.0508  155.7860 H   0  0  0  0  0  0  0  0  0  0  0  0  # atno 11005 bound_to 11000
  146.3511  140.0036  142.8674 LP  0  0  0  0  0  0  0  0  0  0  0  0  # atno 17320 bound_to 7965
  145.1627  140.9681  143.4368 LP  0  0  0  0  0  0  0  0  0  0  0  0  # atno 17321 bound_to 7965
  140.4302  143.2571  151.9605 LP  0  0  0  0  0  0  0  0  0  0  0  0  # atno 17342 bound_to 10162
  139.4790  144.5751  151.8025 LP  0  0  0  0  0  0  0  0  0  0  0  0  # atno 17343 bound_to 10162
  156.1729  130.3647  149.9141 LP  0  0  0  0  0  0  0  0  0  0  0  0  # atno 17370 bound_to 10713
  156.7112  130.8971  151.3609 LP  0  0  0  0  0  0  0  0  0  0  0  0  # atno 17371 bound_to 10713
  141.1305  133.9310  157.2545 LP  0  0  0  0  0  0  0  0  0  0  0  0  # atno 17394 bound_to 11000
  139.9577  135.0161  156.9174 LP  0  0  0  0  0  0  0  0  0  0  0  0  # atno 17395 bound_to 11000

$$$$
