AV-unprocessed.smi:144|AV-procd|sdf|1196|dock10
  -GOLD-   2262018353D 1   1.00000     0.00000
 Structure written by MMmdl.
 46 48  0  0  0  0  0  0  0  0  1 V2000
  150.6025  137.3276  159.6424 O   0  0  0  0  0  0  0  0  0  0  0  0
  150.0282  137.9460  158.7475 C   0  0  0  0  0  0  0  0  0  0  0  0
  148.8683  137.2528  158.0083 C   0  0  0  0  0  0  0  0  0  0  0  0
  148.2673  136.1001  158.7191 N   0  0  0  0  0  0  0  0  0  0  0  0
  148.2112  134.8467  158.0596 C   0  0  0  0  0  0  0  0  0  0  0  0
  148.6501  134.7073  156.9172 O   0  0  0  0  0  0  0  0  0  0  0  0
  147.5910  133.7638  158.8147 C   0  0  0  0  0  0  0  0  0  0  0  0
  147.4897  132.5420  158.2646 F   0  0  0  0  0  0  0  0  0  0  0  0
  147.1067  133.9718  160.0562 C   0  0  0  0  0  0  0  0  0  0  0  0
  147.1670  135.2010  160.6873 N   0  0  0  0  0  0  0  0  0  0  0  0
  146.5985  135.4053  162.0747 C   0  0  1  0  0  0  0  0  0  0  0  0
  145.6181  136.5838  162.0761 C   0  0  0  0  0  0  0  0  0  0  0  0
  144.2962  135.8872  161.8376 C   0  0  0  0  0  0  0  0  0  0  0  0
  144.4983  134.5787  162.5937 C   0  0  0  0  0  0  0  0  0  0  0  0
  145.8816  134.2641  162.4498 O   0  0  0  0  0  0  0  0  0  0  0  0
  147.7454  136.3016  160.0193 C   0  0  0  0  0  0  0  0  0  0  0  0
  147.7787  137.4138  160.5502 O   0  0  0  0  0  0  0  0  0  0  0  0
  150.3644  139.1913  158.3555 N   0  0  0  0  0  0  0  0  0  0  0  0
  151.3773  140.0444  158.8688 C   0  0  0  0  0  0  0  0  0  0  0  0
  151.1933  141.4321  158.7050 C   0  0  0  0  0  0  0  0  0  0  0  0
  152.1438  142.3487  159.2032 C   0  0  0  0  0  0  0  0  0  0  0  0
  151.9569  143.8461  159.0101 C   0  0  0  0  0  0  0  0  0  0  0  0
  152.0082  144.4740  160.1853 F   0  0  0  0  0  0  0  0  0  0  0  0
  152.9321  144.3123  158.2311 F   0  0  0  0  0  0  0  0  0  0  0  0
  150.7837  144.1233  158.4398 F   0  0  0  0  0  0  0  0  0  0  0  0
  153.2868  141.8653  159.8734 C   0  0  0  0  0  0  0  0  0  0  0  0
  153.4744  140.4795  160.0646 C   0  0  0  0  0  0  0  0  0  0  0  0
  154.6937  139.9439  160.8006 C   0  0  0  0  0  0  0  0  0  0  0  0
  155.8040  140.3903  160.2132 F   0  0  0  0  0  0  0  0  0  0  0  0
  154.6725  140.3737  162.0619 F   0  0  0  0  0  0  0  0  0  0  0  0
  154.7284  138.6108  160.8070 F   0  0  0  0  0  0  0  0  0  0  0  0
  152.5155  139.5741  159.5648 C   0  0  0  0  0  0  0  0  0  0  0  0
  148.1126  138.0075  157.7853 H   0  0  0  0  0  0  0  0  0  0  0  0
  149.2284  136.9517  157.0233 H   0  0  0  0  0  0  0  0  0  0  0  0
  146.6497  133.1349  160.5629 H   0  0  0  0  0  0  0  0  0  0  0  0
  147.4549  135.5374  162.7379 H   0  0  0  0  0  0  0  0  0  0  0  0
  145.6331  137.0474  163.0633 H   0  0  0  0  0  0  0  0  0  0  0  0
  145.8670  137.3371  161.3274 H   0  0  0  0  0  0  0  0  0  0  0  0
  143.4394  136.4588  162.1952 H   0  0  0  0  0  0  0  0  0  0  0  0
  144.1575  135.6929  160.7733 H   0  0  0  0  0  0  0  0  0  0  0  0
  144.2811  134.7169  163.6537 H   0  0  0  0  0  0  0  0  0  0  0  0
  143.8640  133.7750  162.2191 H   0  0  0  0  0  0  0  0  0  0  0  0
  149.8732  139.5417  157.5461 H   0  0  0  0  0  0  0  0  0  0  0  0
  150.3183  141.7922  158.1835 H   0  0  0  0  0  0  0  0  0  0  0  0
  154.0168  142.5691  160.2445 H   0  0  0  0  0  0  0  0  0  0  0  0
  152.6677  138.5199  159.7383 H   0  0  0  0  0  0  0  0  0  0  0  0
  1  2  2  0  0  0  0
  2  3  1  0  0  0  0
  2 18  1  0  0  0  0
  3  4  1  0  0  0  0
  3 33  1  0  0  0  0
  3 34  1  0  0  0  0
  4 16  1  0  0  0  0
  4  5  1  0  0  0  0
  5  6  2  0  0  0  0
  5  7  1  0  0  0  0
  7  8  1  0  0  0  0
  7  9  2  0  0  0  0
  9 10  1  0  0  0  0
  9 35  1  0  0  0  0
 10 11  1  0  0  0  0
 10 16  1  0  0  0  0
 11 15  1  0  0  0  0
 11 12  1  0  0  0  0
 11 36  1  0  0  0  0
 12 13  1  0  0  0  0
 12 37  1  0  0  0  0
 12 38  1  0  0  0  0
 13 14  1  0  0  0  0
 13 39  1  0  0  0  0
 13 40  1  0  0  0  0
 14 15  1  0  0  0  0
 14 41  1  0  0  0  0
 14 42  1  0  0  0  0
 16 17  2  0  0  0  0
 18 19  1  0  0  0  0
 18 43  1  0  0  0  0
 19 32  1  0  0  0  0
 19 20  2  0  0  0  0
 20 21  1  0  0  0  0
 20 44  1  0  0  0  0
 21 22  1  0  0  0  0
 21 26  2  0  0  0  0
 22 23  1  0  0  0  0
 22 24  1  0  0  0  0
 22 25  1  0  0  0  0
 26 27  1  0  0  0  0
 26 45  1  0  0  0  0
 27 28  1  0  0  0  0
 27 32  2  0  0  0  0
 28 29  1  0  0  0  0
 28 30  1  0  0  0  0
 28 31  1  0  0  0  0
 32 46  1  0  0  0  0
M  END
> <s_m_source_file>
AV-unprocessed.smi

> <i_m_source_file_index>
144

> <i_lp_mmshare_version>
43012

> <i_f3d_flags>
0

> <s_epik_input>
RkMoRikoRiljKFtjSF0xKVtjSF1jKEMoRikoRilGKVtjSF1jMVtOSF1DKD1PKVtDSDJdbjJjKD1PKWMoRilbY0hdbihjMj1PKVtDQEBIXTNbQ0gyXVtDSDJdW0NIMl1PMw==

> <s_epik_cmdline>
J2VwaWtfcHl0aG9uJywgJy1waCcsICc3LjAnLCAnLXRuJywgJzgnLCAnLW1hJywgJzIwMCcsICctbWV0YWxfYmluZGluZycsICctaW1hZScsICc8aW5maWxlLm1hZT4nLCAnLW9tYWUnLCAnPG91dGZpbGUubWFlPic=

> <r_lp_tautomer_probability>
1

> <r_epik_Ionization_Penalty>
3.68082e-06

> <r_epik_Ionization_Penalty_Charging>
3.88729e-08

> <r_epik_Ionization_Penalty_Neutral>
3.64194e-06

> <r_epik_State_Penalty>
-0

> <r_epik_Charging_Adjusted_Penalty>
3.88729e-08

> <i_epik_Tot_Q>
0

> <i_epik_Tot_abs_Q>
0

> <r_epik_Metal_State_Penalty>
-0

> <b_epik_Metal_Only>
0

> <s_epik_Chemistry_Notes>
This compound contains an acetal/aminal-like group ( X-CH(R)-Y where X, Y are N, S, or O) that may be acid/base labile, releasing an aldehyde.

> <s_lp_Force_Field>
OPLS_2005

> <r_lp_Energy>
36.4766

> <b_lp_Chiralities_Consistent>
1

> <s_lp_Variant>
AV-unprocessed.smi:144-2

> <Gold.Version>
5.8.1

> <Gold.Id.Protein>
6NUR|6NUR_protein|mol2

> <Gold.PLP.Fitness>
65.7695

> <Gold.PLP.PLP>
-61.6565

> <Gold.PLP.part.hbond>
-2.8530

> <Gold.PLP.part.metal>
0.0000

> <Gold.PLP.part.buried>
-7.2917

> <Gold.PLP.part.nonpolar>
-52.0882

> <Gold.PLP.part.repulsive>
0.1710

> <Gold.PLP.ligand.clash>
1.8248

> <Gold.PLP.ligand.torsion>
0.6415

> <Gold.PLP.Chemscore.Hbond>
2.1844

> <Gold.PLP.Chemscore.CHOScore>
0.0000

> <Gold.PLP.Chemscore.Metal>
0.0000

> <Gold.Chemscore.Hbonds>
donor molecule, donor type, donor heavy atom, donor atom, acceptor molecule, acceptor atom, score
      P1  H  6896  6909       L1     1  0.31
      P1  H  6931  6943       L1    17  0.67
      P1  H  6934  6947       L1    17  0.83

> <Gold.PLP.Chemscore.Internal.Correction>
0.6676

> <Gold.Rescore>
     Score         DG    S(hbond)    S(metal)    S(lipo)     H(rot)  DE(clash)    DE(int)     intcor
     16.45     -20.41       2.56        0.00      94.65       1.83       0.02       3.95       ----

> <Gold.Chemscore.Fitness>
16.4522

> <Gold.Chemscore.DG>
-20.4141

> <Gold.Chemscore.ZeroCoef>
-5.4800

> <Gold.Chemscore.Hbond>
2.5602

> <Gold.Chemscore.Metal>
0.0000

> <Gold.Chemscore.Lipo>
94.6499

> <Gold.Chemscore.Internal_Hbond>
0.0000

> <Gold.Chemscore.DEClash>
0.0163

> <Gold.Chemscore.DEInternal>
3.9456

> <Gold.Chemscore.Rot>
1.8325

> <Gold.Chemscore.Internal.Correction>
   9.000000E+99

> <Gold.Chemscore.Hbonds>
donor molecule, donor type, donor heavy atom, donor atom, acceptor molecule, acceptor atom, score
      P1  H  6896  6909       L1     1  0.31
      P1  H  6931  6943       L1    17  0.62
      P1  H  6934  6947       L1    17  0.83

> <Gold.Chemscore.Hbond.Weighted>
-8.5512

> <Gold.Chemscore.Metal.Weighted>
-0.0000

> <Gold.Chemscore.Lipo.Weighted>
-11.0740

> <Gold.Chemscore.Internal_Hbond.Weighted>
0.0000

> <Gold.Chemscore.DEClash.Weighted>
0.0163

> <Gold.Chemscore.DEInternal.Weighted>
3.9456

> <Gold.Chemscore.Rot.Weighted>
4.6911

> <Gold.Chemscore.Internal.Correction.Weighted>
   9.000000E+99

> <Gold.Protein.RotatedTorsions>
[ 6907 6896 6895 6894 ] final  105.05 input  -60.11 | X-H torsion
[ 7974 7965 7964 7962 ] final  137.73 input  175.53 | X-H torsion
[ 8008 7997 7996 7995 ] final   65.51 input   59.86 | X-H torsion
[ 10167 10162 10161 10158 ] final  -66.57 input  -65.29 | X-H torsion
[ 10718 10713 10712 10709 ] final  134.19 input   66.30 | X-H torsion
[ 10763 10752 10751 10750 ] final   69.46 input  -60.55 | X-H torsion
[ 11005 11000 10999 10996 ] final   66.00 input  -57.11 | X-H torsion

> <Gold.Protein.ActiveResidues>
 VAL166  LYS551  ARG553  GLY616  TRP617  ASP618  TYR619  PRO620  LYS621  CYS622 
 ASP623  PHE694  ASN695  SER759  ASP760  ASP761  ALA762  ILE779  LEU786  VAL792 
 PHE793  MET794  SER795  GLU796  ALA797  LYS798  CYS799  TRP800  GLU811  SER814 

> <Gold.Protein.RotatedAtoms>
  152.5244  133.9586  159.7705 H   0  0  0  0  0  0  0  0  0  0  0  0  # atno 6907 bound_to 6896
  150.9881  133.6169  159.2719 H   0  0  0  0  0  0  0  0  0  0  0  0  # atno 6908 bound_to 6896
  151.3322  135.0850  159.9395 H   0  0  0  0  0  0  0  0  0  0  0  0  # atno 6909 bound_to 6896
  144.9439  139.4898  143.5558 H   0  0  0  0  0  0  0  0  0  0  0  0  # atno 7974 bound_to 7965
  155.6628  140.3497  155.4789 H   0  0  0  0  0  0  0  0  0  0  0  0  # atno 8008 bound_to 7997
  155.9754  140.1164  157.0798 H   0  0  0  0  0  0  0  0  0  0  0  0  # atno 8009 bound_to 7997
  154.4177  140.1149  156.5349 H   0  0  0  0  0  0  0  0  0  0  0  0  # atno 8010 bound_to 7997
  140.5647  143.2314  151.6659 H   0  0  0  0  0  0  0  0  0  0  0  0  # atno 10167 bound_to 10162
  157.4697  131.1079  150.9817 H   0  0  0  0  0  0  0  0  0  0  0  0  # atno 10718 bound_to 10713
  153.0288  135.5210  154.7291 H   0  0  0  0  0  0  0  0  0  0  0  0  # atno 10763 bound_to 10752
  154.6324  135.2902  155.0203 H   0  0  0  0  0  0  0  0  0  0  0  0  # atno 10764 bound_to 10752
  154.1150  135.6616  153.4944 H   0  0  0  0  0  0  0  0  0  0  0  0  # atno 10765 bound_to 10752
  139.9859  134.6668  156.0177 H   0  0  0  0  0  0  0  0  0  0  0  0  # atno 11005 bound_to 11000
  146.3296  139.8478  142.8878 LP  0  0  0  0  0  0  0  0  0  0  0  0  # atno 17320 bound_to 7965
  145.2948  141.0177  143.3642 LP  0  0  0  0  0  0  0  0  0  0  0  0  # atno 17321 bound_to 7965
  139.5087  144.3602  152.0569 LP  0  0  0  0  0  0  0  0  0  0  0  0  # atno 17342 bound_to 10162
  140.2733  144.3940  150.6144 LP  0  0  0  0  0  0  0  0  0  0  0  0  # atno 17343 bound_to 10162
  157.0587  130.5816  149.5382 LP  0  0  0  0  0  0  0  0  0  0  0  0  # atno 17370 bound_to 10713
  156.0067  130.5155  150.7855 LP  0  0  0  0  0  0  0  0  0  0  0  0  # atno 17371 bound_to 10713
  141.1524  133.6547  156.4055 LP  0  0  0  0  0  0  0  0  0  0  0  0  # atno 17394 bound_to 11000
  140.5003  134.6492  157.5246 LP  0  0  0  0  0  0  0  0  0  0  0  0  # atno 17395 bound_to 11000

$$$$
