AV-unprocessed.smi:1302|AV-procd|sdf|5426|dock1
  -GOLD-   22720 4583D 1   1.00000     0.00000
 Structure written by MMmdl.
 43 44  0  0  0  0  0  0  0  0  1 V2000
  155.0028  134.2361  161.7628 C   0  0  0  0  0  0  0  0  0  0  0  0
  155.1419  135.4276  162.7206 C   0  0  0  0  0  0  0  0  0  0  0  0
  154.3468  135.2158  164.0157 C   0  0  0  0  0  0  0  0  0  0  0  0
  154.6825  136.6457  162.0590 N   0  0  0  0  0  0  0  0  0  0  0  0
  155.4448  137.7043  161.7373 C   0  0  0  0  0  0  0  0  0  0  0  0
  156.6442  137.7920  162.0004 O   0  0  0  0  0  0  0  0  0  0  0  0
  154.7215  138.8399  161.0744 C   0  0  0  0  0  0  0  0  0  0  0  0
  155.2727  140.1393  161.0711 C   0  0  0  0  0  0  0  0  0  0  0  0
  154.5764  141.1764  160.4210 C   0  0  0  0  0  0  0  0  0  0  0  0
  153.3562  140.8778  159.7807 C   0  0  0  0  0  0  0  0  0  0  0  0
  152.6575  141.9080  159.1364 N   0  0  0  0  0  0  0  0  0  0  0  0
  152.6020  143.1359  159.9162 C   0  0  0  0  0  0  0  0  0  0  0  0
  151.9833  144.2684  159.0765 C   0  0  2  0  0  0  0  0  0  0  0  0
  151.7892  145.5471  159.8977 C   0  0  0  0  0  0  0  0  0  0  0  0
  150.7050  143.8589  158.5881 O   0  0  0  0  0  0  0  0  0  0  0  0
  150.7119  142.6542  157.8172 C   0  0  1  0  0  0  0  0  0  0  0  0
  151.3559  142.8536  156.4333 C   0  0  0  0  0  0  0  0  0  0  0  0
  151.3480  141.5118  158.6334 C   0  0  0  0  0  0  0  0  0  0  0  0
  152.8252  139.6320  159.7683 N   0  0  0  0  0  0  0  0  0  0  0  0
  153.4960  138.6435  160.3973 C   0  0  0  0  0  0  0  0  0  0  0  0
  155.3482  133.3145  162.2321 H   0  0  0  0  0  0  0  0  0  0  0  0
  155.5945  134.3870  160.8593 H   0  0  0  0  0  0  0  0  0  0  0  0
  153.9653  134.0874  161.4612 H   0  0  0  0  0  0  0  0  0  0  0  0
  156.1945  135.5208  162.9925 H   0  0  0  0  0  0  0  0  0  0  0  0
  154.6773  134.3157  164.5346 H   0  0  0  0  0  0  0  0  0  0  0  0
  153.2797  135.1122  163.8158 H   0  0  0  0  0  0  0  0  0  0  0  0
  154.4790  136.0557  164.6988 H   0  0  0  0  0  0  0  0  0  0  0  0
  153.7018  136.6857  161.8220 H   0  0  0  0  0  0  0  0  0  0  0  0
  156.2117  140.3468  161.5634 H   0  0  0  0  0  0  0  0  0  0  0  0
  154.9745  142.1807  160.4131 H   0  0  0  0  0  0  0  0  0  0  0  0
  152.0085  142.9692  160.8167 H   0  0  0  0  0  0  0  0  0  0  0  0
  153.6065  143.4134  160.2382 H   0  0  0  0  0  0  0  0  0  0  0  0
  152.6386  144.5016  158.2367 H   0  0  0  0  0  0  0  0  0  0  0  0
  152.7392  145.9096  160.2914 H   0  0  0  0  0  0  0  0  0  0  0  0
  151.1205  145.3759  160.7418 H   0  0  0  0  0  0  0  0  0  0  0  0
  151.3582  146.3407  159.2870 H   0  0  0  0  0  0  0  0  0  0  0  0
  149.6667  142.3967  157.6441 H   0  0  0  0  0  0  0  0  0  0  0  0
  151.2388  141.9593  155.8210 H   0  0  0  0  0  0  0  0  0  0  0  0
  152.4237  143.0616  156.4988 H   0  0  0  0  0  0  0  0  0  0  0  0
  150.8855  143.6806  155.9014 H   0  0  0  0  0  0  0  0  0  0  0  0
  151.4365  140.6112  158.0244 H   0  0  0  0  0  0  0  0  0  0  0  0
  150.6989  141.2648  159.4747 H   0  0  0  0  0  0  0  0  0  0  0  0
  153.0355  137.6675  160.3492 H   0  0  0  0  0  0  0  0  0  0  0  0
  1  2  1  0  0  0  0
  1 21  1  0  0  0  0
  1 22  1  0  0  0  0
  1 23  1  0  0  0  0
  2  3  1  0  0  0  0
  2  4  1  0  0  0  0
  2 24  1  0  0  0  0
  3 25  1  0  0  0  0
  3 26  1  0  0  0  0
  3 27  1  0  0  0  0
  4  5  1  0  0  0  0
  4 28  1  0  0  0  0
  5  6  2  0  0  0  0
  5  7  1  0  0  0  0
  7 20  1  0  0  0  0
  7  8  2  0  0  0  0
  8  9  1  0  0  0  0
  8 29  1  0  0  0  0
  9 10  2  0  0  0  0
  9 30  1  0  0  0  0
 10 11  1  0  0  0  0
 10 19  1  0  0  0  0
 11 18  1  0  0  0  0
 11 12  1  0  0  0  0
 12 13  1  0  0  0  0
 12 31  1  0  0  0  0
 12 32  1  0  0  0  0
 13 14  1  0  0  0  0
 13 15  1  0  0  0  0
 13 33  1  0  0  0  0
 14 34  1  0  0  0  0
 14 35  1  0  0  0  0
 14 36  1  0  0  0  0
 15 16  1  0  0  0  0
 16 17  1  0  0  0  0
 16 18  1  0  0  0  0
 16 37  1  0  0  0  0
 17 38  1  0  0  0  0
 17 39  1  0  0  0  0
 17 40  1  0  0  0  0
 18 41  1  0  0  0  0
 18 42  1  0  0  0  0
 19 20  2  0  0  0  0
 20 43  1  0  0  0  0
M  END
> <s_m_source_file>
AV-unprocessed.smi

> <i_m_source_file_index>
1302

> <i_lp_mmshare_version>
43012

> <i_f3d_flags>
0

> <s_epik_input>
W0NIM11bQ0hdKFtDSDNdKVtOSF1DKD1PKWMxW2NIXVtjSF1jKG5bY0hdMSlOMltDSDJdW0NAQEhdKFtDSDNdKU9bQ0BASF0oW0NIM10pW0NIMl0y

> <s_epik_cmdline>
J2VwaWtfcHl0aG9uJywgJy1waCcsICc3LjAnLCAnLXRuJywgJzgnLCAnLW1hJywgJzIwMCcsICctbWV0YWxfYmluZGluZycsICctaW1hZScsICc8aW5maWxlLm1hZT4nLCAnLW9tYWUnLCAnPG91dGZpbGUubWFlPic=

> <r_lp_tautomer_probability>
1

> <r_epik_Ionization_Penalty>
2.23089e-05

> <r_epik_Ionization_Penalty_Charging>
0

> <r_epik_Ionization_Penalty_Neutral>
2.23089e-05

> <r_epik_State_Penalty>
-0

> <r_epik_Charging_Adjusted_Penalty>
0

> <i_epik_Tot_Q>
0

> <i_epik_Tot_abs_Q>
0

> <r_epik_Metal_State_Penalty>
-0

> <b_epik_Metal_Only>
0

> <s_lp_Force_Field>
OPLS_2005

> <r_lp_Energy>
23.1748

> <b_lp_Chiralities_Consistent>
1

> <s_lp_Variant>
AV-unprocessed.smi:1302-2

> <Gold.Version>
5.8.1

> <Gold.Id.Protein>
6NUR|6NUR_protein|mol2

> <Gold.PLP.Fitness>
34.3564

> <Gold.PLP.PLP>
-35.1048

> <Gold.PLP.part.hbond>
0.0000

> <Gold.PLP.part.metal>
0.0000

> <Gold.PLP.part.buried>
-4.8635

> <Gold.PLP.part.nonpolar>
-30.4611

> <Gold.PLP.part.repulsive>
0.1658

> <Gold.PLP.ligand.clash>
0.0000

> <Gold.PLP.ligand.torsion>
0.4327

> <Gold.PLP.Chemscore.Hbond>
0.0000

> <Gold.PLP.Chemscore.CHOScore>
0.0000

> <Gold.PLP.Chemscore.Metal>
0.0000

> <Gold.PLP.Chemscore.Internal.Correction>
0.1169

> <Gold.Rescore>
     Score         DG    S(hbond)    S(metal)    S(lipo)     H(rot)  DE(clash)    DE(int)     intcor
     14.88     -15.59       0.00        0.00     111.62       1.15       0.35       0.37       ----

> <Gold.Chemscore.Fitness>
14.8784

> <Gold.Chemscore.DG>
-15.5930

> <Gold.Chemscore.ZeroCoef>
-5.4800

> <Gold.Chemscore.Hbond>
0.0000

> <Gold.Chemscore.Metal>
0.0000

> <Gold.Chemscore.Lipo>
111.6163

> <Gold.Chemscore.Internal_Hbond>
0.0000

> <Gold.Chemscore.DEClash>
0.3455

> <Gold.Chemscore.DEInternal>
0.3691

> <Gold.Chemscore.Rot>
1.1508

> <Gold.Chemscore.Internal.Correction>
   9.000000E+99

> <Gold.Chemscore.Hbond.Weighted>
-0.0000

> <Gold.Chemscore.Metal.Weighted>
-0.0000

> <Gold.Chemscore.Lipo.Weighted>
-13.0591

> <Gold.Chemscore.Internal_Hbond.Weighted>
0.0000

> <Gold.Chemscore.DEClash.Weighted>
0.3455

> <Gold.Chemscore.DEInternal.Weighted>
0.3691

> <Gold.Chemscore.Rot.Weighted>
2.9461

> <Gold.Chemscore.Internal.Correction.Weighted>
   9.000000E+99

> <Gold.Protein.RotatedTorsions>
[ 6907 6896 6895 6894 ] final  -12.26 input  -60.11 | X-H torsion
[ 7974 7965 7964 7962 ] final  -71.14 input  175.53 | X-H torsion
[ 8008 7997 7996 7995 ] final -126.15 input   59.86 | X-H torsion
[ 10167 10162 10161 10158 ] final  174.65 input  -65.29 | X-H torsion
[ 10718 10713 10712 10709 ] final  -18.78 input   66.30 | X-H torsion
[ 10763 10752 10751 10750 ] final   74.64 input  -60.55 | X-H torsion
[ 11005 11000 10999 10996 ] final -117.09 input  -57.11 | X-H torsion

> <Gold.Protein.ActiveResidues>
 VAL166  LYS551  ARG553  GLY616  TRP617  ASP618  TYR619  PRO620  LYS621  CYS622 
 ASP623  PHE694  ASN695  SER759  ASP760  ASP761  ALA762  ILE779  LEU786  VAL792 
 PHE793  MET794  SER795  GLU796  ALA797  LYS798  CYS799  TRP800  GLU811  SER814 

> <Gold.Protein.RotatedAtoms>
  151.3732  135.0926  159.9472 H   0  0  0  0  0  0  0  0  0  0  0  0  # atno 6907 bound_to 6896
  152.5129  133.9144  159.7514 H   0  0  0  0  0  0  0  0  0  0  0  0  # atno 6908 bound_to 6896
  150.9562  133.6440  159.2792 H   0  0  0  0  0  0  0  0  0  0  0  0  # atno 6909 bound_to 6896
  145.6819  140.9185  143.0828 H   0  0  0  0  0  0  0  0  0  0  0  0  # atno 7974 bound_to 7965
  155.2249  140.0423  157.2954 H   0  0  0  0  0  0  0  0  0  0  0  0  # atno 8008 bound_to 7997
  154.5926  140.2430  155.7871 H   0  0  0  0  0  0  0  0  0  0  0  0  # atno 8009 bound_to 7997
  156.2269  140.2951  156.0098 H   0  0  0  0  0  0  0  0  0  0  0  0  # atno 8010 bound_to 7997
  139.5149  144.3122  152.0281 H   0  0  0  0  0  0  0  0  0  0  0  0  # atno 10167 bound_to 10162
  156.5548  130.4710  149.6435 H   0  0  0  0  0  0  0  0  0  0  0  0  # atno 10718 bound_to 10713
  153.0601  135.5018  154.8073 H   0  0  0  0  0  0  0  0  0  0  0  0  # atno 10763 bound_to 10752
  154.6869  135.2977  154.9538 H   0  0  0  0  0  0  0  0  0  0  0  0  # atno 10764 bound_to 10752
  154.0305  135.6730  153.4833 H   0  0  0  0  0  0  0  0  0  0  0  0  # atno 10765 bound_to 10752
  141.0378  133.9882  157.3043 H   0  0  0  0  0  0  0  0  0  0  0  0  # atno 11005 bound_to 11000
  144.7023  139.8707  143.7440 LP  0  0  0  0  0  0  0  0  0  0  0  0  # atno 17320 bound_to 7965
  146.0957  139.3949  143.0378 LP  0  0  0  0  0  0  0  0  0  0  0  0  # atno 17321 bound_to 7965
  140.2566  144.4112  150.6201 LP  0  0  0  0  0  0  0  0  0  0  0  0  # atno 17342 bound_to 10162
  140.6187  143.2174  151.6739 LP  0  0  0  0  0  0  0  0  0  0  0  0  # atno 17343 bound_to 10162
  156.2852  130.7093  151.1928 LP  0  0  0  0  0  0  0  0  0  0  0  0  # atno 17370 bound_to 10713
  157.7380  131.0545  150.5319 LP  0  0  0  0  0  0  0  0  0  0  0  0  # atno 17371 bound_to 10713
  139.9253  135.0201  156.8213 LP  0  0  0  0  0  0  0  0  0  0  0  0  # atno 17394 bound_to 11000
  140.6290  133.9923  155.7653 LP  0  0  0  0  0  0  0  0  0  0  0  0  # atno 17395 bound_to 11000

$$$$
