#       Name:                AV-unprocessed.smi:283
#       Creating user name   scv26
#       Creation time:       Thu Mar 26 21:45:58 2020


#       File generated by GOLD software.
#

@<TRIPOS>MOLECULE
AV-unprocessed.smi:283
    59    62     1
SMALL
NO_CHARGES


@<TRIPOS>ATOM
      1 ****        -4.9444   1.2490  -1.2488 C.3            1 S1                 0.0000
      2 ****        -3.7936   1.4196  -0.2484 C.3            1 S1                 0.0000
      3 ****        -2.5800   0.7964  -0.7741 N.pl3          1 S1                 0.0000
      4 ****        -1.3921   0.9522  -0.1476 C.ar           1 S1                 0.0000
      5 ****        -1.2247   1.8921   0.8194 N.ar           1 S1                 0.0000
      6 ****        -0.0401   2.0275   1.4223 C.ar           1 S1                 0.0000
      7 ****         1.0858   1.3410   1.2134 N.ar           1 S1                 0.0000
      8 ****         0.9229   0.3972   0.2410 C.ar           1 S1                 0.0000
      9 ****        -0.2746   0.1455  -0.4838 C.ar           1 S1                 0.0000
     10 ****        -0.0643  -0.8791  -1.3959 N.2            1 S1                 0.0000
     11 ****         1.1879  -1.2058  -1.2201 C.2            1 S1                 0.0000
     12 ****         1.8556  -0.4972  -0.2401 N.pl3          1 S1                 0.0000
     13 ****         3.2873  -0.5790   0.2099 C.3            1 S1                 0.0000
     14 ****         4.0502   0.2113  -0.6431 O.3            1 S1                 0.0000
     15 ****         4.4573  -0.5624  -1.7627 C.3            1 S1                 0.0000
     16 ****         5.6921   0.0764  -2.4165 C.3            1 S1                 0.0000
     17 ****         5.2994   1.1236  -3.2776 O.3            1 S1                 0.0000
     18 ****         4.7382  -1.9426  -1.1457 C.3            1 S1                 0.0000
     19 ****         4.3907  -2.9601  -2.0644 O.3            1 S1                 0.0000
     20 ****         3.8448  -2.0075   0.0981 C.3            1 S1                 0.0000
     21 ****         4.6038  -2.3474   1.2405 O.3            1 S1                 0.0000
     22 ****        -4.2092   0.9185   1.1368 C.ar           1 S1                 0.0000
     23 ****        -4.0736  -0.4527   1.4563 C.ar           1 S1                 0.0000
     24 ****        -4.4494  -0.9355   2.7238 C.ar           1 S1                 0.0000
     25 ****        -4.9717  -0.0520   3.6853 C.ar           1 S1                 0.0000
     26 ****        -5.1214   1.3122   3.3750 C.ar           1 S1                 0.0000
     27 ****        -4.7469   1.8012   2.1072 C.ar           1 S1                 0.0000
     28 ****        -4.9651   3.4846   1.7782 Cl             1 S1                 0.0000
     29 ****         3.2818  -0.1856   1.2271 H              1 S1                 0.0000
     30 ****         3.6333  -0.6256  -2.4758 H              1 S1                 0.0000
     31 ****         5.7914  -2.0340  -0.8742 H              1 S1                 0.0000
     32 ****         3.0333  -2.7309   0.0096 H              1 S1                 0.0000
     33 ****        -5.8365   1.7783  -0.9126 H              1 S1                 0.0000
     34 ****        -5.2089   0.1987  -1.3762 H              1 S1                 0.0000
     35 ****        -4.6763   1.6472  -2.2278 H              1 S1                 0.0000
     36 ****        -3.5788   2.4859  -0.1877 H              1 S1                 0.0000
     37 ****        -2.7194   0.1286  -1.5187 H              1 S1                 0.0000
     38 ****         0.0131   2.7953   2.1801 H              1 S1                 0.0000
     39 ****         1.6529  -1.9803  -1.8110 H              1 S1                 0.0000
     40 ****         6.3942   0.4429  -1.6671 H              1 S1                 0.0000
     41 ****         6.2195  -0.6621  -3.0208 H              1 S1                 0.0000
     42 ****         4.7230   0.7707  -3.9380 H              1 S1                 0.0000
     43 ****         3.4810  -2.8595  -2.2977 H              1 S1                 0.0000
     44 ****         4.0338  -2.3363   1.9942 H              1 S1                 0.0000
     45 ****        -3.6779  -1.1450   0.7277 H              1 S1                 0.0000
     46 ****        -4.3381  -1.9841   2.9573 H              1 S1                 0.0000
     47 ****        -5.2608  -0.4204   4.6585 H              1 S1                 0.0000
     48 ****        -5.5276   1.9869   4.1141 H              1 S1                 0.0000
     49 ****        -1.9884   2.4827   1.0799 LP             1 S1                 0.0000
     50 ****         1.9410   1.4986   1.7073 LP             1 S1                 0.0000
     51 ****        -0.7197  -1.2754  -2.0388 LP             1 S1                 0.0000
     52 ****         4.8576   0.5449  -0.1564 LP             1 S1                 0.0000
     53 ****         3.5044   0.9889  -0.9553 LP             1 S1                 0.0000
     54 ****         6.1065   1.5224  -3.7130 LP             1 S1                 0.0000
     55 ****         4.8206   1.8285  -2.7543 LP             1 S1                 0.0000
     56 ****         4.5332  -3.8561  -1.6439 LP             1 S1                 0.0000
     57 ****         4.9589  -2.8821  -2.8836 LP             1 S1                 0.0000
     58 ****         5.3409  -1.6832   1.3654 LP             1 S1                 0.0000
     59 ****         4.9942  -3.2609   1.1264 LP             1 S1                 0.0000
@<TRIPOS>BOND
    1    1    2 1     
    2    1   33 1     
    3    1   34 1     
    4    1   35 1     
    5    2    3 1     
    6    2   22 1     
    7    2   36 1     
    8    3    4 1     
    9    3   37 1     
   10    4    9 ar    
   11    4    5 ar    
   12    5    6 ar    
   13    6    7 ar    
   14    6   38 1     
   15    7    8 ar    
   16    8   12 1     
   17    8    9 ar    
   18    9   10 1     
   19   10   11 2     
   20   11   12 1     
   21   11   39 1     
   22   12   13 1     
   23   13   29 1     
   24   13   20 1     
   25   13   14 1     
   26   14   15 1     
   27   15   30 1     
   28   15   16 1     
   29   15   18 1     
   30   16   17 1     
   31   16   40 1     
   32   16   41 1     
   33   17   42 1     
   34   18   31 1     
   35   18   19 1     
   36   18   20 1     
   37   19   43 1     
   38   20   32 1     
   39   20   21 1     
   40   21   44 1     
   41   22   27 ar    
   42   22   23 ar    
   43   23   24 ar    
   44   23   45 1     
   45   24   25 ar    
   46   24   46 1     
   47   25   26 ar    
   48   25   47 1     
   49   26   27 ar    
   50   26   48 1     
   51   27   28 1     
   52    5   49 1     
   53    7   50 1     
   54   10   51 1     
   55   14   52 1     
   56   14   53 1     
   57   17   54 1     
   58   17   55 1     
   59   19   56 1     
   60   19   57 1     
   61   21   58 1     
   62   21   59 1     
@<TRIPOS>SUBSTRUCTURE
      1 S1             1
@<TRIPOS>SET
LONE_PAIRS      STATIC     ATOMS    <user>   **** ""
11 49 50 51 52 53 54 55 56 57 58 59
DONOR_HYDROGENS      STATIC     ATOMS    <user>   **** ""
4 37 42 43 44
ATOM$BLUE        STATIC     ATOMS    COLORGROUP SYSTEM
11 49 50 51 52 53 54 55 56 57 58 59
ATOM$RED        STATIC     ATOMS    COLORGROUP SYSTEM
4 37 42 43 44
