AV-unprocessed.smi:439|AV-procd|sdf|2579|dock2
  -GOLD-   2262022563D 1   1.00000     0.00000
 Structure written by MMmdl.
 46 47  0  0  0  0  0  0  0  0  1 V2000
  151.8719  143.7422  157.7138 C   0  0  0  0  0  0  0  0  0  0  0  0
  150.9549  142.5145  157.6324 C   0  0  0  0  0  0  0  0  0  0  0  0
  150.8150  141.9416  156.2133 C   0  0  0  0  0  0  0  0  0  0  0  0
  149.4553  141.2665  155.9569 C   0  0  0  0  0  0  0  0  0  0  0  0
  149.5128  139.8261  156.1084 N   0  0  0  0  0  0  0  0  0  0  0  0
  148.8163  139.1244  157.0973 C   0  0  0  0  0  0  0  0  0  0  0  0
  148.0353  139.8540  157.9797 N   0  0  0  0  0  0  0  0  0  0  0  0
  148.8795  137.7621  157.1927 C   0  0  0  0  0  0  0  0  0  0  0  0
  148.1973  137.0507  158.2051 N   0  0  0  0  0  0  0  0  0  0  0  0
  146.7266  137.1574  158.1811 C   0  0  0  0  0  0  0  0  0  0  0  0
  146.0779  136.4578  156.9724 C   0  0  0  0  0  0  0  0  0  0  0  0
  148.8232  136.4643  159.2699 C   0  0  0  0  0  0  0  0  0  0  0  0
  150.0328  136.2264  159.2439 O   0  0  0  0  0  0  0  0  0  0  0  0
  147.9984  136.1644  160.4452 C   0  0  0  0  0  0  0  0  0  0  0  0
  147.6181  134.8842  160.6627 C   0  0  0  0  0  0  0  0  0  0  0  0
  146.8948  134.4756  161.7551 O   0  0  0  0  0  0  0  0  0  0  0  0
  146.7793  135.4450  162.7896 C   0  0  0  0  0  0  0  0  0  0  0  0
  146.5565  136.8415  162.1934 C   0  0  0  0  0  0  0  0  0  0  0  0
  147.6228  137.1673  161.3108 O   0  0  0  0  0  0  0  0  0  0  0  0
  149.7315  136.9914  156.2737 C   0  0  0  0  0  0  0  0  0  0  0  0
  149.8800  135.7701  156.2839 O   0  0  0  0  0  0  0  0  0  0  0  0
  150.4191  137.7519  155.3322 N   0  0  0  0  0  0  0  0  0  0  0  0
  150.3578  139.1348  155.2080 C   0  0  0  0  0  0  0  0  0  0  0  0
  151.0309  139.6925  154.3406 O   0  0  0  0  0  0  0  0  0  0  0  0
  151.0204  137.2571  154.6894 H   0  0  0  0  0  0  0  0  0  0  0  0
  151.8883  144.1447  158.7269 H   0  0  0  0  0  0  0  0  0  0  0  0
  151.5295  144.5344  157.0478 H   0  0  0  0  0  0  0  0  0  0  0  0
  152.8987  143.4959  157.4444 H   0  0  0  0  0  0  0  0  0  0  0  0
  151.3142  141.7395  158.3103 H   0  0  0  0  0  0  0  0  0  0  0  0
  149.9656  142.7973  157.9936 H   0  0  0  0  0  0  0  0  0  0  0  0
  150.9497  142.7536  155.4978 H   0  0  0  0  0  0  0  0  0  0  0  0
  151.6240  141.2355  156.0231 H   0  0  0  0  0  0  0  0  0  0  0  0
  148.6878  141.6217  156.6429 H   0  0  0  0  0  0  0  0  0  0  0  0
  149.0657  141.4922  154.9628 H   0  0  0  0  0  0  0  0  0  0  0  0
  147.9644  140.8598  157.9195 H   0  0  0  0  0  0  0  0  0  0  0  0
  147.5181  139.4117  158.7258 H   0  0  0  0  0  0  0  0  0  0  0  0
  146.3173  136.7488  159.1065 H   0  0  0  0  0  0  0  0  0  0  0  0
  146.4297  138.2076  158.1751 H   0  0  0  0  0  0  0  0  0  0  0  0
  144.9966  136.5948  156.9900 H   0  0  0  0  0  0  0  0  0  0  0  0
  146.2672  135.3845  156.9709 H   0  0  0  0  0  0  0  0  0  0  0  0
  146.4403  136.8602  156.0278 H   0  0  0  0  0  0  0  0  0  0  0  0
  147.8701  134.0511  160.0220 H   0  0  0  0  0  0  0  0  0  0  0  0
  145.9509  135.1721  163.4434 H   0  0  0  0  0  0  0  0  0  0  0  0
  147.6860  135.4311  163.3957 H   0  0  0  0  0  0  0  0  0  0  0  0
  145.6125  136.8815  161.6478 H   0  0  0  0  0  0  0  0  0  0  0  0
  146.5044  137.5916  162.9826 H   0  0  0  0  0  0  0  0  0  0  0  0
  1  2  1  0  0  0  0
  1 26  1  0  0  0  0
  1 27  1  0  0  0  0
  1 28  1  0  0  0  0
  2  3  1  0  0  0  0
  2 29  1  0  0  0  0
  2 30  1  0  0  0  0
  3  4  1  0  0  0  0
  3 31  1  0  0  0  0
  3 32  1  0  0  0  0
  4  5  1  0  0  0  0
  4 33  1  0  0  0  0
  4 34  1  0  0  0  0
  5 23  1  0  0  0  0
  5  6  1  0  0  0  0
  6  7  1  0  0  0  0
  6  8  2  0  0  0  0
  7 35  1  0  0  0  0
  7 36  1  0  0  0  0
  8  9  1  0  0  0  0
  8 20  1  0  0  0  0
  9 10  1  0  0  0  0
  9 12  1  0  0  0  0
 10 11  1  0  0  0  0
 10 37  1  0  0  0  0
 10 38  1  0  0  0  0
 11 39  1  0  0  0  0
 11 40  1  0  0  0  0
 11 41  1  0  0  0  0
 12 13  2  0  0  0  0
 12 14  1  0  0  0  0
 14 19  1  0  0  0  0
 14 15  2  0  0  0  0
 15 16  1  0  0  0  0
 15 42  1  0  0  0  0
 16 17  1  0  0  0  0
 17 18  1  0  0  0  0
 17 43  1  0  0  0  0
 17 44  1  0  0  0  0
 18 19  1  0  0  0  0
 18 45  1  0  0  0  0
 18 46  1  0  0  0  0
 20 21  2  0  0  0  0
 20 22  1  0  0  0  0
 22 25  1  0  0  0  0
 22 23  1  0  0  0  0
 23 24  2  0  0  0  0
M  END
> <s_m_source_file>
AV-unprocessed.smi

> <i_m_source_file_index>
439

> <i_lp_mmshare_version>
43012

> <i_f3d_flags>
0

> <s_epik_input>
W0NIM11bQ0gyXVtDSDJdW0NIMl1uMWMoW05IMl0pYyhjKD1PKVtuSF1jMT1PKU4oW0NIMl1bQ0gzXSlDKD1PKUMyPVtDSF1PW0NIMl1bQ0gyXU8y

> <s_epik_cmdline>
J2VwaWtfcHl0aG9uJywgJy1waCcsICc3LjAnLCAnLXRuJywgJzgnLCAnLW1hJywgJzIwMCcsICctbWV0YWxfYmluZGluZycsICctaW1hZScsICc8aW5maWxlLm1hZT4nLCAnLW9tYWUnLCAnPG91dGZpbGUubWFlPic=

> <r_lp_tautomer_probability>
1

> <r_epik_Ionization_Penalty>
3.16361e-05

> <r_epik_Ionization_Penalty_Charging>
2.29435e-05

> <r_epik_Ionization_Penalty_Neutral>
8.69256e-06

> <r_epik_State_Penalty>
-0

> <r_epik_Charging_Adjusted_Penalty>
2.29435e-05

> <i_epik_Tot_Q>
0

> <i_epik_Tot_abs_Q>
0

> <r_epik_Metal_State_Penalty>
0.0222995

> <b_epik_Metal_Only>
0

> <s_epik_Chemistry_Notes>
This compound has an imine and may undergo hydrolysis.

> <s_lp_Force_Field>
OPLS_2005

> <r_lp_Energy>
28.4658

> <b_lp_Chiralities_Consistent>
1

> <s_lp_Variant>
AV-unprocessed.smi:439-1

> <Gold.Version>
5.8.1

> <Gold.Id.Protein>
6NUR|6NUR_protein|mol2

> <Gold.PLP.Fitness>
40.9851

> <Gold.PLP.PLP>
-32.1497

> <Gold.PLP.part.hbond>
-4.0000

> <Gold.PLP.part.metal>
0.0000

> <Gold.PLP.part.buried>
-5.6333

> <Gold.PLP.part.nonpolar>
-24.1109

> <Gold.PLP.part.repulsive>
0.6021

> <Gold.PLP.ligand.clash>
0.0000

> <Gold.PLP.ligand.torsion>
3.2739

> <Gold.PLP.Chemscore.Hbond>
3.8400

> <Gold.PLP.Chemscore.CHOScore>
0.0000

> <Gold.PLP.Chemscore.Metal>
0.0000

> <Gold.Chemscore.Hbonds>
donor molecule, donor type, donor heavy atom, donor atom, acceptor molecule, acceptor atom, score
      P1  H  6896  6908       L1    13  1.00
      P1  H  6931  6943       L1    19  0.96
      P1  H  6934  6947       L1    19  0.86
      P1  H  7989  7998       L1    24  1.00

> <Gold.PLP.Chemscore.Internal.Correction>
3.8632

> <Gold.Rescore>
     Score         DG    S(hbond)    S(metal)    S(lipo)     H(rot)  DE(clash)    DE(int)     intcor
     13.34     -17.99       2.77        0.00      64.06       1.66       0.00       4.65       ----

> <Gold.Chemscore.Fitness>
13.3362

> <Gold.Chemscore.DG>
-17.9855

> <Gold.Chemscore.ZeroCoef>
-5.4800

> <Gold.Chemscore.Hbond>
2.7695

> <Gold.Chemscore.Metal>
0.0000

> <Gold.Chemscore.Lipo>
64.0610

> <Gold.Chemscore.Internal_Hbond>
0.0000

> <Gold.Chemscore.DEClash>
0.0033

> <Gold.Chemscore.DEInternal>
4.6459

> <Gold.Chemscore.Rot>
1.6562

> <Gold.Chemscore.Internal.Correction>
   9.000000E+99

> <Gold.Chemscore.Hbonds>
donor molecule, donor type, donor heavy atom, donor atom, acceptor molecule, acceptor atom, score
      P1  H  6896  6908       L1    13  0.97
      P1  H  6931  6943       L1    19  0.82
      P1  H  6934  6947       L1    19  0.22
      P1  H  7989  7998       L1    24  0.96

> <Gold.Chemscore.Hbond.Weighted>
-9.2501

> <Gold.Chemscore.Metal.Weighted>
-0.0000

> <Gold.Chemscore.Lipo.Weighted>
-7.4951

> <Gold.Chemscore.Internal_Hbond.Weighted>
0.0000

> <Gold.Chemscore.DEClash.Weighted>
0.0033

> <Gold.Chemscore.DEInternal.Weighted>
4.6459

> <Gold.Chemscore.Rot.Weighted>
4.2398

> <Gold.Chemscore.Internal.Correction.Weighted>
   9.000000E+99

> <Gold.Protein.RotatedTorsions>
[ 6907 6896 6895 6894 ] final  179.08 input  -60.11 | X-H torsion
[ 7974 7965 7964 7962 ] final -170.73 input  175.53 | X-H torsion
[ 8008 7997 7996 7995 ] final   30.88 input   59.86 | X-H torsion
[ 10167 10162 10161 10158 ] final   78.19 input  -65.29 | X-H torsion
[ 10718 10713 10712 10709 ] final  -68.78 input   66.30 | X-H torsion
[ 10763 10752 10751 10750 ] final   92.88 input  -60.55 | X-H torsion
[ 11005 11000 10999 10996 ] final  -22.94 input  -57.11 | X-H torsion

> <Gold.Protein.ActiveResidues>
 VAL166  LYS551  ARG553  GLY616  TRP617  ASP618  TYR619  PRO620  LYS621  CYS622 
 ASP623  PHE694  ASN695  SER759  ASP760  ASP761  ALA762  ILE779  LEU786  VAL792 
 PHE793  MET794  SER795  GLU796  ALA797  LYS798  CYS799  TRP800  GLU811  SER814 

> <Gold.Protein.RotatedAtoms>
  151.6775  133.3312  159.3211 H   0  0  0  0  0  0  0  0  0  0  0  0  # atno 6907 bound_to 6896
  150.7838  134.6810  159.6453 H   0  0  0  0  0  0  0  0  0  0  0  0  # atno 6908 bound_to 6896
  152.3903  134.6455  160.0162 H   0  0  0  0  0  0  0  0  0  0  0  0  # atno 6909 bound_to 6896
  144.7166  140.2028  143.6336 H   0  0  0  0  0  0  0  0  0  0  0  0  # atno 7974 bound_to 7965
  155.0974  140.3226  155.4556 H   0  0  0  0  0  0  0  0  0  0  0  0  # atno 8008 bound_to 7997
  156.2726  140.2067  156.6047 H   0  0  0  0  0  0  0  0  0  0  0  0  # atno 8009 bound_to 7997
  154.6856  140.0522  157.0298 H   0  0  0  0  0  0  0  0  0  0  0  0  # atno 8010 bound_to 7997
  139.9735  144.5877  150.7964 H   0  0  0  0  0  0  0  0  0  0  0  0  # atno 10167 bound_to 10162
  156.0488  130.4301  150.2051 H   0  0  0  0  0  0  0  0  0  0  0  0  # atno 10718 bound_to 10713
  153.2241  135.4345  155.0522 H   0  0  0  0  0  0  0  0  0  0  0  0  # atno 10763 bound_to 10752
  154.8264  135.3363  154.6884 H   0  0  0  0  0  0  0  0  0  0  0  0  # atno 10764 bound_to 10752
  153.7315  135.7010  153.5044 H   0  0  0  0  0  0  0  0  0  0  0  0  # atno 10765 bound_to 10752
  140.8705  133.7724  156.0180 H   0  0  0  0  0  0  0  0  0  0  0  0  # atno 11005 bound_to 11000
  145.8664  139.2249  143.1686 LP  0  0  0  0  0  0  0  0  0  0  0  0  # atno 17320 bound_to 7965
  146.0126  140.8422  142.9963 LP  0  0  0  0  0  0  0  0  0  0  0  0  # atno 17321 bound_to 7965
  140.7513  143.2971  151.3176 LP  0  0  0  0  0  0  0  0  0  0  0  0  # atno 17342 bound_to 10162
  139.6463  144.0445  152.2593 LP  0  0  0  0  0  0  0  0  0  0  0  0  # atno 17343 bound_to 10162
  157.0137  130.9958  151.3359 LP  0  0  0  0  0  0  0  0  0  0  0  0  # atno 17370 bound_to 10713
  157.5392  130.8109  149.8009 LP  0  0  0  0  0  0  0  0  0  0  0  0  # atno 17371 bound_to 10713
  140.8579  134.2876  157.5247 LP  0  0  0  0  0  0  0  0  0  0  0  0  # atno 17394 bound_to 11000
  139.8712  134.9502  156.4050 LP  0  0  0  0  0  0  0  0  0  0  0  0  # atno 17395 bound_to 11000

$$$$
