AV-unprocessed.smi:2663|AV-procd|sdf|10324|dock5
  -GOLD-   2272014343D 1   1.00000     0.00000
 Structure written by MMmdl.
 38 39  0  0  0  0  0  0  0  0  2 V2000
  152.1698  137.2517  158.3796 C   0  0  0  0  0  0  0  0  0  0  0  0
  150.9559  138.1186  157.9551 C   0  0  1  0  0  0  0  0  0  0  0  0
  150.4360  137.6058  156.5799 C   0  0  0  0  0  0  0  0  0  0  0  0
  151.4310  137.6614  155.5767 O   0  0  0  0  0  0  0  0  0  0  0  0
  149.8805  138.0017  158.9529 N   0  0  0  0  0  0  0  0  0  0  0  0
  149.2378  136.9119  159.4050 C   0  0  0  0  0  0  0  0  0  0  0  0
  149.5193  135.7917  158.9750 O   0  0  0  0  0  0  0  0  0  0  0  0
  148.3020  137.1935  160.3398 N   0  5  0  0  0  0  0  0  0  0  0  0
  147.6995  136.1970  161.0094 C   0  0  0  0  0  0  0  0  0  0  0  0
  147.3710  135.0332  160.4258 N   0  0  0  0  0  0  0  0  0  0  0  0
  146.7554  134.1419  161.2944 N   0  0  0  0  0  0  0  0  0  0  0  0
  146.6269  134.6628  162.5145 C   0  0  0  0  0  0  0  0  0  0  0  0
  147.2415  136.2902  162.7121 S   0  0  0  0  0  0  0  0  0  0  0  0
  151.3698  139.6325  157.8909 C   0  0  0  0  0  0  0  0  0  0  0  0
  151.9199  140.1815  159.2363 C   0  0  0  0  0  0  0  0  0  0  0  0
  152.3660  141.6487  159.1311 C   0  0  0  0  0  0  0  0  0  0  0  0
  151.2249  142.5435  158.6326 C   0  0  0  0  0  0  0  0  0  0  0  0
  150.6848  142.0320  157.2918 C   0  0  0  0  0  0  0  0  0  0  0  0
  150.2331  140.5662  157.3936 C   0  0  0  0  0  0  0  0  0  0  0  0
  153.0505  137.4831  157.7801 H   0  0  0  0  0  0  0  0  0  0  0  0
  151.9754  136.1866  158.2546 H   0  0  0  0  0  0  0  0  0  0  0  0
  152.4338  137.3995  159.4264 H   0  0  0  0  0  0  0  0  0  0  0  0
  150.0996  136.5714  156.6467 H   0  0  0  0  0  0  0  0  0  0  0  0
  149.5704  138.1774  156.2453 H   0  0  0  0  0  0  0  0  0  0  0  0
  152.1970  137.2077  155.8935 H   0  0  0  0  0  0  0  0  0  0  0  0
  149.5833  138.8758  159.3610 H   0  0  0  0  0  0  0  0  0  0  0  0
  146.1647  134.0868  163.3020 H   0  0  0  0  0  0  0  0  0  0  0  0
  152.1844  139.7184  157.1704 H   0  0  0  0  0  0  0  0  0  0  0  0
  151.1631  140.0978  160.0173 H   0  0  0  0  0  0  0  0  0  0  0  0
  152.7743  139.5965  159.5731 H   0  0  0  0  0  0  0  0  0  0  0  0
  152.7146  142.0005  160.1025 H   0  0  0  0  0  0  0  0  0  0  0  0
  153.2157  141.7254  158.4514 H   0  0  0  0  0  0  0  0  0  0  0  0
  150.4215  142.5615  159.3702 H   0  0  0  0  0  0  0  0  0  0  0  0
  151.5743  143.5711  158.5277 H   0  0  0  0  0  0  0  0  0  0  0  0
  149.8511  142.6545  156.9660 H   0  0  0  0  0  0  0  0  0  0  0  0
  151.4567  142.1241  156.5267 H   0  0  0  0  0  0  0  0  0  0  0  0
  149.8820  140.2584  156.4099 H   0  0  0  0  0  0  0  0  0  0  0  0
  149.3731  140.5022  158.0613 H   0  0  0  0  0  0  0  0  0  0  0  0
  1  2  1  0  0  0  0
  1 20  1  0  0  0  0
  1 21  1  0  0  0  0
  1 22  1  0  0  0  0
  2  3  1  0  0  0  0
  2  5  1  0  0  0  0
  2 14  1  0  0  0  0
  3  4  1  0  0  0  0
  3 23  1  0  0  0  0
  3 24  1  0  0  0  0
  4 25  1  0  0  0  0
  5  6  1  0  0  0  0
  5 26  1  0  0  0  0
  6  7  2  0  0  0  0
  6  8  1  0  0  0  0
  8  9  1  0  0  0  0
  9 13  1  0  0  0  0
  9 10  2  0  0  0  0
 10 11  1  0  0  0  0
 11 12  2  0  0  0  0
 12 13  1  0  0  0  0
 12 27  1  0  0  0  0
 14 19  1  0  0  0  0
 14 15  1  0  0  0  0
 14 28  1  0  0  0  0
 15 16  1  0  0  0  0
 15 29  1  0  0  0  0
 15 30  1  0  0  0  0
 16 17  1  0  0  0  0
 16 31  1  0  0  0  0
 16 32  1  0  0  0  0
 17 18  1  0  0  0  0
 17 33  1  0  0  0  0
 17 34  1  0  0  0  0
 18 19  1  0  0  0  0
 18 35  1  0  0  0  0
 18 36  1  0  0  0  0
 19 37  1  0  0  0  0
 19 38  1  0  0  0  0
M  CHG  1   8  -1
M  END
> <s_m_source_file>
AV-unprocessed.smi

> <i_m_source_file_index>
2663

> <i_lp_mmshare_version>
43012

> <i_f3d_flags>
0

> <s_epik_input>
W0NIMl0xW0NIMl1bQ0gyXVtDSDJdW0NIMl1bQ0hdMVtDQF0oW0NIM10pKFtDSDJdW09IXSlbTkhdQyg9TylbTkhdYzJubltjSF1zMg==

> <s_epik_cmdline>
J2VwaWtfcHl0aG9uJywgJy1waCcsICc3LjAnLCAnLXRuJywgJzgnLCAnLW1hJywgJzIwMCcsICctbWV0YWxfYmluZGluZycsICctaW1hZScsICc8aW5maWxlLm1hZT4nLCAnLW9tYWUnLCAnPG91dGZpbGUubWFlPic=

> <r_lp_tautomer_probability>
1

> <r_epik_Ionization_Penalty>
4.39194

> <r_epik_Ionization_Penalty_Charging>
4.34423

> <r_epik_Ionization_Penalty_Neutral>
0.047714

> <r_epik_State_Penalty>
4.34384

> <r_epik_Charging_Adjusted_Penalty>
8.68806

> <i_epik_Tot_Q>
-1

> <i_epik_Tot_abs_Q>
1

> <r_epik_Metal_State_Penalty>
0.746645

> <b_epik_Metal_Only>
1

> <s_lp_Force_Field>
OPLS_2005

> <r_lp_Energy>
17.2717

> <b_lp_Chiralities_Consistent>
1

> <s_lp_Variant>
AV-unprocessed.smi:2663-3

> <Gold.Version>
5.8.1

> <Gold.Id.Protein>
6NUR|6NUR_protein|mol2

> <Gold.PLP.Fitness>
39.4524

> <Gold.PLP.PLP>
-31.0660

> <Gold.PLP.part.hbond>
-3.0000

> <Gold.PLP.part.metal>
0.0000

> <Gold.PLP.part.buried>
-5.7272

> <Gold.PLP.part.nonpolar>
-23.2048

> <Gold.PLP.part.repulsive>
0.2172

> <Gold.PLP.ligand.clash>
0.0000

> <Gold.PLP.ligand.torsion>
0.3136

> <Gold.PLP.Chemscore.Hbond>
2.9883

> <Gold.PLP.Chemscore.CHOScore>
0.0000

> <Gold.PLP.Chemscore.Metal>
0.0000

> <Gold.Chemscore.Hbonds>
donor molecule, donor type, donor heavy atom, donor atom, acceptor molecule, acceptor atom, score
      P1  H  6896  6907       L1     7  1.00
      P1  H  6931  6943       L1     8  1.38
      P1  H  6934  6947       L1     8  0.67

> <Gold.PLP.Chemscore.Internal.Correction>
0.0486

> <Gold.Rescore>
     Score         DG    S(hbond)    S(metal)    S(lipo)     H(rot)  DE(clash)    DE(int)     intcor
     11.30     -13.16       1.67        0.00      65.48       2.18       0.01       1.84       ----

> <Gold.Chemscore.Fitness>
11.3002

> <Gold.Chemscore.DG>
-13.1558

> <Gold.Chemscore.ZeroCoef>
-5.4800

> <Gold.Chemscore.Hbond>
1.6740

> <Gold.Chemscore.Metal>
0.0000

> <Gold.Chemscore.Lipo>
65.4802

> <Gold.Chemscore.Internal_Hbond>
0.0000

> <Gold.Chemscore.DEClash>
0.0128

> <Gold.Chemscore.DEInternal>
1.8429

> <Gold.Chemscore.Rot>
2.1783

> <Gold.Chemscore.Internal.Correction>
   9.000000E+99

> <Gold.Chemscore.Hbonds>
donor molecule, donor type, donor heavy atom, donor atom, acceptor molecule, acceptor atom, score
      P1  H  6896  6907       L1     7  0.99
      P1  H  6931  6943       L1     8  0.14
      P1  H  6934  6947       L1     8  0.17

> <Gold.Chemscore.Hbond.Weighted>
-5.5911

> <Gold.Chemscore.Metal.Weighted>
-0.0000

> <Gold.Chemscore.Lipo.Weighted>
-7.6612

> <Gold.Chemscore.Internal_Hbond.Weighted>
0.0000

> <Gold.Chemscore.DEClash.Weighted>
0.0128

> <Gold.Chemscore.DEInternal.Weighted>
1.8429

> <Gold.Chemscore.Rot.Weighted>
5.5765

> <Gold.Chemscore.Internal.Correction.Weighted>
   9.000000E+99

> <Gold.Protein.RotatedTorsions>
[ 6907 6896 6895 6894 ] final  -54.00 input  -60.11 | X-H torsion
[ 7974 7965 7964 7962 ] final -177.99 input  175.53 | X-H torsion
[ 8008 7997 7996 7995 ] final   -4.77 input   59.86 | X-H torsion
[ 10167 10162 10161 10158 ] final  169.58 input  -65.29 | X-H torsion
[ 10718 10713 10712 10709 ] final -139.33 input   66.30 | X-H torsion
[ 10763 10752 10751 10750 ] final -104.14 input  -60.55 | X-H torsion
[ 11005 11000 10999 10996 ] final -138.98 input  -57.11 | X-H torsion

> <Gold.Protein.ActiveResidues>
 VAL166  LYS551  ARG553  GLY616  TRP617  ASP618  TYR619  PRO620  LYS621  CYS622 
 ASP623  PHE694  ASN695  SER759  ASP760  ASP761  ALA762  ILE779  LEU786  VAL792 
 PHE793  MET794  SER795  GLU796  ALA797  LYS798  CYS799  TRP800  GLU811  SER814 

> <Gold.Protein.RotatedAtoms>
  150.8376  134.7656  159.6905 H   0  0  0  0  0  0  0  0  0  0  0  0  # atno 6907 bound_to 6896
  152.4470  134.5470  159.9865 H   0  0  0  0  0  0  0  0  0  0  0  0  # atno 6908 bound_to 6896
  151.5617  133.3364  159.3008 H   0  0  0  0  0  0  0  0  0  0  0  0  # atno 6909 bound_to 6896
  144.7129  140.0935  143.6420 H   0  0  0  0  0  0  0  0  0  0  0  0  # atno 7974 bound_to 7965
  154.6109  140.2475  155.7671 H   0  0  0  0  0  0  0  0  0  0  0  0  # atno 8008 bound_to 7997
  156.2370  140.2946  156.0289 H   0  0  0  0  0  0  0  0  0  0  0  0  # atno 8009 bound_to 7997
  155.2054  140.0395  157.2915 H   0  0  0  0  0  0  0  0  0  0  0  0  # atno 8010 bound_to 7997
  139.4996  144.3691  151.9744 H   0  0  0  0  0  0  0  0  0  0  0  0  # atno 10167 bound_to 10162
  156.3095  130.7474  151.1546 H   0  0  0  0  0  0  0  0  0  0  0  0  # atno 10718 bound_to 10713
  154.7857  135.4797  153.9941 H   0  0  0  0  0  0  0  0  0  0  0  0  # atno 10763 bound_to 10752
  153.1557  135.6799  153.8823 H   0  0  0  0  0  0  0  0  0  0  0  0  # atno 10764 bound_to 10752
  153.8453  135.3174  155.3407 H   0  0  0  0  0  0  0  0  0  0  0  0  # atno 10765 bound_to 10752
  140.8564  134.2223  157.4732 H   0  0  0  0  0  0  0  0  0  0  0  0  # atno 11005 bound_to 11000
  145.9599  139.2793  143.1161 LP  0  0  0  0  0  0  0  0  0  0  0  0  # atno 17320 bound_to 7965
  145.9232  140.9101  143.0394 LP  0  0  0  0  0  0  0  0  0  0  0  0  # atno 17321 bound_to 7965
  140.3127  144.3520  150.6030 LP  0  0  0  0  0  0  0  0  0  0  0  0  # atno 17342 bound_to 10162
  140.5786  143.2174  151.7469 LP  0  0  0  0  0  0  0  0  0  0  0  0  # atno 17343 bound_to 10162
  157.7387  131.0537  150.5275 LP  0  0  0  0  0  0  0  0  0  0  0  0  # atno 17370 bound_to 10713
  156.5413  130.4209  149.6152 LP  0  0  0  0  0  0  0  0  0  0  0  0  # atno 17371 bound_to 10713
  139.8705  134.9708  156.4715 LP  0  0  0  0  0  0  0  0  0  0  0  0  # atno 17394 bound_to 11000
  140.8733  133.7972  155.9387 LP  0  0  0  0  0  0  0  0  0  0  0  0  # atno 17395 bound_to 11000

$$$$
