AV-unprocessed.smi:62|AV-procd|sdf|605|dock1
  -GOLD-   2262016503D 1   1.00000     0.00000
 Structure written by MMmdl.
 30 31  0  0  0  0  0  0  0  0  2 V2000
  148.8562  141.6748  153.9792 C   0  0  0  0  0  0  0  0  0  0  0  0
  149.8506  141.2087  154.9213 N   0  0  0  0  0  0  0  0  0  0  0  0
  150.1142  141.6660  156.1919 C   0  0  0  0  0  0  0  0  0  0  0  0
  151.1451  140.9265  156.7019 C   0  0  0  0  0  0  0  0  0  0  0  0
  151.7671  141.1000  158.0672 C   0  0  0  0  0  0  0  0  0  0  0  0
  151.3079  142.3093  158.7433 N   0  0  0  0  0  0  0  0  0  0  0  0
  151.9114  142.5274  160.0478 C   0  0  0  0  0  0  0  0  0  0  0  0
  151.7342  144.0186  160.3679 C   0  0  0  0  0  0  0  0  0  0  0  0
  151.3629  144.6492  159.0158 C   0  0  1  0  0  0  0  0  0  0  0  0
  152.1266  145.7992  158.7177 O   0  0  0  0  0  0  0  0  0  0  0  0
  151.6110  143.5216  158.0136 C   0  0  0  0  0  0  0  0  0  0  0  0
  151.4483  140.0132  155.6348 C   0  0  0  0  0  0  0  0  0  0  0  0
  152.5359  138.9759  155.7378 C   0  0  0  0  0  0  0  0  0  0  0  0
  152.7061  138.1478  154.8163 O   0  0  0  0  0  0  0  0  0  0  0  0
  153.2525  138.9829  156.7635 O   0  5  0  0  0  0  0  0  0  0  0  0
  150.6676  140.1962  154.5774 N   0  0  0  0  0  0  0  0  0  0  0  0
  148.2129  142.4181  154.4510 H   0  0  0  0  0  0  0  0  0  0  0  0
  148.2433  140.8378  153.6432 H   0  0  0  0  0  0  0  0  0  0  0  0
  149.3493  142.1266  153.1181 H   0  0  0  0  0  0  0  0  0  0  0  0
  149.5542  142.4797  156.6283 H   0  0  0  0  0  0  0  0  0  0  0  0
  151.5552  140.2333  158.6949 H   0  0  0  0  0  0  0  0  0  0  0  0
  152.8539  141.1258  157.9856 H   0  0  0  0  0  0  0  0  0  0  0  0
  151.4625  141.8859  160.8069 H   0  0  0  0  0  0  0  0  0  0  0  0
  152.9772  142.2970  160.0087 H   0  0  0  0  0  0  0  0  0  0  0  0
  150.9376  144.1763  161.0957 H   0  0  0  0  0  0  0  0  0  0  0  0
  152.6540  144.4314  160.7848 H   0  0  0  0  0  0  0  0  0  0  0  0
  150.3040  144.9117  159.0138 H   0  0  0  0  0  0  0  0  0  0  0  0
  152.2113  145.8654  157.7788 H   0  0  0  0  0  0  0  0  0  0  0  0
  152.6583  143.5168  157.7059 H   0  0  0  0  0  0  0  0  0  0  0  0
  150.9970  143.6163  157.1174 H   0  0  0  0  0  0  0  0  0  0  0  0
  1  2  1  0  0  0  0
  1 17  1  0  0  0  0
  1 18  1  0  0  0  0
  1 19  1  0  0  0  0
  2 16  1  0  0  0  0
  2  3  1  0  0  0  0
  3  4  2  0  0  0  0
  3 20  1  0  0  0  0
  4  5  1  0  0  0  0
  4 12  1  0  0  0  0
  5  6  1  0  0  0  0
  5 21  1  0  0  0  0
  5 22  1  0  0  0  0
  6 11  1  0  0  0  0
  6  7  1  0  0  0  0
  7  8  1  0  0  0  0
  7 23  1  0  0  0  0
  7 24  1  0  0  0  0
  8  9  1  0  0  0  0
  8 25  1  0  0  0  0
  8 26  1  0  0  0  0
  9 10  1  0  0  0  0
  9 11  1  0  0  0  0
  9 27  1  0  0  0  0
 10 28  1  0  0  0  0
 11 29  1  0  0  0  0
 11 30  1  0  0  0  0
 12 13  1  0  0  0  0
 12 16  2  0  0  0  0
 13 14  2  0  0  0  0
 13 15  1  0  0  0  0
M  CHG  1  15  -1
M  END
> <s_m_source_file>
AV-unprocessed.smi

> <i_m_source_file_index>
62

> <i_lp_mmshare_version>
43012

> <i_f3d_flags>
0

> <s_epik_input>
W0NIM11uMVtjSF1jKGMobjEpQyg9TylbT0hdKVtDSDJdTjJbQ0gyXVtDSDJdW0NAQEhdKFtPSF0pW0NIMl0y

> <s_epik_cmdline>
J2VwaWtfcHl0aG9uJywgJy1waCcsICc3LjAnLCAnLXRuJywgJzgnLCAnLW1hJywgJzIwMCcsICctbWV0YWxfYmluZGluZycsICctaW1hZScsICc8aW5maWxlLm1hZT4nLCAnLW9tYWUnLCAnPG91dGZpbGUubWFlPic=

> <r_epik_Ionization_Penalty>
1.46526

> <r_epik_Ionization_Penalty_Charging>
0.000523675

> <r_epik_Ionization_Penalty_Neutral>
1.46474

> <r_epik_State_Penalty>
1.55202

> <r_epik_Charging_Adjusted_Penalty>
1.55254

> <i_epik_Tot_Q>
-1

> <i_epik_Tot_abs_Q>
1

> <r_epik_Metal_State_Penalty>
1.552

> <b_epik_Metal_Only>
0

> <s_lp_Force_Field>
OPLS_2005

> <r_lp_Energy>
37.4644

> <b_lp_Chiralities_Consistent>
1

> <s_lp_Variant>
AV-unprocessed.smi:62-5

> <Gold.Version>
5.8.1

> <Gold.Id.Protein>
6NUR|6NUR_protein|mol2

> <Gold.PLP.Fitness>
45.6081

> <Gold.PLP.PLP>
-34.4866

> <Gold.PLP.part.hbond>
-3.3786

> <Gold.PLP.part.metal>
0.0000

> <Gold.PLP.part.buried>
1.6182

> <Gold.PLP.part.nonpolar>
-31.2928

> <Gold.PLP.part.repulsive>
0.1436

> <Gold.PLP.ligand.clash>
0.0000

> <Gold.PLP.ligand.torsion>
0.1046

> <Gold.PLP.Chemscore.Hbond>
3.0000

> <Gold.PLP.Chemscore.CHOScore>
0.7746

> <Gold.PLP.Chemscore.Metal>
0.0000

> <Gold.Chemscore.Hbonds>
donor molecule, donor type, donor heavy atom, donor atom, acceptor molecule, acceptor atom, score
      P1  H  7989  7998       L1    16  1.00
      P1  H  7997  8008       L1    15  2.00
      L1  C     3    20       P1  8028  1.00

> <Gold.PLP.Chemscore.Internal.Correction>
0.0068

> <Gold.Rescore>
     Score         DG    S(hbond)    S(metal)    S(lipo)     H(rot)  DE(clash)    DE(int)     intcor
     10.54     -13.49       0.99        0.00      79.01       1.77       0.45       2.50       ----

> <Gold.Chemscore.Fitness>
10.5426

> <Gold.Chemscore.DG>
-13.4921

> <Gold.Chemscore.ZeroCoef>
-5.4800

> <Gold.Chemscore.Hbond>
0.9856

> <Gold.Chemscore.Metal>
0.0000

> <Gold.Chemscore.Lipo>
79.0133

> <Gold.Chemscore.Internal_Hbond>
0.0000

> <Gold.Chemscore.DEClash>
0.4527

> <Gold.Chemscore.DEInternal>
2.4967

> <Gold.Chemscore.Rot>
1.7674

> <Gold.Chemscore.Internal.Correction>
   9.000000E+99

> <Gold.Chemscore.Hbonds>
donor molecule, donor type, donor heavy atom, donor atom, acceptor molecule, acceptor atom, score
      P1  H  7989  7998       L1    16  0.17
      P1  H  7997  8008       L1    15  0.43

> <Gold.Chemscore.Hbond.Weighted>
-3.2920

> <Gold.Chemscore.Metal.Weighted>
-0.0000

> <Gold.Chemscore.Lipo.Weighted>
-9.2446

> <Gold.Chemscore.Internal_Hbond.Weighted>
0.0000

> <Gold.Chemscore.DEClash.Weighted>
0.4527

> <Gold.Chemscore.DEInternal.Weighted>
2.4967

> <Gold.Chemscore.Rot.Weighted>
4.5245

> <Gold.Chemscore.Internal.Correction.Weighted>
   9.000000E+99

> <Gold.Protein.RotatedTorsions>
[ 6907 6896 6895 6894 ] final   21.06 input  -60.11 | X-H torsion
[ 7974 7965 7964 7962 ] final -139.38 input  175.53 | X-H torsion
[ 8008 7997 7996 7995 ] final  -49.05 input   59.86 | X-H torsion
[ 10167 10162 10161 10158 ] final  122.98 input  -65.29 | X-H torsion
[ 10718 10713 10712 10709 ] final  -68.76 input   66.30 | X-H torsion
[ 10763 10752 10751 10750 ] final   17.08 input  -60.55 | X-H torsion
[ 11005 11000 10999 10996 ] final  -23.93 input  -57.11 | X-H torsion

> <Gold.Protein.ActiveResidues>
 VAL166  LYS551  ARG553  GLY616  TRP617  ASP618  TYR619  PRO620  LYS621  CYS622 
 ASP623  PHE694  ASN695  SER759  ASP760  ASP761  ALA762  ILE779  LEU786  VAL792 
 PHE793  MET794  SER795  GLU796  ALA797  LYS798  CYS799  TRP800  GLU811  SER814 

> <Gold.Protein.RotatedAtoms>
  151.9060  135.0358  160.0510 H   0  0  0  0  0  0  0  0  0  0  0  0  # atno 6907 bound_to 6896
  152.2319  133.5060  159.5229 H   0  0  0  0  0  0  0  0  0  0  0  0  # atno 6908 bound_to 6896
  150.7028  134.1122  159.4047 H   0  0  0  0  0  0  0  0  0  0  0  0  # atno 6909 bound_to 6896
  144.8682  140.6325  143.5284 H   0  0  0  0  0  0  0  0  0  0  0  0  # atno 7974 bound_to 7965
  154.4038  140.1306  156.4439 H   0  0  0  0  0  0  0  0  0  0  0  0  # atno 8008 bound_to 7997
  155.7432  140.3489  155.5094 H   0  0  0  0  0  0  0  0  0  0  0  0  # atno 8009 bound_to 7997
  155.9020  140.1021  157.1333 H   0  0  0  0  0  0  0  0  0  0  0  0  # atno 8010 bound_to 7997
  139.5826  144.6993  151.3489 H   0  0  0  0  0  0  0  0  0  0  0  0  # atno 10167 bound_to 10162
  156.0489  130.4300  150.2048 H   0  0  0  0  0  0  0  0  0  0  0  0  # atno 10718 bound_to 10713
  153.1371  135.6752  153.9085 H   0  0  0  0  0  0  0  0  0  0  0  0  # atno 10763 bound_to 10752
  153.8553  135.3088  155.3436 H   0  0  0  0  0  0  0  0  0  0  0  0  # atno 10764 bound_to 10752
  154.7757  135.4916  153.9822 H   0  0  0  0  0  0  0  0  0  0  0  0  # atno 10765 bound_to 10752
  140.8798  133.7662  156.0287 H   0  0  0  0  0  0  0  0  0  0  0  0  # atno 11005 bound_to 11000
  145.4182  139.1568  143.4089 LP  0  0  0  0  0  0  0  0  0  0  0  0  # atno 17320 bound_to 7965
  146.2911  140.4290  142.8739 LP  0  0  0  0  0  0  0  0  0  0  0  0  # atno 17321 bound_to 7965
  140.7103  143.7409  150.7554 LP  0  0  0  0  0  0  0  0  0  0  0  0  # atno 17342 bound_to 10162
  140.0945  143.4846  152.2460 LP  0  0  0  0  0  0  0  0  0  0  0  0  # atno 17343 bound_to 10162
  157.0134  130.9958  151.3359 LP  0  0  0  0  0  0  0  0  0  0  0  0  # atno 17370 bound_to 10713
  157.5394  130.8110  149.8011 LP  0  0  0  0  0  0  0  0  0  0  0  0  # atno 17371 bound_to 10713
  140.8475  134.2993  157.5289 LP  0  0  0  0  0  0  0  0  0  0  0  0  # atno 17394 bound_to 11000
  139.8718  134.9450  156.3896 LP  0  0  0  0  0  0  0  0  0  0  0  0  # atno 17395 bound_to 11000

$$$$
