AV-unprocessed.smi:284|AV-procd|sdf|2157|dock3
  -GOLD-   2262021503D 1   1.00000     0.00000
 Structure written by MMmdl.
 60 62  0  0  0  0  0  0  0  0  1 V2000
  147.7550  128.7008  153.5600 C   0  0  0  0  0  0  0  0  0  0  0  0
  148.0875  130.1792  153.6899 C   0  0  0  0  0  0  0  0  0  0  0  0
  147.3746  131.1359  153.0510 C   0  0  0  0  0  0  0  0  0  0  0  0
  147.6479  132.4893  153.1536 N   0  0  0  0  0  0  0  0  0  0  0  0
  146.8231  133.5457  152.4444 C   0  0  2  0  0  0  0  0  0  0  0  0
  145.6289  133.9777  153.3158 C   0  0  0  0  0  0  0  0  0  0  0  0
  144.4460  133.8531  152.3725 C   0  0  1  0  0  0  0  0  0  0  0  0
  144.1996  135.0831  151.7167 O   0  0  0  0  0  0  0  0  0  0  0  0
  144.9148  132.7640  151.4019 C   0  0  1  0  0  0  0  0  0  0  0  0
  144.2069  132.6914  150.0374 C   0  0  0  0  0  0  0  0  0  0  0  0
  142.8506  132.3376  150.2067 O   0  0  0  0  0  0  0  0  0  0  0  0
  146.3042  133.0339  151.2505 O   0  0  0  0  0  0  0  0  0  0  0  0
  148.7278  132.9213  153.9503 C   0  0  0  0  0  0  0  0  0  0  0  0
  148.9879  134.1222  154.0590 O   0  0  0  0  0  0  0  0  0  0  0  0
  149.4948  131.9470  154.6268 N   0  0  0  0  0  0  0  0  0  0  0  0
  150.6069  132.4013  155.4917 C   0  0  0  0  0  0  0  0  0  0  0  0
  150.2182  132.5331  156.9734 C   0  0  0  0  0  0  0  0  0  0  0  0
  150.9295  132.0369  157.8474 O   0  0  0  0  0  0  0  0  0  0  0  0
  149.0827  133.2200  157.1997 N   0  0  0  0  0  0  0  0  0  0  0  0
  148.4212  133.5247  158.4231 C   0  0  0  0  0  0  0  0  0  0  0  0
  147.8400  134.8042  158.5235 C   0  0  0  0  0  0  0  0  0  0  0  0
  147.1612  135.2010  159.6914 C   0  0  0  0  0  0  0  0  0  0  0  0
  147.0453  134.3230  160.7963 C   0  0  0  0  0  0  0  0  0  0  0  0
  146.3098  134.7158  162.0917 C   0  0  0  0  0  0  0  0  0  0  0  0
  147.3201  134.8028  163.2544 C   0  0  0  0  0  0  0  0  0  0  0  0
  145.2165  133.7014  162.4967 C   0  0  0  0  0  0  0  0  0  0  0  0
  145.6288  136.0876  161.9051 C   0  0  0  0  0  0  0  0  0  0  0  0
  147.6317  133.0406  160.6898 C   0  0  0  0  0  0  0  0  0  0  0  0
  148.3109  132.6414  159.5232 C   0  0  0  0  0  0  0  0  0  0  0  0
  149.2163  130.5611  154.5416 C   0  0  0  0  0  0  0  0  0  0  0  0
  149.8969  129.7441  155.1650 O   0  0  0  0  0  0  0  0  0  0  0  0
  146.9037  128.5312  152.9003 H   0  0  0  0  0  0  0  0  0  0  0  0
  147.5096  128.2789  154.5353 H   0  0  0  0  0  0  0  0  0  0  0  0
  148.6057  128.1524  153.1536 H   0  0  0  0  0  0  0  0  0  0  0  0
  146.5526  130.8062  152.4346 H   0  0  0  0  0  0  0  0  0  0  0  0
  147.5168  134.3549  152.2099 H   0  0  0  0  0  0  0  0  0  0  0  0
  145.5117  133.2848  154.1507 H   0  0  0  0  0  0  0  0  0  0  0  0
  145.7750  134.9814  153.7170 H   0  0  0  0  0  0  0  0  0  0  0  0
  143.5385  133.5583  152.9004 H   0  0  0  0  0  0  0  0  0  0  0  0
  144.3804  134.9741  150.7957 H   0  0  0  0  0  0  0  0  0  0  0  0
  144.8238  131.7968  151.8991 H   0  0  0  0  0  0  0  0  0  0  0  0
  144.2775  133.6341  149.4948 H   0  0  0  0  0  0  0  0  0  0  0  0
  144.6812  131.9323  149.4150 H   0  0  0  0  0  0  0  0  0  0  0  0
  142.3136  133.0182  149.8301 H   0  0  0  0  0  0  0  0  0  0  0  0
  151.4644  131.7301  155.4223 H   0  0  0  0  0  0  0  0  0  0  0  0
  150.9957  133.3601  155.1438 H   0  0  0  0  0  0  0  0  0  0  0  0
  148.6207  133.5687  156.3725 H   0  0  0  0  0  0  0  0  0  0  0  0
  147.9116  135.4952  157.6962 H   0  0  0  0  0  0  0  0  0  0  0  0
  146.7364  136.1923  159.7088 H   0  0  0  0  0  0  0  0  0  0  0  0
  146.8252  135.0594  164.1917 H   0  0  0  0  0  0  0  0  0  0  0  0
  148.0838  135.5611  163.0799 H   0  0  0  0  0  0  0  0  0  0  0  0
  147.8314  133.8512  163.4043 H   0  0  0  0  0  0  0  0  0  0  0  0
  145.6329  132.7096  162.6776 H   0  0  0  0  0  0  0  0  0  0  0  0
  144.4453  133.6115  161.7306 H   0  0  0  0  0  0  0  0  0  0  0  0
  144.7162  134.0076  163.4161 H   0  0  0  0  0  0  0  0  0  0  0  0
  145.0795  136.3826  162.7999 H   0  0  0  0  0  0  0  0  0  0  0  0
  144.9185  136.0656  161.0778 H   0  0  0  0  0  0  0  0  0  0  0  0
  146.3485  136.8797  161.6984 H   0  0  0  0  0  0  0  0  0  0  0  0
  147.5656  132.3418  161.5100 H   0  0  0  0  0  0  0  0  0  0  0  0
  148.7329  131.6503  159.5107 H   0  0  0  0  0  0  0  0  0  0  0  0
  1  2  1  0  0  0  0
  1 32  1  0  0  0  0
  1 33  1  0  0  0  0
  1 34  1  0  0  0  0
  2 30  1  0  0  0  0
  2  3  2  0  0  0  0
  3  4  1  0  0  0  0
  3 35  1  0  0  0  0
  4  5  1  0  0  0  0
  4 13  1  0  0  0  0
  5 12  1  0  0  0  0
  5  6  1  0  0  0  0
  5 36  1  0  0  0  0
  6  7  1  0  0  0  0
  6 37  1  0  0  0  0
  6 38  1  0  0  0  0
  7  8  1  0  0  0  0
  7  9  1  0  0  0  0
  7 39  1  0  0  0  0
  8 40  1  0  0  0  0
  9 10  1  0  0  0  0
  9 12  1  0  0  0  0
  9 41  1  0  0  0  0
 10 11  1  0  0  0  0
 10 42  1  0  0  0  0
 10 43  1  0  0  0  0
 11 44  1  0  0  0  0
 13 14  2  0  0  0  0
 13 15  1  0  0  0  0
 15 16  1  0  0  0  0
 15 30  1  0  0  0  0
 16 17  1  0  0  0  0
 16 45  1  0  0  0  0
 16 46  1  0  0  0  0
 17 18  2  0  0  0  0
 17 19  1  0  0  0  0
 19 20  1  0  0  0  0
 19 47  1  0  0  0  0
 20 29  1  0  0  0  0
 20 21  2  0  0  0  0
 21 22  1  0  0  0  0
 21 48  1  0  0  0  0
 22 23  2  0  0  0  0
 22 49  1  0  0  0  0
 23 24  1  0  0  0  0
 23 28  1  0  0  0  0
 24 25  1  0  0  0  0
 24 26  1  0  0  0  0
 24 27  1  0  0  0  0
 25 50  1  0  0  0  0
 25 51  1  0  0  0  0
 25 52  1  0  0  0  0
 26 53  1  0  0  0  0
 26 54  1  0  0  0  0
 26 55  1  0  0  0  0
 27 56  1  0  0  0  0
 27 57  1  0  0  0  0
 27 58  1  0  0  0  0
 28 29  2  0  0  0  0
 28 59  1  0  0  0  0
 29 60  1  0  0  0  0
 30 31  2  0  0  0  0
M  END
> <s_m_source_file>
AV-unprocessed.smi

> <i_m_source_file_index>
284

> <i_lp_mmshare_version>
43012

> <i_f3d_flags>
0

> <s_epik_input>
W09IXVtDSDJdW0NAQEhdKE8xKVtDQEhdKFtPSF0pW0NIMl1bQ0BIXTFuKFtjSF1jMltDSDNdKWMoPU8pbihjMj1PKVtDSDJdQyg9TylbTkhdYzNbY0hdW2NIXWMoQyhbQ0gzXSkoW0NIM10pW0NIM10pW2NIXVtjSF0z

> <s_epik_cmdline>
J2VwaWtfcHl0aG9uJywgJy1waCcsICc3LjAnLCAnLXRuJywgJzgnLCAnLW1hJywgJzIwMCcsICctbWV0YWxfYmluZGluZycsICctaW1hZScsICc8aW5maWxlLm1hZT4nLCAnLW9tYWUnLCAnPG91dGZpbGUubWFlPic=

> <r_lp_tautomer_probability>
1

> <r_epik_Ionization_Penalty>
4.92358e-06

> <r_epik_Ionization_Penalty_Charging>
1.29777e-07

> <r_epik_Ionization_Penalty_Neutral>
4.79381e-06

> <r_epik_State_Penalty>
-0

> <r_epik_Charging_Adjusted_Penalty>
1.29777e-07

> <i_epik_Tot_Q>
0

> <i_epik_Tot_abs_Q>
0

> <r_epik_Metal_State_Penalty>
-0

> <b_epik_Metal_Only>
0

> <s_epik_Chemistry_Notes>
This compound contains an acetal/aminal-like group ( X-CH(R)-Y where X, Y are N, S, or O) that may be acid/base labile, releasing an aldehyde.

> <s_lp_Force_Field>
OPLS_2005

> <r_lp_Energy>
42.5826

> <b_lp_Chiralities_Consistent>
1

> <s_lp_Variant>
AV-unprocessed.smi:284-1

> <Gold.Version>
5.8.1

> <Gold.Id.Protein>
6NUR|6NUR_protein|mol2

> <Gold.PLP.Fitness>
50.5776

> <Gold.PLP.PLP>
-47.7279

> <Gold.PLP.part.hbond>
-3.0000

> <Gold.PLP.part.metal>
0.0000

> <Gold.PLP.part.buried>
-7.8560

> <Gold.PLP.part.nonpolar>
-38.7130

> <Gold.PLP.part.repulsive>
1.1430

> <Gold.PLP.ligand.clash>
0.0000

> <Gold.PLP.ligand.torsion>
1.6130

> <Gold.PLP.Chemscore.Hbond>
2.0000

> <Gold.PLP.Chemscore.CHOScore>
0.0000

> <Gold.PLP.Chemscore.Metal>
0.0000

> <Gold.Chemscore.Hbonds>
donor molecule, donor type, donor heavy atom, donor atom, acceptor molecule, acceptor atom, score
      L1  H    11    44       P1 10186  1.00
      P1  H  6896  6909       L1    18  1.00

> <Gold.PLP.Chemscore.Internal.Correction>
0.0757

> <Gold.Rescore>
     Score         DG    S(hbond)    S(metal)    S(lipo)     H(rot)  DE(clash)    DE(int)     intcor
     12.90     -14.89       1.93        0.00      96.80       3.27       0.39       1.59       ----

> <Gold.Chemscore.Fitness>
12.9020

> <Gold.Chemscore.DG>
-14.8856

> <Gold.Chemscore.ZeroCoef>
-5.4800

> <Gold.Chemscore.Hbond>
1.9341

> <Gold.Chemscore.Metal>
0.0000

> <Gold.Chemscore.Lipo>
96.8001

> <Gold.Chemscore.Internal_Hbond>
0.0000

> <Gold.Chemscore.DEClash>
0.3907

> <Gold.Chemscore.DEInternal>
1.5929

> <Gold.Chemscore.Rot>
3.2735

> <Gold.Chemscore.Internal.Correction>
   9.000000E+99

> <Gold.Chemscore.Hbonds>
donor molecule, donor type, donor heavy atom, donor atom, acceptor molecule, acceptor atom, score
      L1  H    11    44       P1 10186  0.99
      P1  H  6896  6909       L1    18  0.87

> <Gold.Chemscore.Hbond.Weighted>
-6.4600

> <Gold.Chemscore.Metal.Weighted>
-0.0000

> <Gold.Chemscore.Lipo.Weighted>
-11.3256

> <Gold.Chemscore.Internal_Hbond.Weighted>
0.0000

> <Gold.Chemscore.DEClash.Weighted>
0.3907

> <Gold.Chemscore.DEInternal.Weighted>
1.5929

> <Gold.Chemscore.Rot.Weighted>
8.3801

> <Gold.Chemscore.Internal.Correction.Weighted>
   9.000000E+99

> <Gold.Protein.RotatedTorsions>
[ 6907 6896 6895 6894 ] final  -50.14 input  -60.11 | X-H torsion
[ 7974 7965 7964 7962 ] final  -15.84 input  175.53 | X-H torsion
[ 8008 7997 7996 7995 ] final  150.45 input   59.86 | X-H torsion
[ 10167 10162 10161 10158 ] final   65.77 input  -65.29 | X-H torsion
[ 10718 10713 10712 10709 ] final   30.47 input   66.30 | X-H torsion
[ 10763 10752 10751 10750 ] final   46.19 input  -60.55 | X-H torsion
[ 11005 11000 10999 10996 ] final  125.37 input  -57.11 | X-H torsion

> <Gold.Protein.ActiveResidues>
 VAL166  LYS551  ARG553  GLY616  TRP617  ASP618  TYR619  PRO620  LYS621  CYS622 
 ASP623  PHE694  ASN695  SER759  ASP760  ASP761  ALA762  ILE779  LEU786  VAL792 
 PHE793  MET794  SER795  GLU796  ALA797  LYS798  CYS799  TRP800  GLU811  SER814 

> <Gold.Protein.RotatedAtoms>
  150.8736  134.8115  159.7172 H   0  0  0  0  0  0  0  0  0  0  0  0  # atno 6907 bound_to 6896
  152.4731  134.4907  159.9704 H   0  0  0  0  0  0  0  0  0  0  0  0  # atno 6908 bound_to 6896
  151.4992  133.3469  159.2901 H   0  0  0  0  0  0  0  0  0  0  0  0  # atno 6909 bound_to 6896
  146.2014  140.3551  142.8422 H   0  0  0  0  0  0  0  0  0  0  0  0  # atno 7974 bound_to 7965
  156.2715  140.2074  156.6019 H   0  0  0  0  0  0  0  0  0  0  0  0  # atno 8008 bound_to 7997
  154.6900  140.0531  157.0377 H   0  0  0  0  0  0  0  0  0  0  0  0  # atno 8009 bound_to 7997
  155.0880  140.3193  155.4585 H   0  0  0  0  0  0  0  0  0  0  0  0  # atno 8010 bound_to 7997
  140.1077  144.4846  150.6997 H   0  0  0  0  0  0  0  0  0  0  0  0  # atno 10167 bound_to 10162
  157.2600  130.7156  149.6449 H   0  0  0  0  0  0  0  0  0  0  0  0  # atno 10718 bound_to 10713
  152.9814  135.6016  154.3560 H   0  0  0  0  0  0  0  0  0  0  0  0  # atno 10763 bound_to 10752
  154.3246  135.2769  155.2504 H   0  0  0  0  0  0  0  0  0  0  0  0  # atno 10764 bound_to 10752
  154.4656  135.5955  153.6341 H   0  0  0  0  0  0  0  0  0  0  0  0  # atno 10765 bound_to 10752
  139.9403  134.9636  156.8549 H   0  0  0  0  0  0  0  0  0  0  0  0  # atno 11005 bound_to 11000
  144.8692  140.7249  143.6057 LP  0  0  0  0  0  0  0  0  0  0  0  0  # atno 17320 bound_to 7965
  145.3470  139.1716  143.4455 LP  0  0  0  0  0  0  0  0  0  0  0  0  # atno 17321 bound_to 7965
  140.6943  143.2394  151.5045 LP  0  0  0  0  0  0  0  0  0  0  0  0  # atno 17342 bound_to 10162
  139.5636  144.2096  152.1730 LP  0  0  0  0  0  0  0  0  0  0  0  0  # atno 17343 bound_to 10162
  155.9664  130.4400  150.5283 LP  0  0  0  0  0  0  0  0  0  0  0  0  # atno 17370 bound_to 10713
  157.3186  131.0677  151.1948 LP  0  0  0  0  0  0  0  0  0  0  0  0  # atno 17371 bound_to 10713
  140.5968  134.0209  155.7521 LP  0  0  0  0  0  0  0  0  0  0  0  0  # atno 17394 bound_to 11000
  141.1035  133.9730  157.3037 LP  0  0  0  0  0  0  0  0  0  0  0  0  # atno 17395 bound_to 11000

$$$$
