AV-unprocessed.smi:3311|AV-procd|sdf|12722|dock3
  -GOLD-   2272019 63D 1   1.00000     0.00000
 Structure written by MMmdl.
 44 45  0  0  0  0  0  0  0  0  2 V2000
  146.8379  138.8862  151.4789 C   0  0  0  0  0  0  0  0  0  0  0  0
  146.1475  138.2533  152.6983 C   0  0  1  0  0  0  0  0  0  0  0  0
  146.1758  136.7805  152.5479 N   0  3  0  0  0  0  0  0  0  0  0  0
  145.0761  136.2073  151.7414 C   0  0  0  0  0  0  0  0  0  0  0  0
  145.4001  134.7793  151.2514 C   0  0  0  0  0  0  0  0  0  0  0  0
  146.6087  134.8503  150.5159 O   0  0  0  0  0  0  0  0  0  0  0  0
  145.5694  133.7938  152.4352 C   0  0  0  0  0  0  0  0  0  0  0  0
  145.7585  132.3362  151.9806 C   0  0  0  0  0  0  0  0  0  0  0  0
  144.6174  131.8843  151.0593 C   0  0  0  0  0  0  0  0  0  0  0  0
  144.4821  132.8232  149.8525 C   0  0  0  0  0  0  0  0  0  0  0  0
  144.2880  134.2844  150.2966 C   0  0  0  0  0  0  0  0  0  0  0  0
  146.8056  138.6636  154.0434 C   0  0  1  0  0  0  0  0  0  0  0  0
  148.2417  138.1303  154.2053 C   0  0  0  0  0  0  0  0  0  0  0  0
  146.7911  140.1113  154.2267 N   0  0  0  0  0  0  0  0  0  0  0  0
  147.4390  141.0726  153.4779 C   0  0  0  0  0  0  0  0  0  0  0  0
  147.1448  142.2869  154.0286 C   0  0  0  0  0  0  0  0  0  0  0  0
  146.2954  141.9653  155.1233 C   0  0  0  0  0  0  0  0  0  0  0  0
  146.0870  140.6642  155.2403 N   0  0  0  0  0  0  0  0  0  0  0  0
  146.7515  139.9725  151.4849 H   0  0  0  0  0  0  0  0  0  0  0  0
  146.3851  138.5382  150.5499 H   0  0  0  0  0  0  0  0  0  0  0  0
  147.8983  138.6339  151.4456 H   0  0  0  0  0  0  0  0  0  0  0  0
  145.1104  138.5936  152.6984 H   0  0  0  0  0  0  0  0  0  0  0  0
  147.0527  136.5083  152.1268 H   0  0  0  0  0  0  0  0  0  0  0  0
  144.1662  136.1827  152.3421 H   0  0  0  0  0  0  0  0  0  0  0  0
  144.8777  136.8698  150.8976 H   0  0  0  0  0  0  0  0  0  0  0  0
  147.2856  135.1873  151.0836 H   0  0  0  0  0  0  0  0  0  0  0  0
  146.4127  134.0843  153.0627 H   0  0  0  0  0  0  0  0  0  0  0  0
  144.6867  133.8469  153.0743 H   0  0  0  0  0  0  0  0  0  0  0  0
  146.7120  132.2305  151.4617 H   0  0  0  0  0  0  0  0  0  0  0  0
  145.8110  131.6823  152.8515 H   0  0  0  0  0  0  0  0  0  0  0  0
  144.7960  130.8637  150.7190 H   0  0  0  0  0  0  0  0  0  0  0  0
  143.6803  131.8651  151.6176 H   0  0  0  0  0  0  0  0  0  0  0  0
  145.3694  132.7411  149.2238 H   0  0  0  0  0  0  0  0  0  0  0  0
  143.6399  132.5101  149.2345 H   0  0  0  0  0  0  0  0  0  0  0  0
  143.3219  134.3679  150.7968 H   0  0  0  0  0  0  0  0  0  0  0  0
  144.2277  134.9288  149.4184 H   0  0  0  0  0  0  0  0  0  0  0  0
  146.2092  138.2395  154.8532 H   0  0  0  0  0  0  0  0  0  0  0  0
  148.2644  137.0423  154.2584 H   0  0  0  0  0  0  0  0  0  0  0  0
  148.6937  138.5027  155.1253 H   0  0  0  0  0  0  0  0  0  0  0  0
  148.8793  138.4377  153.3758 H   0  0  0  0  0  0  0  0  0  0  0  0
  148.0514  140.8166  152.6259 H   0  0  0  0  0  0  0  0  0  0  0  0
  147.4831  143.2580  153.6988 H   0  0  0  0  0  0  0  0  0  0  0  0
  145.8281  142.6334  155.8319 H   0  0  0  0  0  0  0  0  0  0  0  0
  146.1270  136.3744  153.4710 H   0  0  0  0  0  0  0  0  0  0  0  0
  1  2  1  0  0  0  0
  1 19  1  0  0  0  0
  1 20  1  0  0  0  0
  1 21  1  0  0  0  0
  2  3  1  0  0  0  0
  2 12  1  0  0  0  0
  2 22  1  0  0  0  0
  3  4  1  0  0  0  0
  3 23  1  0  0  0  0
  3 44  1  0  0  0  0
  4  5  1  0  0  0  0
  4 24  1  0  0  0  0
  4 25  1  0  0  0  0
  5 11  1  0  0  0  0
  5  6  1  0  0  0  0
  5  7  1  0  0  0  0
  6 26  1  0  0  0  0
  7  8  1  0  0  0  0
  7 27  1  0  0  0  0
  7 28  1  0  0  0  0
  8  9  1  0  0  0  0
  8 29  1  0  0  0  0
  8 30  1  0  0  0  0
  9 10  1  0  0  0  0
  9 31  1  0  0  0  0
  9 32  1  0  0  0  0
 10 11  1  0  0  0  0
 10 33  1  0  0  0  0
 10 34  1  0  0  0  0
 11 35  1  0  0  0  0
 11 36  1  0  0  0  0
 12 13  1  0  0  0  0
 12 14  1  0  0  0  0
 12 37  1  0  0  0  0
 13 38  1  0  0  0  0
 13 39  1  0  0  0  0
 13 40  1  0  0  0  0
 14 18  1  0  0  0  0
 14 15  1  0  0  0  0
 15 16  2  0  0  0  0
 15 41  1  0  0  0  0
 16 17  1  0  0  0  0
 16 42  1  0  0  0  0
 17 18  2  0  0  0  0
 17 43  1  0  0  0  0
M  CHG  1   3   1
M  END
> <s_m_source_file>
AV-unprocessed.smi

> <i_m_source_file_index>
3311

> <i_lp_mmshare_version>
43012

> <i_f3d_flags>
0

> <s_epik_input>
bjFbY0hdW2NIXVtjSF1uMVtDQEBIXShbQ0gzXSlbQ0BIXShbQ0gzXSlbTkhdW0NIMl1DMihbT0hdKVtDSDJdW0NIMl1bQ0gyXVtDSDJdW0NIMl0y

> <s_epik_cmdline>
J2VwaWtfcHl0aG9uJywgJy1waCcsICc3LjAnLCAnLXRuJywgJzgnLCAnLW1hJywgJzIwMCcsICctbWV0YWxfYmluZGluZycsICctaW1hZScsICc8aW5maWxlLm1hZT4nLCAnLW9tYWUnLCAnPG91dGZpbGUubWFlPic=

> <r_lp_tautomer_probability>
1

> <r_epik_Ionization_Penalty>
0.0141403

> <r_epik_Ionization_Penalty_Charging>
0.0141276

> <r_epik_Ionization_Penalty_Neutral>
1.27139e-05

> <r_epik_State_Penalty>
0.0110334

> <r_epik_Charging_Adjusted_Penalty>
0.025161

> <i_epik_Tot_Q>
1

> <i_epik_Tot_abs_Q>
1

> <r_epik_Metal_State_Penalty>
0.0110573

> <b_epik_Metal_Only>
0

> <s_lp_Force_Field>
OPLS_2005

> <r_lp_Energy>
21.4013

> <b_lp_Chiralities_Consistent>
1

> <s_lp_Variant>
AV-unprocessed.smi:3311-4

> <Gold.Version>
5.8.1

> <Gold.Id.Protein>
6NUR|6NUR_protein|mol2

> <Gold.PLP.Fitness>
40.9119

> <Gold.PLP.PLP>
-29.7076

> <Gold.PLP.part.hbond>
-3.6743

> <Gold.PLP.part.metal>
0.0000

> <Gold.PLP.part.buried>
3.9896

> <Gold.PLP.part.nonpolar>
-30.0375

> <Gold.PLP.part.repulsive>
0.0949

> <Gold.PLP.ligand.clash>
0.0000

> <Gold.PLP.ligand.torsion>
0.4452

> <Gold.PLP.Chemscore.Hbond>
3.0000

> <Gold.PLP.Chemscore.CHOScore>
1.0000

> <Gold.PLP.Chemscore.Metal>
0.0000

> <Gold.Chemscore.Hbonds>
donor molecule, donor type, donor heavy atom, donor atom, acceptor molecule, acceptor atom, score
      L1  H     3    23       P1  7948  2.00
      L1  H     6    26       P1  7948  0.94
      L1  C    15    41       P1  7957  1.00

> <Gold.PLP.Chemscore.Internal.Correction>
0.0946

> <Gold.Rescore>
     Score         DG    S(hbond)    S(metal)    S(lipo)     H(rot)  DE(clash)    DE(int)     intcor
     13.47     -15.74       1.69        0.00      86.40       2.14       1.79       0.47       ----

> <Gold.Chemscore.Fitness>
13.4694

> <Gold.Chemscore.DG>
-15.7376

> <Gold.Chemscore.ZeroCoef>
-5.4800

> <Gold.Chemscore.Hbond>
1.6866

> <Gold.Chemscore.Metal>
0.0000

> <Gold.Chemscore.Lipo>
86.4002

> <Gold.Chemscore.Internal_Hbond>
0.0000

> <Gold.Chemscore.DEClash>
1.7944

> <Gold.Chemscore.DEInternal>
0.4737

> <Gold.Chemscore.Rot>
2.1424

> <Gold.Chemscore.Internal.Correction>
   9.000000E+99

> <Gold.Chemscore.Hbonds>
donor molecule, donor type, donor heavy atom, donor atom, acceptor molecule, acceptor atom, score
      L1  H     3    23       P1  7948  0.99
      L1  H     6    26       P1  7948  0.50

> <Gold.Chemscore.Hbond.Weighted>
-5.6334

> <Gold.Chemscore.Metal.Weighted>
-0.0000

> <Gold.Chemscore.Lipo.Weighted>
-10.1088

> <Gold.Chemscore.Internal_Hbond.Weighted>
0.0000

> <Gold.Chemscore.DEClash.Weighted>
1.7944

> <Gold.Chemscore.DEInternal.Weighted>
0.4737

> <Gold.Chemscore.Rot.Weighted>
5.4846

> <Gold.Chemscore.Internal.Correction.Weighted>
   9.000000E+99

> <Gold.Protein.RotatedTorsions>
[ 6907 6896 6895 6894 ] final  -51.57 input  -60.11 | X-H torsion
[ 7974 7965 7964 7962 ] final -117.74 input  175.53 | X-H torsion
[ 8008 7997 7996 7995 ] final   -9.81 input   59.86 | X-H torsion
[ 10167 10162 10161 10158 ] final -156.25 input  -65.29 | X-H torsion
[ 10718 10713 10712 10709 ] final -155.29 input   66.30 | X-H torsion
[ 10763 10752 10751 10750 ] final  -79.61 input  -60.55 | X-H torsion
[ 11005 11000 10999 10996 ] final -107.95 input  -57.11 | X-H torsion

> <Gold.Protein.ActiveResidues>
 VAL166  LYS551  ARG553  GLY616  TRP617  ASP618  TYR619  PRO620  LYS621  CYS622 
 ASP623  PHE694  ASN695  SER759  ASP760  ASP761  ALA762  ILE779  LEU786  VAL792 
 PHE793  MET794  SER795  GLU796  ALA797  LYS798  CYS799  TRP800  GLU811  SER814 

> <Gold.Protein.RotatedAtoms>
  150.8599  134.7948  159.7074 H   0  0  0  0  0  0  0  0  0  0  0  0  # atno 6907 bound_to 6896
  152.4639  134.5117  159.9765 H   0  0  0  0  0  0  0  0  0  0  0  0  # atno 6908 bound_to 6896
  151.5222  133.3426  159.2939 H   0  0  0  0  0  0  0  0  0  0  0  0  # atno 6909 bound_to 6896
  145.0818  140.8430  143.4035 H   0  0  0  0  0  0  0  0  0  0  0  0  # atno 7974 bound_to 7965
  154.5612  140.2345  155.8332 H   0  0  0  0  0  0  0  0  0  0  0  0  # atno 8008 bound_to 7997
  156.2031  140.3047  155.9528 H   0  0  0  0  0  0  0  0  0  0  0  0  # atno 8009 bound_to 7997
  155.2885  140.0425  157.3012 H   0  0  0  0  0  0  0  0  0  0  0  0  # atno 8010 bound_to 7997
  139.6865  143.9492  152.2364 H   0  0  0  0  0  0  0  0  0  0  0  0  # atno 10167 bound_to 10162
  156.5109  130.8434  151.2646 H   0  0  0  0  0  0  0  0  0  0  0  0  # atno 10718 bound_to 10713
  154.5408  135.5690  153.6837 H   0  0  0  0  0  0  0  0  0  0  0  0  # atno 10763 bound_to 10752
  152.9963  135.6227  154.2505 H   0  0  0  0  0  0  0  0  0  0  0  0  # atno 10764 bound_to 10752
  154.2436  135.2861  155.2824 H   0  0  0  0  0  0  0  0  0  0  0  0  # atno 10765 bound_to 10752
  141.0927  133.9026  157.2036 H   0  0  0  0  0  0  0  0  0  0  0  0  # atno 11005 bound_to 11000
  145.1170  139.2719  143.5608 LP  0  0  0  0  0  0  0  0  0  0  0  0  # atno 17320 bound_to 7965
  146.3531  140.0782  142.8619 LP  0  0  0  0  0  0  0  0  0  0  0  0  # atno 17321 bound_to 7965
  139.9297  144.6749  150.8376 LP  0  0  0  0  0  0  0  0  0  0  0  0  # atno 17342 bound_to 10162
  140.7669  143.3317  151.2395 LP  0  0  0  0  0  0  0  0  0  0  0  0  # atno 17343 bound_to 10162
  157.7450  130.9950  150.2727 LP  0  0  0  0  0  0  0  0  0  0  0  0  # atno 17370 bound_to 10713
  156.3241  130.3790  149.7548 LP  0  0  0  0  0  0  0  0  0  0  0  0  # atno 17371 bound_to 10713
  139.9757  135.0114  156.9624 LP  0  0  0  0  0  0  0  0  0  0  0  0  # atno 17394 bound_to 11000
  140.5213  134.0905  155.7293 LP  0  0  0  0  0  0  0  0  0  0  0  0  # atno 17395 bound_to 11000

$$$$
