#       Name:                AV-unprocessed.smi:1034
#       Creating user name   scv26
#       Creation time:       Fri Mar 27 02:52:34 2020


#       File generated by GOLD software.
#

@<TRIPOS>MOLECULE
AV-unprocessed.smi:1034
    42    43     1
SMALL
NO_CHARGES


@<TRIPOS>ATOM
      1 ****         0.1088   1.2236   2.4689 O.2            1 S1                 0.0000
      2 ****        -0.6973   1.1708   1.5396 C.2            1 S1                 0.0000
      3 ****        -0.8837   0.0782   0.7854 N.am           1 S1                 0.0000
      4 ****        -0.1858  -1.1899   0.9603 C.3            1 S1                 0.0000
      5 ****         1.2187  -1.1546   0.3356 C.3            1 S1                 0.0000
      6 ****         2.0287  -2.8155   0.3757 S.o2           1 S1                 0.0000
      7 ****         3.4792  -2.6154   0.5160 O.2            1 S1                 0.0000
      8 ****         1.3129  -3.6695   1.3366 O.2            1 S1                 0.0000
      9 ****         1.7431  -3.4673  -1.2155 N.pl3          1 S1                 0.0000
     10 ****         2.6481  -3.1428  -2.3388 C.3            1 S1                 0.0000
     11 ****         2.0940  -2.0393  -3.2546 C.3            1 S1                 0.0000
     12 ****         0.5021  -2.5110  -3.9766 S.3            1 S1                 0.0000
     13 ****        -0.3641  -2.8736  -2.4298 C.3            1 S1                 0.0000
     14 ****         0.3904  -3.9210  -1.5934 C.3            1 S1                 0.0000
     15 ****        -1.4984   2.1759   1.1442 N.am           1 S1                 0.0000
     16 ****        -1.6091   3.4799   1.6961 C.ar           1 S1                 0.0000
     17 ****        -2.5700   4.3111   1.0771 C.ar           1 S1                 0.0000
     18 ****        -2.7604   5.6229   1.5526 C.ar           1 S1                 0.0000
     19 ****        -1.9828   6.0713   2.6350 C.ar           1 S1                 0.0000
     20 ****        -1.0467   5.1809   3.1926 C.ar           1 S1                 0.0000
     21 ****        -0.8635   3.9227   2.7393 N.ar           1 S1                 0.0000
     22 ****        -1.5664   0.1231   0.0430 H              1 S1                 0.0000
     23 ****        -0.1271  -1.4444   2.0200 H              1 S1                 0.0000
     24 ****        -0.7876  -1.9671   0.4905 H              1 S1                 0.0000
     25 ****         1.1990  -0.7894  -0.6877 H              1 S1                 0.0000
     26 ****         1.8512  -0.4723   0.9040 H              1 S1                 0.0000
     27 ****         3.6280  -2.8535  -1.9617 H              1 S1                 0.0000
     28 ****         2.8096  -4.0496  -2.9229 H              1 S1                 0.0000
     29 ****         1.9841  -1.0999  -2.7164 H              1 S1                 0.0000
     30 ****         2.7942  -1.8484  -4.0679 H              1 S1                 0.0000
     31 ****        -0.4943  -1.9464  -1.8744 H              1 S1                 0.0000
     32 ****        -1.3627  -3.2380  -2.6707 H              1 S1                 0.0000
     33 ****         0.4787  -4.8488  -2.1596 H              1 S1                 0.0000
     34 ****        -0.1817  -4.1645  -0.6984 H              1 S1                 0.0000
     35 ****        -2.1076   1.9827   0.3631 H              1 S1                 0.0000
     36 ****        -3.1601   3.9509   0.2468 H              1 S1                 0.0000
     37 ****        -3.4913   6.2728   1.0948 H              1 S1                 0.0000
     38 ****        -2.1001   7.0704   3.0279 H              1 S1                 0.0000
     39 ****        -0.4297   5.4860   4.0248 H              1 S1                 0.0000
     40 ****         0.6658   0.4241   2.6937 LP             1 S1                 0.0000
     41 ****         0.2065   2.0660   2.9988 LP             1 S1                 0.0000
     42 ****        -0.1863   3.3242   3.1673 LP             1 S1                 0.0000
@<TRIPOS>BOND
    1    1    2 2     
    2    2    3 am    
    3    2   15 am    
    4    3    4 1     
    5    3   22 1     
    6    4    5 1     
    7    4   23 1     
    8    4   24 1     
    9    5    6 1     
   10    5   25 1     
   11    5   26 1     
   12    6    7 2     
   13    6    8 2     
   14    6    9 1     
   15    9   14 1     
   16    9   10 1     
   17   10   11 1     
   18   10   27 1     
   19   10   28 1     
   20   11   12 1     
   21   11   29 1     
   22   11   30 1     
   23   12   13 1     
   24   13   14 1     
   25   13   31 1     
   26   13   32 1     
   27   14   33 1     
   28   14   34 1     
   29   15   16 1     
   30   15   35 1     
   31   16   21 ar    
   32   16   17 ar    
   33   17   18 ar    
   34   17   36 1     
   35   18   19 ar    
   36   18   37 1     
   37   19   20 ar    
   38   19   38 1     
   39   20   21 ar    
   40   20   39 1     
   41    1   40 1     
   42    1   41 1     
   43   21   42 1     
@<TRIPOS>SUBSTRUCTURE
      1 S1             1
@<TRIPOS>SET
LONE_PAIRS      STATIC     ATOMS    <user>   **** ""
5 40 41 7 8 42
DONOR_HYDROGENS      STATIC     ATOMS    <user>   **** ""
2 22 35
ATOM$BLUE        STATIC     ATOMS    COLORGROUP SYSTEM
5 40 41 7 8 42
ATOM$RED        STATIC     ATOMS    COLORGROUP SYSTEM
2 22 35
