AV-unprocessed.smi:1982|AV-procd|sdf|8020|dock8
  -GOLD-   2272010213D 1   1.00000     0.00000
 Structure written by MMmdl.
 36 37  0  0  0  0  0  0  0  0  1 V2000
  151.2320  145.6274  160.1673 C   0  0  0  0  0  0  0  0  0  0  0  0
  151.6727  144.1533  160.2069 C   0  0  2  0  0  0  0  0  0  0  0  0
  152.2170  143.8095  161.6091 C   0  0  0  0  0  0  0  0  0  0  0  0
  152.6586  142.3437  161.7157 C   0  0  0  0  0  0  0  0  0  0  0  0
  153.7027  142.0057  160.6421 C   0  0  0  0  0  0  0  0  0  0  0  0
  153.1924  142.3308  159.2254 C   0  0  1  0  0  0  0  0  0  0  0  0
  152.1252  141.4104  158.8363 N   0  0  0  0  0  0  0  0  0  0  0  0
  152.2866  140.1608  158.3748 C   0  0  0  0  0  0  0  0  0  0  0  0
  153.3801  139.6044  158.2817 O   0  0  0  0  0  0  0  0  0  0  0  0
  151.0145  139.4276  157.9460 C   0  0  0  0  0  0  0  0  0  0  0  0
  150.8559  139.4591  156.5031 N   0  0  0  0  0  0  0  0  0  0  0  0
  150.7094  140.4830  155.6596 C   0  0  0  0  0  0  0  0  0  0  0  0
  150.5662  140.0696  154.4097 N   0  0  0  0  0  0  0  0  0  0  0  0
  150.6343  138.6908  154.5239 N   0  0  0  0  0  0  0  0  0  0  0  0
  150.8069  138.3225  155.7636 N   0  0  0  0  0  0  0  0  0  0  0  0
  152.7172  143.8028  159.1102 C   0  0  1  0  0  0  0  0  0  0  0  0
  152.2210  144.1175  157.6833 C   0  0  0  0  0  0  0  0  0  0  0  0
  152.0857  146.3000  160.2575 H   0  0  0  0  0  0  0  0  0  0  0  0
  150.5464  145.8523  160.9848 H   0  0  0  0  0  0  0  0  0  0  0  0
  150.7092  145.8690  159.2422 H   0  0  0  0  0  0  0  0  0  0  0  0
  150.7822  143.5457  160.0391 H   0  0  0  0  0  0  0  0  0  0  0  0
  153.0616  144.4584  161.8450 H   0  0  0  0  0  0  0  0  0  0  0  0
  151.4560  144.0108  162.3639 H   0  0  0  0  0  0  0  0  0  0  0  0
  153.0717  142.1525  162.7064 H   0  0  0  0  0  0  0  0  0  0  0  0
  151.7924  141.6892  161.6125 H   0  0  0  0  0  0  0  0  0  0  0  0
  154.6112  142.5773  160.8354 H   0  0  0  0  0  0  0  0  0  0  0  0
  153.9863  140.9548  160.7130 H   0  0  0  0  0  0  0  0  0  0  0  0
  154.0269  142.2017  158.5336 H   0  0  0  0  0  0  0  0  0  0  0  0
  151.1838  141.7736  158.8807 H   0  0  0  0  0  0  0  0  0  0  0  0
  151.0518  138.3868  158.2703 H   0  0  0  0  0  0  0  0  0  0  0  0
  150.1448  139.8853  158.4198 H   0  0  0  0  0  0  0  0  0  0  0  0
  150.6999  141.5206  155.9601 H   0  0  0  0  0  0  0  0  0  0  0  0
  153.5931  144.4302  159.2832 H   0  0  0  0  0  0  0  0  0  0  0  0
  151.2688  143.6306  157.4697 H   0  0  0  0  0  0  0  0  0  0  0  0
  152.9400  143.7792  156.9364 H   0  0  0  0  0  0  0  0  0  0  0  0
  152.0878  145.1881  157.5306 H   0  0  0  0  0  0  0  0  0  0  0  0
  1  2  1  0  0  0  0
  1 18  1  0  0  0  0
  1 19  1  0  0  0  0
  1 20  1  0  0  0  0
  2 16  1  0  0  0  0
  2  3  1  0  0  0  0
  2 21  1  0  0  0  0
  3  4  1  0  0  0  0
  3 22  1  0  0  0  0
  3 23  1  0  0  0  0
  4  5  1  0  0  0  0
  4 24  1  0  0  0  0
  4 25  1  0  0  0  0
  5  6  1  0  0  0  0
  5 26  1  0  0  0  0
  5 27  1  0  0  0  0
  6  7  1  0  0  0  0
  6 16  1  0  0  0  0
  6 28  1  0  0  0  0
  7  8  1  0  0  0  0
  7 29  1  0  0  0  0
  8  9  2  0  0  0  0
  8 10  1  0  0  0  0
 10 11  1  0  0  0  0
 10 30  1  0  0  0  0
 10 31  1  0  0  0  0
 11 15  1  0  0  0  0
 11 12  1  0  0  0  0
 12 13  2  0  0  0  0
 12 32  1  0  0  0  0
 13 14  1  0  0  0  0
 14 15  2  0  0  0  0
 16 17  1  0  0  0  0
 16 33  1  0  0  0  0
 17 34  1  0  0  0  0
 17 35  1  0  0  0  0
 17 36  1  0  0  0  0
M  END
> <s_m_source_file>
AV-unprocessed.smi

> <i_m_source_file_index>
1982

> <i_lp_mmshare_version>
43012

> <i_f3d_flags>
0

> <s_epik_input>
W0NIM11bQ0BASF0xW0NIMl1bQ0gyXVtDSDJdW0NASF0oW0NASF0xW0NIM10pW05IXUMoPU8pW0NIMl1uMltjSF1ubm4y

> <s_epik_cmdline>
J2VwaWtfcHl0aG9uJywgJy1waCcsICc3LjAnLCAnLXRuJywgJzgnLCAnLW1hJywgJzIwMCcsICctbWV0YWxfYmluZGluZycsICctaW1hZScsICc8aW5maWxlLm1hZT4nLCAnLW9tYWUnLCAnPG91dGZpbGUubWFlPic=

> <r_lp_tautomer_probability>
1

> <r_epik_Ionization_Penalty>
5.03816e-07

> <r_epik_Ionization_Penalty_Charging>
0

> <r_epik_Ionization_Penalty_Neutral>
5.03816e-07

> <r_epik_State_Penalty>
-0

> <r_epik_Charging_Adjusted_Penalty>
0

> <i_epik_Tot_Q>
0

> <i_epik_Tot_abs_Q>
0

> <r_epik_Metal_State_Penalty>
-0

> <b_epik_Metal_Only>
0

> <s_lp_Force_Field>
OPLS_2005

> <r_lp_Energy>
12.4205

> <b_lp_Chiralities_Consistent>
1

> <s_lp_Variant>
AV-unprocessed.smi:1982-1

> <Gold.Version>
5.8.1

> <Gold.Id.Protein>
6NUR|6NUR_protein|mol2

> <Gold.PLP.Fitness>
45.7384

> <Gold.PLP.PLP>
-40.9102

> <Gold.PLP.part.hbond>
-2.0000

> <Gold.PLP.part.metal>
0.0000

> <Gold.PLP.part.buried>
-5.2859

> <Gold.PLP.part.nonpolar>
-34.2950

> <Gold.PLP.part.repulsive>
0.4023

> <Gold.PLP.ligand.clash>
0.0000

> <Gold.PLP.ligand.torsion>
0.5918

> <Gold.PLP.Chemscore.Hbond>
2.0000

> <Gold.PLP.Chemscore.CHOScore>
0.0000

> <Gold.PLP.Chemscore.Metal>
0.0000

> <Gold.Chemscore.Hbonds>
donor molecule, donor type, donor heavy atom, donor atom, acceptor molecule, acceptor atom, score
      P1  H  7989  7998       L1    13  1.00
      P1  H  7997  8009       L1     9  1.00

> <Gold.PLP.Chemscore.Internal.Correction>
0.0118

> <Gold.Rescore>
     Score         DG    S(hbond)    S(metal)    S(lipo)     H(rot)  DE(clash)    DE(int)     intcor
     18.22     -18.87       1.91        0.00     101.69       1.91       0.06       0.59       ----

> <Gold.Chemscore.Fitness>
18.2183

> <Gold.Chemscore.DG>
-18.8701

> <Gold.Chemscore.ZeroCoef>
-5.4800

> <Gold.Chemscore.Hbond>
1.9074

> <Gold.Chemscore.Metal>
0.0000

> <Gold.Chemscore.Lipo>
101.6927

> <Gold.Chemscore.Internal_Hbond>
0.0000

> <Gold.Chemscore.DEClash>
0.0628

> <Gold.Chemscore.DEInternal>
0.5890

> <Gold.Chemscore.Rot>
1.9058

> <Gold.Chemscore.Internal.Correction>
   9.000000E+99

> <Gold.Chemscore.Hbonds>
donor molecule, donor type, donor heavy atom, donor atom, acceptor molecule, acceptor atom, score
      P1  H  7989  7998       L1    13  0.63
      P1  H  7997  8009       L1     9  1.00

> <Gold.Chemscore.Hbond.Weighted>
-6.3709

> <Gold.Chemscore.Metal.Weighted>
-0.0000

> <Gold.Chemscore.Lipo.Weighted>
-11.8980

> <Gold.Chemscore.Internal_Hbond.Weighted>
0.0000

> <Gold.Chemscore.DEClash.Weighted>
0.0628

> <Gold.Chemscore.DEInternal.Weighted>
0.5890

> <Gold.Chemscore.Rot.Weighted>
4.8788

> <Gold.Chemscore.Internal.Correction.Weighted>
   9.000000E+99

> <Gold.Protein.RotatedTorsions>
[ 6907 6896 6895 6894 ] final -119.19 input  -60.11 | X-H torsion
[ 7974 7965 7964 7962 ] final -107.33 input  175.53 | X-H torsion
[ 8008 7997 7996 7995 ] final  143.94 input   59.86 | X-H torsion
[ 10167 10162 10161 10158 ] final -143.29 input  -65.29 | X-H torsion
[ 10718 10713 10712 10709 ] final   92.11 input   66.30 | X-H torsion
[ 10763 10752 10751 10750 ] final  -47.99 input  -60.55 | X-H torsion
[ 11005 11000 10999 10996 ] final  -46.83 input  -57.11 | X-H torsion

> <Gold.Protein.ActiveResidues>
 VAL166  LYS551  ARG553  GLY616  TRP617  ASP618  TYR619  PRO620  LYS621  CYS622 
 ASP623  PHE694  ASN695  SER759  ASP760  ASP761  ALA762  ILE779  LEU786  VAL792 
 PHE793  MET794  SER795  GLU796  ALA797  LYS798  CYS799  TRP800  GLU811  SER814 

> <Gold.Protein.RotatedAtoms>
  150.8284  133.8132  159.3108 H   0  0  0  0  0  0  0  0  0  0  0  0  # atno 6907 bound_to 6896
  151.5869  135.1054  160.0039 H   0  0  0  0  0  0  0  0  0  0  0  0  # atno 6908 bound_to 6896
  152.4367  133.7332  159.6655 H   0  0  0  0  0  0  0  0  0  0  0  0  # atno 6909 bound_to 6896
  145.2067  140.9079  143.3338 H   0  0  0  0  0  0  0  0  0  0  0  0  # atno 7974 bound_to 7965
  156.2919  140.2249  156.4973 H   0  0  0  0  0  0  0  0  0  0  0  0  # atno 8008 bound_to 7997
  154.7720  140.0466  157.1080 H   0  0  0  0  0  0  0  0  0  0  0  0  # atno 8009 bound_to 7997
  154.9863  140.3084  155.4928 H   0  0  0  0  0  0  0  0  0  0  0  0  # atno 8010 bound_to 7997
  139.8007  143.7837  152.2658 H   0  0  0  0  0  0  0  0  0  0  0  0  # atno 10167 bound_to 10162
  157.6959  131.0431  150.3832 H   0  0  0  0  0  0  0  0  0  0  0  0  # atno 10718 bound_to 10713
  154.0705  135.6605  153.4823 H   0  0  0  0  0  0  0  0  0  0  0  0  # atno 10763 bound_to 10752
  153.0393  135.5156  154.7572 H   0  0  0  0  0  0  0  0  0  0  0  0  # atno 10764 bound_to 10752
  154.6636  135.3018  154.9802 H   0  0  0  0  0  0  0  0  0  0  0  0  # atno 10765 bound_to 10752
  141.0603  133.6711  156.3210 H   0  0  0  0  0  0  0  0  0  0  0  0  # atno 11005 bound_to 11000
  144.9895  139.3703  143.6222 LP  0  0  0  0  0  0  0  0  0  0  0  0  # atno 17320 bound_to 7965
  146.3406  139.9072  142.8785 LP  0  0  0  0  0  0  0  0  0  0  0  0  # atno 17321 bound_to 7965
  139.7956  144.7394  150.9894 LP  0  0  0  0  0  0  0  0  0  0  0  0  # atno 17342 bound_to 10162
  140.7820  143.4397  151.0570 LP  0  0  0  0  0  0  0  0  0  0  0  0  # atno 17343 bound_to 10162
  156.4243  130.3959  149.6803 LP  0  0  0  0  0  0  0  0  0  0  0  0  # atno 17370 bound_to 10713
  156.4043  130.7690  151.2700 LP  0  0  0  0  0  0  0  0  0  0  0  0  # atno 17371 bound_to 10713
  140.5882  134.5677  157.5494 LP  0  0  0  0  0  0  0  0  0  0  0  0  # atno 17394 bound_to 11000
  139.9426  134.7759  156.0639 LP  0  0  0  0  0  0  0  0  0  0  0  0  # atno 17395 bound_to 11000

$$$$
