AV-unprocessed.smi:2152|AV-procd|sdf|8765|dock5
  -GOLD-   2272011543D 1   1.00000     0.00000
 Structure written by MMmdl.
 41 42  0  0  0  0  0  0  0  0  1 V2000
  150.9909  140.1146  157.9971 C   0  0  0  0  0  0  0  0  0  0  0  0
  151.1594  141.5914  158.3986 C   0  0  1  0  0  0  0  0  0  0  0  0
  152.3172  141.7480  159.4054 C   0  0  0  0  0  0  0  0  0  0  0  0
  152.5051  143.2092  159.8410 C   0  0  0  0  0  0  0  0  0  0  0  0
  152.7245  144.1225  158.6274 C   0  0  0  0  0  0  0  0  0  0  0  0
  151.5707  143.9885  157.6235 C   0  0  0  0  0  0  0  0  0  0  0  0
  151.3693  142.5263  157.1791 C   0  0  2  0  0  0  0  0  0  0  0  0
  150.2246  142.4630  156.2719 N   0  0  0  0  0  0  0  0  0  0  0  0
  149.9878  141.5004  155.3673 C   0  0  0  0  0  0  0  0  0  0  0  0
  150.7442  140.5480  155.1732 O   0  0  0  0  0  0  0  0  0  0  0  0
  148.6977  141.6492  154.5504 C   0  0  0  0  0  0  0  0  0  0  0  0
  147.8147  140.4817  154.6659 N   0  0  0  0  0  0  0  0  0  0  0  0
  147.3466  139.8596  153.5229 C   0  0  0  0  0  0  0  0  0  0  0  0
  146.5476  138.7706  153.5415 C   0  0  0  0  0  0  0  0  0  0  0  0
  146.1200  138.1777  154.8028 C   0  0  0  0  0  0  0  0  0  0  0  0
  145.4115  137.1725  154.8674 O   0  0  0  0  0  0  0  0  0  0  0  0
  146.5976  138.8435  155.9566 N   0  0  0  0  0  0  0  0  0  0  0  0
  146.2347  138.3042  157.2509 C   0  0  0  0  0  0  0  0  0  0  0  0
  147.4497  139.9708  155.9306 C   0  0  0  0  0  0  0  0  0  0  0  0
  147.8736  140.4952  156.9636 O   0  0  0  0  0  0  0  0  0  0  0  0
  151.8562  139.7558  157.4389 H   0  0  0  0  0  0  0  0  0  0  0  0
  150.1080  139.9630  157.3761 H   0  0  0  0  0  0  0  0  0  0  0  0
  150.8762  139.4801  158.8761 H   0  0  0  0  0  0  0  0  0  0  0  0
  150.2420  141.8970  158.9044 H   0  0  0  0  0  0  0  0  0  0  0  0
  152.1332  141.1295  160.2845 H   0  0  0  0  0  0  0  0  0  0  0  0
  153.2432  141.3812  158.9602 H   0  0  0  0  0  0  0  0  0  0  0  0
  151.6280  143.5418  160.3975 H   0  0  0  0  0  0  0  0  0  0  0  0
  153.3524  143.2875  160.5229 H   0  0  0  0  0  0  0  0  0  0  0  0
  152.8163  145.1589  158.9530 H   0  0  0  0  0  0  0  0  0  0  0  0
  153.6661  143.8658  158.1400 H   0  0  0  0  0  0  0  0  0  0  0  0
  150.6535  144.3673  158.0772 H   0  0  0  0  0  0  0  0  0  0  0  0
  151.7678  144.6185  156.7552 H   0  0  0  0  0  0  0  0  0  0  0  0
  152.2770  142.2118  156.6604 H   0  0  0  0  0  0  0  0  0  0  0  0
  149.5451  143.2054  156.3537 H   0  0  0  0  0  0  0  0  0  0  0  0
  148.1628  142.5505  154.8560 H   0  0  0  0  0  0  0  0  0  0  0  0
  148.9731  141.8089  153.5071 H   0  0  0  0  0  0  0  0  0  0  0  0
  147.6395  140.2586  152.5625 H   0  0  0  0  0  0  0  0  0  0  0  0
  146.2233  138.3297  152.6103 H   0  0  0  0  0  0  0  0  0  0  0  0
  146.1495  139.1190  157.9716 H   0  0  0  0  0  0  0  0  0  0  0  0
  147.0205  137.6021  157.5323 H   0  0  0  0  0  0  0  0  0  0  0  0
  145.2635  137.8118  157.1865 H   0  0  0  0  0  0  0  0  0  0  0  0
  1  2  1  0  0  0  0
  1 21  1  0  0  0  0
  1 22  1  0  0  0  0
  1 23  1  0  0  0  0
  2  7  1  0  0  0  0
  2  3  1  0  0  0  0
  2 24  1  0  0  0  0
  3  4  1  0  0  0  0
  3 25  1  0  0  0  0
  3 26  1  0  0  0  0
  4  5  1  0  0  0  0
  4 27  1  0  0  0  0
  4 28  1  0  0  0  0
  5  6  1  0  0  0  0
  5 29  1  0  0  0  0
  5 30  1  0  0  0  0
  6  7  1  0  0  0  0
  6 31  1  0  0  0  0
  6 32  1  0  0  0  0
  7  8  1  0  0  0  0
  7 33  1  0  0  0  0
  8  9  1  0  0  0  0
  8 34  1  0  0  0  0
  9 10  2  0  0  0  0
  9 11  1  0  0  0  0
 11 12  1  0  0  0  0
 11 35  1  0  0  0  0
 11 36  1  0  0  0  0
 12 19  1  0  0  0  0
 12 13  1  0  0  0  0
 13 14  2  0  0  0  0
 13 37  1  0  0  0  0
 14 15  1  0  0  0  0
 14 38  1  0  0  0  0
 15 16  2  0  0  0  0
 15 17  1  0  0  0  0
 17 18  1  0  0  0  0
 17 19  1  0  0  0  0
 18 39  1  0  0  0  0
 18 40  1  0  0  0  0
 18 41  1  0  0  0  0
 19 20  2  0  0  0  0
M  END
> <s_m_source_file>
AV-unprocessed.smi

> <i_m_source_file_index>
2152

> <i_lp_mmshare_version>
43012

> <i_f3d_flags>
0

> <s_epik_input>
W0NIM11bQ0BASF0xW0NIMl1bQ0gyXVtDSDJdW0NIMl1bQ0BIXTFbTkhdQyg9TylbQ0gyXW4yW2NIXVtjSF1jKD1PKW4oW0NIM10pYzI9Tw==

> <s_epik_cmdline>
J2VwaWtfcHl0aG9uJywgJy1waCcsICc3LjAnLCAnLXRuJywgJzgnLCAnLW1hJywgJzIwMCcsICctbWV0YWxfYmluZGluZycsICctaW1hZScsICc8aW5maWxlLm1hZT4nLCAnLW9tYWUnLCAnPG91dGZpbGUubWFlPic=

> <r_lp_tautomer_probability>
1

> <r_epik_Ionization_Penalty>
3.20555e-08

> <r_epik_Ionization_Penalty_Charging>
1.30086e-08

> <r_epik_Ionization_Penalty_Neutral>
1.90469e-08

> <r_epik_State_Penalty>
-0

> <r_epik_Charging_Adjusted_Penalty>
1.30086e-08

> <i_epik_Tot_Q>
0

> <i_epik_Tot_abs_Q>
0

> <r_epik_Metal_State_Penalty>
-0

> <b_epik_Metal_Only>
0

> <s_lp_Force_Field>
OPLS_2005

> <r_lp_Energy>
17.8687

> <b_lp_Chiralities_Consistent>
1

> <s_lp_Variant>
AV-unprocessed.smi:2152-4

> <Gold.Version>
5.8.1

> <Gold.Id.Protein>
6NUR|6NUR_protein|mol2

> <Gold.PLP.Fitness>
41.9436

> <Gold.PLP.PLP>
-33.7014

> <Gold.PLP.part.hbond>
-2.0000

> <Gold.PLP.part.metal>
0.0000

> <Gold.PLP.part.buried>
-3.4547

> <Gold.PLP.part.nonpolar>
-27.7293

> <Gold.PLP.part.repulsive>
0.2294

> <Gold.PLP.ligand.clash>
0.0000

> <Gold.PLP.ligand.torsion>
0.3702

> <Gold.PLP.Chemscore.Hbond>
1.9920

> <Gold.PLP.Chemscore.CHOScore>
1.0000

> <Gold.PLP.Chemscore.Metal>
0.0000

> <Gold.Chemscore.Hbonds>
donor molecule, donor type, donor heavy atom, donor atom, acceptor molecule, acceptor atom, score
      L1  H     8    34       P1  8028  0.94
      P1  H  7989  7998       L1    10  0.98
      L1  C    13    37       P1  7957  1.00

> <Gold.PLP.Chemscore.Internal.Correction>
0.0064

> <Gold.Rescore>
     Score         DG    S(hbond)    S(metal)    S(lipo)     H(rot)  DE(clash)    DE(int)     intcor
     15.82     -17.69       1.64        0.00      90.93       1.52       0.24       1.63       ----

> <Gold.Chemscore.Fitness>
15.8201

> <Gold.Chemscore.DG>
-17.6927

> <Gold.Chemscore.ZeroCoef>
-5.4800

> <Gold.Chemscore.Hbond>
1.6395

> <Gold.Chemscore.Metal>
0.0000

> <Gold.Chemscore.Lipo>
90.9287

> <Gold.Chemscore.Internal_Hbond>
0.0000

> <Gold.Chemscore.DEClash>
0.2414

> <Gold.Chemscore.DEInternal>
1.6312

> <Gold.Chemscore.Rot>
1.5242

> <Gold.Chemscore.Internal.Correction>
   9.000000E+99

> <Gold.Chemscore.Hbonds>
donor molecule, donor type, donor heavy atom, donor atom, acceptor molecule, acceptor atom, score
      L1  H     8    34       P1  8028  0.91
      P1  H  7989  7998       L1    10  0.51

> <Gold.Chemscore.Hbond.Weighted>
-5.4759

> <Gold.Chemscore.Metal.Weighted>
-0.0000

> <Gold.Chemscore.Lipo.Weighted>
-10.6387

> <Gold.Chemscore.Internal_Hbond.Weighted>
0.0000

> <Gold.Chemscore.DEClash.Weighted>
0.2414

> <Gold.Chemscore.DEInternal.Weighted>
1.6312

> <Gold.Chemscore.Rot.Weighted>
3.9019

> <Gold.Chemscore.Internal.Correction.Weighted>
   9.000000E+99

> <Gold.Protein.RotatedTorsions>
[ 6907 6896 6895 6894 ] final -168.49 input  -60.11 | X-H torsion
[ 7974 7965 7964 7962 ] final -161.48 input  175.53 | X-H torsion
[ 8008 7997 7996 7995 ] final  130.26 input   59.86 | X-H torsion
[ 10167 10162 10161 10158 ] final  124.23 input  -65.29 | X-H torsion
[ 10718 10713 10712 10709 ] final   39.64 input   66.30 | X-H torsion
[ 10763 10752 10751 10750 ] final   77.64 input  -60.55 | X-H torsion
[ 11005 11000 10999 10996 ] final   54.08 input  -57.11 | X-H torsion

> <Gold.Protein.ActiveResidues>
 VAL166  LYS551  ARG553  GLY616  TRP617  ASP618  TYR619  PRO620  LYS621  CYS622 
 ASP623  PHE694  ASN695  SER759  ASP760  ASP761  ALA762  ILE779  LEU786  VAL792 
 PHE793  MET794  SER795  GLU796  ALA797  LYS798  CYS799  TRP800  GLU811  SER814 

> <Gold.Protein.RotatedAtoms>
  151.4764  133.3557  159.2831 H   0  0  0  0  0  0  0  0  0  0  0  0  # atno 6907 bound_to 6896
  150.8927  134.8334  159.7315 H   0  0  0  0  0  0  0  0  0  0  0  0  # atno 6908 bound_to 6896
  152.4832  134.4675  159.9677 H   0  0  0  0  0  0  0  0  0  0  0  0  # atno 6909 bound_to 6896
  144.7390  140.3392  143.6138 H   0  0  0  0  0  0  0  0  0  0  0  0  # atno 7974 bound_to 7965
  156.2951  140.2600  156.2733 H   0  0  0  0  0  0  0  0  0  0  0  0  # atno 8008 bound_to 7997
  154.9673  140.0391  157.2236 H   0  0  0  0  0  0  0  0  0  0  0  0  # atno 8009 bound_to 7997
  154.7891  140.2808  155.6010 H   0  0  0  0  0  0  0  0  0  0  0  0  # atno 8010 bound_to 7997
  139.5753  144.6960  151.3669 H   0  0  0  0  0  0  0  0  0  0  0  0  # atno 10167 bound_to 10162
  157.3729  130.7711  149.7133 H   0  0  0  0  0  0  0  0  0  0  0  0  # atno 10718 bound_to 10713
  153.0814  135.4906  154.8510 H   0  0  0  0  0  0  0  0  0  0  0  0  # atno 10763 bound_to 10752
  154.7155  135.3028  154.9132 H   0  0  0  0  0  0  0  0  0  0  0  0  # atno 10764 bound_to 10752
  153.9813  135.6789  153.4803 H   0  0  0  0  0  0  0  0  0  0  0  0  # atno 10765 bound_to 10752
  140.0715  134.5463  155.9041 H   0  0  0  0  0  0  0  0  0  0  0  0  # atno 11005 bound_to 11000
  145.7392  139.1759  143.2385 LP  0  0  0  0  0  0  0  0  0  0  0  0  # atno 17320 bound_to 7965
  146.1147  140.7385  142.9486 LP  0  0  0  0  0  0  0  0  0  0  0  0  # atno 17321 bound_to 7965
  140.7036  143.7569  150.7444 LP  0  0  0  0  0  0  0  0  0  0  0  0  # atno 17342 bound_to 10162
  140.1087  143.4719  152.2383 LP  0  0  0  0  0  0  0  0  0  0  0  0  # atno 17343 bound_to 10162
  155.9759  130.4082  150.3815 LP  0  0  0  0  0  0  0  0  0  0  0  0  # atno 17370 bound_to 10713
  157.1909  131.0415  151.2701 LP  0  0  0  0  0  0  0  0  0  0  0  0  # atno 17371 bound_to 10713
  141.2013  133.6618  156.5946 LP  0  0  0  0  0  0  0  0  0  0  0  0  # atno 17394 bound_to 11000
  140.3620  134.7679  157.4540 LP  0  0  0  0  0  0  0  0  0  0  0  0  # atno 17395 bound_to 11000

$$$$
