AV-unprocessed.smi:199|AV-procd|sdf|1565|dock9
  -GOLD-   2262019443D 1   1.00000     0.00000
 Structure written by MMmdl.
 51 55  0  0  0  0  0  0  0  0  1 V2000
  146.4886  136.6027  162.2897 C   0  0  0  0  0  0  0  0  0  0  0  0
  147.1835  135.3206  161.8029 C   0  0  1  0  0  0  0  0  0  0  0  0
  147.2455  134.3577  162.8454 O   0  0  0  0  0  0  0  0  0  0  0  0
  147.5212  133.1084  162.2387 C   0  0  0  0  0  0  0  0  0  0  0  0
  146.5868  133.1076  161.0352 C   0  0  0  0  0  0  0  0  0  0  0  0
  146.5357  134.5769  160.6046 C   0  0  1  0  0  0  0  0  0  0  0  0
  145.1746  134.9377  160.4340 O   0  0  0  0  0  0  0  0  0  0  0  0
  147.2733  134.8186  159.2641 C   0  0  0  0  0  0  0  0  0  0  0  0
  147.6083  136.2154  159.0280 N   0  0  0  0  0  0  0  0  0  0  0  0
  146.7512  137.2905  159.0868 C   0  0  0  0  0  0  0  0  0  0  0  0
  147.2963  138.4498  158.8426 N   0  0  0  0  0  0  0  0  0  0  0  0
  148.6286  138.1558  158.5777 C   0  0  0  0  0  0  0  0  0  0  0  0
  149.7742  138.9339  158.2402 C   0  0  0  0  0  0  0  0  0  0  0  0
  149.7513  140.2869  158.0921 N   0  0  0  0  0  0  0  0  0  0  0  0
  150.8961  141.0005  157.5407 C   0  0  2  0  0  0  0  0  0  0  0  0
  150.4998  142.4693  157.7621 C   0  0  0  0  0  0  0  0  0  0  0  0
  148.9812  142.4036  157.5406 C   0  0  0  0  0  0  0  0  0  0  0  0
  148.7847  140.9127  157.2015 C   0  0  1  0  0  0  0  0  0  0  0  0
  149.3295  140.5671  155.7914 C   0  0  1  0  0  0  0  0  0  0  0  0
  148.7883  141.3836  154.6031 C   0  0  0  0  0  0  0  0  0  0  0  0
  149.5180  141.0864  153.4320 O   0  0  0  0  0  0  0  0  0  0  0  0
  150.8452  140.6988  156.0266 C   0  0  0  0  0  0  0  0  0  0  0  0
  150.9516  138.2714  158.0860 N   0  0  0  0  0  0  0  0  0  0  0  0
  151.0063  136.9438  158.2200 C   0  0  0  0  0  0  0  0  0  0  0  0
  150.0208  136.0945  158.5125 N   0  0  0  0  0  0  0  0  0  0  0  0
  148.8398  136.7515  158.6926 C   0  0  0  0  0  0  0  0  0  0  0  0
  146.4230  137.3419  161.4909 H   0  0  0  0  0  0  0  0  0  0  0  0
  147.0442  137.0535  163.1120 H   0  0  0  0  0  0  0  0  0  0  0  0
  145.4791  136.4005  162.6483 H   0  0  0  0  0  0  0  0  0  0  0  0
  148.2193  135.5612  161.5608 H   0  0  0  0  0  0  0  0  0  0  0  0
  148.5658  133.0713  161.9252 H   0  0  0  0  0  0  0  0  0  0  0  0
  147.3339  132.2779  162.9196 H   0  0  0  0  0  0  0  0  0  0  0  0
  146.9275  132.4340  160.2481 H   0  0  0  0  0  0  0  0  0  0  0  0
  145.6040  132.7589  161.3576 H   0  0  0  0  0  0  0  0  0  0  0  0
  144.9155  135.4840  161.1600 H   0  0  0  0  0  0  0  0  0  0  0  0
  148.1954  134.2365  159.2356 H   0  0  0  0  0  0  0  0  0  0  0  0
  146.6684  134.4670  158.4273 H   0  0  0  0  0  0  0  0  0  0  0  0
  145.7031  137.1889  159.3273 H   0  0  0  0  0  0  0  0  0  0  0  0
  151.8549  140.7562  157.9999 H   0  0  0  0  0  0  0  0  0  0  0  0
  150.7249  142.7861  158.7812 H   0  0  0  0  0  0  0  0  0  0  0  0
  151.0019  143.1514  157.0750 H   0  0  0  0  0  0  0  0  0  0  0  0
  148.4571  142.6531  158.4642 H   0  0  0  0  0  0  0  0  0  0  0  0
  148.6252  143.0865  156.7709 H   0  0  0  0  0  0  0  0  0  0  0  0
  147.7518  140.6001  157.3439 H   0  0  0  0  0  0  0  0  0  0  0  0
  149.1086  139.5166  155.5927 H   0  0  0  0  0  0  0  0  0  0  0  0
  147.7279  141.2054  154.4297 H   0  0  0  0  0  0  0  0  0  0  0  0
  148.8933  142.4485  154.8103 H   0  0  0  0  0  0  0  0  0  0  0  0
  149.1646  140.2977  153.0498 H   0  0  0  0  0  0  0  0  0  0  0  0
  151.3084  141.4876  155.4323 H   0  0  0  0  0  0  0  0  0  0  0  0
  151.3523  139.7629  155.7892 H   0  0  0  0  0  0  0  0  0  0  0  0
  151.9788  136.4983  158.0719 H   0  0  0  0  0  0  0  0  0  0  0  0
  1  2  1  0  0  0  0
  1 27  1  0  0  0  0
  1 28  1  0  0  0  0
  1 29  1  0  0  0  0
  2  6  1  0  0  0  0
  2  3  1  0  0  0  0
  2 30  1  0  0  0  0
  3  4  1  0  0  0  0
  4  5  1  0  0  0  0
  4 31  1  0  0  0  0
  4 32  1  0  0  0  0
  5  6  1  0  0  0  0
  5 33  1  0  0  0  0
  5 34  1  0  0  0  0
  6  7  1  0  0  0  0
  6  8  1  0  0  0  0
  7 35  1  0  0  0  0
  8  9  1  0  0  0  0
  8 36  1  0  0  0  0
  8 37  1  0  0  0  0
  9 26  1  0  0  0  0
  9 10  1  0  0  0  0
 10 11  2  0  0  0  0
 10 38  1  0  0  0  0
 11 12  1  0  0  0  0
 12 26  2  0  0  0  0
 12 13  1  0  0  0  0
 13 14  1  0  0  0  0
 13 23  2  0  0  0  0
 14 18  1  0  0  0  0
 14 15  1  0  0  0  0
 15 22  1  0  0  0  0
 15 16  1  0  0  0  0
 15 39  1  0  0  0  0
 16 17  1  0  0  0  0
 16 40  1  0  0  0  0
 16 41  1  0  0  0  0
 17 18  1  0  0  0  0
 17 42  1  0  0  0  0
 17 43  1  0  0  0  0
 18 19  1  0  0  0  0
 18 44  1  0  0  0  0
 19 20  1  0  0  0  0
 19 22  1  0  0  0  0
 19 45  1  0  0  0  0
 20 21  1  0  0  0  0
 20 46  1  0  0  0  0
 20 47  1  0  0  0  0
 21 48  1  0  0  0  0
 22 49  1  0  0  0  0
 22 50  1  0  0  0  0
 23 24  1  0  0  0  0
 24 25  2  0  0  0  0
 24 51  1  0  0  0  0
 25 26  1  0  0  0  0
M  END
> <s_m_source_file>
AV-unprocessed.smi

> <i_m_source_file_index>
199

> <i_lp_mmshare_version>
43012

> <i_f3d_flags>
0

> <s_epik_input>
W0NIMl0xW0NIMl1PW0NAQEhdKFtDSDNdKVtDQEBdMShbT0hdKVtDSDJdbihbY0hdbjIpYyhjMjMpbltjSF1uYzNOKFtDQEBIXTQ1KVtDQEhdKFtDSDJdW0NIMl00KVtDQEhdKFtDSDJdNSlbQ0gyXVtPSF0=

> <s_epik_cmdline>
J2VwaWtfcHl0aG9uJywgJy1waCcsICc3LjAnLCAnLXRuJywgJzgnLCAnLW1hJywgJzIwMCcsICctbWV0YWxfYmluZGluZycsICctaW1hZScsICc8aW5maWxlLm1hZT4nLCAnLW9tYWUnLCAnPG91dGZpbGUubWFlPic=

> <r_lp_tautomer_probability>
1

> <r_epik_Ionization_Penalty>
0.00583903

> <r_epik_Ionization_Penalty_Charging>
0

> <r_epik_Ionization_Penalty_Neutral>
0.00583903

> <r_epik_State_Penalty>
-0

> <r_epik_Charging_Adjusted_Penalty>
0

> <i_epik_Tot_Q>
0

> <i_epik_Tot_abs_Q>
0

> <r_epik_Metal_State_Penalty>
-0

> <b_epik_Metal_Only>
0

> <s_lp_Force_Field>
OPLS_2005

> <r_lp_Energy>
84.4473

> <b_lp_Chiralities_Consistent>
1

> <s_lp_Variant>
AV-unprocessed.smi:199-6

> <Gold.Version>
5.8.1

> <Gold.Id.Protein>
6NUR|6NUR_protein|mol2

> <Gold.PLP.Fitness>
42.2193

> <Gold.PLP.PLP>
-35.2706

> <Gold.PLP.part.hbond>
-4.9594

> <Gold.PLP.part.metal>
0.0000

> <Gold.PLP.part.buried>
-5.0943

> <Gold.PLP.part.nonpolar>
-26.4182

> <Gold.PLP.part.repulsive>
0.0097

> <Gold.PLP.ligand.clash>
0.0000

> <Gold.PLP.ligand.torsion>
0.4678

> <Gold.PLP.Chemscore.Hbond>
2.6189

> <Gold.PLP.Chemscore.CHOScore>
0.0000

> <Gold.PLP.Chemscore.Metal>
0.0000

> <Gold.Chemscore.Hbonds>
donor molecule, donor type, donor heavy atom, donor atom, acceptor molecule, acceptor atom, score
      L1  H    21    48       P1  7957  0.29
      P1  H  6896  6907       L1    25  1.00
      P1  H  6934  6947       L1    11  0.13
      P1  H  7989  7998       L1    21  0.18
      P1  H  8011  8017       L1    21  1.00

> <Gold.PLP.Chemscore.Internal.Correction>
0.0277

> <Gold.Rescore>
     Score         DG    S(hbond)    S(metal)    S(lipo)     H(rot)  DE(clash)    DE(int)     intcor
     13.06     -13.68       2.03        0.00      79.46       3.07       0.09       0.53       ----

> <Gold.Chemscore.Fitness>
13.0637

> <Gold.Chemscore.DG>
-13.6790

> <Gold.Chemscore.ZeroCoef>
-5.4800

> <Gold.Chemscore.Hbond>
2.0266

> <Gold.Chemscore.Metal>
0.0000

> <Gold.Chemscore.Lipo>
79.4601

> <Gold.Chemscore.Internal_Hbond>
0.0000

> <Gold.Chemscore.DEClash>
0.0855

> <Gold.Chemscore.DEInternal>
0.5298

> <Gold.Chemscore.Rot>
3.0729

> <Gold.Chemscore.Internal.Correction>
   9.000000E+99

> <Gold.Chemscore.Hbonds>
donor molecule, donor type, donor heavy atom, donor atom, acceptor molecule, acceptor atom, score
      L1  H    21    48       P1  7957  0.28
      P1  H  6896  6907       L1    25  0.49
      P1  H  6934  6947       L1    11  0.01
      P1  H  7989  7998       L1    21  0.11
      P1  H  8011  8017       L1    21  0.85

> <Gold.Chemscore.Hbond.Weighted>
-6.7688

> <Gold.Chemscore.Metal.Weighted>
-0.0000

> <Gold.Chemscore.Lipo.Weighted>
-9.2968

> <Gold.Chemscore.Internal_Hbond.Weighted>
0.0000

> <Gold.Chemscore.DEClash.Weighted>
0.0855

> <Gold.Chemscore.DEInternal.Weighted>
0.5298

> <Gold.Chemscore.Rot.Weighted>
7.8667

> <Gold.Chemscore.Internal.Correction.Weighted>
   9.000000E+99

> <Gold.Protein.RotatedTorsions>
[ 6907 6896 6895 6894 ] final  -53.63 input  -60.11 | X-H torsion
[ 7974 7965 7964 7962 ] final  153.78 input  175.53 | X-H torsion
[ 8008 7997 7996 7995 ] final   71.83 input   59.86 | X-H torsion
[ 10167 10162 10161 10158 ] final  134.80 input  -65.29 | X-H torsion
[ 10718 10713 10712 10709 ] final   20.67 input   66.30 | X-H torsion
[ 10763 10752 10751 10750 ] final  -76.99 input  -60.55 | X-H torsion
[ 11005 11000 10999 10996 ] final  167.24 input  -57.11 | X-H torsion

> <Gold.Protein.ActiveResidues>
 VAL166  LYS551  ARG553  GLY616  TRP617  ASP618  TYR619  PRO620  LYS621  CYS622 
 ASP623  PHE694  ASN695  SER759  ASP760  ASP761  ALA762  ILE779  LEU786  VAL792 
 PHE793  MET794  SER795  GLU796  ALA797  LYS798  CYS799  TRP800  GLU811  SER814 

> <Gold.Protein.RotatedAtoms>
  150.8409  134.7701  159.6931 H   0  0  0  0  0  0  0  0  0  0  0  0  # atno 6907 bound_to 6896
  152.4497  134.5417  159.9851 H   0  0  0  0  0  0  0  0  0  0  0  0  # atno 6908 bound_to 6896
  151.5558  133.3373  159.2997 H   0  0  0  0  0  0  0  0  0  0  0  0  # atno 6909 bound_to 6896
  144.8132  139.6845  143.6132 H   0  0  0  0  0  0  0  0  0  0  0  0  # atno 7974 bound_to 7965
  155.7598  140.3487  155.5192 H   0  0  0  0  0  0  0  0  0  0  0  0  # atno 8008 bound_to 7997
  155.8924  140.1020  157.1430 H   0  0  0  0  0  0  0  0  0  0  0  0  # atno 8009 bound_to 7997
  154.4035  140.1301  156.4320 H   0  0  0  0  0  0  0  0  0  0  0  0  # atno 8010 bound_to 7997
  139.5242  144.6549  151.5192 H   0  0  0  0  0  0  0  0  0  0  0  0  # atno 10167 bound_to 10162
  157.1277  130.6577  149.5942 H   0  0  0  0  0  0  0  0  0  0  0  0  # atno 10718 bound_to 10713
  154.5071  135.5779  153.6576 H   0  0  0  0  0  0  0  0  0  0  0  0  # atno 10763 bound_to 10752
  152.9890  135.6150  154.2927 H   0  0  0  0  0  0  0  0  0  0  0  0  # atno 10764 bound_to 10752
  154.2839  135.2850  155.2664 H   0  0  0  0  0  0  0  0  0  0  0  0  # atno 10765 bound_to 10752
  140.2748  134.7798  157.3707 H   0  0  0  0  0  0  0  0  0  0  0  0  # atno 11005 bound_to 11000
  146.2433  139.6045  142.9477 LP  0  0  0  0  0  0  0  0  0  0  0  0  # atno 17320 bound_to 7965
  145.5275  141.0429  143.2401 LP  0  0  0  0  0  0  0  0  0  0  0  0  # atno 17321 bound_to 7965
  140.6370  143.8964  150.6656 LP  0  0  0  0  0  0  0  0  0  0  0  0  # atno 17342 bound_to 10162
  140.2286  143.3753  152.1584 LP  0  0  0  0  0  0  0  0  0  0  0  0  # atno 17343 bound_to 10162
  155.9815  130.4822  150.6829 LP  0  0  0  0  0  0  0  0  0  0  0  0  # atno 17370 bound_to 10713
  157.4420  131.0862  151.0933 LP  0  0  0  0  0  0  0  0  0  0  0  0  # atno 17371 bound_to 10713
  140.1339  134.5059  155.8084 LP  0  0  0  0  0  0  0  0  0  0  0  0  # atno 17394 bound_to 11000
  141.2172  133.6800  156.7089 LP  0  0  0  0  0  0  0  0  0  0  0  0  # atno 17395 bound_to 11000

$$$$
