AV-unprocessed.smi:1945|AV-procd|sdf|7859|dock10
  -GOLD-   2272010 03D 1   1.00000     0.00000
 Structure written by MMmdl.
 47 48  0  0  0  0  0  0  0  0  1 V2000
  150.0698  142.1168  155.6066 C   0  0  0  0  0  0  0  0  0  0  0  0
  149.9807  140.6910  155.1489 C   0  0  0  0  0  0  0  0  0  0  0  0
  148.8086  139.9127  154.9242 C   0  0  0  0  0  0  0  0  0  0  0  0
  149.3188  138.7070  154.5264 C   0  0  0  0  0  0  0  0  0  0  0  0
  148.6516  137.5758  154.1761 N   0  0  0  0  0  0  0  0  0  0  0  0
  147.8829  136.7879  154.9470 C   0  0  0  0  0  0  0  0  0  0  0  0
  147.5457  137.0339  156.1053 O   0  0  0  0  0  0  0  0  0  0  0  0
  147.5427  135.6633  154.3005 N   0  0  0  0  0  0  0  0  0  0  0  0
  146.8699  134.5212  154.9112 C   0  0  0  0  0  0  0  0  0  0  0  0
  146.9999  133.2728  154.0256 C   0  0  0  0  0  0  0  0  0  0  0  0
  146.0465  133.3513  152.9769 O   0  0  0  0  0  0  0  0  0  0  0  0
  146.5389  133.0139  151.6863 C   0  0  2  0  0  0  0  0  0  0  0  0
  146.2305  134.1981  150.7514 C   0  0  0  0  0  0  0  0  0  0  0  0
  144.7175  134.3931  150.5517 C   0  0  0  0  0  0  0  0  0  0  0  0
  144.0497  133.1045  150.0487 C   0  0  0  0  0  0  0  0  0  0  0  0
  144.3441  131.9210  150.9837 C   0  0  0  0  0  0  0  0  0  0  0  0
  145.8606  131.7177  151.1771 C   0  0  2  0  0  0  0  0  0  0  0  0
  146.1606  130.4962  152.0591 C   0  0  0  0  0  0  0  0  0  0  0  0
  150.6950  138.7875  154.5172 N   0  0  0  0  0  0  0  0  0  0  0  0
  151.6901  137.7897  154.1733 C   0  0  0  0  0  0  0  0  0  0  0  0
  151.0983  140.0165  154.9045 N   0  0  0  0  0  0  0  0  0  0  0  0
  149.0799  142.5327  155.7948 H   0  0  0  0  0  0  0  0  0  0  0  0
  150.5538  142.7405  154.8548 H   0  0  0  0  0  0  0  0  0  0  0  0
  150.6442  142.1979  156.5295 H   0  0  0  0  0  0  0  0  0  0  0  0
  147.7769  140.2090  155.0405 H   0  0  0  0  0  0  0  0  0  0  0  0
  148.8382  137.2382  153.2437 H   0  0  0  0  0  0  0  0  0  0  0  0
  147.8491  135.5514  153.3454 H   0  0  0  0  0  0  0  0  0  0  0  0
  147.2547  134.3266  155.9135 H   0  0  0  0  0  0  0  0  0  0  0  0
  145.8167  134.7769  155.0277 H   0  0  0  0  0  0  0  0  0  0  0  0
  148.0007  133.2146  153.5960 H   0  0  0  0  0  0  0  0  0  0  0  0
  146.8523  132.3748  154.6271 H   0  0  0  0  0  0  0  0  0  0  0  0
  147.6217  132.8759  151.7097 H   0  0  0  0  0  0  0  0  0  0  0  0
  146.6736  135.1115  151.1491 H   0  0  0  0  0  0  0  0  0  0  0  0
  146.7018  134.0260  149.7831 H   0  0  0  0  0  0  0  0  0  0  0  0
  144.2585  134.6977  151.4933 H   0  0  0  0  0  0  0  0  0  0  0  0
  144.5381  135.2041  149.8457 H   0  0  0  0  0  0  0  0  0  0  0  0
  142.9725  133.2526  149.9650 H   0  0  0  0  0  0  0  0  0  0  0  0
  144.4089  132.8748  149.0447 H   0  0  0  0  0  0  0  0  0  0  0  0
  143.8642  132.0896  151.9483 H   0  0  0  0  0  0  0  0  0  0  0  0
  143.8952  131.0154  150.5746 H   0  0  0  0  0  0  0  0  0  0  0  0
  146.2840  131.5013  150.1951 H   0  0  0  0  0  0  0  0  0  0  0  0
  145.7306  130.6049  153.0543 H   0  0  0  0  0  0  0  0  0  0  0  0
  147.2347  130.3470  152.1718 H   0  0  0  0  0  0  0  0  0  0  0  0
  145.7464  129.5878  151.6214 H   0  0  0  0  0  0  0  0  0  0  0  0
  151.2207  136.8237  153.9875 H   0  0  0  0  0  0  0  0  0  0  0  0
  152.4005  137.6808  154.9935 H   0  0  0  0  0  0  0  0  0  0  0  0
  152.2259  138.1009  153.2764 H   0  0  0  0  0  0  0  0  0  0  0  0
  1  2  1  0  0  0  0
  1 22  1  0  0  0  0
  1 23  1  0  0  0  0
  1 24  1  0  0  0  0
  2 21  2  0  0  0  0
  2  3  1  0  0  0  0
  3  4  2  0  0  0  0
  3 25  1  0  0  0  0
  4  5  1  0  0  0  0
  4 19  1  0  0  0  0
  5  6  1  0  0  0  0
  5 26  1  0  0  0  0
  6  7  2  0  0  0  0
  6  8  1  0  0  0  0
  8  9  1  0  0  0  0
  8 27  1  0  0  0  0
  9 10  1  0  0  0  0
  9 28  1  0  0  0  0
  9 29  1  0  0  0  0
 10 11  1  0  0  0  0
 10 30  1  0  0  0  0
 10 31  1  0  0  0  0
 11 12  1  0  0  0  0
 12 17  1  0  0  0  0
 12 13  1  0  0  0  0
 12 32  1  0  0  0  0
 13 14  1  0  0  0  0
 13 33  1  0  0  0  0
 13 34  1  0  0  0  0
 14 15  1  0  0  0  0
 14 35  1  0  0  0  0
 14 36  1  0  0  0  0
 15 16  1  0  0  0  0
 15 37  1  0  0  0  0
 15 38  1  0  0  0  0
 16 17  1  0  0  0  0
 16 39  1  0  0  0  0
 16 40  1  0  0  0  0
 17 18  1  0  0  0  0
 17 41  1  0  0  0  0
 18 42  1  0  0  0  0
 18 43  1  0  0  0  0
 18 44  1  0  0  0  0
 19 20  1  0  0  0  0
 19 21  1  0  0  0  0
 20 45  1  0  0  0  0
 20 46  1  0  0  0  0
 20 47  1  0  0  0  0
M  END
> <s_m_source_file>
AV-unprocessed.smi

> <i_m_source_file_index>
1945

> <i_lp_mmshare_version>
43012

> <i_f3d_flags>
0

> <s_epik_input>
W0NIM11jMVtjSF1jKG4objEpW0NIM10pW05IXUMoPU8pW05IXVtDSDJdW0NIMl1PW0NAQEhdMltDSDJdW0NIMl1bQ0gyXVtDSDJdW0NASF0yW0NIM10=

> <s_epik_cmdline>
J2VwaWtfcHl0aG9uJywgJy1waCcsICc3LjAnLCAnLXRuJywgJzgnLCAnLW1hJywgJzIwMCcsICctbWV0YWxfYmluZGluZycsICctaW1hZScsICc8aW5maWxlLm1hZT4nLCAnLW9tYWUnLCAnPG91dGZpbGUubWFlPic=

> <r_lp_tautomer_probability>
1

> <r_epik_Ionization_Penalty>
9.47735e-05

> <r_epik_Ionization_Penalty_Charging>
0

> <r_epik_Ionization_Penalty_Neutral>
9.47735e-05

> <r_epik_State_Penalty>
-0

> <r_epik_Charging_Adjusted_Penalty>
0

> <i_epik_Tot_Q>
0

> <i_epik_Tot_abs_Q>
0

> <r_epik_Metal_State_Penalty>
-0

> <b_epik_Metal_Only>
0

> <s_lp_Force_Field>
OPLS_2005

> <r_lp_Energy>
12.3815

> <b_lp_Chiralities_Consistent>
1

> <s_lp_Variant>
AV-unprocessed.smi:1945-3

> <Gold.Version>
5.8.1

> <Gold.Id.Protein>
6NUR|6NUR_protein|mol2

> <Gold.PLP.Fitness>
39.9515

> <Gold.PLP.PLP>
-34.7629

> <Gold.PLP.part.hbond>
-3.0000

> <Gold.PLP.part.metal>
0.0000

> <Gold.PLP.part.buried>
-2.8054

> <Gold.PLP.part.nonpolar>
-28.2747

> <Gold.PLP.part.repulsive>
0.1758

> <Gold.PLP.ligand.clash>
0.0000

> <Gold.PLP.ligand.torsion>
1.8755

> <Gold.PLP.Chemscore.Hbond>
2.9760

> <Gold.PLP.Chemscore.CHOScore>
0.0000

> <Gold.PLP.Chemscore.Metal>
0.0000

> <Gold.Chemscore.Hbonds>
donor molecule, donor type, donor heavy atom, donor atom, acceptor molecule, acceptor atom, score
      L1  H     5    26       P1  7948  1.00
      L1  H     8    27       P1  7948  0.98
      P1  H  7989  7998       L1    21  0.95

> <Gold.PLP.Chemscore.Internal.Correction>
0.0115

> <Gold.Rescore>
     Score         DG    S(hbond)    S(metal)    S(lipo)     H(rot)  DE(clash)    DE(int)     intcor
     16.74     -18.67       2.13        0.00      87.49       1.63       0.14       1.79       ----

> <Gold.Chemscore.Fitness>
16.7381

> <Gold.Chemscore.DG>
-18.6671

> <Gold.Chemscore.ZeroCoef>
-5.4800

> <Gold.Chemscore.Hbond>
2.1341

> <Gold.Chemscore.Metal>
0.0000

> <Gold.Chemscore.Lipo>
87.4863

> <Gold.Chemscore.Internal_Hbond>
0.0000

> <Gold.Chemscore.DEClash>
0.1356

> <Gold.Chemscore.DEInternal>
1.7934

> <Gold.Chemscore.Rot>
1.6316

> <Gold.Chemscore.Internal.Correction>
   9.000000E+99

> <Gold.Chemscore.Hbonds>
donor molecule, donor type, donor heavy atom, donor atom, acceptor molecule, acceptor atom, score
      L1  H     5    26       P1  7948  1.00
      L1  H     8    27       P1  7948  0.91
      P1  H  7989  7998       L1    21  0.14

> <Gold.Chemscore.Hbond.Weighted>
-7.1280

> <Gold.Chemscore.Metal.Weighted>
-0.0000

> <Gold.Chemscore.Lipo.Weighted>
-10.2359

> <Gold.Chemscore.Internal_Hbond.Weighted>
0.0000

> <Gold.Chemscore.DEClash.Weighted>
0.1356

> <Gold.Chemscore.DEInternal.Weighted>
1.7934

> <Gold.Chemscore.Rot.Weighted>
4.1768

> <Gold.Chemscore.Internal.Correction.Weighted>
   9.000000E+99

> <Gold.Protein.RotatedTorsions>
[ 6907 6896 6895 6894 ] final   15.53 input  -60.11 | X-H torsion
[ 7974 7965 7964 7962 ] final  -72.87 input  175.53 | X-H torsion
[ 8008 7997 7996 7995 ] final -168.30 input   59.86 | X-H torsion
[ 10167 10162 10161 10158 ] final  -73.26 input  -65.29 | X-H torsion
[ 10718 10713 10712 10709 ] final -139.23 input   66.30 | X-H torsion
[ 10763 10752 10751 10750 ] final  -91.50 input  -60.55 | X-H torsion
[ 11005 11000 10999 10996 ] final   34.36 input  -57.11 | X-H torsion

> <Gold.Protein.ActiveResidues>
 VAL166  LYS551  ARG553  GLY616  TRP617  ASP618  TYR619  PRO620  LYS621  CYS622 
 ASP623  PHE694  ASN695  SER759  ASP760  ASP761  ALA762  ILE779  LEU786  VAL792 
 PHE793  MET794  SER795  GLU796  ALA797  LYS798  CYS799  TRP800  GLU811  SER814 

> <Gold.Protein.RotatedAtoms>
  151.8195  135.0656  160.0422 H   0  0  0  0  0  0  0  0  0  0  0  0  # atno 6907 bound_to 6896
  152.2961  133.5604  159.5597 H   0  0  0  0  0  0  0  0  0  0  0  0  # atno 6908 bound_to 6896
  150.7252  134.0275  159.3764 H   0  0  0  0  0  0  0  0  0  0  0  0  # atno 6909 bound_to 6896
  145.6595  140.9257  143.0941 H   0  0  0  0  0  0  0  0  0  0  0  0  # atno 7974 bound_to 7965
  155.8896  140.1022  157.1428 H   0  0  0  0  0  0  0  0  0  0  0  0  # atno 8008 bound_to 7997
  154.4013  140.1313  156.4362 H   0  0  0  0  0  0  0  0  0  0  0  0  # atno 8009 bound_to 7997
  155.7549  140.3464  155.5171 H   0  0  0  0  0  0  0  0  0  0  0  0  # atno 8010 bound_to 7997
  140.5124  143.2343  151.7570 H   0  0  0  0  0  0  0  0  0  0  0  0  # atno 10167 bound_to 10162
  156.3084  130.7468  151.1537 H   0  0  0  0  0  0  0  0  0  0  0  0  # atno 10718 bound_to 10713
  154.6767  135.5265  153.8209 H   0  0  0  0  0  0  0  0  0  0  0  0  # atno 10763 bound_to 10752
  153.0537  135.6542  154.0640 H   0  0  0  0  0  0  0  0  0  0  0  0  # atno 10764 bound_to 10752
  154.0532  135.2967  155.3317 H   0  0  0  0  0  0  0  0  0  0  0  0  # atno 10765 bound_to 10752
  140.2537  134.3273  155.7881 H   0  0  0  0  0  0  0  0  0  0  0  0  # atno 11005 bound_to 11000
  144.7094  139.8431  143.7419 LP  0  0  0  0  0  0  0  0  0  0  0  0  # atno 17320 bound_to 7965
  146.1137  139.4145  143.0272 LP  0  0  0  0  0  0  0  0  0  0  0  0  # atno 17321 bound_to 7965
  139.4900  144.4371  151.9807 LP  0  0  0  0  0  0  0  0  0  0  0  0  # atno 17342 bound_to 10162
  140.3464  144.3142  150.5957 LP  0  0  0  0  0  0  0  0  0  0  0  0  # atno 17343 bound_to 10162
  157.7385  131.0540  150.5290 LP  0  0  0  0  0  0  0  0  0  0  0  0  # atno 17370 bound_to 10713
  156.5426  130.4212  149.6146 LP  0  0  0  0  0  0  0  0  0  0  0  0  # atno 17371 bound_to 10713
  141.2198  133.7368  156.9077 LP  0  0  0  0  0  0  0  0  0  0  0  0  # atno 17394 bound_to 11000
  140.1533  134.9215  157.2621 LP  0  0  0  0  0  0  0  0  0  0  0  0  # atno 17395 bound_to 11000

$$$$
