AV-unprocessed.smi:1010|AV-procd|sdf|4417|dock8
  -GOLD-   22720 2363D 1   1.00000     0.00000
 Structure written by MMmdl.
 54 56  0  0  0  0  0  0  0  0  1 V2000
  148.3901  134.4652  158.4058 C   0  0  0  0  0  0  0  0  0  0  0  0
  147.1792  135.1340  158.8841 N   0  0  0  0  0  0  0  0  0  0  0  0
  146.0439  134.2826  158.5237 C   0  0  0  0  0  0  0  0  0  0  0  0
  147.1863  135.6110  160.2965 C   0  0  0  0  0  0  0  0  0  0  0  0
  148.3729  136.6133  160.4574 C   0  0  0  0  0  0  0  0  0  0  0  0
  148.6538  137.3419  159.2247 N   0  0  0  0  0  0  0  0  0  0  0  0
  149.8085  137.2829  158.5515 C   0  0  0  0  0  0  0  0  0  0  0  0
  150.7612  136.5835  158.8959 O   0  0  0  0  0  0  0  0  0  0  0  0
  149.7838  138.0953  157.4823 N   0  0  0  0  0  0  0  0  0  0  0  0
  150.8231  138.3596  156.5464 C   0  0  0  0  0  0  0  0  0  0  0  0
  152.0847  137.7213  156.6352 C   0  0  0  0  0  0  0  0  0  0  0  0
  153.0838  138.0338  155.6976 C   0  0  0  0  0  0  0  0  0  0  0  0
  152.7854  138.9739  154.6978 C   0  0  0  0  0  0  0  0  0  0  0  0
  151.5841  139.5747  154.5865 N   0  0  0  0  0  0  0  0  0  0  0  0
  150.6044  139.2729  155.4744 C   0  0  0  0  0  0  0  0  0  0  0  0
  149.3609  139.9222  155.2951 N   0  0  0  0  0  0  0  0  0  0  0  0
  149.2529  141.3703  155.4373 C   0  0  0  0  0  0  0  0  0  0  0  0
  147.9036  141.7283  154.8214 C   0  0  0  0  0  0  0  0  0  0  0  0
  147.7968  140.7333  153.6698 C   0  0  0  0  0  0  0  0  0  0  0  0
  148.4946  139.4790  154.2070 C   0  0  0  0  0  0  0  0  0  0  0  0
  145.8463  136.3030  160.6725 C   0  0  0  0  0  0  0  0  0  0  0  0
  145.7368  136.5990  162.1812 C   0  0  0  0  0  0  0  0  0  0  0  0
  145.9184  135.4094  162.9386 O   0  0  0  0  0  0  0  0  0  0  0  0
  147.2009  134.8237  162.7542 C   0  0  0  0  0  0  0  0  0  0  0  0
  147.3727  134.4151  161.2799 C   0  0  0  0  0  0  0  0  0  0  0  0
  149.2479  135.1356  158.3958 H   0  0  0  0  0  0  0  0  0  0  0  0
  148.2626  134.1375  157.3734 H   0  0  0  0  0  0  0  0  0  0  0  0
  148.6362  133.5859  159.0005 H   0  0  0  0  0  0  0  0  0  0  0  0
  145.0851  134.7511  158.7349 H   0  0  0  0  0  0  0  0  0  0  0  0
  146.0813  133.3228  159.0392 H   0  0  0  0  0  0  0  0  0  0  0  0
  146.0509  134.0785  157.4525 H   0  0  0  0  0  0  0  0  0  0  0  0
  148.1890  137.3244  161.2625 H   0  0  0  0  0  0  0  0  0  0  0  0
  149.2863  136.1001  160.7538 H   0  0  0  0  0  0  0  0  0  0  0  0
  147.9243  137.9483  158.8791 H   0  0  0  0  0  0  0  0  0  0  0  0
  148.9630  138.6751  157.3880 H   0  0  0  0  0  0  0  0  0  0  0  0
  152.3002  136.9925  157.4014 H   0  0  0  0  0  0  0  0  0  0  0  0
  154.0556  137.5653  155.7460 H   0  0  0  0  0  0  0  0  0  0  0  0
  153.5279  139.2454  153.9622 H   0  0  0  0  0  0  0  0  0  0  0  0
  149.3141  141.6722  156.4832 H   0  0  0  0  0  0  0  0  0  0  0  0
  150.0481  141.8739  154.8860 H   0  0  0  0  0  0  0  0  0  0  0  0
  147.1045  141.5512  155.5426 H   0  0  0  0  0  0  0  0  0  0  0  0
  147.8462  142.7675  154.4969 H   0  0  0  0  0  0  0  0  0  0  0  0
  146.7678  140.5460  153.3625 H   0  0  0  0  0  0  0  0  0  0  0  0
  148.3417  141.1150  152.8053 H   0  0  0  0  0  0  0  0  0  0  0  0
  149.0502  138.9644  153.4219 H   0  0  0  0  0  0  0  0  0  0  0  0
  147.7533  138.7874  154.6076 H   0  0  0  0  0  0  0  0  0  0  0  0
  145.7216  137.2364  160.1232 H   0  0  0  0  0  0  0  0  0  0  0  0
  145.0014  135.6723  160.3978 H   0  0  0  0  0  0  0  0  0  0  0  0
  146.4564  137.3563  162.4938 H   0  0  0  0  0  0  0  0  0  0  0  0
  144.7493  137.0024  162.4057 H   0  0  0  0  0  0  0  0  0  0  0  0
  147.9851  135.5023  163.0895 H   0  0  0  0  0  0  0  0  0  0  0  0
  147.2690  133.9407  163.3897 H   0  0  0  0  0  0  0  0  0  0  0  0
  146.6176  133.6489  161.1133 H   0  0  0  0  0  0  0  0  0  0  0  0
  148.3377  133.9291  161.1333 H   0  0  0  0  0  0  0  0  0  0  0  0
  1  2  1  0  0  0  0
  1 26  1  0  0  0  0
  1 27  1  0  0  0  0
  1 28  1  0  0  0  0
  2  3  1  0  0  0  0
  2  4  1  0  0  0  0
  3 29  1  0  0  0  0
  3 30  1  0  0  0  0
  3 31  1  0  0  0  0
  4 25  1  0  0  0  0
  4  5  1  0  0  0  0
  4 21  1  0  0  0  0
  5  6  1  0  0  0  0
  5 32  1  0  0  0  0
  5 33  1  0  0  0  0
  6  7  1  0  0  0  0
  6 34  1  0  0  0  0
  7  8  2  0  0  0  0
  7  9  1  0  0  0  0
  9 10  1  0  0  0  0
  9 35  1  0  0  0  0
 10 15  1  0  0  0  0
 10 11  2  0  0  0  0
 11 12  1  0  0  0  0
 11 36  1  0  0  0  0
 12 13  2  0  0  0  0
 12 37  1  0  0  0  0
 13 14  1  0  0  0  0
 13 38  1  0  0  0  0
 14 15  2  0  0  0  0
 15 16  1  0  0  0  0
 16 20  1  0  0  0  0
 16 17  1  0  0  0  0
 17 18  1  0  0  0  0
 17 39  1  0  0  0  0
 17 40  1  0  0  0  0
 18 19  1  0  0  0  0
 18 41  1  0  0  0  0
 18 42  1  0  0  0  0
 19 20  1  0  0  0  0
 19 43  1  0  0  0  0
 19 44  1  0  0  0  0
 20 45  1  0  0  0  0
 20 46  1  0  0  0  0
 21 22  1  0  0  0  0
 21 47  1  0  0  0  0
 21 48  1  0  0  0  0
 22 23  1  0  0  0  0
 22 49  1  0  0  0  0
 22 50  1  0  0  0  0
 23 24  1  0  0  0  0
 24 25  1  0  0  0  0
 24 51  1  0  0  0  0
 24 52  1  0  0  0  0
 25 53  1  0  0  0  0
 25 54  1  0  0  0  0
M  END
> <s_m_source_file>
AV-unprocessed.smi

> <i_m_source_file_index>
1010

> <i_lp_mmshare_version>
43012

> <i_f3d_flags>
0

> <s_epik_input>
W0NIMl0xW0NIMl1PW0NIMl1bQ0gyXUMxKE4oW0NIM10pW0NIM10pW0NIMl1bTkhdQyg9TylbTkhdYzJbY0hdW2NIXVtjSF1uYzJOM1tDSDJdW0NIMl1bQ0gyXVtDSDJdMw==

> <s_epik_cmdline>
J2VwaWtfcHl0aG9uJywgJy1waCcsICc3LjAnLCAnLXRuJywgJzgnLCAnLW1hJywgJzIwMCcsICctbWV0YWxfYmluZGluZycsICctaW1hZScsICc8aW5maWxlLm1hZT4nLCAnLW9tYWUnLCAnPG91dGZpbGUubWFlPic=

> <r_lp_tautomer_probability>
1

> <r_epik_Ionization_Penalty>
2.38232

> <r_epik_Ionization_Penalty_Charging>
0

> <r_epik_Ionization_Penalty_Neutral>
2.38232

> <r_epik_State_Penalty>
2.49988

> <r_epik_Charging_Adjusted_Penalty>
2.49988

> <i_epik_Tot_Q>
0

> <i_epik_Tot_abs_Q>
0

> <r_epik_Metal_State_Penalty>
2.47138

> <b_epik_Metal_Only>
0

> <s_lp_Force_Field>
OPLS_2005

> <r_lp_Energy>
56.3274

> <b_lp_Chiralities_Consistent>
1

> <s_lp_Variant>
AV-unprocessed.smi:1010-3

> <Gold.Version>
5.8.1

> <Gold.Id.Protein>
6NUR|6NUR_protein|mol2

> <Gold.PLP.Fitness>
38.0179

> <Gold.PLP.PLP>
-33.1713

> <Gold.PLP.part.hbond>
-2.0000

> <Gold.PLP.part.metal>
0.0000

> <Gold.PLP.part.buried>
-2.8659

> <Gold.PLP.part.nonpolar>
-29.0664

> <Gold.PLP.part.repulsive>
0.3613

> <Gold.PLP.ligand.clash>
0.0000

> <Gold.PLP.ligand.torsion>
0.7789

> <Gold.PLP.Chemscore.Hbond>
2.0000

> <Gold.PLP.Chemscore.CHOScore>
0.0000

> <Gold.PLP.Chemscore.Metal>
0.0000

> <Gold.Chemscore.Hbonds>
donor molecule, donor type, donor heavy atom, donor atom, acceptor molecule, acceptor atom, score
      P1  H  6896  6909       L1     8  1.00
      P1  H  7989  7998       L1    14  1.00

> <Gold.PLP.Chemscore.Internal.Correction>
0.4045

> <Gold.Rescore>
     Score         DG    S(hbond)    S(metal)    S(lipo)     H(rot)  DE(clash)    DE(int)     intcor
     16.47     -18.59       1.84        0.00      93.14       1.54       0.26       1.86       ----

> <Gold.Chemscore.Fitness>
16.4705

> <Gold.Chemscore.DG>
-18.5870

> <Gold.Chemscore.ZeroCoef>
-5.4800

> <Gold.Chemscore.Hbond>
1.8390

> <Gold.Chemscore.Metal>
0.0000

> <Gold.Chemscore.Lipo>
93.1390

> <Gold.Chemscore.Internal_Hbond>
0.0000

> <Gold.Chemscore.DEClash>
0.2589

> <Gold.Chemscore.DEInternal>
1.8576

> <Gold.Chemscore.Rot>
1.5362

> <Gold.Chemscore.Internal.Correction>
   9.000000E+99

> <Gold.Chemscore.Hbonds>
donor molecule, donor type, donor heavy atom, donor atom, acceptor molecule, acceptor atom, score
      P1  H  6896  6909       L1     8  0.97
      P1  H  7989  7998       L1    14  0.78

> <Gold.Chemscore.Hbond.Weighted>
-6.1424

> <Gold.Chemscore.Metal.Weighted>
-0.0000

> <Gold.Chemscore.Lipo.Weighted>
-10.8973

> <Gold.Chemscore.Internal_Hbond.Weighted>
0.0000

> <Gold.Chemscore.DEClash.Weighted>
0.2589

> <Gold.Chemscore.DEInternal.Weighted>
1.8576

> <Gold.Chemscore.Rot.Weighted>
3.9326

> <Gold.Chemscore.Internal.Correction.Weighted>
   9.000000E+99

> <Gold.Protein.RotatedTorsions>
[ 6907 6896 6895 6894 ] final   91.93 input  -60.11 | X-H torsion
[ 7974 7965 7964 7962 ] final  -87.68 input  175.53 | X-H torsion
[ 8008 7997 7996 7995 ] final   -8.69 input   59.86 | X-H torsion
[ 10167 10162 10161 10158 ] final -107.40 input  -65.29 | X-H torsion
[ 10718 10713 10712 10709 ] final   48.19 input   66.30 | X-H torsion
[ 10763 10752 10751 10750 ] final  -90.01 input  -60.55 | X-H torsion
[ 11005 11000 10999 10996 ] final   92.98 input  -57.11 | X-H torsion

> <Gold.Protein.ActiveResidues>
 VAL166  LYS551  ARG553  GLY616  TRP617  ASP618  TYR619  PRO620  LYS621  CYS622 
 ASP623  PHE694  ASN695  SER759  ASP760  ASP761  ALA762  ILE779  LEU786  VAL792 
 PHE793  MET794  SER795  GLU796  ALA797  LYS798  CYS799  TRP800  GLU811  SER814 

> <Gold.Protein.RotatedAtoms>
  152.5451  134.1580  159.8545 H   0  0  0  0  0  0  0  0  0  0  0  0  # atno 6907 bound_to 6896
  151.1601  133.4843  159.2602 H   0  0  0  0  0  0  0  0  0  0  0  0  # atno 6908 bound_to 6896
  151.1382  135.0176  159.8668 H   0  0  0  0  0  0  0  0  0  0  0  0  # atno 6909 bound_to 6896
  145.4633  140.9560  143.1957 H   0  0  0  0  0  0  0  0  0  0  0  0  # atno 7974 bound_to 7965
  154.5717  140.2374  155.8181 H   0  0  0  0  0  0  0  0  0  0  0  0  # atno 8008 bound_to 7997
  156.2112  140.3025  155.9694 H   0  0  0  0  0  0  0  0  0  0  0  0  # atno 8009 bound_to 7997
  155.2700  140.0418  157.2996 H   0  0  0  0  0  0  0  0  0  0  0  0  # atno 8010 bound_to 7997
  140.1774  143.3994  152.1308 H   0  0  0  0  0  0  0  0  0  0  0  0  # atno 10167 bound_to 10162
  157.4662  130.8227  149.7938 H   0  0  0  0  0  0  0  0  0  0  0  0  # atno 10718 bound_to 10713
  154.6613  135.5320  153.8021 H   0  0  0  0  0  0  0  0  0  0  0  0  # atno 10763 bound_to 10752
  153.0443  135.6506  154.0868 H   0  0  0  0  0  0  0  0  0  0  0  0  # atno 10764 bound_to 10752
  154.0776  135.2949  155.3276 H   0  0  0  0  0  0  0  0  0  0  0  0  # atno 10765 bound_to 10752
  139.8816  134.8764  156.3651 H   0  0  0  0  0  0  0  0  0  0  0  0  # atno 11005 bound_to 11000
  144.7989  139.6179  143.7080 LP  0  0  0  0  0  0  0  0  0  0  0  0  # atno 17320 bound_to 7965
  146.2439  139.6057  142.9473 LP  0  0  0  0  0  0  0  0  0  0  0  0  # atno 17321 bound_to 7965
  139.5311  144.7160  151.5053 LP  0  0  0  0  0  0  0  0  0  0  0  0  # atno 17342 bound_to 10162
  140.6542  143.8634  150.6817 LP  0  0  0  0  0  0  0  0  0  0  0  0  # atno 17343 bound_to 10162
  156.0051  130.3859  150.2460 LP  0  0  0  0  0  0  0  0  0  0  0  0  # atno 17370 bound_to 10713
  157.0640  131.0098  151.3213 LP  0  0  0  0  0  0  0  0  0  0  0  0  # atno 17371 bound_to 10713
  140.9503  133.7456  156.0263 LP  0  0  0  0  0  0  0  0  0  0  0  0  # atno 17394 bound_to 11000
  140.8114  134.3395  157.5410 LP  0  0  0  0  0  0  0  0  0  0  0  0  # atno 17395 bound_to 11000

$$$$
