#       Name:                AV-unprocessed.smi:2741
#       Creating user name   scv26
#       Creation time:       Fri Mar 27 15:01:03 2020


#       File generated by GOLD software.
#

@<TRIPOS>MOLECULE
AV-unprocessed.smi:2741
    45    46     1
SMALL
NO_CHARGES


@<TRIPOS>ATOM
      1 ****        -0.3819   0.8456  -0.8230 O.2            1 S1                 0.0000
      2 ****         0.2052  -0.2363  -0.7767 C.2            1 S1                 0.0000
      3 ****         1.7131  -0.3255  -1.0508 C.3            1 S1                 0.0000
      4 ****         2.2159   0.7669  -1.9008 N.am           1 S1                 0.0000
      5 ****         2.8299   1.8566  -1.2523 C.2            1 S1                 0.0000
      6 ****         3.3187   2.9228  -1.9144 C.2            1 S1                 0.0000
      7 ****         4.0219   4.0601  -1.1897 C.3            1 S1                 0.0000
      8 ****         4.9073   4.6620  -1.9843 F              1 S1                 0.0000
      9 ****         3.1294   4.9687  -0.7988 F              1 S1                 0.0000
     10 ****         4.6636   3.6169  -0.1078 F              1 S1                 0.0000
     11 ****         3.2154   2.8875  -3.3601 C.2            1 S1                 0.0000
     12 ****         2.6365   1.8503  -3.9963 C.2            1 S1                 0.0000
     13 ****         2.0871   0.7095  -3.2604 C.2            1 S1                 0.0000
     14 ****         1.5474  -0.2395  -3.8301 O.2            1 S1                 0.0000
     15 ****        -0.4044  -1.3906  -0.4680 N.am           1 S1                 0.0000
     16 ****        -1.8218  -1.5355  -0.1539 C.3            1 S1                 0.0000
     17 ****        -2.1341  -1.1492   1.3051 C.3            1 S1                 0.0000
     18 ****        -1.3469  -1.9541   2.3512 C.3            1 S1                 0.0000
     19 ****        -2.2336  -1.9304   3.5927 C.3            1 S1                 0.0000
     20 ****        -3.6402  -2.0844   3.0164 C.3            1 S1                 0.0000
     21 ****        -4.6302  -1.6017   3.8998 O.3            1 S1                 0.0000
     22 ****        -3.6189  -1.3183   1.6847 C.3            1 S1                 0.0000
     23 ****         2.2305  -0.3349  -0.0905 H              1 S1                 0.0000
     24 ****         1.9445  -1.2901  -1.5072 H              1 S1                 0.0000
     25 ****         2.8746   1.7728  -0.1760 H              1 S1                 0.0000
     26 ****         3.6042   3.7086  -3.9442 H              1 S1                 0.0000
     27 ****         2.5743   1.8588  -5.0746 H              1 S1                 0.0000
     28 ****         0.1545  -2.2313  -0.4469 H              1 S1                 0.0000
     29 ****        -2.4200  -0.9355  -0.8420 H              1 S1                 0.0000
     30 ****        -2.0999  -2.5747  -0.3318 H              1 S1                 0.0000
     31 ****        -1.8844  -0.0964   1.4467 H              1 S1                 0.0000
     32 ****        -1.2187  -2.9848   2.0177 H              1 S1                 0.0000
     33 ****        -0.3555  -1.5400   2.5380 H              1 S1                 0.0000
     34 ****        -1.9815  -2.7133   4.3087 H              1 S1                 0.0000
     35 ****        -2.1310  -0.9676   4.0962 H              1 S1                 0.0000
     36 ****        -3.8302  -3.1406   2.8192 H              1 S1                 0.0000
     37 ****        -5.4767  -1.7173   3.4956 H              1 S1                 0.0000
     38 ****        -4.0817  -0.3354   1.7851 H              1 S1                 0.0000
     39 ****        -4.1829  -1.8599   0.9242 H              1 S1                 0.0000
     40 ****         0.1241   1.6801  -1.0413 LP             1 S1                 0.0000
     41 ****        -1.3644   0.8894  -0.6423 LP             1 S1                 0.0000
     42 ****         1.1852  -1.0031  -3.2957 LP             1 S1                 0.0000
     43 ****         1.4714  -0.2465  -4.8272 LP             1 S1                 0.0000
     44 ****        -4.4740  -0.6311   4.0831 LP             1 S1                 0.0000
     45 ****        -4.5940  -2.1131   4.7584 LP             1 S1                 0.0000
@<TRIPOS>BOND
    1    1    2 2     
    2    2    3 1     
    3    2   15 am    
    4    3    4 1     
    5    3   23 1     
    6    3   24 1     
    7    4   13 am    
    8    4    5 1     
    9    5    6 2     
   10    5   25 1     
   11    6    7 1     
   12    6   11 1     
   13    7    8 1     
   14    7    9 1     
   15    7   10 1     
   16   11   12 2     
   17   11   26 1     
   18   12   13 1     
   19   12   27 1     
   20   13   14 2     
   21   15   16 1     
   22   15   28 1     
   23   16   17 1     
   24   16   29 1     
   25   16   30 1     
   26   17   22 1     
   27   17   18 1     
   28   17   31 1     
   29   18   19 1     
   30   18   32 1     
   31   18   33 1     
   32   19   20 1     
   33   19   34 1     
   34   19   35 1     
   35   20   21 1     
   36   20   22 1     
   37   20   36 1     
   38   21   37 1     
   39   22   38 1     
   40   22   39 1     
   41    1   40 1     
   42    1   41 1     
   43   14   42 1     
   44   14   43 1     
   45   21   44 1     
   46   21   45 1     
@<TRIPOS>SUBSTRUCTURE
      1 S1             1
@<TRIPOS>SET
LONE_PAIRS      STATIC     ATOMS    <user>   **** ""
6 40 41 42 43 44 45
DONOR_HYDROGENS      STATIC     ATOMS    <user>   **** ""
2 28 37
ATOM$BLUE        STATIC     ATOMS    COLORGROUP SYSTEM
6 40 41 42 43 44 45
ATOM$RED        STATIC     ATOMS    COLORGROUP SYSTEM
2 28 37
