AV-unprocessed.smi:2501|AV-procd|sdf|9843|dock2
  -GOLD-   2272013463D 1   1.00000     0.00000
 Structure written by MMmdl.
 43 44  0  0  0  0  0  0  0  0  1 V2000
  149.6027  141.7788  155.7083 C   0  0  0  0  0  0  0  0  0  0  0  0
  150.4559  140.5976  155.2808 C   0  0  0  0  0  0  0  0  0  0  0  0
  151.7920  140.5008  155.7273 C   0  0  0  0  0  0  0  0  0  0  0  0
  152.6189  139.4861  155.3983 N   0  0  0  0  0  0  0  0  0  0  0  0
  152.1356  138.5146  154.5970 C   0  0  0  0  0  0  0  0  0  0  0  0
  150.8201  138.5106  154.0942 C   0  0  0  0  0  0  0  0  0  0  0  0
  149.9566  139.5710  154.4409 C   0  0  0  0  0  0  0  0  0  0  0  0
  148.5338  139.5802  153.9043 C   0  0  0  0  0  0  0  0  0  0  0  0
  147.7559  138.3154  154.2933 C   0  0  0  0  0  0  0  0  0  0  0  0
  147.0296  137.7902  153.1449 N   0  0  0  0  0  0  0  0  0  0  0  0
  145.7035  137.5830  153.1021 C   0  0  0  0  0  0  0  0  0  0  0  0
  144.9716  137.8378  154.0595 O   0  0  0  0  0  0  0  0  0  0  0  0
  145.2439  137.0778  151.9289 N   0  0  0  0  0  0  0  0  0  0  0  0
  146.0600  136.5869  150.8065 C   0  0  0  0  0  0  0  0  0  0  0  0
  145.9774  135.0489  150.7673 C   0  0  0  0  0  0  0  0  0  0  0  0
  144.5149  134.5381  150.6850 C   0  0  0  0  0  0  0  0  0  0  0  0
  144.0211  134.8511  149.3940 O   0  0  0  0  0  0  0  0  0  0  0  0
  144.4387  133.0001  150.8396 C   0  0  0  0  0  0  0  0  0  0  0  0
  143.1780  132.5864  150.7058 F   0  0  0  0  0  0  0  0  0  0  0  0
  145.1758  132.3946  149.9075 F   0  0  0  0  0  0  0  0  0  0  0  0
  144.8711  132.6292  152.0459 F   0  0  0  0  0  0  0  0  0  0  0  0
  143.6165  135.2631  151.7204 C   0  0  0  0  0  0  0  0  0  0  0  0
  143.8223  136.7904  151.7084 C   0  0  0  0  0  0  0  0  0  0  0  0
  150.1907  142.5079  156.2666 H   0  0  0  0  0  0  0  0  0  0  0  0
  148.7858  141.4461  156.3488 H   0  0  0  0  0  0  0  0  0  0  0  0
  149.1804  142.2877  154.8421 H   0  0  0  0  0  0  0  0  0  0  0  0
  152.2130  141.2599  156.3702 H   0  0  0  0  0  0  0  0  0  0  0  0
  152.8180  137.7154  154.3481 H   0  0  0  0  0  0  0  0  0  0  0  0
  150.4842  137.7077  153.4544 H   0  0  0  0  0  0  0  0  0  0  0  0
  148.0197  140.4605  154.2931 H   0  0  0  0  0  0  0  0  0  0  0  0
  148.5458  139.7002  152.8208 H   0  0  0  0  0  0  0  0  0  0  0  0
  148.4419  137.5603  154.6796 H   0  0  0  0  0  0  0  0  0  0  0  0
  147.0443  138.5388  155.0893 H   0  0  0  0  0  0  0  0  0  0  0  0
  147.5717  137.5635  152.3238 H   0  0  0  0  0  0  0  0  0  0  0  0
  145.6763  137.0069  149.8756 H   0  0  0  0  0  0  0  0  0  0  0  0
  147.1034  136.8994  150.8479 H   0  0  0  0  0  0  0  0  0  0  0  0
  146.5615  134.6677  149.9288 H   0  0  0  0  0  0  0  0  0  0  0  0
  146.4503  134.6555  151.6678 H   0  0  0  0  0  0  0  0  0  0  0  0
  144.6912  134.6456  148.7599 H   0  0  0  0  0  0  0  0  0  0  0  0
  142.5661  135.0295  151.5423 H   0  0  0  0  0  0  0  0  0  0  0  0
  143.8426  134.8919  152.7208 H   0  0  0  0  0  0  0  0  0  0  0  0
  143.1767  137.2569  152.4537 H   0  0  0  0  0  0  0  0  0  0  0  0
  143.5102  137.2084  150.7503 H   0  0  0  0  0  0  0  0  0  0  0  0
  1  2  1  0  0  0  0
  1 24  1  0  0  0  0
  1 25  1  0  0  0  0
  1 26  1  0  0  0  0
  2  7  1  0  0  0  0
  2  3  2  0  0  0  0
  3  4  1  0  0  0  0
  3 27  1  0  0  0  0
  4  5  2  0  0  0  0
  5  6  1  0  0  0  0
  5 28  1  0  0  0  0
  6  7  2  0  0  0  0
  6 29  1  0  0  0  0
  7  8  1  0  0  0  0
  8  9  1  0  0  0  0
  8 30  1  0  0  0  0
  8 31  1  0  0  0  0
  9 10  1  0  0  0  0
  9 32  1  0  0  0  0
  9 33  1  0  0  0  0
 10 11  1  0  0  0  0
 10 34  1  0  0  0  0
 11 12  2  0  0  0  0
 11 13  1  0  0  0  0
 13 23  1  0  0  0  0
 13 14  1  0  0  0  0
 14 15  1  0  0  0  0
 14 35  1  0  0  0  0
 14 36  1  0  0  0  0
 15 16  1  0  0  0  0
 15 37  1  0  0  0  0
 15 38  1  0  0  0  0
 16 17  1  0  0  0  0
 16 18  1  0  0  0  0
 16 22  1  0  0  0  0
 17 39  1  0  0  0  0
 18 19  1  0  0  0  0
 18 20  1  0  0  0  0
 18 21  1  0  0  0  0
 22 23  1  0  0  0  0
 22 40  1  0  0  0  0
 22 41  1  0  0  0  0
 23 42  1  0  0  0  0
 23 43  1  0  0  0  0
M  END
> <s_m_source_file>
AV-unprocessed.smi

> <i_m_source_file_index>
2501

> <i_lp_mmshare_version>
43012

> <i_f3d_flags>
0

> <s_epik_input>
W0NIM11jMVtjSF1uW2NIXVtjSF1jMVtDSDJdW0NIMl1bTkhdQyg9TylOKFtDSDJdW0NIMl0yKVtDSDJdW0NIMl1DMihbT0hdKUMoRikoRilG

> <s_epik_cmdline>
J2VwaWtfcHl0aG9uJywgJy1waCcsICc3LjAnLCAnLXRuJywgJzgnLCAnLW1hJywgJzIwMCcsICctbWV0YWxfYmluZGluZycsICctaW1hZScsICc8aW5maWxlLm1hZT4nLCAnLW9tYWUnLCAnPG91dGZpbGUubWFlPic=

> <r_epik_Ionization_Penalty>
0.105852

> <r_epik_Ionization_Penalty_Charging>
0

> <r_epik_Ionization_Penalty_Neutral>
0.105852

> <r_epik_State_Penalty>
0.0956543

> <r_epik_Charging_Adjusted_Penalty>
0.0956543

> <i_epik_Tot_Q>
0

> <i_epik_Tot_abs_Q>
0

> <r_epik_Metal_State_Penalty>
0.0810448

> <b_epik_Metal_Only>
0

> <s_lp_Force_Field>
OPLS_2005

> <r_lp_Energy>
37.1862

> <b_lp_Chiralities_Consistent>
1

> <s_lp_Variant>
AV-unprocessed.smi:2501-1

> <Gold.Version>
5.8.1

> <Gold.Id.Protein>
6NUR|6NUR_protein|mol2

> <Gold.PLP.Fitness>
52.8123

> <Gold.PLP.PLP>
-45.1133

> <Gold.PLP.part.hbond>
-3.8424

> <Gold.PLP.part.metal>
0.0000

> <Gold.PLP.part.buried>
-5.3946

> <Gold.PLP.part.nonpolar>
-35.7587

> <Gold.PLP.part.repulsive>
0.0822

> <Gold.PLP.ligand.clash>
0.0000

> <Gold.PLP.ligand.torsion>
0.3592

> <Gold.PLP.Chemscore.Hbond>
2.7840

> <Gold.PLP.Chemscore.CHOScore>
0.0000

> <Gold.PLP.Chemscore.Metal>
0.0000

> <Gold.Chemscore.Hbonds>
donor molecule, donor type, donor heavy atom, donor atom, acceptor molecule, acceptor atom, score
      L1  H    10    34       P1  7948  0.74
      L1  H    17    39       P1  7921  1.00
      P1  H  7997  8009       L1     4  1.00

> <Gold.PLP.Chemscore.Internal.Correction>
0.0654

> <Gold.Rescore>
     Score         DG    S(hbond)    S(metal)    S(lipo)     H(rot)  DE(clash)    DE(int)     intcor
     18.01     -19.00       2.68        0.00      81.57       1.95       0.48       0.51       ----

> <Gold.Chemscore.Fitness>
18.0083

> <Gold.Chemscore.DG>
-18.9977

> <Gold.Chemscore.ZeroCoef>
-5.4800

> <Gold.Chemscore.Hbond>
2.6841

> <Gold.Chemscore.Metal>
0.0000

> <Gold.Chemscore.Lipo>
81.5688

> <Gold.Chemscore.Internal_Hbond>
0.0000

> <Gold.Chemscore.DEClash>
0.4809

> <Gold.Chemscore.DEInternal>
0.5085

> <Gold.Chemscore.Rot>
1.9495

> <Gold.Chemscore.Internal.Correction>
   9.000000E+99

> <Gold.Chemscore.Hbonds>
donor molecule, donor type, donor heavy atom, donor atom, acceptor molecule, acceptor atom, score
      L1  H    10    34       P1  7948  0.73
      L1  H    17    39       P1  7921  1.00
      P1  H  7997  8009       L1     4  0.28

> <Gold.Chemscore.Hbond.Weighted>
-8.9648

> <Gold.Chemscore.Metal.Weighted>
-0.0000

> <Gold.Chemscore.Lipo.Weighted>
-9.5435

> <Gold.Chemscore.Internal_Hbond.Weighted>
0.0000

> <Gold.Chemscore.DEClash.Weighted>
0.4809

> <Gold.Chemscore.DEInternal.Weighted>
0.5085

> <Gold.Chemscore.Rot.Weighted>
4.9907

> <Gold.Chemscore.Internal.Correction.Weighted>
   9.000000E+99

> <Gold.Protein.RotatedTorsions>
[ 6907 6896 6895 6894 ] final -127.08 input  -60.11 | X-H torsion
[ 7974 7965 7964 7962 ] final   65.11 input  175.53 | X-H torsion
[ 8008 7997 7996 7995 ] final -156.26 input   59.86 | X-H torsion
[ 10167 10162 10161 10158 ] final  121.08 input  -65.29 | X-H torsion
[ 10718 10713 10712 10709 ] final   99.06 input   66.30 | X-H torsion
[ 10763 10752 10751 10750 ] final   51.90 input  -60.55 | X-H torsion
[ 11005 11000 10999 10996 ] final  100.10 input  -57.11 | X-H torsion

> <Gold.Protein.ActiveResidues>
 VAL166  LYS551  ARG553  GLY616  TRP617  ASP618  TYR619  PRO620  LYS621  CYS622 
 ASP623  PHE694  ASN695  SER759  ASP760  ASP761  ALA762  ILE779  LEU786  VAL792 
 PHE793  MET794  SER795  GLU796  ALA797  LYS798  CYS799  TRP800  GLU811  SER814 

> <Gold.Protein.RotatedAtoms>
  150.9035  133.7087  159.2872 H   0  0  0  0  0  0  0  0  0  0  0  0  # atno 6907 bound_to 6896
  151.4598  135.1036  159.9731 H   0  0  0  0  0  0  0  0  0  0  0  0  # atno 6908 bound_to 6896
  152.4890  133.8401  159.7203 H   0  0  0  0  0  0  0  0  0  0  0  0  # atno 6909 bound_to 6896
  145.8423  139.3203  143.0924 H   0  0  0  0  0  0  0  0  0  0  0  0  # atno 7974 bound_to 7965
  155.7144  140.0782  157.2357 H   0  0  0  0  0  0  0  0  0  0  0  0  # atno 8008 bound_to 7997
  154.4054  140.1624  156.2386 H   0  0  0  0  0  0  0  0  0  0  0  0  # atno 8009 bound_to 7997
  155.9253  140.3395  155.6208 H   0  0  0  0  0  0  0  0  0  0  0  0  # atno 8010 bound_to 7997
  139.5942  144.7036  151.3217 H   0  0  0  0  0  0  0  0  0  0  0  0  # atno 10167 bound_to 10162
  157.6883  131.0658  150.4891 H   0  0  0  0  0  0  0  0  0  0  0  0  # atno 10718 bound_to 10713
  152.9786  135.5830  154.4490 H   0  0  0  0  0  0  0  0  0  0  0  0  # atno 10763 bound_to 10752
  154.4082  135.2769  155.2056 H   0  0  0  0  0  0  0  0  0  0  0  0  # atno 10764 bound_to 10752
  154.3857  135.6136  153.5869 H   0  0  0  0  0  0  0  0  0  0  0  0  # atno 10765 bound_to 10752
  139.8771  134.9125  156.4704 H   0  0  0  0  0  0  0  0  0  0  0  0  # atno 11005 bound_to 11000
  145.9451  140.8951  143.0288 LP  0  0  0  0  0  0  0  0  0  0  0  0  # atno 17320 bound_to 7965
  144.6733  140.1602  143.7423 LP  0  0  0  0  0  0  0  0  0  0  0  0  # atno 17321 bound_to 7965
  140.7198  143.7167  150.7727 LP  0  0  0  0  0  0  0  0  0  0  0  0  # atno 17342 bound_to 10162
  140.0729  143.5043  152.2570 LP  0  0  0  0  0  0  0  0  0  0  0  0  # atno 17343 bound_to 10162
  156.5218  130.4164  149.6246 LP  0  0  0  0  0  0  0  0  0  0  0  0  # atno 17370 bound_to 10713
  156.3147  130.7248  151.2148 LP  0  0  0  0  0  0  0  0  0  0  0  0  # atno 17371 bound_to 10713
  140.8799  133.7925  155.9456 LP  0  0  0  0  0  0  0  0  0  0  0  0  # atno 17394 bound_to 11000
  140.8864  134.2548  157.5117 LP  0  0  0  0  0  0  0  0  0  0  0  0  # atno 17395 bound_to 11000

$$$$
