AV-unprocessed.smi:1323|AV-procd|sdf|5465|dock8
  -GOLD-   22720 5 33D 1   1.00000     0.00000
 Structure written by MMmdl.
 45 46  0  0  0  0  0  0  0  0  1 V2000
  154.1361  140.2647  160.7104 C   0  0  0  0  0  0  0  0  0  0  0  0
  153.5250  141.3784  159.8445 C   0  0  2  0  0  0  0  0  0  0  0  0
  153.1235  142.5852  160.7168 C   0  0  0  0  0  0  0  0  0  0  0  0
  152.5022  143.7129  159.8791 C   0  0  0  0  0  0  0  0  0  0  0  0
  151.2952  143.2024  159.0803 C   0  0  0  0  0  0  0  0  0  0  0  0
  151.6856  142.0081  158.1971 C   0  0  0  0  0  0  0  0  0  0  0  0
  152.3176  140.8686  159.0248 C   0  0  1  0  0  0  0  0  0  0  0  0
  152.7842  139.8561  158.1419 O   0  0  0  0  0  0  0  0  0  0  0  0
  151.7646  139.0185  157.6171 C   0  0  0  0  0  0  0  0  0  0  0  0
  151.6208  137.7875  158.5180 C   0  0  0  0  0  0  0  0  0  0  0  0
  150.2834  137.7303  159.0913 N   0  0  0  0  0  0  0  0  0  0  0  0
  149.4157  136.7273  158.9004 C   0  0  0  0  0  0  0  0  0  0  0  0
  149.6708  135.7399  158.2090 O   0  0  0  0  0  0  0  0  0  0  0  0
  148.0541  136.8846  159.5930 C   0  0  0  0  0  0  0  0  0  0  0  0
  147.7563  135.8169  160.5623 N   0  0  0  0  0  0  0  0  0  0  0  0
  147.8435  134.4896  160.0972 C   0  0  0  0  0  0  0  0  0  0  0  0
  147.5944  133.4396  160.8954 C   0  0  0  0  0  0  0  0  0  0  0  0
  147.2262  133.6973  162.2673 C   0  0  0  0  0  0  0  0  0  0  0  0
  147.1444  134.9630  162.7239 C   0  0  0  0  0  0  0  0  0  0  0  0
  147.4201  136.1139  161.8557 C   0  0  0  0  0  0  0  0  0  0  0  0
  147.3527  137.2729  162.2660 O   0  0  0  0  0  0  0  0  0  0  0  0
  153.4115  139.8761  161.4267 H   0  0  0  0  0  0  0  0  0  0  0  0
  154.9949  140.6322  161.2726 H   0  0  0  0  0  0  0  0  0  0  0  0
  154.4804  139.4299  160.0998 H   0  0  0  0  0  0  0  0  0  0  0  0
  154.2923  141.7133  159.1449 H   0  0  0  0  0  0  0  0  0  0  0  0
  152.4116  142.2681  161.4802 H   0  0  0  0  0  0  0  0  0  0  0  0
  153.9954  142.9671  161.2491 H   0  0  0  0  0  0  0  0  0  0  0  0
  152.1986  144.5350  160.5279 H   0  0  0  0  0  0  0  0  0  0  0  0
  153.2504  144.1168  159.1960 H   0  0  0  0  0  0  0  0  0  0  0  0
  150.4992  142.9076  159.7651 H   0  0  0  0  0  0  0  0  0  0  0  0
  150.8916  144.0055  158.4632 H   0  0  0  0  0  0  0  0  0  0  0  0
  150.8042  141.6522  157.6642 H   0  0  0  0  0  0  0  0  0  0  0  0
  152.3921  142.3390  157.4347 H   0  0  0  0  0  0  0  0  0  0  0  0
  151.5775  140.4600  159.7161 H   0  0  0  0  0  0  0  0  0  0  0  0
  150.8225  139.5680  157.5921 H   0  0  0  0  0  0  0  0  0  0  0  0
  151.9884  138.7102  156.5953 H   0  0  0  0  0  0  0  0  0  0  0  0
  151.8215  136.8771  157.9512 H   0  0  0  0  0  0  0  0  0  0  0  0
  152.3545  137.8350  159.3240 H   0  0  0  0  0  0  0  0  0  0  0  0
  149.9976  138.5102  159.6657 H   0  0  0  0  0  0  0  0  0  0  0  0
  148.0147  137.8607  160.0805 H   0  0  0  0  0  0  0  0  0  0  0  0
  147.2823  136.9215  158.8226 H   0  0  0  0  0  0  0  0  0  0  0  0
  148.1311  134.3832  159.0612 H   0  0  0  0  0  0  0  0  0  0  0  0
  147.6715  132.4291  160.5222 H   0  0  0  0  0  0  0  0  0  0  0  0
  147.0169  132.8711  162.9308 H   0  0  0  0  0  0  0  0  0  0  0  0
  146.8688  135.1366  163.7537 H   0  0  0  0  0  0  0  0  0  0  0  0
  1  2  1  0  0  0  0
  1 22  1  0  0  0  0
  1 23  1  0  0  0  0
  1 24  1  0  0  0  0
  2  7  1  0  0  0  0
  2  3  1  0  0  0  0
  2 25  1  0  0  0  0
  3  4  1  0  0  0  0
  3 26  1  0  0  0  0
  3 27  1  0  0  0  0
  4  5  1  0  0  0  0
  4 28  1  0  0  0  0
  4 29  1  0  0  0  0
  5  6  1  0  0  0  0
  5 30  1  0  0  0  0
  5 31  1  0  0  0  0
  6  7  1  0  0  0  0
  6 32  1  0  0  0  0
  6 33  1  0  0  0  0
  7  8  1  0  0  0  0
  7 34  1  0  0  0  0
  8  9  1  0  0  0  0
  9 10  1  0  0  0  0
  9 35  1  0  0  0  0
  9 36  1  0  0  0  0
 10 11  1  0  0  0  0
 10 37  1  0  0  0  0
 10 38  1  0  0  0  0
 11 12  1  0  0  0  0
 11 39  1  0  0  0  0
 12 13  2  0  0  0  0
 12 14  1  0  0  0  0
 14 15  1  0  0  0  0
 14 40  1  0  0  0  0
 14 41  1  0  0  0  0
 15 20  1  0  0  0  0
 15 16  1  0  0  0  0
 16 17  2  0  0  0  0
 16 42  1  0  0  0  0
 17 18  1  0  0  0  0
 17 43  1  0  0  0  0
 18 19  2  0  0  0  0
 18 44  1  0  0  0  0
 19 20  1  0  0  0  0
 19 45  1  0  0  0  0
 20 21  2  0  0  0  0
M  END
> <s_m_source_file>
AV-unprocessed.smi

> <i_m_source_file_index>
1323

> <i_lp_mmshare_version>
43012

> <i_f3d_flags>
0

> <s_epik_input>
W0NIM11bQ0BASF0xW0NIMl1bQ0gyXVtDSDJdW0NIMl1bQ0BIXTFPW0NIMl1bQ0gyXVtOSF1DKD1PKVtDSDJdbjJbY0hdW2NIXVtjSF1bY0hdYzI9Tw==

> <s_epik_cmdline>
J2VwaWtfcHl0aG9uJywgJy1waCcsICc3LjAnLCAnLXRuJywgJzgnLCAnLW1hJywgJzIwMCcsICctbWV0YWxfYmluZGluZycsICctaW1hZScsICc8aW5maWxlLm1hZT4nLCAnLW9tYWUnLCAnPG91dGZpbGUubWFlPic=

> <r_lp_tautomer_probability>
1

> <r_epik_Ionization_Penalty>
4.02412e-07

> <r_epik_Ionization_Penalty_Charging>
3.74552e-07

> <r_epik_Ionization_Penalty_Neutral>
2.78599e-08

> <r_epik_State_Penalty>
-0

> <r_epik_Charging_Adjusted_Penalty>
3.74552e-07

> <i_epik_Tot_Q>
0

> <i_epik_Tot_abs_Q>
0

> <r_epik_Metal_State_Penalty>
-0

> <b_epik_Metal_Only>
0

> <s_lp_Force_Field>
OPLS_2005

> <r_lp_Energy>
21.1571

> <b_lp_Chiralities_Consistent>
1

> <s_lp_Variant>
AV-unprocessed.smi:1323-1

> <Gold.Version>
5.8.1

> <Gold.Id.Protein>
6NUR|6NUR_protein|mol2

> <Gold.PLP.Fitness>
56.3275

> <Gold.PLP.PLP>
-47.9045

> <Gold.PLP.part.hbond>
-4.0000

> <Gold.PLP.part.metal>
0.0000

> <Gold.PLP.part.buried>
-4.9199

> <Gold.PLP.part.nonpolar>
-38.7876

> <Gold.PLP.part.repulsive>
0.2042

> <Gold.PLP.ligand.clash>
0.0000

> <Gold.PLP.ligand.torsion>
0.7711

> <Gold.PLP.Chemscore.Hbond>
3.3033

> <Gold.PLP.Chemscore.CHOScore>
0.0000

> <Gold.PLP.Chemscore.Metal>
0.0000

> <Gold.Chemscore.Hbonds>
donor molecule, donor type, donor heavy atom, donor atom, acceptor molecule, acceptor atom, score
      P1  H  6896  6909       L1    13  0.89
      P1  H  6931  6943       L1    21  0.80
      P1  H  6934  6947       L1    21  0.37
      P1  H  7997  8010       L1     8  0.76

> <Gold.PLP.Chemscore.Internal.Correction>
0.0555

> <Gold.Rescore>
     Score         DG    S(hbond)    S(metal)    S(lipo)     H(rot)  DE(clash)    DE(int)     intcor
     22.28     -24.20       3.25        0.00     109.62       1.94       0.05       1.88       ----

> <Gold.Chemscore.Fitness>
22.2768

> <Gold.Chemscore.DG>
-24.2008

> <Gold.Chemscore.ZeroCoef>
-5.4800

> <Gold.Chemscore.Hbond>
3.2519

> <Gold.Chemscore.Metal>
0.0000

> <Gold.Chemscore.Lipo>
109.6183

> <Gold.Chemscore.Internal_Hbond>
0.0000

> <Gold.Chemscore.DEClash>
0.0456

> <Gold.Chemscore.DEInternal>
1.8783

> <Gold.Chemscore.Rot>
1.9398

> <Gold.Chemscore.Internal.Correction>
   9.000000E+99

> <Gold.Chemscore.Hbonds>
donor molecule, donor type, donor heavy atom, donor atom, acceptor molecule, acceptor atom, score
      P1  H  6896  6909       L1    13  0.16
      P1  H  6931  6943       L1    21  0.64
      P1  H  6934  6947       L1    21  0.36
      P1  H  7997  8010       L1     8  0.69

> <Gold.Chemscore.Hbond.Weighted>
-10.8614

> <Gold.Chemscore.Metal.Weighted>
-0.0000

> <Gold.Chemscore.Lipo.Weighted>
-12.8253

> <Gold.Chemscore.Internal_Hbond.Weighted>
0.0000

> <Gold.Chemscore.DEClash.Weighted>
0.0456

> <Gold.Chemscore.DEInternal.Weighted>
1.8783

> <Gold.Chemscore.Rot.Weighted>
4.9659

> <Gold.Chemscore.Internal.Correction.Weighted>
   9.000000E+99

> <Gold.Protein.RotatedTorsions>
[ 6907 6896 6895 6894 ] final   56.84 input  -60.11 | X-H torsion
[ 7974 7965 7964 7962 ] final   29.68 input  175.53 | X-H torsion
[ 8008 7997 7996 7995 ] final   44.57 input   59.86 | X-H torsion
[ 10167 10162 10161 10158 ] final   10.74 input  -65.29 | X-H torsion
[ 10718 10713 10712 10709 ] final   16.12 input   66.30 | X-H torsion
[ 10763 10752 10751 10750 ] final   37.48 input  -60.55 | X-H torsion
[ 11005 11000 10999 10996 ] final -141.09 input  -57.11 | X-H torsion

> <Gold.Protein.ActiveResidues>
 VAL166  LYS551  ARG553  GLY616  TRP617  ASP618  TYR619  PRO620  LYS621  CYS622 
 ASP623  PHE694  ASN695  SER759  ASP760  ASP761  ALA762  ILE779  LEU786  VAL792 
 PHE793  MET794  SER795  GLU796  ALA797  LYS798  CYS799  TRP800  GLU811  SER814 

> <Gold.Protein.RotatedAtoms>
  152.3675  134.6783  160.0186 H   0  0  0  0  0  0  0  0  0  0  0  0  # atno 6907 bound_to 6896
  151.7086  133.3306  159.3293 H   0  0  0  0  0  0  0  0  0  0  0  0  # atno 6908 bound_to 6896
  150.7649  134.6487  159.6321 H   0  0  0  0  0  0  0  0  0  0  0  0  # atno 6909 bound_to 6896
  146.1657  139.6889  142.9003 H   0  0  0  0  0  0  0  0  0  0  0  0  # atno 7974 bound_to 7965
  155.3215  140.3397  155.4241 H   0  0  0  0  0  0  0  0  0  0  0  0  # atno 8008 bound_to 7997
  156.1907  140.1696  156.8135 H   0  0  0  0  0  0  0  0  0  0  0  0  # atno 8009 bound_to 7997
  154.5438  140.0719  156.8538 H   0  0  0  0  0  0  0  0  0  0  0  0  # atno 8010 bound_to 7997
  140.6175  143.8276  150.7136 H   0  0  0  0  0  0  0  0  0  0  0  0  # atno 10167 bound_to 10162
  157.0633  130.6318  149.5790 H   0  0  0  0  0  0  0  0  0  0  0  0  # atno 10718 bound_to 10713
  153.0036  135.6276  154.2152 H   0  0  0  0  0  0  0  0  0  0  0  0  # atno 10763 bound_to 10752
  154.1895  135.2809  155.3028 H   0  0  0  0  0  0  0  0  0  0  0  0  # atno 10764 bound_to 10752
  154.5770  135.5659  153.7209 H   0  0  0  0  0  0  0  0  0  0  0  0  # atno 10765 bound_to 10752
  140.8358  134.2461  157.4834 H   0  0  0  0  0  0  0  0  0  0  0  0  # atno 11005 bound_to 11000
  145.4474  141.0426  143.2824 LP  0  0  0  0  0  0  0  0  0  0  0  0  # atno 17320 bound_to 7965
  144.8089  139.5999  143.7038 LP  0  0  0  0  0  0  0  0  0  0  0  0  # atno 17321 bound_to 7965
  140.1858  143.4077  152.1899 LP  0  0  0  0  0  0  0  0  0  0  0  0  # atno 17342 bound_to 10162
  139.5411  144.7257  151.4732 LP  0  0  0  0  0  0  0  0  0  0  0  0  # atno 17343 bound_to 10162
  155.9972  130.5043  150.7525 LP  0  0  0  0  0  0  0  0  0  0  0  0  # atno 17370 bound_to 10713
  157.4937  131.0913  151.0396 LP  0  0  0  0  0  0  0  0  0  0  0  0  # atno 17371 bound_to 10713
  139.8704  134.9610  156.4382 LP  0  0  0  0  0  0  0  0  0  0  0  0  # atno 17394 bound_to 11000
  140.8948  133.7822  155.9613 LP  0  0  0  0  0  0  0  0  0  0  0  0  # atno 17395 bound_to 11000

$$$$
