AV-unprocessed.smi:1486|AV-procd|sdf|6006|dock1
  -GOLD-   22720 6103D 1   1.00000     0.00000
 Structure written by MMmdl.
 39 40  0  0  0  0  0  0  0  0  1 V2000
  147.4370  132.6848  155.5839 C   0  0  0  0  0  0  0  0  0  0  0  0
  148.5461  132.4950  154.7230 O   0  0  0  0  0  0  0  0  0  0  0  0
  148.9421  133.6935  154.0753 C   0  0  0  0  0  0  0  0  0  0  0  0
  149.5775  134.6436  155.1017 C   0  0  1  0  0  0  0  0  0  0  0  0
  150.8070  134.0093  155.7712 C   0  0  0  0  0  0  0  0  0  0  0  0
  149.9541  135.8934  154.4467 N   0  0  0  0  0  0  0  0  0  0  0  0
  150.6479  136.8905  155.0182 C   0  0  0  0  0  0  0  0  0  0  0  0
  151.0472  136.8603  156.1823 O   0  0  0  0  0  0  0  0  0  0  0  0
  150.9418  138.1083  154.1416 C   0  0  0  0  0  0  0  0  0  0  0  0
  150.6295  139.3735  154.8876 C   0  0  0  0  0  0  0  0  0  0  0  0
  149.7069  140.3300  154.5388 C   0  0  0  0  0  0  0  0  0  0  0  0
  149.6640  141.6450  155.6799 S   0  0  0  0  0  0  0  0  0  0  0  0
  150.9331  140.8382  156.6061 C   0  0  0  0  0  0  0  0  0  0  0  0
  151.5378  141.3166  157.8069 N   0  0  0  0  0  0  0  0  0  0  0  0
  151.1208  142.5683  158.4319 C   0  0  0  0  0  0  0  0  0  0  0  0
  151.8185  142.6102  159.7957 C   0  0  0  0  0  0  0  0  0  0  0  0
  152.9168  141.5520  159.7188 C   0  0  0  0  0  0  0  0  0  0  0  0
  152.5405  140.7379  158.4917 C   0  0  0  0  0  0  0  0  0  0  0  0
  153.1230  139.6911  158.2127 O   0  0  0  0  0  0  0  0  0  0  0  0
  151.3209  139.6776  156.0655 N   0  0  0  0  0  0  0  0  0  0  0  0
  147.1717  131.7380  156.0544 H   0  0  0  0  0  0  0  0  0  0  0  0
  146.5663  133.0417  155.0324 H   0  0  0  0  0  0  0  0  0  0  0  0
  147.6687  133.4006  156.3737 H   0  0  0  0  0  0  0  0  0  0  0  0
  149.6656  133.4577  153.2930 H   0  0  0  0  0  0  0  0  0  0  0  0
  148.0845  134.1676  153.5946 H   0  0  0  0  0  0  0  0  0  0  0  0
  148.8332  134.8497  155.8732 H   0  0  0  0  0  0  0  0  0  0  0  0
  150.5425  133.0788  156.2739 H   0  0  0  0  0  0  0  0  0  0  0  0
  151.2374  134.6742  156.5210 H   0  0  0  0  0  0  0  0  0  0  0  0
  151.5847  133.7837  155.0407 H   0  0  0  0  0  0  0  0  0  0  0  0
  149.6641  136.0085  153.4863 H   0  0  0  0  0  0  0  0  0  0  0  0
  151.9858  138.0845  153.8252 H   0  0  0  0  0  0  0  0  0  0  0  0
  150.3444  138.0464  153.2313 H   0  0  0  0  0  0  0  0  0  0  0  0
  149.0488  140.3366  153.6823 H   0  0  0  0  0  0  0  0  0  0  0  0
  151.4423  143.4034  157.8077 H   0  0  0  0  0  0  0  0  0  0  0  0
  150.0368  142.6233  158.5414 H   0  0  0  0  0  0  0  0  0  0  0  0
  152.2161  143.6008  160.0189 H   0  0  0  0  0  0  0  0  0  0  0  0
  151.1124  142.3527  160.5865 H   0  0  0  0  0  0  0  0  0  0  0  0
  153.8963  142.0060  159.5644 H   0  0  0  0  0  0  0  0  0  0  0  0
  152.9553  140.9317  160.6148 H   0  0  0  0  0  0  0  0  0  0  0  0
  1  2  1  0  0  0  0
  1 21  1  0  0  0  0
  1 22  1  0  0  0  0
  1 23  1  0  0  0  0
  2  3  1  0  0  0  0
  3  4  1  0  0  0  0
  3 24  1  0  0  0  0
  3 25  1  0  0  0  0
  4  5  1  0  0  0  0
  4  6  1  0  0  0  0
  4 26  1  0  0  0  0
  5 27  1  0  0  0  0
  5 28  1  0  0  0  0
  5 29  1  0  0  0  0
  6  7  1  0  0  0  0
  6 30  1  0  0  0  0
  7  8  2  0  0  0  0
  7  9  1  0  0  0  0
  9 10  1  0  0  0  0
  9 31  1  0  0  0  0
  9 32  1  0  0  0  0
 10 20  1  0  0  0  0
 10 11  2  0  0  0  0
 11 12  1  0  0  0  0
 11 33  1  0  0  0  0
 12 13  1  0  0  0  0
 13 14  1  0  0  0  0
 13 20  2  0  0  0  0
 14 18  1  0  0  0  0
 14 15  1  0  0  0  0
 15 16  1  0  0  0  0
 15 34  1  0  0  0  0
 15 35  1  0  0  0  0
 16 17  1  0  0  0  0
 16 36  1  0  0  0  0
 16 37  1  0  0  0  0
 17 18  1  0  0  0  0
 17 38  1  0  0  0  0
 17 39  1  0  0  0  0
 18 19  2  0  0  0  0
M  END
> <s_m_source_file>
AV-unprocessed.smi

> <i_m_source_file_index>
1486

> <i_lp_mmshare_version>
43012

> <i_f3d_flags>
0

> <s_epik_input>
W0NIM11PW0NIMl1bQ0BIXShbQ0gzXSlbTkhdQyg9TylbQ0gyXWMxW2NIXXNjKG4xKU4yW0NIMl1bQ0gyXVtDSDJdQzI9Tw==

> <s_epik_cmdline>
J2VwaWtfcHl0aG9uJywgJy1waCcsICc3LjAnLCAnLXRuJywgJzgnLCAnLW1hJywgJzIwMCcsICctbWV0YWxfYmluZGluZycsICctaW1hZScsICc8aW5maWxlLm1hZT4nLCAnLW9tYWUnLCAnPG91dGZpbGUubWFlPic=

> <r_lp_tautomer_probability>
1

> <r_epik_Ionization_Penalty>
3.00988e-05

> <r_epik_Ionization_Penalty_Charging>
0

> <r_epik_Ionization_Penalty_Neutral>
3.00988e-05

> <r_epik_State_Penalty>
-0

> <r_epik_Charging_Adjusted_Penalty>
0

> <i_epik_Tot_Q>
0

> <i_epik_Tot_abs_Q>
0

> <r_epik_Metal_State_Penalty>
-0

> <b_epik_Metal_Only>
0

> <s_lp_Force_Field>
OPLS_2005

> <r_lp_Energy>
17.9426

> <b_lp_Chiralities_Consistent>
1

> <s_lp_Variant>
AV-unprocessed.smi:1486-2

> <Gold.Version>
5.8.1

> <Gold.Id.Protein>
6NUR|6NUR_protein|mol2

> <Gold.PLP.Fitness>
43.8685

> <Gold.PLP.PLP>
-35.1298

> <Gold.PLP.part.hbond>
-2.4228

> <Gold.PLP.part.metal>
0.0000

> <Gold.PLP.part.buried>
-1.7913

> <Gold.PLP.part.nonpolar>
-30.8673

> <Gold.PLP.part.repulsive>
0.0892

> <Gold.PLP.ligand.clash>
0.0000

> <Gold.PLP.ligand.torsion>
0.2514

> <Gold.PLP.Chemscore.Hbond>
2.0000

> <Gold.PLP.Chemscore.CHOScore>
1.0000

> <Gold.PLP.Chemscore.Metal>
0.0000

> <Gold.Chemscore.Hbonds>
donor molecule, donor type, donor heavy atom, donor atom, acceptor molecule, acceptor atom, score
      L1  H     6    30       P1  7948  0.95
      P1  H  7997  8008       L1    19  1.00
      L1  C    11    33       P1  7957  0.82

> <Gold.PLP.Chemscore.Internal.Correction>
0.2415

> <Gold.Rescore>
     Score         DG    S(hbond)    S(metal)    S(lipo)     H(rot)  DE(clash)    DE(int)     intcor
     11.48     -15.32       1.86        0.00      73.37       1.94       0.07       3.78       ----

> <Gold.Chemscore.Fitness>
11.4768

> <Gold.Chemscore.DG>
-15.3249

> <Gold.Chemscore.ZeroCoef>
-5.4800

> <Gold.Chemscore.Hbond>
1.8624

> <Gold.Chemscore.Metal>
0.0000

> <Gold.Chemscore.Lipo>
73.3676

> <Gold.Chemscore.Internal_Hbond>
0.0000

> <Gold.Chemscore.DEClash>
0.0677

> <Gold.Chemscore.DEInternal>
3.7804

> <Gold.Chemscore.Rot>
1.9373

> <Gold.Chemscore.Internal.Correction>
   9.000000E+99

> <Gold.Chemscore.Hbonds>
donor molecule, donor type, donor heavy atom, donor atom, acceptor molecule, acceptor atom, score
      L1  H     6    30       P1  7948  0.22
      P1  H  7997  8008       L1    19  0.74

> <Gold.Chemscore.Hbond.Weighted>
-6.2203

> <Gold.Chemscore.Metal.Weighted>
-0.0000

> <Gold.Chemscore.Lipo.Weighted>
-8.5840

> <Gold.Chemscore.Internal_Hbond.Weighted>
0.0000

> <Gold.Chemscore.DEClash.Weighted>
0.0677

> <Gold.Chemscore.DEInternal.Weighted>
3.7804

> <Gold.Chemscore.Rot.Weighted>
4.9594

> <Gold.Chemscore.Internal.Correction.Weighted>
   9.000000E+99

> <Gold.Protein.RotatedTorsions>
[ 6907 6896 6895 6894 ] final -146.85 input  -60.11 | X-H torsion
[ 7974 7965 7964 7962 ] final   -8.67 input  175.53 | X-H torsion
[ 8008 7997 7996 7995 ] final  -87.28 input   59.86 | X-H torsion
[ 10167 10162 10161 10158 ] final  120.34 input  -65.29 | X-H torsion
[ 10718 10713 10712 10709 ] final   37.75 input   66.30 | X-H torsion
[ 10763 10752 10751 10750 ] final    3.86 input  -60.55 | X-H torsion
[ 11005 11000 10999 10996 ] final  -51.54 input  -57.11 | X-H torsion

> <Gold.Protein.ActiveResidues>
 VAL166  LYS551  ARG553  GLY616  TRP617  ASP618  TYR619  PRO620  LYS621  CYS622 
 ASP623  PHE694  ASN695  SER759  ASP760  ASP761  ALA762  ILE779  LEU786  VAL792 
 PHE793  MET794  SER795  GLU796  ALA797  LYS798  CYS799  TRP800  GLU811  SER814 

> <Gold.Protein.RotatedAtoms>
  151.1474  133.4930  159.2595 H   0  0  0  0  0  0  0  0  0  0  0  0  # atno 6907 bound_to 6896
  151.1590  135.0264  159.8712 H   0  0  0  0  0  0  0  0  0  0  0  0  # atno 6908 bound_to 6896
  152.5463  134.1349  159.8508 H   0  0  0  0  0  0  0  0  0  0  0  0  # atno 6909 bound_to 6896
  146.2274  140.2502  142.8347 H   0  0  0  0  0  0  0  0  0  0  0  0  # atno 7974 bound_to 7965
  154.6614  140.0568  157.0066 H   0  0  0  0  0  0  0  0  0  0  0  0  # atno 8008 bound_to 7997
  155.1222  140.3248  155.4476 H   0  0  0  0  0  0  0  0  0  0  0  0  # atno 8009 bound_to 7997
  156.2620  140.1995  156.6344 H   0  0  0  0  0  0  0  0  0  0  0  0  # atno 8010 bound_to 7997
  139.5988  144.7050  151.3112 H   0  0  0  0  0  0  0  0  0  0  0  0  # atno 10167 bound_to 10162
  157.3507  130.7596  149.6976 H   0  0  0  0  0  0  0  0  0  0  0  0  # atno 10718 bound_to 10713
  153.2782  135.6938  153.7412 H   0  0  0  0  0  0  0  0  0  0  0  0  # atno 10763 bound_to 10752
  153.6409  135.3393  155.3072 H   0  0  0  0  0  0  0  0  0  0  0  0  # atno 10764 bound_to 10752
  154.8486  135.4431  154.1826 H   0  0  0  0  0  0  0  0  0  0  0  0  # atno 10765 bound_to 10752
  141.0876  133.6639  156.3893 H   0  0  0  0  0  0  0  0  0  0  0  0  # atno 11005 bound_to 11000
  144.9417  140.8086  143.5626 LP  0  0  0  0  0  0  0  0  0  0  0  0  # atno 17320 bound_to 7965
  145.2454  139.2054  143.4970 LP  0  0  0  0  0  0  0  0  0  0  0  0  # atno 17321 bound_to 7965
  140.7233  143.7074  150.7796 LP  0  0  0  0  0  0  0  0  0  0  0  0  # atno 17342 bound_to 10162
  140.0646  143.5121  152.2610 LP  0  0  0  0  0  0  0  0  0  0  0  0  # atno 17343 bound_to 10162
  155.9721  130.4141  150.4118 LP  0  0  0  0  0  0  0  0  0  0  0  0  # atno 17370 bound_to 10713
  157.2180  131.0476  151.2562 LP  0  0  0  0  0  0  0  0  0  0  0  0  # atno 17371 bound_to 10713
  140.5326  134.6198  157.5355 LP  0  0  0  0  0  0  0  0  0  0  0  0  # atno 17394 bound_to 11000
  139.9697  134.7313  156.0066 LP  0  0  0  0  0  0  0  0  0  0  0  0  # atno 17395 bound_to 11000

$$$$
