AV-unprocessed.smi:2720|AV-procd|sdf|10498|dock4
  -GOLD-   2272014543D 1   1.00000     0.00000
 Structure written by MMmdl.
 31 32  0  0  0  0  0  0  0  0  2 V2000
  149.2436  141.3056  153.1832 O   0  0  0  0  0  0  0  0  0  0  0  0
  148.8427  140.7723  154.4331 C   0  0  0  0  0  0  0  0  0  0  0  0
  150.1001  140.7570  155.3438 C   0  0  0  0  0  0  0  0  0  0  0  0
  150.8458  139.4320  155.3971 C   0  0  0  0  0  0  0  0  0  0  0  0
  151.2453  138.7753  154.2136 C   0  0  0  0  0  0  0  0  0  0  0  0
  151.9358  137.5515  154.3241 C   0  0  0  0  0  0  0  0  0  0  0  0
  152.2352  136.9730  155.5068 N   0  0  0  0  0  0  0  0  0  0  0  0
  151.8466  137.6046  156.6351 C   0  0  0  0  0  0  0  0  0  0  0  0
  151.1510  138.8303  156.6353 C   0  0  0  0  0  0  0  0  0  0  0  0
  147.7609  141.7051  155.0264 C   0  0  0  0  0  0  0  0  0  0  0  0
  146.4537  141.6948  154.2122 C   0  0  0  0  0  0  0  0  0  0  0  0
  145.9412  140.3175  154.0618 N   0  3  0  0  0  0  0  0  0  0  0  0
  146.9115  139.4171  153.4057 C   0  0  0  0  0  0  0  0  0  0  0  0
  148.2356  139.3669  154.1905 C   0  0  0  0  0  0  0  0  0  0  0  0
  149.2001  140.6204  152.5331 H   0  0  0  0  0  0  0  0  0  0  0  0
  150.7929  141.5510  155.0605 H   0  0  0  0  0  0  0  0  0  0  0  0
  149.8018  140.9897  156.3671 H   0  0  0  0  0  0  0  0  0  0  0  0
  151.0332  139.1968  153.2420 H   0  0  0  0  0  0  0  0  0  0  0  0
  152.2575  137.0241  153.4382 H   0  0  0  0  0  0  0  0  0  0  0  0
  152.0980  137.1194  157.5663 H   0  0  0  0  0  0  0  0  0  0  0  0
  150.8634  139.2965  157.5662 H   0  0  0  0  0  0  0  0  0  0  0  0
  147.5332  141.3918  156.0465 H   0  0  0  0  0  0  0  0  0  0  0  0
  148.1399  142.7252  155.1022 H   0  0  0  0  0  0  0  0  0  0  0  0
  145.6966  142.3020  154.7089 H   0  0  0  0  0  0  0  0  0  0  0  0
  146.6108  142.1310  153.2250 H   0  0  0  0  0  0  0  0  0  0  0  0
  145.7271  139.9497  154.9777 H   0  0  0  0  0  0  0  0  0  0  0  0
  146.4783  138.4190  153.3360 H   0  0  0  0  0  0  0  0  0  0  0  0
  147.0842  139.7581  152.3841 H   0  0  0  0  0  0  0  0  0  0  0  0
  148.9386  138.7277  153.6547 H   0  0  0  0  0  0  0  0  0  0  0  0
  148.0551  138.8834  155.1517 H   0  0  0  0  0  0  0  0  0  0  0  0
  145.0932  140.3410  153.5133 H   0  0  0  0  0  0  0  0  0  0  0  0
  1  2  1  0  0  0  0
  1 15  1  0  0  0  0
  2 14  1  0  0  0  0
  2  3  1  0  0  0  0
  2 10  1  0  0  0  0
  3  4  1  0  0  0  0
  3 16  1  0  0  0  0
  3 17  1  0  0  0  0
  4  9  1  0  0  0  0
  4  5  2  0  0  0  0
  5  6  1  0  0  0  0
  5 18  1  0  0  0  0
  6  7  2  0  0  0  0
  6 19  1  0  0  0  0
  7  8  1  0  0  0  0
  8  9  2  0  0  0  0
  8 20  1  0  0  0  0
  9 21  1  0  0  0  0
 10 11  1  0  0  0  0
 10 22  1  0  0  0  0
 10 23  1  0  0  0  0
 11 12  1  0  0  0  0
 11 24  1  0  0  0  0
 11 25  1  0  0  0  0
 12 13  1  0  0  0  0
 12 26  1  0  0  0  0
 12 31  1  0  0  0  0
 13 14  1  0  0  0  0
 13 27  1  0  0  0  0
 13 28  1  0  0  0  0
 14 29  1  0  0  0  0
 14 30  1  0  0  0  0
M  CHG  1  12   1
M  END
> <s_m_source_file>
AV-unprocessed.smi

> <i_m_source_file_index>
2720

> <i_lp_mmshare_version>
43012

> <i_f3d_flags>
0

> <s_epik_input>
W0NIMl0xW0NIMl1bTkhdW0NIMl1bQ0gyXUMxKFtPSF0pW0NIMl1jMltjSF1bY0hdbltjSF1bY0hdMg==

> <s_epik_cmdline>
J2VwaWtfcHl0aG9uJywgJy1waCcsICc3LjAnLCAnLXRuJywgJzgnLCAnLW1hJywgJzIwMCcsICctbWV0YWxfYmluZGluZycsICctaW1hZScsICc8aW5maWxlLm1hZT4nLCAnLW9tYWUnLCAnPG91dGZpbGUubWFlPic=

> <r_epik_Ionization_Penalty>
0.069741

> <r_epik_Ionization_Penalty_Charging>
0.000197202

> <r_epik_Ionization_Penalty_Neutral>
0.0695438

> <r_epik_State_Penalty>
0.060924

> <r_epik_Charging_Adjusted_Penalty>
0.0611212

> <i_epik_Tot_Q>
1

> <i_epik_Tot_abs_Q>
1

> <r_epik_Metal_State_Penalty>
6.4163e-05

> <b_epik_Metal_Only>
0

> <s_lp_Force_Field>
OPLS_2005

> <r_lp_Energy>
18.1257

> <b_lp_Chiralities_Consistent>
1

> <s_lp_Variant>
AV-unprocessed.smi:2720-1

> <Gold.Version>
5.8.1

> <Gold.Id.Protein>
6NUR|6NUR_protein|mol2

> <Gold.PLP.Fitness>
40.5027

> <Gold.PLP.PLP>
-24.9927

> <Gold.PLP.part.hbond>
-4.3272

> <Gold.PLP.part.metal>
0.0000

> <Gold.PLP.part.buried>
-0.2519

> <Gold.PLP.part.nonpolar>
-20.4103

> <Gold.PLP.part.repulsive>
0.0384

> <Gold.PLP.ligand.clash>
0.0000

> <Gold.PLP.ligand.torsion>
0.7893

> <Gold.PLP.Chemscore.Hbond>
4.6949

> <Gold.PLP.Chemscore.CHOScore>
1.0000

> <Gold.PLP.Chemscore.Metal>
0.0000

> <Gold.Chemscore.Hbonds>
donor molecule, donor type, donor heavy atom, donor atom, acceptor molecule, acceptor atom, score
      L1  H     1    15       P1  7957  0.99
      L1  H    12    31       P1 10175  2.00
      P1  H  8011  8017       L1     1  0.88
      P1  H 10752 10765       L1     7  0.82
      L1  C     6    19       P1  7949  1.00

> <Gold.PLP.Chemscore.Internal.Correction>
0.0037

> <Gold.Rescore>
     Score         DG    S(hbond)    S(metal)    S(lipo)     H(rot)  DE(clash)    DE(int)     intcor
     15.41     -18.72       2.67        0.00      72.20       1.61       2.52       0.79       ----

> <Gold.Chemscore.Fitness>
15.4085

> <Gold.Chemscore.DG>
-18.7171

> <Gold.Chemscore.ZeroCoef>
-5.4800

> <Gold.Chemscore.Hbond>
2.6681

> <Gold.Chemscore.Metal>
0.0000

> <Gold.Chemscore.Lipo>
72.2038

> <Gold.Chemscore.Internal_Hbond>
0.0000

> <Gold.Chemscore.DEClash>
2.5168

> <Gold.Chemscore.DEInternal>
0.7919

> <Gold.Chemscore.Rot>
1.6102

> <Gold.Chemscore.Internal.Correction>
   9.000000E+99

> <Gold.Chemscore.Hbonds>
donor molecule, donor type, donor heavy atom, donor atom, acceptor molecule, acceptor atom, score
      L1  H     1    15       P1  7957  0.89
      L1  H    12    31       P1 10175  1.00
      P1  H  8011  8017       L1     1  0.19
      P1  H 10752 10765       L1     7  0.16

> <Gold.Chemscore.Hbond.Weighted>
-8.9115

> <Gold.Chemscore.Metal.Weighted>
-0.0000

> <Gold.Chemscore.Lipo.Weighted>
-8.4478

> <Gold.Chemscore.Internal_Hbond.Weighted>
0.0000

> <Gold.Chemscore.DEClash.Weighted>
2.5168

> <Gold.Chemscore.DEInternal.Weighted>
0.7919

> <Gold.Chemscore.Rot.Weighted>
4.1222

> <Gold.Chemscore.Internal.Correction.Weighted>
   9.000000E+99

> <Gold.Protein.RotatedTorsions>
[ 6907 6896 6895 6894 ] final   -8.20 input  -60.11 | X-H torsion
[ 7974 7965 7964 7962 ] final   35.97 input  175.53 | X-H torsion
[ 8008 7997 7996 7995 ] final  -11.70 input   59.86 | X-H torsion
[ 10167 10162 10161 10158 ] final   91.92 input  -65.29 | X-H torsion
[ 10718 10713 10712 10709 ] final   78.95 input   66.30 | X-H torsion
[ 10763 10752 10751 10750 ] final -162.67 input  -60.55 | X-H torsion
[ 11005 11000 10999 10996 ] final -132.69 input  -57.11 | X-H torsion

> <Gold.Protein.ActiveResidues>
 VAL166  LYS551  ARG553  GLY616  TRP617  ASP618  TYR619  PRO620  LYS621  CYS622 
 ASP623  PHE694  ASN695  SER759  ASP760  ASP761  ALA762  ILE779  LEU786  VAL792 
 PHE793  MET794  SER795  GLU796  ALA797  LYS798  CYS799  TRP800  GLU811  SER814 

> <Gold.Protein.RotatedAtoms>
  151.4374  135.1016  159.9659 H   0  0  0  0  0  0  0  0  0  0  0  0  # atno 6907 bound_to 6896
  152.4934  133.8560  159.7236 H   0  0  0  0  0  0  0  0  0  0  0  0  # atno 6908 bound_to 6896
  150.9112  133.6937  159.2882 H   0  0  0  0  0  0  0  0  0  0  0  0  # atno 6909 bound_to 6896
  146.1245  139.6076  142.9268 H   0  0  0  0  0  0  0  0  0  0  0  0  # atno 7974 bound_to 7965
  154.5441  140.2295  155.8591 H   0  0  0  0  0  0  0  0  0  0  0  0  # atno 8008 bound_to 7997
  156.1887  140.3082  155.9250 H   0  0  0  0  0  0  0  0  0  0  0  0  # atno 8009 bound_to 7997
  155.3198  140.0440  157.3029 H   0  0  0  0  0  0  0  0  0  0  0  0  # atno 8010 bound_to 7997
  139.8328  144.6679  150.9379 H   0  0  0  0  0  0  0  0  0  0  0  0  # atno 10167 bound_to 10162
  157.6761  130.9891  150.1861 H   0  0  0  0  0  0  0  0  0  0  0  0  # atno 10718 bound_to 10713
  154.7193  135.3022  154.9073 H   0  0  0  0  0  0  0  0  0  0  0  0  # atno 10763 bound_to 10752
  153.9950  135.6714  153.4760 H   0  0  0  0  0  0  0  0  0  0  0  0  # atno 10764 bound_to 10752
  153.0820  135.5004  154.8438 H   0  0  0  0  0  0  0  0  0  0  0  0  # atno 10765 bound_to 10752
  140.9148  134.1521  157.4361 H   0  0  0  0  0  0  0  0  0  0  0  0  # atno 11005 bound_to 11000
  145.5395  141.0422  143.2338 LP  0  0  0  0  0  0  0  0  0  0  0  0  # atno 17320 bound_to 7965
  144.7629  139.6914  143.7227 LP  0  0  0  0  0  0  0  0  0  0  0  0  # atno 17321 bound_to 7965
  140.7805  143.3985  151.1189 LP  0  0  0  0  0  0  0  0  0  0  0  0  # atno 17342 bound_to 10162
  139.7638  143.8596  152.3106 LP  0  0  0  0  0  0  0  0  0  0  0  0  # atno 17343 bound_to 10162
  156.2582  130.3708  149.8158 LP  0  0  0  0  0  0  0  0  0  0  0  0  # atno 17370 bound_to 10713
  156.5911  130.8507  151.3408 LP  0  0  0  0  0  0  0  0  0  0  0  0  # atno 17371 bound_to 10713
  139.8764  134.9949  156.5718 LP  0  0  0  0  0  0  0  0  0  0  0  0  # atno 17394 bound_to 11000
  140.8064  133.8464  155.8771 LP  0  0  0  0  0  0  0  0  0  0  0  0  # atno 17395 bound_to 11000

$$$$
