AV-unprocessed.smi:2751|AV-procd|sdf|10596|dock4
  -GOLD-   2272015 43D 1   1.00000     0.00000
 Structure written by MMmdl.
 34 35  0  0  0  0  0  0  0  0  1 V2000
  145.0164  137.5185  153.5021 O   0  0  0  0  0  0  0  0  0  0  0  0
  146.1343  137.2789  153.0446 C   0  0  0  0  0  0  0  0  0  0  0  0
  147.1819  138.1052  153.1795 N   0  0  0  0  0  0  0  0  0  0  0  0
  147.1482  139.3933  153.8628 C   0  0  0  0  0  0  0  0  0  0  0  0
  148.4948  140.1280  153.7457 C   0  0  0  0  0  0  0  0  0  0  0  0
  149.5900  139.5177  154.6345 C   0  0  1  0  0  0  0  0  0  0  0  0
  150.2947  138.3325  153.9452 C   0  0  0  0  0  0  0  0  0  0  0  0
  151.4316  137.7968  154.8225 C   0  0  0  0  0  0  0  0  0  0  0  0
  152.3697  138.9447  155.2091 C   0  0  0  0  0  0  0  0  0  0  0  0
  151.5704  140.1018  155.8283 C   0  0  0  0  0  0  0  0  0  0  0  0
  150.5542  140.5282  154.9254 O   0  0  0  0  0  0  0  0  0  0  0  0
  146.4668  136.1772  152.3511 N   0  0  0  0  0  0  0  0  0  0  0  0
  145.6248  135.0918  152.0001 C   0  0  0  0  0  0  0  0  0  0  0  0
  146.0055  133.8367  151.7561 N   0  0  0  0  0  0  0  0  0  0  0  0
  144.8279  133.1645  151.4630 C   0  0  0  0  0  0  0  0  0  0  0  0
  143.7924  134.0596  151.5468 C   0  0  0  0  0  0  0  0  0  0  0  0
  144.2847  135.2910  151.8878 O   0  0  0  0  0  0  0  0  0  0  0  0
  148.0638  137.8293  152.7729 H   0  0  0  0  0  0  0  0  0  0  0  0
  146.3373  140.0067  153.4661 H   0  0  0  0  0  0  0  0  0  0  0  0
  146.9144  139.2126  154.9123 H   0  0  0  0  0  0  0  0  0  0  0  0
  148.8220  140.0999  152.7056 H   0  0  0  0  0  0  0  0  0  0  0  0
  148.3682  141.1816  153.9989 H   0  0  0  0  0  0  0  0  0  0  0  0
  149.1364  139.1746  155.5663 H   0  0  0  0  0  0  0  0  0  0  0  0
  149.5802  137.5356  153.7366 H   0  0  0  0  0  0  0  0  0  0  0  0
  150.6960  138.6519  152.9823 H   0  0  0  0  0  0  0  0  0  0  0  0
  151.0170  137.3419  155.7229 H   0  0  0  0  0  0  0  0  0  0  0  0
  151.9811  137.0142  154.2988 H   0  0  0  0  0  0  0  0  0  0  0  0
  153.1296  138.5931  155.9077 H   0  0  0  0  0  0  0  0  0  0  0  0
  152.8979  139.3009  154.3238 H   0  0  0  0  0  0  0  0  0  0  0  0
  151.1258  139.8036  156.7792 H   0  0  0  0  0  0  0  0  0  0  0  0
  152.2315  140.9433  156.0369 H   0  0  0  0  0  0  0  0  0  0  0  0
  147.4219  136.1101  152.0327 H   0  0  0  0  0  0  0  0  0  0  0  0
  144.8187  132.1120  151.2206 H   0  0  0  0  0  0  0  0  0  0  0  0
  142.7243  133.9857  151.4044 H   0  0  0  0  0  0  0  0  0  0  0  0
  1  2  2  0  0  0  0
  2  3  1  0  0  0  0
  2 12  1  0  0  0  0
  3  4  1  0  0  0  0
  3 18  1  0  0  0  0
  4  5  1  0  0  0  0
  4 19  1  0  0  0  0
  4 20  1  0  0  0  0
  5  6  1  0  0  0  0
  5 21  1  0  0  0  0
  5 22  1  0  0  0  0
  6 11  1  0  0  0  0
  6  7  1  0  0  0  0
  6 23  1  0  0  0  0
  7  8  1  0  0  0  0
  7 24  1  0  0  0  0
  7 25  1  0  0  0  0
  8  9  1  0  0  0  0
  8 26  1  0  0  0  0
  8 27  1  0  0  0  0
  9 10  1  0  0  0  0
  9 28  1  0  0  0  0
  9 29  1  0  0  0  0
 10 11  1  0  0  0  0
 10 30  1  0  0  0  0
 10 31  1  0  0  0  0
 12 13  1  0  0  0  0
 12 32  1  0  0  0  0
 13 17  1  0  0  0  0
 13 14  2  0  0  0  0
 14 15  1  0  0  0  0
 15 16  2  0  0  0  0
 15 33  1  0  0  0  0
 16 17  1  0  0  0  0
 16 34  1  0  0  0  0
M  END
> <s_m_source_file>
AV-unprocessed.smi

> <i_m_source_file_index>
2751

> <i_lp_mmshare_version>
43012

> <i_f3d_flags>
0

> <s_epik_input>
bzFbY0hdW2NIXW5jMVtOSF1DKD1PKVtOSF1bQ0gyXVtDSDJdW0NAQEhdMltDSDJdW0NIMl1bQ0gyXVtDSDJdTzI=

> <s_epik_cmdline>
J2VwaWtfcHl0aG9uJywgJy1waCcsICc3LjAnLCAnLXRuJywgJzgnLCAnLW1hJywgJzIwMCcsICctbWV0YWxfYmluZGluZycsICctaW1hZScsICc8aW5maWxlLm1hZT4nLCAnLW9tYWUnLCAnPG91dGZpbGUubWFlPic=

> <r_lp_tautomer_probability>
0.785861

> <r_epik_Ionization_Penalty>
4.88827e-05

> <r_epik_Ionization_Penalty_Charging>
0

> <r_epik_Ionization_Penalty_Neutral>
4.88827e-05

> <r_epik_State_Penalty>
0.0434822

> <r_epik_Charging_Adjusted_Penalty>
0.0434822

> <i_epik_Tot_Q>
0

> <i_epik_Tot_abs_Q>
0

> <r_epik_Metal_State_Penalty>
0.0598982

> <b_epik_Metal_Only>
0

> <s_lp_Force_Field>
OPLS_2005

> <r_lp_Energy>
7.8545

> <b_lp_Chiralities_Consistent>
1

> <s_lp_Variant>
AV-unprocessed.smi:2751-2

> <Gold.Version>
5.8.1

> <Gold.Id.Protein>
6NUR|6NUR_protein|mol2

> <Gold.PLP.Fitness>
36.5427

> <Gold.PLP.PLP>
-26.1150

> <Gold.PLP.part.hbond>
-2.9171

> <Gold.PLP.part.metal>
0.0000

> <Gold.PLP.part.buried>
-2.3599

> <Gold.PLP.part.nonpolar>
-22.9123

> <Gold.PLP.part.repulsive>
0.5908

> <Gold.PLP.ligand.clash>
0.0000

> <Gold.PLP.ligand.torsion>
0.4731

> <Gold.PLP.Chemscore.Hbond>
2.7908

> <Gold.PLP.Chemscore.CHOScore>
1.0000

> <Gold.PLP.Chemscore.Metal>
0.0000

> <Gold.Chemscore.Hbonds>
donor molecule, donor type, donor heavy atom, donor atom, acceptor molecule, acceptor atom, score
      L1  H     3    18       P1  7948  0.83
      L1  H    12    32       P1  7948  0.99
      P1  H  7989  7998       L1    11  0.90
      L1  C    16    34       P1 10186  0.95

> <Gold.PLP.Chemscore.Internal.Correction>
0.0017

> <Gold.Rescore>
     Score         DG    S(hbond)    S(metal)    S(lipo)     H(rot)  DE(clash)    DE(int)     intcor
     14.54     -17.84       2.80        0.00      61.38       1.63       1.62       1.68       ----

> <Gold.Chemscore.Fitness>
14.5374

> <Gold.Chemscore.DG>
-17.8418

> <Gold.Chemscore.ZeroCoef>
-5.4800

> <Gold.Chemscore.Hbond>
2.8024

> <Gold.Chemscore.Metal>
0.0000

> <Gold.Chemscore.Lipo>
61.3815

> <Gold.Chemscore.Internal_Hbond>
0.0000

> <Gold.Chemscore.DEClash>
1.6230

> <Gold.Chemscore.DEInternal>
1.6814

> <Gold.Chemscore.Rot>
1.6328

> <Gold.Chemscore.Internal.Correction>
   9.000000E+99

> <Gold.Chemscore.Hbonds>
donor molecule, donor type, donor heavy atom, donor atom, acceptor molecule, acceptor atom, score
      L1  H     3    18       P1  7948  0.78
      L1  H    12    32       P1  7948  0.92
      P1  H  7989  7998       L1    11  0.14

> <Gold.Chemscore.Hbond.Weighted>
-9.3601

> <Gold.Chemscore.Metal.Weighted>
-0.0000

> <Gold.Chemscore.Lipo.Weighted>
-7.1816

> <Gold.Chemscore.Internal_Hbond.Weighted>
0.0000

> <Gold.Chemscore.DEClash.Weighted>
1.6230

> <Gold.Chemscore.DEInternal.Weighted>
1.6814

> <Gold.Chemscore.Rot.Weighted>
4.1799

> <Gold.Chemscore.Internal.Correction.Weighted>
   9.000000E+99

> <Gold.Protein.RotatedTorsions>
[ 6907 6896 6895 6894 ] final  167.67 input  -60.11 | X-H torsion
[ 7974 7965 7964 7962 ] final  122.66 input  175.53 | X-H torsion
[ 8008 7997 7996 7995 ] final  -66.25 input   59.86 | X-H torsion
[ 10167 10162 10161 10158 ] final -100.05 input  -65.29 | X-H torsion
[ 10718 10713 10712 10709 ] final  -68.39 input   66.30 | X-H torsion
[ 10763 10752 10751 10750 ] final  -54.24 input  -60.55 | X-H torsion
[ 11005 11000 10999 10996 ] final  158.72 input  -57.11 | X-H torsion

> <Gold.Protein.ActiveResidues>
 VAL166  LYS551  ARG553  GLY616  TRP617  ASP618  TYR619  PRO620  LYS621  CYS622 
 ASP623  PHE694  ASN695  SER759  ASP760  ASP761  ALA762  ILE779  LEU786  VAL792 
 PHE793  MET794  SER795  GLU796  ALA797  LYS798  CYS799  TRP800  GLU811  SER814 

> <Gold.Protein.RotatedAtoms>
  151.8596  133.3455  159.3699 H   0  0  0  0  0  0  0  0  0  0  0  0  # atno 6907 bound_to 6896
  150.7183  134.5219  159.5667 H   0  0  0  0  0  0  0  0  0  0  0  0  # atno 6908 bound_to 6896
  152.2730  134.7913  160.0462 H   0  0  0  0  0  0  0  0  0  0  0  0  # atno 6909 bound_to 6896
  145.1049  139.3492  143.4793 H   0  0  0  0  0  0  0  0  0  0  0  0  # atno 7974 bound_to 7965
  154.4723  140.0916  156.7175 H   0  0  0  0  0  0  0  0  0  0  0  0  # atno 8008 bound_to 7997
  155.4691  140.3464  155.4305 H   0  0  0  0  0  0  0  0  0  0  0  0  # atno 8009 bound_to 7997
  156.1059  140.1434  156.9393 H   0  0  0  0  0  0  0  0  0  0  0  0  # atno 8010 bound_to 7997
  140.2559  143.3440  152.0671 H   0  0  0  0  0  0  0  0  0  0  0  0  # atno 10167 bound_to 10162
  156.0508  130.4294  150.1994 H   0  0  0  0  0  0  0  0  0  0  0  0  # atno 10718 bound_to 10713
  154.1717  135.6458  153.5011 H   0  0  0  0  0  0  0  0  0  0  0  0  # atno 10763 bound_to 10752
  153.0082  135.5385  154.6606 H   0  0  0  0  0  0  0  0  0  0  0  0  # atno 10764 bound_to 10752
  154.5947  135.2937  155.0571 H   0  0  0  0  0  0  0  0  0  0  0  0  # atno 10765 bound_to 10752
  140.1892  134.8420  157.2892 H   0  0  0  0  0  0  0  0  0  0  0  0  # atno 11005 bound_to 11000
  146.3528  140.0943  142.8611 LP  0  0  0  0  0  0  0  0  0  0  0  0  # atno 17320 bound_to 7965
  145.0913  140.9286  143.4767 LP  0  0  0  0  0  0  0  0  0  0  0  0  # atno 17321 bound_to 7965
  139.5031  144.6749  151.6152 LP  0  0  0  0  0  0  0  0  0  0  0  0  # atno 17342 bound_to 10162
  140.6004  143.9621  150.6382 LP  0  0  0  0  0  0  0  0  0  0  0  0  # atno 17343 bound_to 10162
  157.0077  130.9941  151.3374 LP  0  0  0  0  0  0  0  0  0  0  0  0  # atno 17370 bound_to 10713
  157.5431  130.8133  149.8053 LP  0  0  0  0  0  0  0  0  0  0  0  0  # atno 17371 bound_to 10713
  140.2179  134.4059  155.7580 LP  0  0  0  0  0  0  0  0  0  0  0  0  # atno 17394 bound_to 11000
  141.2226  133.7151  156.8443 LP  0  0  0  0  0  0  0  0  0  0  0  0  # atno 17395 bound_to 11000

$$$$
