#       Name:                AV-unprocessed.smi:2031
#       Creating user name   scv26
#       Creation time:       Fri Mar 27 10:50:06 2020


#       File generated by GOLD software.
#

@<TRIPOS>MOLECULE
AV-unprocessed.smi:2031
    47    48     1
SMALL
NO_CHARGES


@<TRIPOS>ATOM
      1 ****        -7.6245   3.8367  -0.3236 C.3            1 S1                 0.0000
      2 ****        -6.2030   3.3925  -0.2760 C.2            1 S1                 0.0000
      3 ****        -5.5868   2.2099  -0.5739 C.2            1 S1                 0.0000
      4 ****        -4.2192   2.4829  -0.3040 C.2            1 S1                 0.0000
      5 ****        -3.2306   1.4809  -0.4924 N.am           1 S1                 0.0000
      6 ****        -1.8985   1.5682  -0.3229 C.2            1 S1                 0.0000
      7 ****        -1.3843   2.6315   0.0440 O.2            1 S1                 0.0000
      8 ****        -1.2669   0.3939  -0.5990 N.pl3          1 S1                -1.0000
      9 ****         0.1791   0.1857  -0.5421 C.3            1 S1                 0.0000
     10 ****         0.4861  -1.1328   0.1932 C.3            1 S1                 0.0000
     11 ****         1.9525  -1.3972   0.2498 N.4            1 S1                 1.0000
     12 ****         2.3419  -2.7820  -0.1310 C.3            1 S1                 0.0000
     13 ****         3.5488  -2.7544  -1.0844 C.3            1 S1                 0.0000
     14 ****         4.8967  -2.4616  -0.4081 C.3            1 S1                 0.0000
     15 ****         4.9286  -1.1619   0.4129 C.3            1 S1                 0.0000
     16 ****         4.0733  -1.2574   1.6866 C.3            1 S1                 0.0000
     17 ****         2.5840  -0.9006   1.5080 C.3            1 S1                 0.0000
     18 ****        -4.0202   3.7215   0.1221 N.2            1 S1                 0.0000
     19 ****        -5.2900   4.3104   0.1419 O.3            1 S1                 0.0000
     20 ****        -8.2771   3.0237  -0.6423 H              1 S1                 0.0000
     21 ****        -7.7470   4.6635  -1.0234 H              1 S1                 0.0000
     22 ****        -7.9572   4.1718   0.6589 H              1 S1                 0.0000
     23 ****        -6.0420   1.2973  -0.9289 H              1 S1                 0.0000
     24 ****        -3.5742   0.5839  -0.8017 H              1 S1                 0.0000
     25 ****         0.6099   0.1383  -1.5426 H              1 S1                 0.0000
     26 ****         0.7047   0.9968  -0.0364 H              1 S1                 0.0000
     27 ****         0.0652  -1.1185   1.2000 H              1 S1                 0.0000
     28 ****        -0.0406  -1.9316  -0.3295 H              1 S1                 0.0000
     29 ****         2.5252  -3.4029   0.7469 H              1 S1                 0.0000
     30 ****         1.5351  -3.2742  -0.6736 H              1 S1                 0.0000
     31 ****         3.6243  -3.7228  -1.5803 H              1 S1                 0.0000
     32 ****         3.3691  -2.0291  -1.8796 H              1 S1                 0.0000
     33 ****         5.1752  -3.3022   0.2288 H              1 S1                 0.0000
     34 ****         5.6655  -2.4098  -1.1800 H              1 S1                 0.0000
     35 ****         5.9625  -0.9796   0.7085 H              1 S1                 0.0000
     36 ****         4.6342  -0.3044  -0.1939 H              1 S1                 0.0000
     37 ****         4.1683  -2.2550   2.1167 H              1 S1                 0.0000
     38 ****         4.4868  -0.5855   2.4395 H              1 S1                 0.0000
     39 ****         2.4805   0.1846   1.5364 H              1 S1                 0.0000
     40 ****         2.0336  -1.2818   2.3693 H              1 S1                 0.0000
     41 ****         2.3319  -0.8267  -0.4924 H              1 S1                 0.0000
     42 ****        -1.9590   3.4315   0.2161 LP             1 S1                 0.0000
     43 ****        -0.3939   2.6911   0.1685 LP             1 S1                 0.0000
     44 ****        -1.8357  -0.3859  -0.8608 LP             1 S1                 0.0000
     45 ****        -3.1502   4.1446   0.3751 LP             1 S1                 0.0000
     46 ****        -5.5101   4.6045   1.0719 LP             1 S1                 0.0000
     47 ****        -5.3037   5.1013  -0.4699 LP             1 S1                 0.0000
@<TRIPOS>BOND
    1    1    2 1     
    2    1   20 1     
    3    1   21 1     
    4    1   22 1     
    5    2   19 1     
    6    2    3 2     
    7    3    4 1     
    8    3   23 1     
    9    4    5 1     
   10    4   18 2     
   11    5    6 am    
   12    5   24 1     
   13    6    7 2     
   14    6    8 1     
   15    8    9 1     
   16    9   10 1     
   17    9   25 1     
   18    9   26 1     
   19   10   11 1     
   20   10   27 1     
   21   10   28 1     
   22   11   17 1     
   23   11   12 1     
   24   11   41 1     
   25   12   13 1     
   26   12   29 1     
   27   12   30 1     
   28   13   14 1     
   29   13   31 1     
   30   13   32 1     
   31   14   15 1     
   32   14   33 1     
   33   14   34 1     
   34   15   16 1     
   35   15   35 1     
   36   15   36 1     
   37   16   17 1     
   38   16   37 1     
   39   16   38 1     
   40   17   39 1     
   41   17   40 1     
   42   18   19 1     
   43    7   42 1     
   44    7   43 1     
   45    8   44 1     
   46   18   45 1     
   47   19   46 1     
   48   19   47 1     
@<TRIPOS>SUBSTRUCTURE
      1 S1             1
@<TRIPOS>SET
LONE_PAIRS      STATIC     ATOMS    <user>   **** ""
6 42 43 44 45 46 47
DONOR_HYDROGENS      STATIC     ATOMS    <user>   **** ""
2 24 41
ATOM$BLUE        STATIC     ATOMS    COLORGROUP SYSTEM
6 42 43 44 45 46 47
ATOM$RED        STATIC     ATOMS    COLORGROUP SYSTEM
2 24 41
