AV-unprocessed.smi:1940|AV-procd|sdf|7839|dock4
  -GOLD-   22720 9583D 1   1.00000     0.00000
 Structure written by MMmdl.
 49 51  0  0  0  0  0  0  0  0  1 V2000
  152.4639  145.0631  158.2871 C   0  0  0  0  0  0  0  0  0  0  0  0
  152.3291  143.5609  157.9980 C   0  0  2  0  0  0  0  0  0  0  0  0
  151.1816  143.3472  157.1171 N   0  0  0  0  0  0  0  0  0  0  0  0
  150.8351  142.1870  156.5406 C   0  0  0  0  0  0  0  0  0  0  0  0
  151.4672  141.1414  156.6827 O   0  0  0  0  0  0  0  0  0  0  0  0
  149.7228  142.3349  155.8004 N   0  0  0  0  0  0  0  0  0  0  0  0
  149.0159  141.3743  155.0252 C   0  0  0  0  0  0  0  0  0  0  0  0
  148.0265  141.6758  154.0595 C   0  0  0  0  0  0  0  0  0  0  0  0
  147.4123  140.6194  153.3596 C   0  0  0  0  0  0  0  0  0  0  0  0
  147.7990  139.2873  153.6347 C   0  0  0  0  0  0  0  0  0  0  0  0
  147.1900  138.2168  152.9450 N   0  0  0  0  0  0  0  0  0  0  0  0
  146.3725  137.2841  153.7250 C   0  0  0  0  0  0  0  0  0  0  0  0
  146.0936  135.9944  152.9348 C   0  0  0  0  0  0  0  0  0  0  0  0
  145.4791  136.3102  151.5636 C   0  0  0  0  0  0  0  0  0  0  0  0
  146.3831  137.2852  150.7945 C   0  0  0  0  0  0  0  0  0  0  0  0
  146.6617  138.5525  151.6211 C   0  0  0  0  0  0  0  0  0  0  0  0
  148.7544  139.0023  154.5526 N   0  0  0  0  0  0  0  0  0  0  0  0
  149.3392  140.0170  155.2220 C   0  0  0  0  0  0  0  0  0  0  0  0
  152.1640  142.7368  159.2901 C   0  0  1  0  0  0  0  0  0  0  0  0
  153.4704  142.2085  159.8854 C   0  0  0  0  0  0  0  0  0  0  0  0
  153.0785  141.9887  161.3282 C   0  0  0  0  0  0  0  0  0  0  0  0
  152.1620  143.1805  161.5902 C   0  0  0  0  0  0  0  0  0  0  0  0
  151.6018  143.5360  160.3280 O   0  0  0  0  0  0  0  0  0  0  0  0
  153.3302  145.2660  158.9174 H   0  0  0  0  0  0  0  0  0  0  0  0
  151.5826  145.4515  158.7988 H   0  0  0  0  0  0  0  0  0  0  0  0
  152.5915  145.6304  157.3646 H   0  0  0  0  0  0  0  0  0  0  0  0
  153.2475  143.2362  157.5056 H   0  0  0  0  0  0  0  0  0  0  0  0
  150.5981  144.1517  156.9400 H   0  0  0  0  0  0  0  0  0  0  0  0
  149.3418  143.2691  155.7689 H   0  0  0  0  0  0  0  0  0  0  0  0
  147.7267  142.6851  153.8285 H   0  0  0  0  0  0  0  0  0  0  0  0
  146.6654  140.8413  152.6118 H   0  0  0  0  0  0  0  0  0  0  0  0
  146.8793  137.0283  154.6564 H   0  0  0  0  0  0  0  0  0  0  0  0
  145.4322  137.7690  153.9912 H   0  0  0  0  0  0  0  0  0  0  0  0
  147.0244  135.4418  152.7991 H   0  0  0  0  0  0  0  0  0  0  0  0
  145.4281  135.3447  153.5036 H   0  0  0  0  0  0  0  0  0  0  0  0
  145.3400  135.3922  150.9920 H   0  0  0  0  0  0  0  0  0  0  0  0
  144.4901  136.7509  151.6957 H   0  0  0  0  0  0  0  0  0  0  0  0
  147.3264  136.7942  150.5516 H   0  0  0  0  0  0  0  0  0  0  0  0
  145.9205  137.5545  149.8447 H   0  0  0  0  0  0  0  0  0  0  0  0
  145.7394  139.1202  151.7510 H   0  0  0  0  0  0  0  0  0  0  0  0
  147.3455  139.1929  151.0655 H   0  0  0  0  0  0  0  0  0  0  0  0
  150.0921  139.7321  155.9424 H   0  0  0  0  0  0  0  0  0  0  0  0
  151.4894  141.8961  159.1168 H   0  0  0  0  0  0  0  0  0  0  0  0
  153.8270  141.3011  159.3971 H   0  0  0  0  0  0  0  0  0  0  0  0
  154.2558  142.9631  159.8216 H   0  0  0  0  0  0  0  0  0  0  0  0
  152.5203  141.0566  161.4249 H   0  0  0  0  0  0  0  0  0  0  0  0
  153.9319  141.9487  162.0054 H   0  0  0  0  0  0  0  0  0  0  0  0
  151.3842  142.9500  162.3185 H   0  0  0  0  0  0  0  0  0  0  0  0
  152.7352  144.0294  161.9642 H   0  0  0  0  0  0  0  0  0  0  0  0
  1  2  1  0  0  0  0
  1 24  1  0  0  0  0
  1 25  1  0  0  0  0
  1 26  1  0  0  0  0
  2  3  1  0  0  0  0
  2 19  1  0  0  0  0
  2 27  1  0  0  0  0
  3  4  1  0  0  0  0
  3 28  1  0  0  0  0
  4  5  2  0  0  0  0
  4  6  1  0  0  0  0
  6  7  1  0  0  0  0
  6 29  1  0  0  0  0
  7 18  1  0  0  0  0
  7  8  2  0  0  0  0
  8  9  1  0  0  0  0
  8 30  1  0  0  0  0
  9 10  2  0  0  0  0
  9 31  1  0  0  0  0
 10 11  1  0  0  0  0
 10 17  1  0  0  0  0
 11 16  1  0  0  0  0
 11 12  1  0  0  0  0
 12 13  1  0  0  0  0
 12 32  1  0  0  0  0
 12 33  1  0  0  0  0
 13 14  1  0  0  0  0
 13 34  1  0  0  0  0
 13 35  1  0  0  0  0
 14 15  1  0  0  0  0
 14 36  1  0  0  0  0
 14 37  1  0  0  0  0
 15 16  1  0  0  0  0
 15 38  1  0  0  0  0
 15 39  1  0  0  0  0
 16 40  1  0  0  0  0
 16 41  1  0  0  0  0
 17 18  2  0  0  0  0
 18 42  1  0  0  0  0
 19 23  1  0  0  0  0
 19 20  1  0  0  0  0
 19 43  1  0  0  0  0
 20 21  1  0  0  0  0
 20 44  1  0  0  0  0
 20 45  1  0  0  0  0
 21 22  1  0  0  0  0
 21 46  1  0  0  0  0
 21 47  1  0  0  0  0
 22 23  1  0  0  0  0
 22 48  1  0  0  0  0
 22 49  1  0  0  0  0
M  END
> <s_m_source_file>
AV-unprocessed.smi

> <i_m_source_file_index>
1940

> <i_lp_mmshare_version>
43012

> <i_f3d_flags>
0

> <s_epik_input>
TzFbQ0gyXVtDSDJdW0NIMl1bQ0BIXTFbQ0BIXShbQ0gzXSlbTkhdQyg9TylbTkhdYzJbY0hdW2NIXWMobltjSF0yKU4zW0NIMl1bQ0gyXVtDSDJdW0NIMl1bQ0gyXTM=

> <s_epik_cmdline>
J2VwaWtfcHl0aG9uJywgJy1waCcsICc3LjAnLCAnLXRuJywgJzgnLCAnLW1hJywgJzIwMCcsICctbWV0YWxfYmluZGluZycsICctaW1hZScsICc8aW5maWxlLm1hZT4nLCAnLW9tYWUnLCAnPG91dGZpbGUubWFlPic=

> <r_lp_tautomer_probability>
1

> <r_epik_Ionization_Penalty>
0.105688

> <r_epik_Ionization_Penalty_Charging>
0

> <r_epik_Ionization_Penalty_Neutral>
0.105688

> <r_epik_State_Penalty>
0.0895745

> <r_epik_Charging_Adjusted_Penalty>
0.0895745

> <i_epik_Tot_Q>
0

> <i_epik_Tot_abs_Q>
0

> <r_epik_Metal_State_Penalty>
0.0765749

> <b_epik_Metal_Only>
0

> <s_lp_Force_Field>
OPLS_2005

> <r_lp_Energy>
32.8596

> <b_lp_Chiralities_Consistent>
1

> <s_lp_Variant>
AV-unprocessed.smi:1940-3

> <Gold.Version>
5.8.1

> <Gold.Id.Protein>
6NUR|6NUR_protein|mol2

> <Gold.PLP.Fitness>
48.9574

> <Gold.PLP.PLP>
-46.8705

> <Gold.PLP.part.hbond>
-1.9831

> <Gold.PLP.part.metal>
0.0000

> <Gold.PLP.part.buried>
-1.8100

> <Gold.PLP.part.nonpolar>
-45.0629

> <Gold.PLP.part.repulsive>
1.4837

> <Gold.PLP.ligand.clash>
0.0000

> <Gold.PLP.ligand.torsion>
1.3754

> <Gold.PLP.Chemscore.Hbond>
1.4723

> <Gold.PLP.Chemscore.CHOScore>
0.0000

> <Gold.PLP.Chemscore.Metal>
0.0000

> <Gold.Chemscore.Hbonds>
donor molecule, donor type, donor heavy atom, donor atom, acceptor molecule, acceptor atom, score
      L1  H     3    28       P1  8028  0.48
      L1  H     6    29       P1  8028  0.99

> <Gold.PLP.Chemscore.Internal.Correction>
0.4210

> <Gold.Rescore>
     Score         DG    S(hbond)    S(metal)    S(lipo)     H(rot)  DE(clash)    DE(int)     intcor
     17.18     -23.76       1.84        0.00     132.97       1.34       4.11       2.47       ----

> <Gold.Chemscore.Fitness>
17.1806

> <Gold.Chemscore.DG>
-23.7621

> <Gold.Chemscore.ZeroCoef>
-5.4800

> <Gold.Chemscore.Hbond>
1.8397

> <Gold.Chemscore.Metal>
0.0000

> <Gold.Chemscore.Lipo>
132.9694

> <Gold.Chemscore.Internal_Hbond>
0.0000

> <Gold.Chemscore.DEClash>
4.1095

> <Gold.Chemscore.DEInternal>
2.4719

> <Gold.Chemscore.Rot>
1.3359

> <Gold.Chemscore.Internal.Correction>
   9.000000E+99

> <Gold.Chemscore.Hbonds>
donor molecule, donor type, donor heavy atom, donor atom, acceptor molecule, acceptor atom, score
      L1  H     3    28       P1  8028  0.47
      L1  H     6    29       P1  8028  0.92

> <Gold.Chemscore.Hbond.Weighted>
-6.1445

> <Gold.Chemscore.Metal.Weighted>
-0.0000

> <Gold.Chemscore.Lipo.Weighted>
-15.5574

> <Gold.Chemscore.Internal_Hbond.Weighted>
0.0000

> <Gold.Chemscore.DEClash.Weighted>
4.1095

> <Gold.Chemscore.DEInternal.Weighted>
2.4719

> <Gold.Chemscore.Rot.Weighted>
3.4199

> <Gold.Chemscore.Internal.Correction.Weighted>
   9.000000E+99

> <Gold.Protein.RotatedTorsions>
[ 6907 6896 6895 6894 ] final   84.56 input  -60.11 | X-H torsion
[ 7974 7965 7964 7962 ] final  -32.63 input  175.53 | X-H torsion
[ 8008 7997 7996 7995 ] final    1.71 input   59.86 | X-H torsion
[ 10167 10162 10161 10158 ] final    0.98 input  -65.29 | X-H torsion
[ 10718 10713 10712 10709 ] final  109.00 input   66.30 | X-H torsion
[ 10763 10752 10751 10750 ] final  155.56 input  -60.55 | X-H torsion
[ 11005 11000 10999 10996 ] final  -49.05 input  -57.11 | X-H torsion

> <Gold.Protein.ActiveResidues>
 VAL166  LYS551  ARG553  GLY616  TRP617  ASP618  TYR619  PRO620  LYS621  CYS622 
 ASP623  PHE694  ASN695  SER759  ASP760  ASP761  ALA762  ILE779  LEU786  VAL792 
 PHE793  MET794  SER795  GLU796  ALA797  LYS798  CYS799  TRP800  GLU811  SER814 

> <Gold.Protein.RotatedAtoms>
  152.5355  134.2722  159.8975 H   0  0  0  0  0  0  0  0  0  0  0  0  # atno 6907 bound_to 6896
  151.2678  133.4263  159.2627 H   0  0  0  0  0  0  0  0  0  0  0  0  # atno 6908 bound_to 6896
  151.0395  134.9611  159.8210 H   0  0  0  0  0  0  0  0  0  0  0  0  # atno 6909 bound_to 6896
  146.0974  140.5817  142.8836 H   0  0  0  0  0  0  0  0  0  0  0  0  # atno 7974 bound_to 7965
  154.6830  140.2636  155.6889 H   0  0  0  0  0  0  0  0  0  0  0  0  # atno 8008 bound_to 7997
  156.2704  140.2806  156.1303 H   0  0  0  0  0  0  0  0  0  0  0  0  # atno 8009 bound_to 7997
  155.1005  140.0374  157.2685 H   0  0  0  0  0  0  0  0  0  0  0  0  # atno 8010 bound_to 7997
  140.6704  143.7065  150.7911 H   0  0  0  0  0  0  0  0  0  0  0  0  # atno 10167 bound_to 10162
  157.6561  131.0905  150.6389 H   0  0  0  0  0  0  0  0  0  0  0  0  # atno 10718 bound_to 10713
  154.1703  135.2805  155.3083 H   0  0  0  0  0  0  0  0  0  0  0  0  # atno 10763 bound_to 10752
  154.6080  135.5508  153.7447 H   0  0  0  0  0  0  0  0  0  0  0  0  # atno 10764 bound_to 10752
  153.0167  135.6408  154.1843 H   0  0  0  0  0  0  0  0  0  0  0  0  # atno 10765 bound_to 10752
  141.0737  133.6672  156.3529 H   0  0  0  0  0  0  0  0  0  0  0  0  # atno 11005 bound_to 11000
  144.7406  140.4932  143.6872 LP  0  0  0  0  0  0  0  0  0  0  0  0  # atno 17320 bound_to 7965
  145.5921  139.1496  143.3176 LP  0  0  0  0  0  0  0  0  0  0  0  0  # atno 17321 bound_to 7965
  140.0749  143.5025  152.2560 LP  0  0  0  0  0  0  0  0  0  0  0  0  # atno 17342 bound_to 10162
  139.5970  144.7570  151.3263 LP  0  0  0  0  0  0  0  0  0  0  0  0  # atno 17343 bound_to 10162
  156.6696  130.4535  149.5661 LP  0  0  0  0  0  0  0  0  0  0  0  0  # atno 17370 bound_to 10713
  156.2007  130.6618  151.1164 LP  0  0  0  0  0  0  0  0  0  0  0  0  # atno 17371 bound_to 10713
  140.5620  134.5925  157.5436 LP  0  0  0  0  0  0  0  0  0  0  0  0  # atno 17394 bound_to 11000
  139.9549  134.7552  156.0364 LP  0  0  0  0  0  0  0  0  0  0  0  0  # atno 17395 bound_to 11000

$$$$
