AV-unprocessed.smi:148|AV-procd|sdf|1233|dock8
  -GOLD-   2262018443D 1   1.00000     0.00000
 Structure written by MMmdl.
 63 67  0  0  0  0  0  0  0  0  1 V2000
  150.6103  132.6061  157.9602 O   0  0  0  0  0  0  0  0  0  0  0  0
  149.4957  133.4406  157.7234 C   0  0  0  0  0  0  0  0  0  0  0  0
  149.5041  133.9938  156.2774 C   0  0  1  0  0  0  0  0  0  0  0  0
  150.8044  134.7794  155.9639 C   0  0  0  0  0  0  0  0  0  0  0  0
  150.8556  136.0819  156.6052 N   0  0  0  0  0  0  0  0  0  0  0  0
  150.1869  136.4626  157.7472 C   0  0  0  0  0  0  0  0  0  0  0  0
  150.3872  137.6964  158.1248 N   0  0  0  0  0  0  0  0  0  0  0  0
  151.2565  138.2029  157.1672 C   0  0  0  0  0  0  0  0  0  0  0  0
  151.8668  139.4672  156.9594 C   0  0  0  0  0  0  0  0  0  0  0  0
  151.6537  140.5108  157.7944 N   0  0  0  0  0  0  0  0  0  0  0  0
  152.8740  140.7913  158.5511 C   0  0  0  0  0  0  0  0  0  0  0  0
  152.6220  141.8154  159.6639 C   0  0  0  0  0  0  0  0  0  0  0  0
  152.0178  143.0935  159.0764 C   0  0  0  0  0  0  0  0  0  0  0  0
  150.7312  142.7589  158.3109 C   0  0  0  0  0  0  0  0  0  0  0  0
  150.9651  141.6820  157.2179 C   0  0  2  0  0  0  0  0  0  0  0  0
  149.6600  141.2926  156.4527 C   0  0  1  0  0  0  0  0  0  0  0  0
  149.8529  140.6469  155.0662 C   0  0  0  0  0  0  0  0  0  0  0  0
  148.6374  139.7325  154.8409 C   0  0  0  0  0  0  0  0  0  0  0  0
  147.7440  139.8933  156.0750 C   0  0  0  0  0  0  0  0  0  0  0  0
  148.7005  140.3393  157.1802 C   0  0  2  0  0  0  0  0  0  0  0  0
  148.0094  140.9756  158.2349 O   0  0  0  0  0  0  0  0  0  0  0  0
  152.6944  139.6079  155.8898 N   0  0  0  0  0  0  0  0  0  0  0  0
  152.8972  138.5762  155.0646 C   0  0  0  0  0  0  0  0  0  0  0  0
  152.3865  137.3440  155.1262 N   0  0  0  0  0  0  0  0  0  0  0  0
  151.5632  137.2017  156.2047 C   0  0  0  0  0  0  0  0  0  0  0  0
  149.1829  132.8797  155.2401 C   0  0  1  0  0  0  0  0  0  0  0  0
  149.0496  133.3119  153.7910 C   0  0  0  0  0  0  0  0  0  0  0  0
  149.0877  131.9676  153.0708 C   0  0  0  0  0  0  0  0  0  0  0  0
  149.9540  131.1416  153.8440 O   0  0  0  0  0  0  0  0  0  0  0  0
  150.1905  131.7318  155.1200 C   0  0  0  0  0  0  0  0  0  0  0  0
  150.2984  131.7337  158.1476 H   0  0  0  0  0  0  0  0  0  0  0  0
  148.6076  132.8389  157.9140 H   0  0  0  0  0  0  0  0  0  0  0  0
  149.4894  134.2524  158.4511 H   0  0  0  0  0  0  0  0  0  0  0  0
  148.6886  134.7163  156.2155 H   0  0  0  0  0  0  0  0  0  0  0  0
  151.6832  134.2156  156.2746 H   0  0  0  0  0  0  0  0  0  0  0  0
  150.9088  134.9501  154.8936 H   0  0  0  0  0  0  0  0  0  0  0  0
  149.5416  135.7911  158.2946 H   0  0  0  0  0  0  0  0  0  0  0  0
  153.2605  139.8697  158.9897 H   0  0  0  0  0  0  0  0  0  0  0  0
  153.6421  141.1670  157.8730 H   0  0  0  0  0  0  0  0  0  0  0  0
  151.9451  141.3932  160.4078 H   0  0  0  0  0  0  0  0  0  0  0  0
  153.5540  142.0432  160.1815 H   0  0  0  0  0  0  0  0  0  0  0  0
  151.8072  143.8107  159.8704 H   0  0  0  0  0  0  0  0  0  0  0  0
  152.7351  143.5685  158.4058 H   0  0  0  0  0  0  0  0  0  0  0  0
  149.9794  142.4246  159.0250 H   0  0  0  0  0  0  0  0  0  0  0  0
  150.3517  143.6794  157.8702 H   0  0  0  0  0  0  0  0  0  0  0  0
  151.6486  142.1199  156.4889 H   0  0  0  0  0  0  0  0  0  0  0  0
  149.0807  142.2014  156.2816 H   0  0  0  0  0  0  0  0  0  0  0  0
  149.9246  141.4084  154.2893 H   0  0  0  0  0  0  0  0  0  0  0  0
  150.7662  140.0561  155.0129 H   0  0  0  0  0  0  0  0  0  0  0  0
  148.1018  139.9805  153.9242 H   0  0  0  0  0  0  0  0  0  0  0  0
  148.9694  138.6972  154.7551 H   0  0  0  0  0  0  0  0  0  0  0  0
  147.0039  140.6721  155.8837 H   0  0  0  0  0  0  0  0  0  0  0  0
  147.2053  138.9791  156.3267 H   0  0  0  0  0  0  0  0  0  0  0  0
  149.2195  139.4618  157.5629 H   0  0  0  0  0  0  0  0  0  0  0  0
  148.6235  141.5063  158.7190 H   0  0  0  0  0  0  0  0  0  0  0  0
  153.5636  138.7650  154.2360 H   0  0  0  0  0  0  0  0  0  0  0  0
  148.2231  132.4363  155.5102 H   0  0  0  0  0  0  0  0  0  0  0  0
  148.1362  133.8732  153.5923 H   0  0  0  0  0  0  0  0  0  0  0  0
  149.8983  133.9119  153.4663 H   0  0  0  0  0  0  0  0  0  0  0  0
  148.0956  131.5145  153.0578 H   0  0  0  0  0  0  0  0  0  0  0  0
  149.4338  132.0546  152.0407 H   0  0  0  0  0  0  0  0  0  0  0  0
  151.2191  132.0894  155.1351 H   0  0  0  0  0  0  0  0  0  0  0  0
  150.0787  130.9972  155.9180 H   0  0  0  0  0  0  0  0  0  0  0  0
  1  2  1  0  0  0  0
  1 31  1  0  0  0  0
  2  3  1  0  0  0  0
  2 32  1  0  0  0  0
  2 33  1  0  0  0  0
  3  4  1  0  0  0  0
  3 26  1  0  0  0  0
  3 34  1  0  0  0  0
  4  5  1  0  0  0  0
  4 35  1  0  0  0  0
  4 36  1  0  0  0  0
  5 25  1  0  0  0  0
  5  6  1  0  0  0  0
  6  7  2  0  0  0  0
  6 37  1  0  0  0  0
  7  8  1  0  0  0  0
  8 25  2  0  0  0  0
  8  9  1  0  0  0  0
  9 10  1  0  0  0  0
  9 22  2  0  0  0  0
 10 15  1  0  0  0  0
 10 11  1  0  0  0  0
 11 12  1  0  0  0  0
 11 38  1  0  0  0  0
 11 39  1  0  0  0  0
 12 13  1  0  0  0  0
 12 40  1  0  0  0  0
 12 41  1  0  0  0  0
 13 14  1  0  0  0  0
 13 42  1  0  0  0  0
 13 43  1  0  0  0  0
 14 15  1  0  0  0  0
 14 44  1  0  0  0  0
 14 45  1  0  0  0  0
 15 16  1  0  0  0  0
 15 46  1  0  0  0  0
 16 20  1  0  0  0  0
 16 17  1  0  0  0  0
 16 47  1  0  0  0  0
 17 18  1  0  0  0  0
 17 48  1  0  0  0  0
 17 49  1  0  0  0  0
 18 19  1  0  0  0  0
 18 50  1  0  0  0  0
 18 51  1  0  0  0  0
 19 20  1  0  0  0  0
 19 52  1  0  0  0  0
 19 53  1  0  0  0  0
 20 21  1  0  0  0  0
 20 54  1  0  0  0  0
 21 55  1  0  0  0  0
 22 23  1  0  0  0  0
 23 24  2  0  0  0  0
 23 56  1  0  0  0  0
 24 25  1  0  0  0  0
 26 30  1  0  0  0  0
 26 27  1  0  0  0  0
 26 57  1  0  0  0  0
 27 28  1  0  0  0  0
 27 58  1  0  0  0  0
 27 59  1  0  0  0  0
 28 29  1  0  0  0  0
 28 60  1  0  0  0  0
 28 61  1  0  0  0  0
 29 30  1  0  0  0  0
 30 62  1  0  0  0  0
 30 63  1  0  0  0  0
M  END
> <s_m_source_file>
AV-unprocessed.smi

> <i_m_source_file_index>
148

> <i_lp_mmshare_version>
43012

> <i_f3d_flags>
0

> <s_epik_input>
W0NIMl0xT1tDSDJdW0NIMl1bQ0BIXTFbQ0BIXShbQ0gyXVtPSF0pW0NIMl1uKFtjSF1uMiljKGMyMyluW2NIXW5jM040W0NIMl1bQ0gyXVtDSDJdW0NIMl1bQ0BIXTRbQ0BASF01W0NIMl1bQ0gyXVtDSDJdW0NASF01W09IXQ==

> <s_epik_cmdline>
J2VwaWtfcHl0aG9uJywgJy1waCcsICc3LjAnLCAnLXRuJywgJzgnLCAnLW1hJywgJzIwMCcsICctbWV0YWxfYmluZGluZycsICctaW1hZScsICc8aW5maWxlLm1hZT4nLCAnLW9tYWUnLCAnPG91dGZpbGUubWFlPic=

> <r_lp_tautomer_probability>
1

> <r_epik_Ionization_Penalty>
0.00556303

> <r_epik_Ionization_Penalty_Charging>
0

> <r_epik_Ionization_Penalty_Neutral>
0.00556303

> <r_epik_State_Penalty>
0.00401767

> <r_epik_Charging_Adjusted_Penalty>
0.00401767

> <i_epik_Tot_Q>
0

> <i_epik_Tot_abs_Q>
0

> <r_epik_Metal_State_Penalty>
-0

> <b_epik_Metal_Only>
0

> <s_lp_Force_Field>
OPLS_2005

> <r_lp_Energy>
68.5512

> <b_lp_Chiralities_Consistent>
1

> <s_lp_Variant>
AV-unprocessed.smi:148-32

> <Gold.Version>
5.8.1

> <Gold.Id.Protein>
6NUR|6NUR_protein|mol2

> <Gold.PLP.Fitness>
47.9729

> <Gold.PLP.PLP>
-40.9917

> <Gold.PLP.part.hbond>
-3.4111

> <Gold.PLP.part.metal>
0.0000

> <Gold.PLP.part.buried>
-5.5617

> <Gold.PLP.part.nonpolar>
-32.7714

> <Gold.PLP.part.repulsive>
0.1186

> <Gold.PLP.ligand.clash>
0.0000

> <Gold.PLP.ligand.torsion>
0.9338

> <Gold.PLP.Chemscore.Hbond>
2.8000

> <Gold.PLP.Chemscore.CHOScore>
0.0000

> <Gold.PLP.Chemscore.Metal>
0.0000

> <Gold.Chemscore.Hbonds>
donor molecule, donor type, donor heavy atom, donor atom, acceptor molecule, acceptor atom, score
      P1  H  6896  6909       L1     1  0.55
      P1  H  7997  8010       L1    22  1.00
      P1  H 10752 10765       L1    24  0.69

> <Gold.PLP.Chemscore.Internal.Correction>
0.4489

> <Gold.Rescore>
     Score         DG    S(hbond)    S(metal)    S(lipo)     H(rot)  DE(clash)    DE(int)     intcor
     15.16     -17.34       2.62        0.00      99.23       3.32       0.11       2.08       ----

> <Gold.Chemscore.Fitness>
15.1567

> <Gold.Chemscore.DG>
-17.3442

> <Gold.Chemscore.ZeroCoef>
-5.4800

> <Gold.Chemscore.Hbond>
2.6209

> <Gold.Chemscore.Metal>
0.0000

> <Gold.Chemscore.Lipo>
99.2349

> <Gold.Chemscore.Internal_Hbond>
0.0000

> <Gold.Chemscore.DEClash>
0.1089

> <Gold.Chemscore.DEInternal>
2.0786

> <Gold.Chemscore.Rot>
3.3203

> <Gold.Chemscore.Internal.Correction>
   9.000000E+99

> <Gold.Chemscore.Hbonds>
donor molecule, donor type, donor heavy atom, donor atom, acceptor molecule, acceptor atom, score
      P1  H  6896  6909       L1     1  0.03
      P1  H  7997  8010       L1    22  0.25
      P1  H 10752 10765       L1    24  0.37

> <Gold.Chemscore.Hbond.Weighted>
-8.7537

> <Gold.Chemscore.Metal.Weighted>
-0.0000

> <Gold.Chemscore.Lipo.Weighted>
-11.6105

> <Gold.Chemscore.Internal_Hbond.Weighted>
0.0000

> <Gold.Chemscore.DEClash.Weighted>
0.1089

> <Gold.Chemscore.DEInternal.Weighted>
2.0786

> <Gold.Chemscore.Rot.Weighted>
8.5000

> <Gold.Chemscore.Internal.Correction.Weighted>
   9.000000E+99

> <Gold.Protein.RotatedTorsions>
[ 6907 6896 6895 6894 ] final  -22.30 input  -60.11 | X-H torsion
[ 7974 7965 7964 7962 ] final   -6.08 input  175.53 | X-H torsion
[ 8008 7997 7996 7995 ] final   89.78 input   59.86 | X-H torsion
[ 10167 10162 10161 10158 ] final -161.05 input  -65.29 | X-H torsion
[ 10718 10713 10712 10709 ] final  -15.73 input   66.30 | X-H torsion
[ 10763 10752 10751 10750 ] final -174.21 input  -60.55 | X-H torsion
[ 11005 11000 10999 10996 ] final  -96.23 input  -57.11 | X-H torsion

> <Gold.Protein.ActiveResidues>
 VAL166  LYS551  ARG553  GLY616  TRP617  ASP618  TYR619  PRO620  LYS621  CYS622 
 ASP623  PHE694  ASN695  SER759  ASP760  ASP761  ALA762  ILE779  LEU786  VAL792 
 PHE793  MET794  SER795  GLU796  ALA797  LYS798  CYS799  TRP800  GLU811  SER814 

> <Gold.Protein.RotatedAtoms>
  151.2206  135.0517  159.8948 H   0  0  0  0  0  0  0  0  0  0  0  0  # atno 6907 bound_to 6896
  152.5415  134.0644  159.8176 H   0  0  0  0  0  0  0  0  0  0  0  0  # atno 6908 bound_to 6896
  151.0810  133.5342  159.2652 H   0  0  0  0  0  0  0  0  0  0  0  0  # atno 6909 bound_to 6896
  146.2339  140.2117  142.8335 H   0  0  0  0  0  0  0  0  0  0  0  0  # atno 7974 bound_to 7965
  156.0041  140.3357  155.6875 H   0  0  0  0  0  0  0  0  0  0  0  0  # atno 8008 bound_to 7997
  155.6249  140.0679  157.2684 H   0  0  0  0  0  0  0  0  0  0  0  0  # atno 8009 bound_to 7997
  154.4259  140.1770  156.1399 H   0  0  0  0  0  0  0  0  0  0  0  0  # atno 8010 bound_to 7997
  139.6494  144.0112  152.2150 H   0  0  0  0  0  0  0  0  0  0  0  0  # atno 10167 bound_to 10162
  156.5976  130.4815  149.6253 H   0  0  0  0  0  0  0  0  0  0  0  0  # atno 10718 bound_to 10713
  154.5989  135.2852  155.0557 H   0  0  0  0  0  0  0  0  0  0  0  0  # atno 10763 bound_to 10752
  154.1829  135.6453  153.5043 H   0  0  0  0  0  0  0  0  0  0  0  0  # atno 10764 bound_to 10752
  153.0149  135.5428  154.6701 H   0  0  0  0  0  0  0  0  0  0  0  0  # atno 10765 bound_to 10752
  141.1418  133.8083  157.0543 H   0  0  0  0  0  0  0  0  0  0  0  0  # atno 11005 bound_to 11000
  144.9701  140.8360  143.5460 LP  0  0  0  0  0  0  0  0  0  0  0  0  # atno 17320 bound_to 7965
  145.2098  139.2210  143.5149 LP  0  0  0  0  0  0  0  0  0  0  0  0  # atno 17321 bound_to 7965
  139.9822  144.6420  150.7890 LP  0  0  0  0  0  0  0  0  0  0  0  0  # atno 17342 bound_to 10162
  140.7530  143.3001  151.3103 LP  0  0  0  0  0  0  0  0  0  0  0  0  # atno 17343 bound_to 10162
  156.2496  130.6899  151.1633 LP  0  0  0  0  0  0  0  0  0  0  0  0  # atno 17370 bound_to 10713
  157.7288  131.0629  150.5804 LP  0  0  0  0  0  0  0  0  0  0  0  0  # atno 17371 bound_to 10713
  140.0612  134.9754  157.1308 LP  0  0  0  0  0  0  0  0  0  0  0  0  # atno 17394 bound_to 11000
  140.3846  134.2250  155.7169 LP  0  0  0  0  0  0  0  0  0  0  0  0  # atno 17395 bound_to 11000

$$$$
