AV-unprocessed.smi:2520|AV-procd|sdf|9912|dock4
  -GOLD-   2272013553D 1   1.00000     0.00000
 Structure written by MMmdl.
 41 44  0  0  0  0  0  0  0  0  1 V2000
  149.3689  135.8405  156.6798 O   0  0  0  0  0  0  0  0  0  0  0  0
  149.2549  136.1802  155.5034 C   0  0  0  0  0  0  0  0  0  0  0  0
  149.3510  135.2771  154.5042 N   0  0  0  0  0  0  0  0  0  0  0  0
  149.5838  133.8699  154.5249 C   0  0  0  0  0  0  0  0  0  0  0  0
  148.9215  133.1461  153.5104 C   0  0  0  0  0  0  0  0  0  0  0  0
  149.0933  131.7521  153.4604 C   0  0  0  0  0  0  0  0  0  0  0  0
  149.9194  131.1698  154.4364 C   0  0  0  0  0  0  0  0  0  0  0  0
  150.5331  131.8985  155.3932 N   0  0  0  0  0  0  0  0  0  0  0  0
  150.3644  133.2240  155.4322 N   0  0  0  0  0  0  0  0  0  0  0  0
  149.0265  137.4479  155.1306 N   0  0  0  0  0  0  0  0  0  0  0  0
  148.8906  138.5997  156.0210 C   0  0  1  0  0  0  0  0  0  0  0  0
  150.2560  139.1580  156.4842 C   0  0  1  0  0  0  0  0  0  0  0  0
  151.5510  138.4058  156.2936 C   0  0  0  0  0  0  0  0  0  0  0  0
  152.1085  139.0080  155.0001 C   0  0  0  0  0  0  0  0  0  0  0  0
  150.9840  139.6031  154.3551 O   0  0  0  0  0  0  0  0  0  0  0  0
  150.1537  140.1782  155.3614 C   0  0  1  0  0  0  0  0  0  0  0  0
  148.6391  139.9095  155.2373 C   0  0  0  0  0  0  0  0  0  0  0  0
  147.7392  140.9474  155.9058 C   0  0  0  0  0  0  0  0  0  0  0  0
  147.3679  141.9824  154.8388 C   0  0  0  0  0  0  0  0  0  0  0  0
  147.6019  141.2930  153.4913 C   0  0  0  0  0  0  0  0  0  0  0  0
  148.0386  139.8667  153.8314 C   0  0  0  0  0  0  0  0  0  0  0  0
  149.2233  135.6636  153.5804 H   0  0  0  0  0  0  0  0  0  0  0  0
  148.2958  133.6449  152.7847 H   0  0  0  0  0  0  0  0  0  0  0  0
  148.6103  131.1528  152.7032 H   0  0  0  0  0  0  0  0  0  0  0  0
  150.0906  130.1037  154.4522 H   0  0  0  0  0  0  0  0  0  0  0  0
  148.9450  137.6361  154.1409 H   0  0  0  0  0  0  0  0  0  0  0  0
  148.1933  138.4553  156.8481 H   0  0  0  0  0  0  0  0  0  0  0  0
  150.1658  139.6392  157.4596 H   0  0  0  0  0  0  0  0  0  0  0  0
  152.2405  138.5557  157.1246 H   0  0  0  0  0  0  0  0  0  0  0  0
  151.3922  137.3321  156.1945 H   0  0  0  0  0  0  0  0  0  0  0  0
  152.8397  139.7855  155.2252 H   0  0  0  0  0  0  0  0  0  0  0  0
  152.5859  138.2639  154.3624 H   0  0  0  0  0  0  0  0  0  0  0  0
  150.4463  141.1897  155.6464 H   0  0  0  0  0  0  0  0  0  0  0  0
  146.8302  140.4680  156.2719 H   0  0  0  0  0  0  0  0  0  0  0  0
  148.2124  141.4187  156.7679 H   0  0  0  0  0  0  0  0  0  0  0  0
  146.3359  142.3157  154.9525 H   0  0  0  0  0  0  0  0  0  0  0  0
  148.0078  142.8615  154.9220 H   0  0  0  0  0  0  0  0  0  0  0  0
  146.7118  141.3028  152.8617 H   0  0  0  0  0  0  0  0  0  0  0  0
  148.3959  141.8070  152.9479 H   0  0  0  0  0  0  0  0  0  0  0  0
  148.7318  139.4771  153.0854 H   0  0  0  0  0  0  0  0  0  0  0  0
  147.1668  139.2111  153.8210 H   0  0  0  0  0  0  0  0  0  0  0  0
  1  2  2  0  0  0  0
  2  3  1  0  0  0  0
  2 10  1  0  0  0  0
  3  4  1  0  0  0  0
  3 22  1  0  0  0  0
  4  9  1  0  0  0  0
  4  5  2  0  0  0  0
  5  6  1  0  0  0  0
  5 23  1  0  0  0  0
  6  7  2  0  0  0  0
  6 24  1  0  0  0  0
  7  8  1  0  0  0  0
  7 25  1  0  0  0  0
  8  9  2  0  0  0  0
 10 11  1  0  0  0  0
 10 26  1  0  0  0  0
 11 17  1  0  0  0  0
 11 12  1  0  0  0  0
 11 27  1  0  0  0  0
 12 16  1  0  0  0  0
 12 13  1  0  0  0  0
 12 28  1  0  0  0  0
 13 14  1  0  0  0  0
 13 29  1  0  0  0  0
 13 30  1  0  0  0  0
 14 15  1  0  0  0  0
 14 31  1  0  0  0  0
 14 32  1  0  0  0  0
 15 16  1  0  0  0  0
 16 17  1  0  0  0  0
 16 33  1  0  0  0  0
 17 21  1  0  0  0  0
 17 18  1  0  0  0  0
 18 19  1  0  0  0  0
 18 34  1  0  0  0  0
 18 35  1  0  0  0  0
 19 20  1  0  0  0  0
 19 36  1  0  0  0  0
 19 37  1  0  0  0  0
 20 21  1  0  0  0  0
 20 38  1  0  0  0  0
 20 39  1  0  0  0  0
 21 40  1  0  0  0  0
 21 41  1  0  0  0  0
M  END
> <s_m_source_file>
AV-unprocessed.smi

> <i_m_source_file_index>
2520

> <i_lp_mmshare_version>
43012

> <i_f3d_flags>
0

> <s_epik_input>
bjFuW2NIXVtjSF1bY0hdYzFbTkhdQyg9TylbTkhdW0NAQEhdMltDQEBIXShbQ0gyXVtDSDJdTzMpW0NASF0zQzI0W0NIMl1bQ0gyXVtDSDJdW0NIMl00

> <s_epik_cmdline>
J2VwaWtfcHl0aG9uJywgJy1waCcsICc3LjAnLCAnLXRuJywgJzgnLCAnLW1hJywgJzIwMCcsICctbWV0YWxfYmluZGluZycsICctaW1hZScsICc8aW5maWxlLm1hZT4nLCAnLW9tYWUnLCAnPG91dGZpbGUubWFlPic=

> <r_lp_tautomer_probability>
1

> <r_epik_Ionization_Penalty>
0.00552561

> <r_epik_Ionization_Penalty_Charging>
0

> <r_epik_Ionization_Penalty_Neutral>
0.00552561

> <r_epik_State_Penalty>
-0

> <r_epik_Charging_Adjusted_Penalty>
0

> <i_epik_Tot_Q>
0

> <i_epik_Tot_abs_Q>
0

> <r_epik_Metal_State_Penalty>
-0

> <b_epik_Metal_Only>
0

> <s_lp_Force_Field>
OPLS_2005

> <r_lp_Energy>
62.4045

> <b_lp_Chiralities_Consistent>
1

> <s_lp_Variant>
AV-unprocessed.smi:2520-6

> <Gold.Version>
5.8.1

> <Gold.Id.Protein>
6NUR|6NUR_protein|mol2

> <Gold.PLP.Fitness>
34.7753

> <Gold.PLP.PLP>
-29.3287

> <Gold.PLP.part.hbond>
-2.0000

> <Gold.PLP.part.metal>
0.0000

> <Gold.PLP.part.buried>
-3.2386

> <Gold.PLP.part.nonpolar>
-23.6821

> <Gold.PLP.part.repulsive>
0.1718

> <Gold.PLP.ligand.clash>
0.0000

> <Gold.PLP.ligand.torsion>
0.3795

> <Gold.PLP.Chemscore.Hbond>
2.0000

> <Gold.PLP.Chemscore.CHOScore>
0.0000

> <Gold.PLP.Chemscore.Metal>
0.0000

> <Gold.Chemscore.Hbonds>
donor molecule, donor type, donor heavy atom, donor atom, acceptor molecule, acceptor atom, score
      L1  H     3    22       P1  7948  1.00
      P1  H  7989  7998       L1    15  1.00

> <Gold.PLP.Chemscore.Internal.Correction>
0.2057

> <Gold.Rescore>
     Score         DG    S(hbond)    S(metal)    S(lipo)     H(rot)  DE(clash)    DE(int)     intcor
     13.83     -14.93       1.32        0.00      65.02       1.00       0.08       1.01       ----

> <Gold.Chemscore.Fitness>
13.8333

> <Gold.Chemscore.DG>
-14.9252

> <Gold.Chemscore.ZeroCoef>
-5.4800

> <Gold.Chemscore.Hbond>
1.3168

> <Gold.Chemscore.Metal>
0.0000

> <Gold.Chemscore.Lipo>
65.0189

> <Gold.Chemscore.Internal_Hbond>
0.0000

> <Gold.Chemscore.DEClash>
0.0825

> <Gold.Chemscore.DEInternal>
1.0094

> <Gold.Chemscore.Rot>
1.0000

> <Gold.Chemscore.Internal.Correction>
   9.000000E+99

> <Gold.Chemscore.Hbonds>
donor molecule, donor type, donor heavy atom, donor atom, acceptor molecule, acceptor atom, score
      L1  H     3    22       P1  7948  0.60
      P1  H  7989  7998       L1    15  0.27

> <Gold.Chemscore.Hbond.Weighted>
-4.3980

> <Gold.Chemscore.Metal.Weighted>
-0.0000

> <Gold.Chemscore.Lipo.Weighted>
-7.6072

> <Gold.Chemscore.Internal_Hbond.Weighted>
0.0000

> <Gold.Chemscore.DEClash.Weighted>
0.0825

> <Gold.Chemscore.DEInternal.Weighted>
1.0094

> <Gold.Chemscore.Rot.Weighted>
2.5600

> <Gold.Chemscore.Internal.Correction.Weighted>
   9.000000E+99

> <Gold.Protein.RotatedTorsions>
[ 6907 6896 6895 6894 ] final   74.83 input  -60.11 | X-H torsion
[ 7974 7965 7964 7962 ] final   72.86 input  175.53 | X-H torsion
[ 8008 7997 7996 7995 ] final  103.10 input   59.86 | X-H torsion
[ 10167 10162 10161 10158 ] final   61.02 input  -65.29 | X-H torsion
[ 10718 10713 10712 10709 ] final   50.32 input   66.30 | X-H torsion
[ 10763 10752 10751 10750 ] final   69.26 input  -60.55 | X-H torsion
[ 11005 11000 10999 10996 ] final  100.59 input  -57.11 | X-H torsion

> <Gold.Protein.ActiveResidues>
 VAL166  LYS551  ARG553  GLY616  TRP617  ASP618  TYR619  PRO620  LYS621  CYS622 
 ASP623  PHE694  ASN695  SER759  ASP760  ASP761  ALA762  ILE779  LEU786  VAL792 
 PHE793  MET794  SER795  GLU796  ALA797  LYS798  CYS799  TRP800  GLU811  SER814 

> <Gold.Protein.RotatedAtoms>
  152.4996  134.4212  159.9480 H   0  0  0  0  0  0  0  0  0  0  0  0  # atno 6907 bound_to 6896
  151.4185  133.3699  159.2761 H   0  0  0  0  0  0  0  0  0  0  0  0  # atno 6908 bound_to 6896
  150.9240  134.8679  159.7567 H   0  0  0  0  0  0  0  0  0  0  0  0  # atno 6909 bound_to 6896
  145.7481  139.2748  143.1447 H   0  0  0  0  0  0  0  0  0  0  0  0  # atno 7974 bound_to 7965
  156.1453  140.3170  155.8561 H   0  0  0  0  0  0  0  0  0  0  0  0  # atno 8008 bound_to 7997
  155.4075  140.0503  157.3050 H   0  0  0  0  0  0  0  0  0  0  0  0  # atno 8009 bound_to 7997
  154.5011  140.2129  155.9356 H   0  0  0  0  0  0  0  0  0  0  0  0  # atno 8010 bound_to 7997
  140.1593  144.4386  150.6718 H   0  0  0  0  0  0  0  0  0  0  0  0  # atno 10167 bound_to 10162
  157.4873  130.8353  149.8162 H   0  0  0  0  0  0  0  0  0  0  0  0  # atno 10718 bound_to 10713
  153.0278  135.5217  154.7261 H   0  0  0  0  0  0  0  0  0  0  0  0  # atno 10763 bound_to 10752
  154.6303  135.2899  155.0227 H   0  0  0  0  0  0  0  0  0  0  0  0  # atno 10764 bound_to 10752
  154.1181  135.6612  153.4950 H   0  0  0  0  0  0  0  0  0  0  0  0  # atno 10765 bound_to 10752
  139.8771  134.9146  156.4778 H   0  0  0  0  0  0  0  0  0  0  0  0  # atno 11005 bound_to 11000
  146.0383  140.8190  142.9841 LP  0  0  0  0  0  0  0  0  0  0  0  0  # atno 17320 bound_to 7965
  144.6856  140.2872  143.7283 LP  0  0  0  0  0  0  0  0  0  0  0  0  # atno 17321 bound_to 7965
  140.6653  143.2266  151.5757 LP  0  0  0  0  0  0  0  0  0  0  0  0  # atno 17342 bound_to 10162
  139.5389  144.2704  152.1309 LP  0  0  0  0  0  0  0  0  0  0  0  0  # atno 17343 bound_to 10162
  156.0154  130.3816  150.2129 LP  0  0  0  0  0  0  0  0  0  0  0  0  # atno 17370 bound_to 10713
  157.0316  131.0009  151.3310 LP  0  0  0  0  0  0  0  0  0  0  0  0  # atno 17371 bound_to 10713
  140.8749  133.7961  155.9404 LP  0  0  0  0  0  0  0  0  0  0  0  0  # atno 17394 bound_to 11000
  140.8914  134.2490  157.5092 LP  0  0  0  0  0  0  0  0  0  0  0  0  # atno 17395 bound_to 11000

$$$$
