AV-unprocessed.smi:876|AV-procd|sdf|4019|dock6
  -GOLD-   22720 1503D 1   1.00000     0.00000
 Structure written by MMmdl.
 41 42  0  0  0  0  0  0  0  0  2 V2000
  151.6475  144.3287  157.5909 C   0  0  0  0  0  0  0  0  0  0  0  0
  151.9041  142.9099  157.8001 N   0  0  0  0  0  0  0  0  0  0  0  0
  152.7795  142.4713  158.8815 C   0  0  0  0  0  0  0  0  0  0  0  0
  151.3265  141.9561  156.9342 C   0  0  0  0  0  0  0  0  0  0  0  0
  151.7446  140.6038  156.8799 C   0  0  0  0  0  0  0  0  0  0  0  0
  151.1189  139.7076  155.9887 C   0  0  0  0  0  0  0  0  0  0  0  0
  150.0675  140.1669  155.1583 C   0  0  0  0  0  0  0  0  0  0  0  0
  149.3813  139.3544  154.2155 N   0  0  0  0  0  0  0  0  0  0  0  0
  148.1377  139.5049  153.7275 C   0  0  0  0  0  0  0  0  0  0  0  0
  147.3683  140.4229  154.0106 O   0  0  0  0  0  0  0  0  0  0  0  0
  147.8340  138.5278  152.8617 N   0  0  0  0  0  0  0  0  0  0  0  0
  146.5664  138.4115  152.1491 C   0  0  2  0  0  0  0  0  0  0  0  0
  145.4962  137.8733  153.0588 C   0  0  0  0  0  0  0  0  0  0  0  0
  144.9024  136.7881  152.5674 C   0  0  0  0  0  0  0  0  0  0  0  0
  145.4588  136.3718  151.2296 C   0  0  2  0  0  0  0  0  0  0  0  0
  145.9145  134.9027  151.1992 C   0  0  0  0  0  0  0  0  0  0  0  0
  146.8746  134.6586  152.2059 O   0  0  0  0  0  0  0  0  0  0  0  0
  146.6165  137.3756  150.9950 C   0  0  0  0  0  0  0  0  0  0  0  0
  149.6997  141.5248  155.2407 C   0  0  0  0  0  0  0  0  0  0  0  0
  150.3255  142.3484  156.1085 N   0  3  0  0  0  0  0  0  0  0  0  0
  146.2451  139.3883  151.7836 H   0  0  0  0  0  0  0  0  0  0  0  0
  144.6824  136.5315  150.4800 H   0  0  0  0  0  0  0  0  0  0  0  0
  150.5817  144.5426  157.6767 H   0  0  0  0  0  0  0  0  0  0  0  0
  151.9872  144.6383  156.6022 H   0  0  0  0  0  0  0  0  0  0  0  0
  152.1694  144.9390  158.3279 H   0  0  0  0  0  0  0  0  0  0  0  0
  153.6427  141.9366  158.4831 H   0  0  0  0  0  0  0  0  0  0  0  0
  152.2447  141.8091  159.5634 H   0  0  0  0  0  0  0  0  0  0  0  0
  153.1494  143.3175  159.4607 H   0  0  0  0  0  0  0  0  0  0  0  0
  152.5431  140.2355  157.5063 H   0  0  0  0  0  0  0  0  0  0  0  0
  151.4704  138.6882  155.9536 H   0  0  0  0  0  0  0  0  0  0  0  0
  149.9198  138.5953  153.8246 H   0  0  0  0  0  0  0  0  0  0  0  0
  148.5250  137.8145  152.6799 H   0  0  0  0  0  0  0  0  0  0  0  0
  145.2447  138.3472  153.9963 H   0  0  0  0  0  0  0  0  0  0  0  0
  144.0984  136.2505  153.0482 H   0  0  0  0  0  0  0  0  0  0  0  0
  145.0644  134.2403  151.3657 H   0  0  0  0  0  0  0  0  0  0  0  0
  146.3390  134.6467  150.2275 H   0  0  0  0  0  0  0  0  0  0  0  0
  147.7125  134.9768  151.9058 H   0  0  0  0  0  0  0  0  0  0  0  0
  146.5179  137.8667  150.0263 H   0  0  0  0  0  0  0  0  0  0  0  0
  147.5753  136.8544  150.9823 H   0  0  0  0  0  0  0  0  0  0  0  0
  148.9206  141.9779  154.6448 H   0  0  0  0  0  0  0  0  0  0  0  0
  150.0271  143.3232  156.1439 H   0  0  0  0  0  0  0  0  0  0  0  0
  1  2  1  0  0  0  0
  1 23  1  0  0  0  0
  1 24  1  0  0  0  0
  1 25  1  0  0  0  0
  2  3  1  0  0  0  0
  2  4  1  0  0  0  0
  3 26  1  0  0  0  0
  3 27  1  0  0  0  0
  3 28  1  0  0  0  0
  4 20  1  0  0  0  0
  4  5  2  0  0  0  0
  5  6  1  0  0  0  0
  5 29  1  0  0  0  0
  6  7  2  0  0  0  0
  6 30  1  0  0  0  0
  7  8  1  0  0  0  0
  7 19  1  0  0  0  0
  8  9  1  0  0  0  0
  8 31  1  0  0  0  0
  9 10  2  0  0  0  0
  9 11  1  0  0  0  0
 11 12  1  0  0  0  0
 11 32  1  0  0  0  0
 12 21  1  0  0  0  0
 12 18  1  0  0  0  0
 12 13  1  0  0  0  0
 13 14  2  0  0  0  0
 13 33  1  0  0  0  0
 14 15  1  0  0  0  0
 14 34  1  0  0  0  0
 15 22  1  0  0  0  0
 15 16  1  0  0  0  0
 15 18  1  0  0  0  0
 16 17  1  0  0  0  0
 16 35  1  0  0  0  0
 16 36  1  0  0  0  0
 17 37  1  0  0  0  0
 18 38  1  0  0  0  0
 18 39  1  0  0  0  0
 19 20  2  0  0  0  0
 19 40  1  0  0  0  0
 20 41  1  0  0  0  0
M  CHG  1  20   1
M  END
> <s_m_source_file>
AV-unprocessed.smi

> <i_m_source_file_index>
876

> <i_lp_mmshare_version>
43012

> <i_f3d_flags>
0

> <s_epik_input>
W0NIM11OKFtDSDNdKWMxW2NIXVtjSF1jKFtjSF1uMSlbTkhdQyg9TylbTkhdW0NAQEhdMltDSF09W0NIXVtDQEBIXShbQ0gyXTIpW0NIMl1bT0hd

> <s_epik_cmdline>
J2VwaWtfcHl0aG9uJywgJy1waCcsICc3LjAnLCAnLXRuJywgJzgnLCAnLW1hJywgJzIwMCcsICctbWV0YWxfYmluZGluZycsICctaW1hZScsICc8aW5maWxlLm1hZT4nLCAnLW9tYWUnLCAnPG91dGZpbGUubWFlPic=

> <r_lp_tautomer_probability>
0.999994

> <r_epik_Ionization_Penalty>
0.257994

> <r_epik_Ionization_Penalty_Charging>
0.257974

> <r_epik_Ionization_Penalty_Neutral>
1.95938e-05

> <r_epik_State_Penalty>
0.249586

> <r_epik_Charging_Adjusted_Penalty>
0.50756

> <i_epik_Tot_Q>
1

> <i_epik_Tot_abs_Q>
1

> <r_epik_Metal_State_Penalty>
0.538508

> <b_epik_Metal_Only>
0

> <s_lp_Force_Field>
OPLS_2005

> <r_lp_Energy>
26.1458

> <b_lp_Chiralities_Consistent>
1

> <s_lp_Variant>
AV-unprocessed.smi:876-1

> <Gold.Version>
5.8.1

> <Gold.Id.Protein>
6NUR|6NUR_protein|mol2

> <Gold.PLP.Fitness>
46.9794

> <Gold.PLP.PLP>
-35.7856

> <Gold.PLP.part.hbond>
-4.3682

> <Gold.PLP.part.metal>
0.0000

> <Gold.PLP.part.buried>
1.8763

> <Gold.PLP.part.nonpolar>
-33.3406

> <Gold.PLP.part.repulsive>
0.3601

> <Gold.PLP.ligand.clash>
0.0000

> <Gold.PLP.ligand.torsion>
0.4149

> <Gold.PLP.Chemscore.Hbond>
4.0000

> <Gold.PLP.Chemscore.CHOScore>
0.0000

> <Gold.PLP.Chemscore.Metal>
0.0000

> <Gold.Chemscore.Hbonds>
donor molecule, donor type, donor heavy atom, donor atom, acceptor molecule, acceptor atom, score
      L1  H    11    32       P1  7948  0.98
      L1  H    17    37       P1  7948  1.00
      L1  H    20    41       P1  8028  2.00

> <Gold.PLP.Chemscore.Internal.Correction>
0.0237

> <Gold.Rescore>
     Score         DG    S(hbond)    S(metal)    S(lipo)     H(rot)  DE(clash)    DE(int)     intcor
     17.11     -20.56       2.88        0.00      86.43       1.82       1.66       1.78       ----

> <Gold.Chemscore.Fitness>
17.1130

> <Gold.Chemscore.DG>
-20.5552

> <Gold.Chemscore.ZeroCoef>
-5.4800

> <Gold.Chemscore.Hbond>
2.8807

> <Gold.Chemscore.Metal>
0.0000

> <Gold.Chemscore.Lipo>
86.4279

> <Gold.Chemscore.Internal_Hbond>
0.0000

> <Gold.Chemscore.DEClash>
1.6590

> <Gold.Chemscore.DEInternal>
1.7832

> <Gold.Chemscore.Rot>
1.8197

> <Gold.Chemscore.Internal.Correction>
   9.000000E+99

> <Gold.Chemscore.Hbonds>
donor molecule, donor type, donor heavy atom, donor atom, acceptor molecule, acceptor atom, score
      L1  H    11    32       P1  7948  0.93
      L1  H    17    37       P1  7948  0.68
      L1  H    20    41       P1  8028  0.97

> <Gold.Chemscore.Hbond.Weighted>
-9.6217

> <Gold.Chemscore.Metal.Weighted>
-0.0000

> <Gold.Chemscore.Lipo.Weighted>
-10.1121

> <Gold.Chemscore.Internal_Hbond.Weighted>
0.0000

> <Gold.Chemscore.DEClash.Weighted>
1.6590

> <Gold.Chemscore.DEInternal.Weighted>
1.7832

> <Gold.Chemscore.Rot.Weighted>
4.6585

> <Gold.Chemscore.Internal.Correction.Weighted>
   9.000000E+99

> <Gold.Protein.RotatedTorsions>
[ 6907 6896 6895 6894 ] final  157.21 input  -60.11 | X-H torsion
[ 7974 7965 7964 7962 ] final   52.60 input  175.53 | X-H torsion
[ 8008 7997 7996 7995 ] final -146.60 input   59.86 | X-H torsion
[ 10167 10162 10161 10158 ] final -167.59 input  -65.29 | X-H torsion
[ 10718 10713 10712 10709 ] final  122.63 input   66.30 | X-H torsion
[ 10763 10752 10751 10750 ] final   18.88 input  -60.55 | X-H torsion
[ 11005 11000 10999 10996 ] final -167.09 input  -57.11 | X-H torsion

> <Gold.Protein.ActiveResidues>
 VAL166  LYS551  ARG553  GLY616  TRP617  ASP618  TYR619  PRO620  LYS621  CYS622 
 ASP623  PHE694  ASN695  SER759  ASP760  ASP761  ALA762  ILE779  LEU786  VAL792 
 PHE793  MET794  SER795  GLU796  ALA797  LYS798  CYS799  TRP800  GLU811  SER814 

> <Gold.Protein.RotatedAtoms>
  152.0184  133.3889  159.4247 H   0  0  0  0  0  0  0  0  0  0  0  0  # atno 6907 bound_to 6896
  150.6892  134.3653  159.4977 H   0  0  0  0  0  0  0  0  0  0  0  0  # atno 6908 bound_to 6896
  152.1423  134.9052  160.0603 H   0  0  0  0  0  0  0  0  0  0  0  0  # atno 6909 bound_to 6896
  145.9796  139.4229  143.0140 H   0  0  0  0  0  0  0  0  0  0  0  0  # atno 7974 bound_to 7965
  155.5621  140.0626  157.2826 H   0  0  0  0  0  0  0  0  0  0  0  0  # atno 8008 bound_to 7997
  154.4387  140.1884  156.0838 H   0  0  0  0  0  0  0  0  0  0  0  0  # atno 8009 bound_to 7997
  156.0439  140.3292  155.7278 H   0  0  0  0  0  0  0  0  0  0  0  0  # atno 8010 bound_to 7997
  139.6039  144.0953  152.1772 H   0  0  0  0  0  0  0  0  0  0  0  0  # atno 10167 bound_to 10162
  157.5727  131.1082  150.8336 H   0  0  0  0  0  0  0  0  0  0  0  0  # atno 10718 bound_to 10713
  153.1210  135.6719  153.9336 H   0  0  0  0  0  0  0  0  0  0  0  0  # atno 10763 bound_to 10752
  153.8851  135.3053  155.3447 H   0  0  0  0  0  0  0  0  0  0  0  0  # atno 10764 bound_to 10752
  154.7621  135.4982  153.9564 H   0  0  0  0  0  0  0  0  0  0  0  0  # atno 10765 bound_to 10752
  140.5572  134.5369  157.5135 H   0  0  0  0  0  0  0  0  0  0  0  0  # atno 11005 bound_to 11000
  145.7788  140.9865  143.1110 LP  0  0  0  0  0  0  0  0  0  0  0  0  # atno 17320 bound_to 7965
  144.6858  139.9539  143.7478 LP  0  0  0  0  0  0  0  0  0  0  0  0  # atno 17321 bound_to 7965
  140.0555  144.5898  150.7303 LP  0  0  0  0  0  0  0  0  0  0  0  0  # atno 17342 bound_to 10162
  140.7270  143.2647  151.4084 LP  0  0  0  0  0  0  0  0  0  0  0  0  # atno 17343 bound_to 10162
  156.8803  130.5177  149.5291 LP  0  0  0  0  0  0  0  0  0  0  0  0  # atno 17370 bound_to 10713
  156.0772  130.5792  150.9497 LP  0  0  0  0  0  0  0  0  0  0  0  0  # atno 17371 bound_to 10713
  139.9426  134.7760  156.0642 LP  0  0  0  0  0  0  0  0  0  0  0  0  # atno 17394 bound_to 11000
  141.1136  133.6635  156.3039 LP  0  0  0  0  0  0  0  0  0  0  0  0  # atno 17395 bound_to 11000

$$$$
