AV-unprocessed.smi:701|AV-procd|sdf|3410|dock3
  -GOLD-   22720 0393D 1   1.00000     0.00000
 Structure written by MMmdl.
 49 51  0  0  0  0  0  0  0  0  1 V2000
  153.9736  141.0608  160.2304 C   0  0  0  0  0  0  0  0  0  0  0  0
  153.1051  141.7526  159.1776 C   0  0  0  0  0  0  0  0  0  0  0  0
  152.4248  140.7619  158.4264 O   0  0  0  0  0  0  0  0  0  0  0  0
  151.8569  141.2642  157.2283 C   0  0  2  0  0  0  0  0  0  0  0  0
  150.7307  142.2777  157.4513 C   0  0  0  0  0  0  0  0  0  0  0  0
  150.0609  141.6315  156.2399 C   0  0  2  0  0  0  0  0  0  0  0  0
  148.6108  141.5515  156.3748 N   0  0  0  0  0  0  0  0  0  0  0  0
  147.7504  141.6464  155.3509 C   0  0  0  0  0  0  0  0  0  0  0  0
  148.1087  141.7965  154.1820 O   0  0  0  0  0  0  0  0  0  0  0  0
  146.2608  141.5268  155.6996 C   0  0  0  0  0  0  0  0  0  0  0  0
  145.4925  142.7137  155.2977 N   0  0  0  0  0  0  0  0  0  0  0  0
  145.5367  143.1696  153.9877 C   0  0  0  0  0  0  0  0  0  0  0  0
  144.8659  144.2642  153.5563 C   0  0  0  0  0  0  0  0  0  0  0  0
  144.0411  145.0366  154.4793 C   0  0  0  0  0  0  0  0  0  0  0  0
  143.3956  146.0399  154.1845 O   0  0  0  0  0  0  0  0  0  0  0  0
  144.0239  144.5471  155.7880 N   0  0  0  0  0  0  0  0  0  0  0  0
  144.7142  143.4214  156.2396 C   0  0  0  0  0  0  0  0  0  0  0  0
  144.6336  143.0784  157.4186 O   0  0  0  0  0  0  0  0  0  0  0  0
  150.8231  140.3159  156.5606 C   0  0  0  0  0  0  0  0  0  0  0  0
  150.1006  139.2992  157.4828 C   0  0  0  0  0  0  0  0  0  0  0  0
  150.9560  138.0715  157.8511 C   0  0  0  0  0  0  0  0  0  0  0  0
  151.5020  137.3688  156.6028 C   0  0  0  0  0  0  0  0  0  0  0  0
  152.2274  138.3593  155.6849 C   0  0  0  0  0  0  0  0  0  0  0  0
  151.3172  139.5440  155.3265 C   0  0  0  0  0  0  0  0  0  0  0  0
  143.4677  145.0507  156.4636 H   0  0  0  0  0  0  0  0  0  0  0  0
  154.5157  141.7921  160.8303 H   0  0  0  0  0  0  0  0  0  0  0  0
  154.7057  140.4023  159.7624 H   0  0  0  0  0  0  0  0  0  0  0  0
  153.3642  140.4592  160.9052 H   0  0  0  0  0  0  0  0  0  0  0  0
  152.3915  142.4184  159.6650 H   0  0  0  0  0  0  0  0  0  0  0  0
  153.7286  142.3603  158.5203 H   0  0  0  0  0  0  0  0  0  0  0  0
  152.6071  141.6198  156.5177 H   0  0  0  0  0  0  0  0  0  0  0  0
  150.1937  142.1278  158.3897 H   0  0  0  0  0  0  0  0  0  0  0  0
  151.0209  143.3192  157.3114 H   0  0  0  0  0  0  0  0  0  0  0  0
  150.3949  142.0971  155.3092 H   0  0  0  0  0  0  0  0  0  0  0  0
  148.2395  141.4207  157.3045 H   0  0  0  0  0  0  0  0  0  0  0  0
  145.8702  140.6359  155.2057 H   0  0  0  0  0  0  0  0  0  0  0  0
  146.1350  141.3414  156.7685 H   0  0  0  0  0  0  0  0  0  0  0  0
  146.1393  142.6313  153.2700 H   0  0  0  0  0  0  0  0  0  0  0  0
  144.9411  144.5714  152.5233 H   0  0  0  0  0  0  0  0  0  0  0  0
  149.7673  139.7793  158.4030 H   0  0  0  0  0  0  0  0  0  0  0  0
  149.1926  138.9415  156.9959 H   0  0  0  0  0  0  0  0  0  0  0  0
  151.7866  138.3665  158.4913 H   0  0  0  0  0  0  0  0  0  0  0  0
  150.3612  137.3706  158.4371 H   0  0  0  0  0  0  0  0  0  0  0  0
  152.1755  136.5615  156.8915 H   0  0  0  0  0  0  0  0  0  0  0  0
  150.6785  136.9058  156.0575 H   0  0  0  0  0  0  0  0  0  0  0  0
  153.1297  138.7255  156.1765 H   0  0  0  0  0  0  0  0  0  0  0  0
  152.5530  137.8517  154.7766 H   0  0  0  0  0  0  0  0  0  0  0  0
  150.4648  139.1785  154.7522 H   0  0  0  0  0  0  0  0  0  0  0  0
  151.8564  140.2113  154.6534 H   0  0  0  0  0  0  0  0  0  0  0  0
  1  2  1  0  0  0  0
  1 26  1  0  0  0  0
  1 27  1  0  0  0  0
  1 28  1  0  0  0  0
  2  3  1  0  0  0  0
  2 29  1  0  0  0  0
  2 30  1  0  0  0  0
  3  4  1  0  0  0  0
  4 19  1  0  0  0  0
  4  5  1  0  0  0  0
  4 31  1  0  0  0  0
  5  6  1  0  0  0  0
  5 32  1  0  0  0  0
  5 33  1  0  0  0  0
  6  7  1  0  0  0  0
  6 19  1  0  0  0  0
  6 34  1  0  0  0  0
  7  8  1  0  0  0  0
  7 35  1  0  0  0  0
  8  9  2  0  0  0  0
  8 10  1  0  0  0  0
 10 11  1  0  0  0  0
 10 36  1  0  0  0  0
 10 37  1  0  0  0  0
 11 17  1  0  0  0  0
 11 12  1  0  0  0  0
 12 13  2  0  0  0  0
 12 38  1  0  0  0  0
 13 14  1  0  0  0  0
 13 39  1  0  0  0  0
 14 15  2  0  0  0  0
 14 16  1  0  0  0  0
 16 25  1  0  0  0  0
 16 17  1  0  0  0  0
 17 18  2  0  0  0  0
 19 24  1  0  0  0  0
 19 20  1  0  0  0  0
 20 21  1  0  0  0  0
 20 40  1  0  0  0  0
 20 41  1  0  0  0  0
 21 22  1  0  0  0  0
 21 42  1  0  0  0  0
 21 43  1  0  0  0  0
 22 23  1  0  0  0  0
 22 44  1  0  0  0  0
 22 45  1  0  0  0  0
 23 24  1  0  0  0  0
 23 46  1  0  0  0  0
 23 47  1  0  0  0  0
 24 48  1  0  0  0  0
 24 49  1  0  0  0  0
M  END
> <s_m_source_file>
AV-unprocessed.smi

> <i_m_source_file_index>
701

> <i_lp_mmshare_version>
43012

> <i_f3d_flags>
0

> <s_epik_input>
W0NIMl0xW0NIMl1bQ0gyXVtDSDJdW0NIMl1DMTJbQ0BIXShPW0NIMl1bQ0gzXSlbQ0gyXVtDQEhdMltOSF1DKD1PKVtDSDJdbjNbY0hdW2NIXWMoPU8pW25IXWMzPU8=

> <s_epik_cmdline>
J2VwaWtfcHl0aG9uJywgJy1waCcsICc3LjAnLCAnLXRuJywgJzgnLCAnLW1hJywgJzIwMCcsICctbWV0YWxfYmluZGluZycsICctaW1hZScsICc8aW5maWxlLm1hZT4nLCAnLW9tYWUnLCAnPG91dGZpbGUubWFlPic=

> <r_lp_tautomer_probability>
0.999537

> <r_epik_Ionization_Penalty>
0.00304597

> <r_epik_Ionization_Penalty_Charging>
0.00304595

> <r_epik_Ionization_Penalty_Neutral>
1.88422e-08

> <r_epik_State_Penalty>
0.00214084

> <r_epik_Charging_Adjusted_Penalty>
0.00518679

> <i_epik_Tot_Q>
0

> <i_epik_Tot_abs_Q>
0

> <r_epik_Metal_State_Penalty>
0.361872

> <b_epik_Metal_Only>
0

> <s_lp_Force_Field>
OPLS_2005

> <r_lp_Energy>
27.3359

> <b_lp_Chiralities_Consistent>
1

> <s_lp_Variant>
AV-unprocessed.smi:701-3

> <Gold.Version>
5.8.1

> <Gold.Id.Protein>
6NUR|6NUR_protein|mol2

> <Gold.PLP.Fitness>
44.9051

> <Gold.PLP.PLP>
-44.1947

> <Gold.PLP.part.hbond>
-3.7419

> <Gold.PLP.part.metal>
0.0000

> <Gold.PLP.part.buried>
-6.9118

> <Gold.PLP.part.nonpolar>
-34.2936

> <Gold.PLP.part.repulsive>
0.3944

> <Gold.PLP.ligand.clash>
0.0000

> <Gold.PLP.ligand.torsion>
0.3446

> <Gold.PLP.Chemscore.Hbond>
0.3510

> <Gold.PLP.Chemscore.CHOScore>
0.0000

> <Gold.PLP.Chemscore.Metal>
0.0000

> <Gold.PLP.Chemscore.Internal.Correction>
0.3467

> <Gold.Rescore>
     Score         DG    S(hbond)    S(metal)    S(lipo)     H(rot)  DE(clash)    DE(int)     intcor
      8.06     -11.34       0.25        0.00      88.62       2.09       1.53       1.75       ----

> <Gold.Chemscore.Fitness>
8.0578

> <Gold.Chemscore.DG>
-11.3362

> <Gold.Chemscore.ZeroCoef>
-5.4800

> <Gold.Chemscore.Hbond>
0.2535

> <Gold.Chemscore.Metal>
0.0000

> <Gold.Chemscore.Lipo>
88.6173

> <Gold.Chemscore.Internal_Hbond>
0.0000

> <Gold.Chemscore.DEClash>
1.5297

> <Gold.Chemscore.DEInternal>
1.7487

> <Gold.Chemscore.Rot>
2.0933

> <Gold.Chemscore.Internal.Correction>
   9.000000E+99

> <Gold.Chemscore.Hbond.Weighted>
-0.8468

> <Gold.Chemscore.Metal.Weighted>
-0.0000

> <Gold.Chemscore.Lipo.Weighted>
-10.3682

> <Gold.Chemscore.Internal_Hbond.Weighted>
0.0000

> <Gold.Chemscore.DEClash.Weighted>
1.5297

> <Gold.Chemscore.DEInternal.Weighted>
1.7487

> <Gold.Chemscore.Rot.Weighted>
5.3588

> <Gold.Chemscore.Internal.Correction.Weighted>
   9.000000E+99

> <Gold.Protein.RotatedTorsions>
[ 6907 6896 6895 6894 ] final   76.39 input  -60.11 | X-H torsion
[ 7974 7965 7964 7962 ] final  -20.72 input  175.53 | X-H torsion
[ 8008 7997 7996 7995 ] final   23.27 input   59.86 | X-H torsion
[ 10167 10162 10161 10158 ] final   88.94 input  -65.29 | X-H torsion
[ 10718 10713 10712 10709 ] final   79.07 input   66.30 | X-H torsion
[ 10763 10752 10751 10750 ] final   83.27 input  -60.55 | X-H torsion
[ 11005 11000 10999 10996 ] final -159.77 input  -57.11 | X-H torsion

> <Gold.Protein.ActiveResidues>
 VAL166  LYS551  ARG553  GLY616  TRP617  ASP618  TYR619  PRO620  LYS621  CYS622 
 ASP623  PHE694  ASN695  SER759  ASP760  ASP761  ALA762  ILE779  LEU786  VAL792 
 PHE793  MET794  SER795  GLU796  ALA797  LYS798  CYS799  TRP800  GLU811  SER814 

> <Gold.Protein.RotatedAtoms>
  152.5071  134.3976  159.9405 H   0  0  0  0  0  0  0  0  0  0  0  0  # atno 6907 bound_to 6896
  151.3938  133.3774  159.2732 H   0  0  0  0  0  0  0  0  0  0  0  0  # atno 6908 bound_to 6896
  150.9412  134.8842  159.7672 H   0  0  0  0  0  0  0  0  0  0  0  0  # atno 6909 bound_to 6896
  146.1773  140.4241  142.8508 H   0  0  0  0  0  0  0  0  0  0  0  0  # atno 7974 bound_to 7965
  154.9784  140.3099  155.4957 H   0  0  0  0  0  0  0  0  0  0  0  0  # atno 8008 bound_to 7997
  156.2956  140.2271  156.4821 H   0  0  0  0  0  0  0  0  0  0  0  0  # atno 8009 bound_to 7997
  154.7812  140.0446  157.1116 H   0  0  0  0  0  0  0  0  0  0  0  0  # atno 8010 bound_to 7997
  139.8622  144.6538  150.9045 H   0  0  0  0  0  0  0  0  0  0  0  0  # atno 10167 bound_to 10162
  157.6765  130.9897  150.1878 H   0  0  0  0  0  0  0  0  0  0  0  0  # atno 10718 bound_to 10713
  153.1276  135.4697  154.9298 H   0  0  0  0  0  0  0  0  0  0  0  0  # atno 10763 bound_to 10752
  154.7635  135.3138  154.8335 H   0  0  0  0  0  0  0  0  0  0  0  0  # atno 10764 bound_to 10752
  153.8884  135.6887  153.4816 H   0  0  0  0  0  0  0  0  0  0  0  0  # atno 10765 bound_to 10752
  140.6389  134.4572  157.5232 H   0  0  0  0  0  0  0  0  0  0  0  0  # atno 11005 bound_to 11000
  144.8256  140.6623  143.6324 LP  0  0  0  0  0  0  0  0  0  0  0  0  # atno 17320 bound_to 7965
  145.4176  139.1569  143.4091 LP  0  0  0  0  0  0  0  0  0  0  0  0  # atno 17321 bound_to 7965
  140.7773  143.3734  151.1607 LP  0  0  0  0  0  0  0  0  0  0  0  0  # atno 17342 bound_to 10162
  139.7362  143.8995  152.3036 LP  0  0  0  0  0  0  0  0  0  0  0  0  # atno 17343 bound_to 10162
  156.2596  130.3709  149.8145 LP  0  0  0  0  0  0  0  0  0  0  0  0  # atno 17370 bound_to 10713
  156.5893  130.8499  151.3404 LP  0  0  0  0  0  0  0  0  0  0  0  0  # atno 17371 bound_to 10713
  139.9087  134.8391  156.1607 LP  0  0  0  0  0  0  0  0  0  0  0  0  # atno 17394 bound_to 11000
  141.0621  133.6837  156.1972 LP  0  0  0  0  0  0  0  0  0  0  0  0  # atno 17395 bound_to 11000

$$$$
