AV-unprocessed.smi:1984|AV-procd|sdf|8040|dock6
  -GOLD-   2272010233D 1   1.00000     0.00000
 Structure written by MMmdl.
 38 39  0  0  0  0  0  0  0  0  1 V2000
  152.1062  144.7617  158.2758 C   0  0  0  0  0  0  0  0  0  0  0  0
  152.3944  143.3706  158.7582 C   0  0  0  0  0  0  0  0  0  0  0  0
  153.3430  142.9554  159.7337 C   0  0  0  0  0  0  0  0  0  0  0  0
  153.2088  141.5964  159.7790 C   0  0  0  0  0  0  0  0  0  0  0  0
  153.9364  140.5863  160.6040 C   0  0  0  0  0  0  0  0  0  0  0  0
  152.2240  141.2589  158.8669 N   0  0  0  0  0  0  0  0  0  0  0  0
  151.7181  139.9425  158.4996 C   0  0  0  0  0  0  0  0  0  0  0  0
  151.8007  139.7218  156.9869 C   0  0  0  0  0  0  0  0  0  0  0  0
  152.8970  139.6234  156.4367 O   0  0  0  0  0  0  0  0  0  0  0  0
  150.6338  139.6136  156.3326 N   0  0  0  0  0  0  0  0  0  0  0  0
  150.4869  139.1845  154.9476 C   0  0  0  0  0  0  0  0  0  0  0  0
  149.0197  139.2867  154.4835 C   0  0  2  0  0  0  0  0  0  0  0  0
  148.5262  140.7423  154.3809 C   0  0  0  0  0  0  0  0  0  0  0  0
  147.0081  140.7241  154.1760 C   0  0  0  0  0  0  0  0  0  0  0  0
  146.3986  139.2969  155.1487 S   0  0  0  0  0  0  0  0  0  0  0  0
  145.9049  139.7682  156.4515 O   0  0  0  0  0  0  0  0  0  0  0  0
  145.5657  138.4458  154.2857 O   0  0  0  0  0  0  0  0  0  0  0  0
  148.0387  138.5151  155.3853 C   0  0  0  0  0  0  0  0  0  0  0  0
  151.7238  142.3514  158.2478 N   0  0  0  0  0  0  0  0  0  0  0  0
  152.5370  145.5072  158.9445 H   0  0  0  0  0  0  0  0  0  0  0  0
  151.0333  144.9483  158.2200 H   0  0  0  0  0  0  0  0  0  0  0  0
  152.5258  144.9241  157.2828 H   0  0  0  0  0  0  0  0  0  0  0  0
  154.0241  143.5642  160.3098 H   0  0  0  0  0  0  0  0  0  0  0  0
  154.7284  141.0572  161.1866 H   0  0  0  0  0  0  0  0  0  0  0  0
  154.3940  139.8229  159.9748 H   0  0  0  0  0  0  0  0  0  0  0  0
  153.2572  140.0929  161.2992 H   0  0  0  0  0  0  0  0  0  0  0  0
  152.2870  139.1698  159.0167 H   0  0  0  0  0  0  0  0  0  0  0  0
  150.6835  139.8553  158.8352 H   0  0  0  0  0  0  0  0  0  0  0  0
  149.7833  139.7267  156.8649 H   0  0  0  0  0  0  0  0  0  0  0  0
  151.1198  139.8221  154.3298 H   0  0  0  0  0  0  0  0  0  0  0  0
  150.8591  138.1658  154.8272 H   0  0  0  0  0  0  0  0  0  0  0  0
  148.9420  138.8585  153.4828 H   0  0  0  0  0  0  0  0  0  0  0  0
  148.7513  141.2652  155.3112 H   0  0  0  0  0  0  0  0  0  0  0  0
  149.0291  141.2849  153.5799 H   0  0  0  0  0  0  0  0  0  0  0  0
  146.5186  141.6422  154.5008 H   0  0  0  0  0  0  0  0  0  0  0  0
  146.7626  140.5474  153.1284 H   0  0  0  0  0  0  0  0  0  0  0  0
  147.9854  137.4534  155.1416 H   0  0  0  0  0  0  0  0  0  0  0  0
  148.3065  138.6155  156.4373 H   0  0  0  0  0  0  0  0  0  0  0  0
  1  2  1  0  0  0  0
  1 20  1  0  0  0  0
  1 21  1  0  0  0  0
  1 22  1  0  0  0  0
  2 19  2  0  0  0  0
  2  3  1  0  0  0  0
  3  4  2  0  0  0  0
  3 23  1  0  0  0  0
  4  5  1  0  0  0  0
  4  6  1  0  0  0  0
  5 24  1  0  0  0  0
  5 25  1  0  0  0  0
  5 26  1  0  0  0  0
  6  7  1  0  0  0  0
  6 19  1  0  0  0  0
  7  8  1  0  0  0  0
  7 27  1  0  0  0  0
  7 28  1  0  0  0  0
  8  9  2  0  0  0  0
  8 10  1  0  0  0  0
 10 11  1  0  0  0  0
 10 29  1  0  0  0  0
 11 12  1  0  0  0  0
 11 30  1  0  0  0  0
 11 31  1  0  0  0  0
 12 18  1  0  0  0  0
 12 13  1  0  0  0  0
 12 32  1  0  0  0  0
 13 14  1  0  0  0  0
 13 33  1  0  0  0  0
 13 34  1  0  0  0  0
 14 15  1  0  0  0  0
 14 35  1  0  0  0  0
 14 36  1  0  0  0  0
 15 16  2  0  0  0  0
 15 17  2  0  0  0  0
 15 18  1  0  0  0  0
 18 37  1  0  0  0  0
 18 38  1  0  0  0  0
M  END
> <s_m_source_file>
AV-unprocessed.smi

> <i_m_source_file_index>
1984

> <i_lp_mmshare_version>
43012

> <i_f3d_flags>
0

> <s_epik_input>
W0NIM11jMVtjSF1jKFtDSDNdKW4objEpW0NIMl1DKD1PKVtOSF1bQ0gyXVtDQEBIXShbQ0gyXTIpW0NIMl1bQ0gyXVMyKD1PKT1P

> <s_epik_cmdline>
J2VwaWtfcHl0aG9uJywgJy1waCcsICc3LjAnLCAnLXRuJywgJzgnLCAnLW1hJywgJzIwMCcsICctbWV0YWxfYmluZGluZycsICctaW1hZScsICc8aW5maWxlLm1hZT4nLCAnLW9tYWUnLCAnPG91dGZpbGUubWFlPic=

> <r_lp_tautomer_probability>
1

> <r_epik_Ionization_Penalty>
0.000335865

> <r_epik_Ionization_Penalty_Charging>
0

> <r_epik_Ionization_Penalty_Neutral>
0.000335865

> <r_epik_State_Penalty>
-0

> <r_epik_Charging_Adjusted_Penalty>
0

> <i_epik_Tot_Q>
0

> <i_epik_Tot_abs_Q>
0

> <r_epik_Metal_State_Penalty>
-0

> <b_epik_Metal_Only>
0

> <s_lp_Force_Field>
OPLS_2005

> <r_lp_Energy>
1.39039

> <b_lp_Chiralities_Consistent>
1

> <s_lp_Variant>
AV-unprocessed.smi:1984-1

> <Gold.Version>
5.8.1

> <Gold.Id.Protein>
6NUR|6NUR_protein|mol2

> <Gold.PLP.Fitness>
38.4993

> <Gold.PLP.PLP>
-35.7627

> <Gold.PLP.part.hbond>
-0.9874

> <Gold.PLP.part.metal>
0.0000

> <Gold.PLP.part.buried>
-5.0941

> <Gold.PLP.part.nonpolar>
-31.8245

> <Gold.PLP.part.repulsive>
0.6040

> <Gold.PLP.ligand.clash>
0.0000

> <Gold.PLP.ligand.torsion>
0.1221

> <Gold.PLP.Chemscore.Hbond>
0.9913

> <Gold.PLP.Chemscore.CHOScore>
0.0000

> <Gold.PLP.Chemscore.Metal>
0.0000

> <Gold.Chemscore.Hbonds>
donor molecule, donor type, donor heavy atom, donor atom, acceptor molecule, acceptor atom, score
      P1  H  7997  8009       L1     9  0.99

> <Gold.PLP.Chemscore.Internal.Correction>
0.0070

> <Gold.Rescore>
     Score         DG    S(hbond)    S(metal)    S(lipo)     H(rot)  DE(clash)    DE(int)     intcor
     15.38     -15.50       0.99        0.00      94.25       1.68       0.07       0.06       ----

> <Gold.Chemscore.Fitness>
15.3751

> <Gold.Chemscore.DG>
-15.5050

> <Gold.Chemscore.ZeroCoef>
-5.4800

> <Gold.Chemscore.Hbond>
0.9873

> <Gold.Chemscore.Metal>
0.0000

> <Gold.Chemscore.Lipo>
94.2471

> <Gold.Chemscore.Internal_Hbond>
0.0000

> <Gold.Chemscore.DEClash>
0.0651

> <Gold.Chemscore.DEInternal>
0.0648

> <Gold.Chemscore.Rot>
1.6795

> <Gold.Chemscore.Internal.Correction>
   9.000000E+99

> <Gold.Chemscore.Hbonds>
donor molecule, donor type, donor heavy atom, donor atom, acceptor molecule, acceptor atom, score
      P1  H  7997  8009       L1     9  0.92

> <Gold.Chemscore.Hbond.Weighted>
-3.2976

> <Gold.Chemscore.Metal.Weighted>
-0.0000

> <Gold.Chemscore.Lipo.Weighted>
-11.0269

> <Gold.Chemscore.Internal_Hbond.Weighted>
0.0000

> <Gold.Chemscore.DEClash.Weighted>
0.0651

> <Gold.Chemscore.DEInternal.Weighted>
0.0648

> <Gold.Chemscore.Rot.Weighted>
4.2995

> <Gold.Chemscore.Internal.Correction.Weighted>
   9.000000E+99

> <Gold.Protein.RotatedTorsions>
[ 6907 6896 6895 6894 ] final  153.64 input  -60.11 | X-H torsion
[ 7974 7965 7964 7962 ] final  -19.46 input  175.53 | X-H torsion
[ 8008 7997 7996 7995 ] final -161.93 input   59.86 | X-H torsion
[ 10167 10162 10161 10158 ] final  -78.82 input  -65.29 | X-H torsion
[ 10718 10713 10712 10709 ] final   33.41 input   66.30 | X-H torsion
[ 10763 10752 10751 10750 ] final   63.25 input  -60.55 | X-H torsion
[ 11005 11000 10999 10996 ] final -149.49 input  -57.11 | X-H torsion

> <Gold.Protein.ActiveResidues>
 VAL166  LYS551  ARG553  GLY616  TRP617  ASP618  TYR619  PRO620  LYS621  CYS622 
 ASP623  PHE694  ASN695  SER759  ASP760  ASP761  ALA762  ILE779  LEU786  VAL792 
 PHE793  MET794  SER795  GLU796  ALA797  LYS798  CYS799  TRP800  GLU811  SER814 

> <Gold.Protein.RotatedAtoms>
  152.0698  133.4101  159.4453 H   0  0  0  0  0  0  0  0  0  0  0  0  # atno 6907 bound_to 6896
  150.6864  134.3105  159.4753 H   0  0  0  0  0  0  0  0  0  0  0  0  # atno 6908 bound_to 6896
  152.0935  134.9390  160.0622 H   0  0  0  0  0  0  0  0  0  0  0  0  # atno 6909 bound_to 6896
  146.1840  140.4065  142.8483 H   0  0  0  0  0  0  0  0  0  0  0  0  # atno 7974 bound_to 7965
  155.7994  140.0889  157.1965 H   0  0  0  0  0  0  0  0  0  0  0  0  # atno 8008 bound_to 7997
  154.3982  140.1475  156.3315 H   0  0  0  0  0  0  0  0  0  0  0  0  # atno 8009 bound_to 7997
  155.8478  140.3436  155.5676 H   0  0  0  0  0  0  0  0  0  0  0  0  # atno 8010 bound_to 7997
  140.4648  143.2443  151.8294 H   0  0  0  0  0  0  0  0  0  0  0  0  # atno 10167 bound_to 10162
  157.2975  130.7333  149.6647 H   0  0  0  0  0  0  0  0  0  0  0  0  # atno 10718 bound_to 10713
  153.0011  135.5436  154.6322 H   0  0  0  0  0  0  0  0  0  0  0  0  # atno 10763 bound_to 10752
  154.5597  135.2833  155.0933 H   0  0  0  0  0  0  0  0  0  0  0  0  # atno 10764 bound_to 10752
  154.2141  135.6462  153.5177 H   0  0  0  0  0  0  0  0  0  0  0  0  # atno 10765 bound_to 10752
  140.7502  134.3415  157.5127 H   0  0  0  0  0  0  0  0  0  0  0  0  # atno 11005 bound_to 11000
  144.8364  140.6789  143.6258 LP  0  0  0  0  0  0  0  0  0  0  0  0  # atno 17320 bound_to 7965
  145.3994  139.1600  143.4186 LP  0  0  0  0  0  0  0  0  0  0  0  0  # atno 17321 bound_to 7965
  139.4810  144.4964  151.9118 LP  0  0  0  0  0  0  0  0  0  0  0  0  # atno 17342 bound_to 10162
  140.4049  144.2445  150.5891 LP  0  0  0  0  0  0  0  0  0  0  0  0  # atno 17343 bound_to 10162
  155.9670  130.4290  150.4813 LP  0  0  0  0  0  0  0  0  0  0  0  0  # atno 17370 bound_to 10713
  157.2788  131.0602  151.2211 LP  0  0  0  0  0  0  0  0  0  0  0  0  # atno 17371 bound_to 10713
  139.8789  134.9137  156.3089 LP  0  0  0  0  0  0  0  0  0  0  0  0  # atno 17394 bound_to 11000
  140.9758  133.7298  156.0600 LP  0  0  0  0  0  0  0  0  0  0  0  0  # atno 17395 bound_to 11000

$$$$
