AV-unprocessed.smi:2897|AV-procd|sdf|11140|dock4
  -GOLD-   2272016 13D 1   1.00000     0.00000
 Structure written by MMmdl.
 37 39  0  0  0  0  0  0  0  0  1 V2000
  145.9044  138.0213  154.6096 O   0  0  0  0  0  0  0  0  0  0  0  0
  146.7367  137.5377  153.8436 C   0  0  0  0  0  0  0  0  0  0  0  0
  146.4568  136.5602  152.9707 N   0  0  0  0  0  0  0  0  0  0  0  0
  145.1508  135.9286  152.8086 C   0  0  0  0  0  0  0  0  0  0  0  0
  145.0535  134.8262  151.7572 C   0  0  0  0  0  0  0  0  0  0  0  0
  144.4604  135.3634  150.4530 C   0  0  0  0  0  0  0  0  0  0  0  0
  145.2889  136.3073  149.8036 O   0  0  0  0  0  0  0  0  0  0  0  0
  146.1577  133.7864  151.7228 C   0  0  0  0  0  0  0  0  0  0  0  0
  144.7771  133.4024  152.1977 C   0  0  0  0  0  0  0  0  0  0  0  0
  148.0238  137.9139  153.7528 N   0  0  0  0  0  0  0  0  0  0  0  0
  148.7259  138.8803  154.5235 C   0  0  0  0  0  0  0  0  0  0  0  0
  150.0101  139.2826  154.1001 C   0  0  0  0  0  0  0  0  0  0  0  0
  150.7424  140.1853  154.7869 N   0  0  0  0  0  0  0  0  0  0  0  0
  150.2009  140.6745  155.9056 C   0  0  0  0  0  0  0  0  0  0  0  0
  150.9959  141.7063  156.6439 C   0  0  0  0  0  0  0  0  0  0  0  0
  151.5245  141.4298  158.0367 C   0  0  0  0  0  0  0  0  0  0  0  0
  150.4105  142.4209  157.8448 C   0  0  0  0  0  0  0  0  0  0  0  0
  148.9988  140.3743  156.4047 N   0  0  0  0  0  0  0  0  0  0  0  0
  148.2580  139.4737  155.7227 C   0  0  0  0  0  0  0  0  0  0  0  0
  147.2013  136.2242  152.3774 H   0  0  0  0  0  0  0  0  0  0  0  0
  144.8742  135.5017  153.7729 H   0  0  0  0  0  0  0  0  0  0  0  0
  144.4024  136.6957  152.6011 H   0  0  0  0  0  0  0  0  0  0  0  0
  144.2820  134.5371  149.7647 H   0  0  0  0  0  0  0  0  0  0  0  0
  143.4974  135.8317  150.6587 H   0  0  0  0  0  0  0  0  0  0  0  0
  144.7585  137.0450  149.5436 H   0  0  0  0  0  0  0  0  0  0  0  0
  146.4810  133.3996  150.7587 H   0  0  0  0  0  0  0  0  0  0  0  0
  146.9413  133.8541  152.4747 H   0  0  0  0  0  0  0  0  0  0  0  0
  144.6502  133.2146  153.2618 H   0  0  0  0  0  0  0  0  0  0  0  0
  144.1785  132.7710  151.5443 H   0  0  0  0  0  0  0  0  0  0  0  0
  148.5657  137.4653  153.0289 H   0  0  0  0  0  0  0  0  0  0  0  0
  150.4547  138.8804  153.2015 H   0  0  0  0  0  0  0  0  0  0  0  0
  151.6233  142.2821  155.9661 H   0  0  0  0  0  0  0  0  0  0  0  0
  151.2717  140.4767  158.4969 H   0  0  0  0  0  0  0  0  0  0  0  0
  152.5091  141.8206  158.2851 H   0  0  0  0  0  0  0  0  0  0  0  0
  150.6488  143.4755  157.9657 H   0  0  0  0  0  0  0  0  0  0  0  0
  149.4168  142.1264  158.1770 H   0  0  0  0  0  0  0  0  0  0  0  0
  147.3038  139.2345  156.1639 H   0  0  0  0  0  0  0  0  0  0  0  0
  1  2  2  0  0  0  0
  2  3  1  0  0  0  0
  2 10  1  0  0  0  0
  3  4  1  0  0  0  0
  3 20  1  0  0  0  0
  4  5  1  0  0  0  0
  4 21  1  0  0  0  0
  4 22  1  0  0  0  0
  5  9  1  0  0  0  0
  5  6  1  0  0  0  0
  5  8  1  0  0  0  0
  6  7  1  0  0  0  0
  6 23  1  0  0  0  0
  6 24  1  0  0  0  0
  7 25  1  0  0  0  0
  8  9  1  0  0  0  0
  8 26  1  0  0  0  0
  8 27  1  0  0  0  0
  9 28  1  0  0  0  0
  9 29  1  0  0  0  0
 10 11  1  0  0  0  0
 10 30  1  0  0  0  0
 11 19  1  0  0  0  0
 11 12  2  0  0  0  0
 12 13  1  0  0  0  0
 12 31  1  0  0  0  0
 13 14  2  0  0  0  0
 14 15  1  0  0  0  0
 14 18  1  0  0  0  0
 15 17  1  0  0  0  0
 15 16  1  0  0  0  0
 15 32  1  0  0  0  0
 16 17  1  0  0  0  0
 16 33  1  0  0  0  0
 16 34  1  0  0  0  0
 17 35  1  0  0  0  0
 17 36  1  0  0  0  0
 18 19  2  0  0  0  0
 19 37  1  0  0  0  0
M  END
> <s_m_source_file>
AV-unprocessed.smi

> <i_m_source_file_index>
2897

> <i_lp_mmshare_version>
43012

> <i_f3d_flags>
0

> <s_epik_input>
W09IXVtDSDJdQzEoW0NIMl1bQ0gyXTEpW0NIMl1bTkhdQyg9TylbTkhdYzJbY0hdbmMobltjSF0yKVtDSF0zW0NIMl1bQ0gyXTM=

> <s_epik_cmdline>
J2VwaWtfcHl0aG9uJywgJy1waCcsICc3LjAnLCAnLXRuJywgJzgnLCAnLW1hJywgJzIwMCcsICctbWV0YWxfYmluZGluZycsICctaW1hZScsICc8aW5maWxlLm1hZT4nLCAnLW9tYWUnLCAnPG91dGZpbGUubWFlPic=

> <r_lp_tautomer_probability>
1

> <r_epik_Ionization_Penalty>
2.67616e-05

> <r_epik_Ionization_Penalty_Charging>
0

> <r_epik_Ionization_Penalty_Neutral>
2.67616e-05

> <r_epik_State_Penalty>
-0

> <r_epik_Charging_Adjusted_Penalty>
0

> <i_epik_Tot_Q>
0

> <i_epik_Tot_abs_Q>
0

> <r_epik_Metal_State_Penalty>
-0

> <b_epik_Metal_Only>
0

> <s_lp_Force_Field>
OPLS_2005

> <r_lp_Energy>
23.6069

> <b_lp_Chiralities_Consistent>
1

> <s_lp_Variant>
AV-unprocessed.smi:2897-1

> <Gold.Version>
5.8.1

> <Gold.Id.Protein>
6NUR|6NUR_protein|mol2

> <Gold.PLP.Fitness>
41.4480

> <Gold.PLP.PLP>
-28.4075

> <Gold.PLP.part.hbond>
-5.0000

> <Gold.PLP.part.metal>
0.0000

> <Gold.PLP.part.buried>
-4.3211

> <Gold.PLP.part.nonpolar>
-19.3860

> <Gold.PLP.part.repulsive>
0.2049

> <Gold.PLP.ligand.clash>
0.0000

> <Gold.PLP.ligand.torsion>
1.0736

> <Gold.PLP.Chemscore.Hbond>
4.0000

> <Gold.PLP.Chemscore.CHOScore>
0.6474

> <Gold.PLP.Chemscore.Metal>
0.0000

> <Gold.Chemscore.Hbonds>
donor molecule, donor type, donor heavy atom, donor atom, acceptor molecule, acceptor atom, score
      L1  H     3    20       P1  7948  1.00
      L1  H     7    25       P1 10171  1.00
      L1  H    10    30       P1  7948  1.00
      P1  H  7989  7998       L1    13  1.00
      L1  C    12    31       P1  7957  0.65

> <Gold.PLP.Chemscore.Internal.Correction>
1.2457

> <Gold.Rescore>
     Score         DG    S(hbond)    S(metal)    S(lipo)     H(rot)  DE(clash)    DE(int)     intcor
     15.96     -18.36       3.59        0.00      59.15       2.35       0.28       2.12       ----

> <Gold.Chemscore.Fitness>
15.9556

> <Gold.Chemscore.DG>
-18.3572

> <Gold.Chemscore.ZeroCoef>
-5.4800

> <Gold.Chemscore.Hbond>
3.5882

> <Gold.Chemscore.Metal>
0.0000

> <Gold.Chemscore.Lipo>
59.1501

> <Gold.Chemscore.Internal_Hbond>
0.0000

> <Gold.Chemscore.DEClash>
0.2809

> <Gold.Chemscore.DEInternal>
2.1206

> <Gold.Chemscore.Rot>
2.3547

> <Gold.Chemscore.Internal.Correction>
   9.000000E+99

> <Gold.Chemscore.Hbonds>
donor molecule, donor type, donor heavy atom, donor atom, acceptor molecule, acceptor atom, score
      L1  H     3    20       P1  7948  0.96
      L1  H     7    25       P1 10171  0.99
      L1  H    10    30       P1  7948  0.99
      P1  H  7989  7998       L1    13  0.26

> <Gold.Chemscore.Hbond.Weighted>
-11.9847

> <Gold.Chemscore.Metal.Weighted>
-0.0000

> <Gold.Chemscore.Lipo.Weighted>
-6.9206

> <Gold.Chemscore.Internal_Hbond.Weighted>
0.0000

> <Gold.Chemscore.DEClash.Weighted>
0.2809

> <Gold.Chemscore.DEInternal.Weighted>
2.1206

> <Gold.Chemscore.Rot.Weighted>
6.0281

> <Gold.Chemscore.Internal.Correction.Weighted>
   9.000000E+99

> <Gold.Protein.RotatedTorsions>
[ 6907 6896 6895 6894 ] final   33.57 input  -60.11 | X-H torsion
[ 7974 7965 7964 7962 ] final  104.50 input  175.53 | X-H torsion
[ 8008 7997 7996 7995 ] final   -2.88 input   59.86 | X-H torsion
[ 10167 10162 10161 10158 ] final  138.88 input  -65.29 | X-H torsion
[ 10718 10713 10712 10709 ] final   47.98 input   66.30 | X-H torsion
[ 10763 10752 10751 10750 ] final   -6.24 input  -60.55 | X-H torsion
[ 11005 11000 10999 10996 ] final  100.69 input  -57.11 | X-H torsion

> <Gold.Protein.ActiveResidues>
 VAL166  LYS551  ARG553  GLY616  TRP617  ASP618  TYR619  PRO620  LYS621  CYS622 
 ASP623  PHE694  ASN695  SER759  ASP760  ASP761  ALA762  ILE779  LEU786  VAL792 
 PHE793  MET794  SER795  GLU796  ALA797  LYS798  CYS799  TRP800  GLU811  SER814 

> <Gold.Protein.RotatedAtoms>
  152.0903  134.9411  160.0571 H   0  0  0  0  0  0  0  0  0  0  0  0  # atno 6907 bound_to 6896
  152.0665  133.4081  159.4449 H   0  0  0  0  0  0  0  0  0  0  0  0  # atno 6908 bound_to 6896
  150.6837  134.3060  159.4770 H   0  0  0  0  0  0  0  0  0  0  0  0  # atno 6909 bound_to 6896
  145.3320  139.2484  143.3656 H   0  0  0  0  0  0  0  0  0  0  0  0  # atno 7974 bound_to 7965
  154.6309  140.2523  155.7434 H   0  0  0  0  0  0  0  0  0  0  0  0  # atno 8008 bound_to 7997
  156.2479  140.2907  156.0581 H   0  0  0  0  0  0  0  0  0  0  0  0  # atno 8009 bound_to 7997
  155.1746  140.0387  157.2860 H   0  0  0  0  0  0  0  0  0  0  0  0  # atno 8010 bound_to 7997
  139.5096  144.6327  151.5775 H   0  0  0  0  0  0  0  0  0  0  0  0  # atno 10167 bound_to 10162
  157.4640  130.8214  149.7917 H   0  0  0  0  0  0  0  0  0  0  0  0  # atno 10718 bound_to 10713
  153.4096  135.7007  153.6369 H   0  0  0  0  0  0  0  0  0  0  0  0  # atno 10763 bound_to 10752
  153.4868  135.3681  155.2471 H   0  0  0  0  0  0  0  0  0  0  0  0  # atno 10764 bound_to 10752
  154.8716  135.4079  154.3445 H   0  0  0  0  0  0  0  0  0  0  0  0  # atno 10765 bound_to 10752
  139.8771  134.9151  156.4795 H   0  0  0  0  0  0  0  0  0  0  0  0  # atno 11005 bound_to 11000
  146.3042  140.3899  142.8693 LP  0  0  0  0  0  0  0  0  0  0  0  0  # atno 17320 bound_to 7965
  144.8857  140.7458  143.5958 LP  0  0  0  0  0  0  0  0  0  0  0  0  # atno 17321 bound_to 7965
  140.6066  143.9513  150.6423 LP  0  0  0  0  0  0  0  0  0  0  0  0  # atno 17342 bound_to 10162
  140.2742  143.3434  152.1210 LP  0  0  0  0  0  0  0  0  0  0  0  0  # atno 17343 bound_to 10162
  156.0042  130.3864  150.2493 LP  0  0  0  0  0  0  0  0  0  0  0  0  # atno 17370 bound_to 10713
  157.0672  131.0106  151.3202 LP  0  0  0  0  0  0  0  0  0  0  0  0  # atno 17371 bound_to 10713
  140.8738  133.7969  155.9392 LP  0  0  0  0  0  0  0  0  0  0  0  0  # atno 17394 bound_to 11000
  140.8925  134.2477  157.5086 LP  0  0  0  0  0  0  0  0  0  0  0  0  # atno 17395 bound_to 11000

$$$$
