AV-unprocessed.smi:2671|AV-procd|sdf|10346|dock2
  -GOLD-   2272014373D 1   1.00000     0.00000
 Structure written by MMmdl.
 28 29  0  0  0  0  0  0  0  0  2 V2000
  152.5796  137.2045  154.8625 O   0  0  0  0  0  0  0  0  0  0  0  0
  152.0148  138.0473  155.5565 C   0  0  0  0  0  0  0  0  0  0  0  0
  150.6035  138.3467  155.3195 C   0  0  0  0  0  0  0  0  0  0  0  0
  149.9883  139.2762  156.0925 C   0  0  0  0  0  0  0  0  0  0  0  0
  148.5273  139.6376  155.8845 C   0  0  0  0  0  0  0  0  0  0  0  0
  147.7541  138.5658  156.0609 F   0  0  0  0  0  0  0  0  0  0  0  0
  148.1543  140.5667  156.7643 F   0  0  0  0  0  0  0  0  0  0  0  0
  148.3078  140.1134  154.6574 F   0  0  0  0  0  0  0  0  0  0  0  0
  150.7029  139.9485  157.1018 N   0  0  0  0  0  0  0  0  0  0  0  0
  151.9386  139.6693  157.2909 C   0  0  0  0  0  0  0  0  0  0  0  0
  152.8574  140.5227  158.5846 S   0  0  0  0  0  0  0  0  0  0  0  0
  151.6511  141.6934  159.2771 C   0  0  0  0  0  0  0  0  0  0  0  0
  152.1436  143.1435  159.1764 C   0  0  2  0  0  0  0  0  0  0  0  0
  151.7357  144.0385  160.3486 C   0  0  0  0  0  0  0  0  0  0  0  0
  151.6612  145.4305  159.7380 C   0  0  0  0  0  0  0  0  0  0  0  0
  151.7741  145.1876  158.2311 C   0  0  0  0  0  0  0  0  0  0  0  0
  151.5425  143.7963  158.0696 O   0  0  0  0  0  0  0  0  0  0  0  0
  152.6381  138.7359  156.5559 N   0  5  0  0  0  0  0  0  0  0  0  0
  150.0615  137.8329  154.5393 H   0  0  0  0  0  0  0  0  0  0  0  0
  151.4497  141.4350  160.3173 H   0  0  0  0  0  0  0  0  0  0  0  0
  150.7127  141.5868  158.7324 H   0  0  0  0  0  0  0  0  0  0  0  0
  153.2273  143.1666  159.0451 H   0  0  0  0  0  0  0  0  0  0  0  0
  150.7515  143.7520  160.7215 H   0  0  0  0  0  0  0  0  0  0  0  0
  152.4377  143.9789  161.1806 H   0  0  0  0  0  0  0  0  0  0  0  0
  150.7145  145.9083  159.9921 H   0  0  0  0  0  0  0  0  0  0  0  0
  152.4679  146.0739  160.0909 H   0  0  0  0  0  0  0  0  0  0  0  0
  151.0622  145.7790  157.6549 H   0  0  0  0  0  0  0  0  0  0  0  0
  152.7787  145.4254  157.8781 H   0  0  0  0  0  0  0  0  0  0  0  0
  1  2  2  0  0  0  0
  2 18  1  0  0  0  0
  2  3  1  0  0  0  0
  3 19  1  0  0  0  0
  3  4  2  0  0  0  0
  4  5  1  0  0  0  0
  4  9  1  0  0  0  0
  5  6  1  0  0  0  0
  5  7  1  0  0  0  0
  5  8  1  0  0  0  0
  9 10  2  0  0  0  0
 10 11  1  0  0  0  0
 10 18  1  0  0  0  0
 11 12  1  0  0  0  0
 12 13  1  0  0  0  0
 12 20  1  0  0  0  0
 12 21  1  0  0  0  0
 13 17  1  0  0  0  0
 13 14  1  0  0  0  0
 13 22  1  0  0  0  0
 14 15  1  0  0  0  0
 14 23  1  0  0  0  0
 14 24  1  0  0  0  0
 15 16  1  0  0  0  0
 15 25  1  0  0  0  0
 15 26  1  0  0  0  0
 16 17  1  0  0  0  0
 16 27  1  0  0  0  0
 16 28  1  0  0  0  0
M  CHG  1  18  -1
M  END
> <s_m_source_file>
AV-unprocessed.smi

> <i_m_source_file_index>
2671

> <i_lp_mmshare_version>
43012

> <i_f3d_flags>
0

> <s_epik_input>
W09IXWMxW2NIXWMoQyhGKShGKUYpbmMobjEpU1tDSDJdW0NAQEhdMltDSDJdW0NIMl1bQ0gyXU8y

> <s_epik_cmdline>
J2VwaWtfcHl0aG9uJywgJy1waCcsICc3LjAnLCAnLXRuJywgJzgnLCAnLW1hJywgJzIwMCcsICctbWV0YWxfYmluZGluZycsICctaW1hZScsICc8aW5maWxlLm1hZT4nLCAnLW9tYWUnLCAnPG91dGZpbGUubWFlPic=

> <r_lp_tautomer_probability>
1

> <r_epik_Ionization_Penalty>
0.972901

> <r_epik_Ionization_Penalty_Charging>
0.00136034

> <r_epik_Ionization_Penalty_Neutral>
0.971541

> <r_epik_State_Penalty>
0.242243

> <r_epik_Charging_Adjusted_Penalty>
0.243604

> <i_epik_Tot_Q>
-1

> <i_epik_Tot_abs_Q>
1

> <r_epik_Metal_State_Penalty>
0.0617458

> <b_epik_Metal_Only>
0

> <s_lp_Force_Field>
OPLS_2005

> <r_lp_Energy>
24.2298

> <b_lp_Chiralities_Consistent>
1

> <s_lp_Variant>
AV-unprocessed.smi:2671-1

> <Gold.Version>
5.8.1

> <Gold.Id.Protein>
6NUR|6NUR_protein|mol2

> <Gold.PLP.Fitness>
43.0114

> <Gold.PLP.PLP>
-38.0861

> <Gold.PLP.part.hbond>
-2.0000

> <Gold.PLP.part.metal>
0.0000

> <Gold.PLP.part.buried>
-4.7038

> <Gold.PLP.part.nonpolar>
-31.5935

> <Gold.PLP.part.repulsive>
0.1434

> <Gold.PLP.ligand.clash>
0.0000

> <Gold.PLP.ligand.torsion>
0.8973

> <Gold.PLP.Chemscore.Hbond>
2.2328

> <Gold.PLP.Chemscore.CHOScore>
0.0000

> <Gold.PLP.Chemscore.Metal>
0.0000

> <Gold.Chemscore.Hbonds>
donor molecule, donor type, donor heavy atom, donor atom, acceptor molecule, acceptor atom, score
      P1  H  7997  8008       L1    18  0.31
      P1  H 10752 10765       L1     1  0.32

> <Gold.PLP.Chemscore.Internal.Correction>
0.0215

> <Gold.Rescore>
     Score         DG    S(hbond)    S(metal)    S(lipo)     H(rot)  DE(clash)    DE(int)     intcor
     12.81     -13.78       0.81        0.00      84.16       1.66       0.11       0.85       ----

> <Gold.Chemscore.Fitness>
12.8105

> <Gold.Chemscore.DG>
-13.7780

> <Gold.Chemscore.ZeroCoef>
-5.4800

> <Gold.Chemscore.Hbond>
0.8123

> <Gold.Chemscore.Metal>
0.0000

> <Gold.Chemscore.Lipo>
84.1610

> <Gold.Chemscore.Internal_Hbond>
0.0000

> <Gold.Chemscore.DEClash>
0.1124

> <Gold.Chemscore.DEInternal>
0.8550

> <Gold.Chemscore.Rot>
1.6649

> <Gold.Chemscore.Internal.Correction>
   9.000000E+99

> <Gold.Chemscore.Hbonds>
donor molecule, donor type, donor heavy atom, donor atom, acceptor molecule, acceptor atom, score
      P1  H  7997  8008       L1    18  0.02
      P1  H 10752 10765       L1     1  0.32

> <Gold.Chemscore.Hbond.Weighted>
-2.7131

> <Gold.Chemscore.Metal.Weighted>
-0.0000

> <Gold.Chemscore.Lipo.Weighted>
-9.8468

> <Gold.Chemscore.Internal_Hbond.Weighted>
0.0000

> <Gold.Chemscore.DEClash.Weighted>
0.1124

> <Gold.Chemscore.DEInternal.Weighted>
0.8550

> <Gold.Chemscore.Rot.Weighted>
4.2620

> <Gold.Chemscore.Internal.Correction.Weighted>
   9.000000E+99

> <Gold.Protein.RotatedTorsions>
[ 6907 6896 6895 6894 ] final   94.81 input  -60.11 | X-H torsion
[ 7974 7965 7964 7962 ] final   70.83 input  175.53 | X-H torsion
[ 8008 7997 7996 7995 ] final  -23.11 input   59.86 | X-H torsion
[ 10167 10162 10161 10158 ] final  110.92 input  -65.29 | X-H torsion
[ 10718 10713 10712 10709 ] final  109.68 input   66.30 | X-H torsion
[ 10763 10752 10751 10750 ] final  139.07 input  -60.55 | X-H torsion
[ 11005 11000 10999 10996 ] final   29.98 input  -57.11 | X-H torsion

> <Gold.Protein.ActiveResidues>
 VAL166  LYS551  ARG553  GLY616  TRP617  ASP618  TYR619  PRO620  LYS621  CYS622 
 ASP623  PHE694  ASN695  SER759  ASP760  ASP761  ALA762  ILE779  LEU786  VAL792 
 PHE793  MET794  SER795  GLU796  ALA797  LYS798  CYS799  TRP800  GLU811  SER814 

> <Gold.Protein.RotatedAtoms>
  152.5447  134.1137  159.8368 H   0  0  0  0  0  0  0  0  0  0  0  0  # atno 6907 bound_to 6896
  151.1200  133.5103  159.2610 H   0  0  0  0  0  0  0  0  0  0  0  0  # atno 6908 bound_to 6896
  151.1789  135.0361  159.8838 H   0  0  0  0  0  0  0  0  0  0  0  0  # atno 6909 bound_to 6896
  145.7733  139.2853  143.1308 H   0  0  0  0  0  0  0  0  0  0  0  0  # atno 7974 bound_to 7965
  154.4604  140.1989  156.0260 H   0  0  0  0  0  0  0  0  0  0  0  0  # atno 8008 bound_to 7997
  156.0829  140.3269  155.7688 H   0  0  0  0  0  0  0  0  0  0  0  0  # atno 8009 bound_to 7997
  155.5082  140.0559  157.2918 H   0  0  0  0  0  0  0  0  0  0  0  0  # atno 8010 bound_to 7997
  139.6651  144.7127  151.1792 H   0  0  0  0  0  0  0  0  0  0  0  0  # atno 10167 bound_to 10162
  157.6530  131.0918  150.6489 H   0  0  0  0  0  0  0  0  0  0  0  0  # atno 10718 bound_to 10713
  153.9001  135.3023  155.3448 H   0  0  0  0  0  0  0  0  0  0  0  0  # atno 10763 bound_to 10752
  154.7674  135.4903  153.9585 H   0  0  0  0  0  0  0  0  0  0  0  0  # atno 10764 bound_to 10752
  153.1249  135.6791  153.9373 H   0  0  0  0  0  0  0  0  0  0  0  0  # atno 10765 bound_to 10752
  140.2993  134.2775  155.7757 H   0  0  0  0  0  0  0  0  0  0  0  0  # atno 11005 bound_to 11000
  146.0148  140.8403  142.9953 LP  0  0  0  0  0  0  0  0  0  0  0  0  # atno 17320 bound_to 7965
  144.6809  140.2542  143.7327 LP  0  0  0  0  0  0  0  0  0  0  0  0  # atno 17321 bound_to 7965
  140.7596  143.5932  150.8775 LP  0  0  0  0  0  0  0  0  0  0  0  0  # atno 17342 bound_to 10162
  139.9593  143.6182  152.3007 LP  0  0  0  0  0  0  0  0  0  0  0  0  # atno 17343 bound_to 10162
  156.6798  130.4564  149.5631 LP  0  0  0  0  0  0  0  0  0  0  0  0  # atno 17370 bound_to 10713
  156.1937  130.6576  151.1090 LP  0  0  0  0  0  0  0  0  0  0  0  0  # atno 17371 bound_to 10713
  141.2131  133.7635  156.9742 LP  0  0  0  0  0  0  0  0  0  0  0  0  # atno 17394 bound_to 11000
  140.1124  134.9468  157.2085 LP  0  0  0  0  0  0  0  0  0  0  0  0  # atno 17395 bound_to 11000

$$$$
