AV-unprocessed.smi:2402|AV-procd|sdf|9508|dock2
  -GOLD-   2272013133D 1   1.00000     0.00000
 Structure written by MMmdl.
 38 39  0  0  0  0  0  0  0  0  1 V2000
  151.8911  144.9778  159.8099 C   0  0  0  0  0  0  0  0  0  0  0  0
  152.2059  143.4989  159.7249 C   0  0  0  0  0  0  0  0  0  0  0  0
  153.1163  142.9006  160.6170 C   0  0  0  0  0  0  0  0  0  0  0  0
  153.3662  141.5205  160.4851 C   0  0  0  0  0  0  0  0  0  0  0  0
  154.3382  140.8126  161.4055 C   0  0  0  0  0  0  0  0  0  0  0  0
  152.7724  140.7503  159.5484 N   0  0  0  0  0  0  0  0  0  0  0  0
  151.8921  141.3155  158.6852 C   0  0  0  0  0  0  0  0  0  0  0  0
  151.2148  140.5947  157.6658 N   0  0  0  0  0  0  0  0  0  0  0  0
  150.6555  141.0737  156.5406 C   0  0  0  0  0  0  0  0  0  0  0  0
  150.6432  142.2564  156.1974 O   0  0  0  0  0  0  0  0  0  0  0  0
  150.1044  140.0901  155.8147 N   0  0  0  0  0  0  0  0  0  0  0  0
  149.4387  140.2773  154.5302 C   0  0  1  0  0  0  0  0  0  0  0  0
  148.4064  139.2065  154.3056 C   0  0  0  0  0  0  0  0  0  0  0  0
  147.2050  139.7036  154.0193 C   0  0  0  0  0  0  0  0  0  0  0  0
  147.1850  141.2094  153.9993 C   0  0  1  0  0  0  0  0  0  0  0  0
  146.0679  141.7889  154.8827 C   0  0  0  0  0  0  0  0  0  0  0  0
  144.9005  141.0029  154.7703 O   0  0  0  0  0  0  0  0  0  0  0  0
  148.6160  141.5905  154.4606 C   0  0  0  0  0  0  0  0  0  0  0  0
  151.5879  142.6939  158.7469 C   0  0  0  0  0  0  0  0  0  0  0  0
  150.1641  140.2277  153.7166 H   0  0  0  0  0  0  0  0  0  0  0  0
  147.0334  141.5162  152.9634 H   0  0  0  0  0  0  0  0  0  0  0  0
  152.5233  145.4765  160.5453 H   0  0  0  0  0  0  0  0  0  0  0  0
  150.8502  145.1256  160.0980 H   0  0  0  0  0  0  0  0  0  0  0  0
  152.0520  145.4550  158.8431 H   0  0  0  0  0  0  0  0  0  0  0  0
  153.6106  143.4836  161.3805 H   0  0  0  0  0  0  0  0  0  0  0  0
  154.7296  141.4899  162.1649 H   0  0  0  0  0  0  0  0  0  0  0  0
  155.1795  140.4181  160.8349 H   0  0  0  0  0  0  0  0  0  0  0  0
  153.8461  139.9817  161.9116 H   0  0  0  0  0  0  0  0  0  0  0  0
  151.1565  139.5971  157.8061 H   0  0  0  0  0  0  0  0  0  0  0  0
  150.1549  139.1463  156.1695 H   0  0  0  0  0  0  0  0  0  0  0  0
  148.6465  138.1547  154.3587 H   0  0  0  0  0  0  0  0  0  0  0  0
  146.3252  139.1145  153.8064 H   0  0  0  0  0  0  0  0  0  0  0  0
  146.3767  141.7991  155.9286 H   0  0  0  0  0  0  0  0  0  0  0  0
  145.8411  142.8181  154.6021 H   0  0  0  0  0  0  0  0  0  0  0  0
  144.5932  141.0454  153.8777 H   0  0  0  0  0  0  0  0  0  0  0  0
  148.5819  142.0735  155.4385 H   0  0  0  0  0  0  0  0  0  0  0  0
  149.0737  142.3059  153.7766 H   0  0  0  0  0  0  0  0  0  0  0  0
  150.8857  143.1325  158.0523 H   0  0  0  0  0  0  0  0  0  0  0  0
  1  2  1  0  0  0  0
  1 22  1  0  0  0  0
  1 23  1  0  0  0  0
  1 24  1  0  0  0  0
  2 19  1  0  0  0  0
  2  3  2  0  0  0  0
  3  4  1  0  0  0  0
  3 25  1  0  0  0  0
  4  5  1  0  0  0  0
  4  6  2  0  0  0  0
  5 26  1  0  0  0  0
  5 27  1  0  0  0  0
  5 28  1  0  0  0  0
  6  7  1  0  0  0  0
  7  8  1  0  0  0  0
  7 19  2  0  0  0  0
  8  9  1  0  0  0  0
  8 29  1  0  0  0  0
  9 10  2  0  0  0  0
  9 11  1  0  0  0  0
 11 12  1  0  0  0  0
 11 30  1  0  0  0  0
 12 20  1  0  0  0  0
 12 18  1  0  0  0  0
 12 13  1  0  0  0  0
 13 14  2  0  0  0  0
 13 31  1  0  0  0  0
 14 15  1  0  0  0  0
 14 32  1  0  0  0  0
 15 21  1  0  0  0  0
 15 16  1  0  0  0  0
 15 18  1  0  0  0  0
 16 17  1  0  0  0  0
 16 33  1  0  0  0  0
 16 34  1  0  0  0  0
 17 35  1  0  0  0  0
 18 36  1  0  0  0  0
 18 37  1  0  0  0  0
 19 38  1  0  0  0  0
M  END
> <s_m_source_file>
AV-unprocessed.smi

> <i_m_source_file_index>
2402

> <i_lp_mmshare_version>
43012

> <i_f3d_flags>
0

> <s_epik_input>
W0NIM11jMVtjSF1jKFtDSDNdKW5jKFtjSF0xKVtOSF1DKD1PKVtOSF1bQ0BASF0yW0NIXT1bQ0hdW0NAQEhdKFtDSDJdMilbQ0gyXVtPSF0=

> <s_epik_cmdline>
J2VwaWtfcHl0aG9uJywgJy1waCcsICc3LjAnLCAnLXRuJywgJzgnLCAnLW1hJywgJzIwMCcsICctbWV0YWxfYmluZGluZycsICctaW1hZScsICc8aW5maWxlLm1hZT4nLCAnLW9tYWUnLCAnPG91dGZpbGUubWFlPic=

> <r_lp_tautomer_probability>
1

> <r_epik_Ionization_Penalty>
0.000257495

> <r_epik_Ionization_Penalty_Charging>
0

> <r_epik_Ionization_Penalty_Neutral>
0.000257495

> <r_epik_State_Penalty>
-0

> <r_epik_Charging_Adjusted_Penalty>
0

> <i_epik_Tot_Q>
0

> <i_epik_Tot_abs_Q>
0

> <r_epik_Metal_State_Penalty>
-0

> <b_epik_Metal_Only>
0

> <s_lp_Force_Field>
OPLS_2005

> <r_lp_Energy>
18.3393

> <b_lp_Chiralities_Consistent>
1

> <s_lp_Variant>
AV-unprocessed.smi:2402-4

> <Gold.Version>
5.8.1

> <Gold.Id.Protein>
6NUR|6NUR_protein|mol2

> <Gold.PLP.Fitness>
42.4750

> <Gold.PLP.PLP>
-40.8361

> <Gold.PLP.part.hbond>
-1.0000

> <Gold.PLP.part.metal>
0.0000

> <Gold.PLP.part.buried>
-4.4814

> <Gold.PLP.part.nonpolar>
-35.9890

> <Gold.PLP.part.repulsive>
0.8542

> <Gold.PLP.ligand.clash>
0.0000

> <Gold.PLP.ligand.torsion>
0.6767

> <Gold.PLP.Chemscore.Hbond>
0.9920

> <Gold.PLP.Chemscore.CHOScore>
0.0000

> <Gold.PLP.Chemscore.Metal>
0.0000

> <Gold.Chemscore.Hbonds>
donor molecule, donor type, donor heavy atom, donor atom, acceptor molecule, acceptor atom, score
      L1  H    17    35       P1 10175  1.00

> <Gold.PLP.Chemscore.Internal.Correction>
0.0162

> <Gold.Rescore>
     Score         DG    S(hbond)    S(metal)    S(lipo)     H(rot)  DE(clash)    DE(int)     intcor
     13.10     -16.48       0.97        0.00     105.39       1.78       0.02       3.36       ----

> <Gold.Chemscore.Fitness>
13.1029

> <Gold.Chemscore.DG>
-16.4833

> <Gold.Chemscore.ZeroCoef>
-5.4800

> <Gold.Chemscore.Hbond>
0.9704

> <Gold.Chemscore.Metal>
0.0000

> <Gold.Chemscore.Lipo>
105.3879

> <Gold.Chemscore.Internal_Hbond>
0.0000

> <Gold.Chemscore.DEClash>
0.0186

> <Gold.Chemscore.DEInternal>
3.3618

> <Gold.Chemscore.Rot>
1.7844

> <Gold.Chemscore.Internal.Correction>
   9.000000E+99

> <Gold.Chemscore.Hbonds>
donor molecule, donor type, donor heavy atom, donor atom, acceptor molecule, acceptor atom, score
      L1  H    17    35       P1 10175  0.77

> <Gold.Chemscore.Hbond.Weighted>
-3.2411

> <Gold.Chemscore.Metal.Weighted>
-0.0000

> <Gold.Chemscore.Lipo.Weighted>
-12.3304

> <Gold.Chemscore.Internal_Hbond.Weighted>
0.0000

> <Gold.Chemscore.DEClash.Weighted>
0.0186

> <Gold.Chemscore.DEInternal.Weighted>
3.3618

> <Gold.Chemscore.Rot.Weighted>
4.5681

> <Gold.Chemscore.Internal.Correction.Weighted>
   9.000000E+99

> <Gold.Protein.RotatedTorsions>
[ 6907 6896 6895 6894 ] final   78.06 input  -60.11 | X-H torsion
[ 7974 7965 7964 7962 ] final  -44.10 input  175.53 | X-H torsion
[ 8008 7997 7996 7995 ] final  -92.51 input   59.86 | X-H torsion
[ 10167 10162 10161 10158 ] final  -68.55 input  -65.29 | X-H torsion
[ 10718 10713 10712 10709 ] final   77.86 input   66.30 | X-H torsion
[ 10763 10752 10751 10750 ] final  115.65 input  -60.55 | X-H torsion
[ 11005 11000 10999 10996 ] final -150.48 input  -57.11 | X-H torsion

> <Gold.Protein.ActiveResidues>
 VAL166  LYS551  ARG553  GLY616  TRP617  ASP618  TYR619  PRO620  LYS621  CYS622 
 ASP623  PHE694  ASN695  SER759  ASP760  ASP761  ALA762  ILE779  LEU786  VAL792 
 PHE793  MET794  SER795  GLU796  ALA797  LYS798  CYS799  TRP800  GLU811  SER814 

> <Gold.Protein.RotatedAtoms>
  152.5144  134.3722  159.9321 H   0  0  0  0  0  0  0  0  0  0  0  0  # atno 6907 bound_to 6896
  151.3677  133.3860  159.2704 H   0  0  0  0  0  0  0  0  0  0  0  0  # atno 6908 bound_to 6896
  150.9602  134.9010  159.7784 H   0  0  0  0  0  0  0  0  0  0  0  0  # atno 6909 bound_to 6896
  145.9954  140.7134  142.9296 H   0  0  0  0  0  0  0  0  0  0  0  0  # atno 7974 bound_to 7965
  154.7240  140.0508  157.0666 H   0  0  0  0  0  0  0  0  0  0  0  0  # atno 8008 bound_to 7997
  155.0389  140.3166  155.4712 H   0  0  0  0  0  0  0  0  0  0  0  0  # atno 8009 bound_to 7997
  156.2824  140.2136  156.5512 H   0  0  0  0  0  0  0  0  0  0  0  0  # atno 8010 bound_to 7997
  140.5499  143.2312  151.6931 H   0  0  0  0  0  0  0  0  0  0  0  0  # atno 10167 bound_to 10162
  157.6725  130.9841  150.1703 H   0  0  0  0  0  0  0  0  0  0  0  0  # atno 10718 bound_to 10713
  153.5253  135.3589  155.2651 H   0  0  0  0  0  0  0  0  0  0  0  0  # atno 10763 bound_to 10752
  154.8731  135.4055  154.3213 H   0  0  0  0  0  0  0  0  0  0  0  0  # atno 10764 bound_to 10752
  153.3891  135.7071  153.6575 H   0  0  0  0  0  0  0  0  0  0  0  0  # atno 10765 bound_to 10752
  140.7397  134.3528  157.5150 H   0  0  0  0  0  0  0  0  0  0  0  0  # atno 11005 bound_to 11000
  144.6902  140.3142  143.7243 LP  0  0  0  0  0  0  0  0  0  0  0  0  # atno 17320 bound_to 7965
  145.7567  139.1811  143.2290 LP  0  0  0  0  0  0  0  0  0  0  0  0  # atno 17321 bound_to 7965
  139.5023  144.3835  152.0352 LP  0  0  0  0  0  0  0  0  0  0  0  0  # atno 17342 bound_to 10162
  140.2951  144.3710  150.6077 LP  0  0  0  0  0  0  0  0  0  0  0  0  # atno 17343 bound_to 10162
  156.2459  130.3695  149.8286 LP  0  0  0  0  0  0  0  0  0  0  0  0  # atno 17370 bound_to 10713
  156.6072  130.8571  151.3446 LP  0  0  0  0  0  0  0  0  0  0  0  0  # atno 17371 bound_to 10713
  139.8808  134.9073  156.2941 LP  0  0  0  0  0  0  0  0  0  0  0  0  # atno 17394 bound_to 11000
  140.9847  133.7245  156.0724 LP  0  0  0  0  0  0  0  0  0  0  0  0  # atno 17395 bound_to 11000

$$$$
