AV-unprocessed.smi:3254|AV-procd|sdf|12455|dock1
  -GOLD-   2272018353D 1   1.00000     0.00000
 Structure written by MMmdl.
 36 37  0  0  0  0  0  0  0  0  1 V2000
  150.2992  141.2132  157.7721 C   0  0  0  0  0  0  0  0  0  0  0  0
  151.0875  141.2932  156.4580 C   0  0  0  0  0  0  0  0  0  0  0  0
  150.6682  140.2542  155.5224 N   0  0  0  0  0  0  0  0  0  0  0  0
  151.6328  139.3145  154.9766 C   0  0  0  0  0  0  0  0  0  0  0  0
  150.7970  138.2452  154.2417 C   0  0  1  0  0  0  0  0  0  0  0  0
  150.7722  136.9055  154.9950 C   0  0  0  0  0  0  0  0  0  0  0  0
  151.3037  136.8081  156.1018 O   0  0  0  0  0  0  0  0  0  0  0  0
  150.1539  135.8869  154.3795 N   0  0  0  0  0  0  0  0  0  0  0  0
  149.9988  134.5364  154.9120 C   0  0  0  0  0  0  0  0  0  0  0  0
  149.4737  133.5740  153.8346 C   0  0  0  0  0  0  0  0  0  0  0  0
  149.6447  132.1830  154.2094 N   0  0  0  0  0  0  0  0  0  0  0  0
  149.1824  131.0682  153.5227 C   0  0  0  0  0  0  0  0  0  0  0  0
  149.5751  129.9678  154.2507 C   0  0  0  0  0  0  0  0  0  0  0  0
  150.2770  130.3796  155.3813 N   0  0  0  0  0  0  0  0  0  0  0  0
  150.2808  131.7030  155.2869 C   0  0  0  0  0  0  0  0  0  0  0  0
  149.3852  138.8545  154.1266 C   0  0  0  0  0  0  0  0  0  0  0  0
  149.4325  140.0629  155.0474 C   0  0  0  0  0  0  0  0  0  0  0  0
  148.4404  140.7414  155.3089 O   0  0  0  0  0  0  0  0  0  0  0  0
  150.6348  141.9782  158.4724 H   0  0  0  0  0  0  0  0  0  0  0  0
  150.4319  140.2424  158.2506 H   0  0  0  0  0  0  0  0  0  0  0  0
  149.2317  141.3616  157.6061 H   0  0  0  0  0  0  0  0  0  0  0  0
  150.9545  142.2749  156.0008 H   0  0  0  0  0  0  0  0  0  0  0  0
  152.1542  141.1902  156.6613 H   0  0  0  0  0  0  0  0  0  0  0  0
  152.2905  139.8370  154.2807 H   0  0  0  0  0  0  0  0  0  0  0  0
  152.2567  138.8992  155.7704 H   0  0  0  0  0  0  0  0  0  0  0  0
  151.2098  138.0839  153.2442 H   0  0  0  0  0  0  0  0  0  0  0  0
  149.7534  136.0616  153.4690 H   0  0  0  0  0  0  0  0  0  0  0  0
  150.9633  134.1950  155.2895 H   0  0  0  0  0  0  0  0  0  0  0  0
  149.3129  134.5238  155.7605 H   0  0  0  0  0  0  0  0  0  0  0  0
  148.4110  133.7503  153.6645 H   0  0  0  0  0  0  0  0  0  0  0  0
  149.9774  133.7514  152.8831 H   0  0  0  0  0  0  0  0  0  0  0  0
  148.6259  131.1479  152.6003 H   0  0  0  0  0  0  0  0  0  0  0  0
  149.4079  128.9200  154.0491 H   0  0  0  0  0  0  0  0  0  0  0  0
  150.7535  132.3384  156.0217 H   0  0  0  0  0  0  0  0  0  0  0  0
  149.1815  139.1839  153.1074 H   0  0  0  0  0  0  0  0  0  0  0  0
  148.5867  138.1739  154.4268 H   0  0  0  0  0  0  0  0  0  0  0  0
  1  2  1  0  0  0  0
  1 19  1  0  0  0  0
  1 20  1  0  0  0  0
  1 21  1  0  0  0  0
  2  3  1  0  0  0  0
  2 22  1  0  0  0  0
  2 23  1  0  0  0  0
  3 17  1  0  0  0  0
  3  4  1  0  0  0  0
  4  5  1  0  0  0  0
  4 24  1  0  0  0  0
  4 25  1  0  0  0  0
  5  6  1  0  0  0  0
  5 16  1  0  0  0  0
  5 26  1  0  0  0  0
  6  7  2  0  0  0  0
  6  8  1  0  0  0  0
  8  9  1  0  0  0  0
  8 27  1  0  0  0  0
  9 10  1  0  0  0  0
  9 28  1  0  0  0  0
  9 29  1  0  0  0  0
 10 11  1  0  0  0  0
 10 30  1  0  0  0  0
 10 31  1  0  0  0  0
 11 15  1  0  0  0  0
 11 12  1  0  0  0  0
 12 13  2  0  0  0  0
 12 32  1  0  0  0  0
 13 14  1  0  0  0  0
 13 33  1  0  0  0  0
 14 15  2  0  0  0  0
 15 34  1  0  0  0  0
 16 17  1  0  0  0  0
 16 35  1  0  0  0  0
 16 36  1  0  0  0  0
 17 18  2  0  0  0  0
M  END
> <s_m_source_file>
AV-unprocessed.smi

> <i_m_source_file_index>
3254

> <i_lp_mmshare_version>
43012

> <i_f3d_flags>
0

> <s_epik_input>
W0NIM11bQ0gyXU4xW0NIMl1bQ0BIXShbQ0gyXUMxPU8pQyg9TylbTkhdW0NIMl1bQ0gyXW4yW2NIXVtjSF1uW2NIXTI=

> <s_epik_cmdline>
J2VwaWtfcHl0aG9uJywgJy1waCcsICc3LjAnLCAnLXRuJywgJzgnLCAnLW1hJywgJzIwMCcsICctbWV0YWxfYmluZGluZycsICctaW1hZScsICc8aW5maWxlLm1hZT4nLCAnLW9tYWUnLCAnPG91dGZpbGUubWFlPic=

> <r_lp_tautomer_probability>
1

> <r_epik_Ionization_Penalty>
0.587394

> <r_epik_Ionization_Penalty_Charging>
0.587394

> <r_epik_Ionization_Penalty_Neutral>
3.11583e-08

> <r_epik_State_Penalty>
0.600671

> <r_epik_Charging_Adjusted_Penalty>
1.18807

> <i_epik_Tot_Q>
0

> <i_epik_Tot_abs_Q>
0

> <r_epik_Metal_State_Penalty>
0.297665

> <b_epik_Metal_Only>
0

> <s_lp_Force_Field>
OPLS_2005

> <r_lp_Energy>
14.5413

> <b_lp_Chiralities_Consistent>
1

> <s_lp_Variant>
AV-unprocessed.smi:3254-3

> <Gold.Version>
5.8.1

> <Gold.Id.Protein>
6NUR|6NUR_protein|mol2

> <Gold.PLP.Fitness>
40.1997

> <Gold.PLP.PLP>
-34.7026

> <Gold.PLP.part.hbond>
-1.8622

> <Gold.PLP.part.metal>
0.0000

> <Gold.PLP.part.buried>
-1.2631

> <Gold.PLP.part.nonpolar>
-30.5677

> <Gold.PLP.part.repulsive>
0.1698

> <Gold.PLP.ligand.clash>
0.0000

> <Gold.PLP.ligand.torsion>
0.2292

> <Gold.PLP.Chemscore.Hbond>
0.9500

> <Gold.PLP.Chemscore.CHOScore>
1.0000

> <Gold.PLP.Chemscore.Metal>
0.0000

> <Gold.Chemscore.Hbonds>
donor molecule, donor type, donor heavy atom, donor atom, acceptor molecule, acceptor atom, score
      L1  H     8    27       P1  7948  0.85
      L1  C    12    32       P1 10747  1.00

> <Gold.PLP.Chemscore.Internal.Correction>
0.1056

> <Gold.Rescore>
     Score         DG    S(hbond)    S(metal)    S(lipo)     H(rot)  DE(clash)    DE(int)     intcor
     10.98     -11.22       1.54        0.00      53.04       2.20       0.18       0.06       ----

> <Gold.Chemscore.Fitness>
10.9764

> <Gold.Chemscore.DG>
-11.2156

> <Gold.Chemscore.ZeroCoef>
-5.4800

> <Gold.Chemscore.Hbond>
1.5417

> <Gold.Chemscore.Metal>
0.0000

> <Gold.Chemscore.Lipo>
53.0413

> <Gold.Chemscore.Internal_Hbond>
0.0000

> <Gold.Chemscore.DEClash>
0.1779

> <Gold.Chemscore.DEInternal>
0.0613

> <Gold.Chemscore.Rot>
2.1952

> <Gold.Chemscore.Internal.Correction>
   9.000000E+99

> <Gold.Chemscore.Hbonds>
donor molecule, donor type, donor heavy atom, donor atom, acceptor molecule, acceptor atom, score
      L1  H     8    27       P1  7948  0.15

> <Gold.Chemscore.Hbond.Weighted>
-5.1494

> <Gold.Chemscore.Metal.Weighted>
-0.0000

> <Gold.Chemscore.Lipo.Weighted>
-6.2058

> <Gold.Chemscore.Internal_Hbond.Weighted>
0.0000

> <Gold.Chemscore.DEClash.Weighted>
0.1779

> <Gold.Chemscore.DEInternal.Weighted>
0.0613

> <Gold.Chemscore.Rot.Weighted>
5.6197

> <Gold.Chemscore.Internal.Correction.Weighted>
   9.000000E+99

> <Gold.Protein.RotatedTorsions>
[ 6907 6896 6895 6894 ] final    4.08 input  -60.11 | X-H torsion
[ 7974 7965 7964 7962 ] final   91.56 input  175.53 | X-H torsion
[ 8008 7997 7996 7995 ] final   98.97 input   59.86 | X-H torsion
[ 10167 10162 10161 10158 ] final  104.36 input  -65.29 | X-H torsion
[ 10718 10713 10712 10709 ] final  156.57 input   66.30 | X-H torsion
[ 10763 10752 10751 10750 ] final   64.53 input  -60.55 | X-H torsion
[ 11005 11000 10999 10996 ] final  -73.26 input  -57.11 | X-H torsion

> <Gold.Protein.ActiveResidues>
 VAL166  LYS551  ARG553  GLY616  TRP617  ASP618  TYR619  PRO620  LYS621  CYS622 
 ASP623  PHE694  ASN695  SER759  ASP760  ASP761  ALA762  ILE779  LEU786  VAL792 
 PHE793  MET794  SER795  GLU796  ALA797  LYS798  CYS799  TRP800  GLU811  SER814 

> <Gold.Protein.RotatedAtoms>
  151.6355  135.1018  160.0130 H   0  0  0  0  0  0  0  0  0  0  0  0  # atno 6907 bound_to 6896
  152.4083  133.6919  159.6384 H   0  0  0  0  0  0  0  0  0  0  0  0  # atno 6908 bound_to 6896
  150.7975  133.8587  159.3266 H   0  0  0  0  0  0  0  0  0  0  0  0  # atno 6909 bound_to 6896
  145.5040  139.2276  143.2762 H   0  0  0  0  0  0  0  0  0  0  0  0  # atno 7974 bound_to 7965
  156.1058  140.3236  155.8004 H   0  0  0  0  0  0  0  0  0  0  0  0  # atno 8008 bound_to 7997
  155.4758  140.0550  157.2991 H   0  0  0  0  0  0  0  0  0  0  0  0  # atno 8009 bound_to 7997
  154.4727  140.2018  155.9970 H   0  0  0  0  0  0  0  0  0  0  0  0  # atno 8010 bound_to 7997
  139.7184  144.7063  151.0913 H   0  0  0  0  0  0  0  0  0  0  0  0  # atno 10167 bound_to 10162
  157.2032  131.0681  151.2013 H   0  0  0  0  0  0  0  0  0  0  0  0  # atno 10718 bound_to 10713
  153.0059  135.5389  154.6525 H   0  0  0  0  0  0  0  0  0  0  0  0  # atno 10763 bound_to 10752
  154.5754  135.2845  155.0788 H   0  0  0  0  0  0  0  0  0  0  0  0  # atno 10764 bound_to 10752
  154.1938  135.6495  153.5120 H   0  0  0  0  0  0  0  0  0  0  0  0  # atno 10765 bound_to 10752
  141.1620  133.6873  156.7185 H   0  0  0  0  0  0  0  0  0  0  0  0  # atno 11005 bound_to 11000
  146.2208  140.5842  142.9018 LP  0  0  0  0  0  0  0  0  0  0  0  0  # atno 17320 bound_to 7965
  144.7764  140.5749  143.6635 LP  0  0  0  0  0  0  0  0  0  0  0  0  # atno 17321 bound_to 7965
  140.7748  143.5199  150.9549 LP  0  0  0  0  0  0  0  0  0  0  0  0  # atno 17342 bound_to 10162
  139.8885  143.6982  152.3148 LP  0  0  0  0  0  0  0  0  0  0  0  0  # atno 17343 bound_to 10162
  157.3746  130.7199  149.6588 LP  0  0  0  0  0  0  0  0  0  0  0  0  # atno 17370 bound_to 10713
  155.9698  130.4189  150.4351 LP  0  0  0  0  0  0  0  0  0  0  0  0  # atno 17371 bound_to 10713
  140.2834  134.8299  157.3953 LP  0  0  0  0  0  0  0  0  0  0  0  0  # atno 17394 bound_to 11000
  140.1413  134.4968  155.8029 LP  0  0  0  0  0  0  0  0  0  0  0  0  # atno 17395 bound_to 11000

$$$$
