#       Name:                AV-unprocessed.smi:3046
#       Creating user name   scv26
#       Creation time:       Fri Mar 27 16:59:25 2020


#       File generated by GOLD software.
#

@<TRIPOS>MOLECULE
AV-unprocessed.smi:3046
    41    41     1
SMALL
NO_CHARGES


@<TRIPOS>ATOM
      1 ****        -4.6000  -0.1372   4.5220 C.2            1 S1                 0.0000
      2 ****        -3.3656   0.0687   4.0390 C.2            1 S1                 0.0000
      3 ****        -2.4834  -1.0118   3.4518 C.3            1 S1                 0.0000
      4 ****        -2.0447  -0.6412   2.1145 N.am           1 S1                 0.0000
      5 ****        -1.2110  -1.3729   1.3607 C.2            1 S1                 0.0000
      6 ****        -0.7354  -2.4466   1.7322 O.2            1 S1                 0.0000
      7 ****        -0.8730  -0.8106  -0.0253 C.3            1 S1                 0.0000
      8 ****        -1.9150  -1.2824  -1.0553 C.3            1 S1                 0.0000
      9 ****         0.4934  -1.2201  -0.4288 N.4            1 S1                 1.0000
     10 ****         1.1662  -0.3598  -1.4284 C.3            1 S1                 0.0000
     11 ****         2.2431  -1.1792  -2.1587 C.3            1 S1                 0.0000
     12 ****         1.7454   0.9075  -0.7570 C.3            1 S1                 0.0000
     13 ****         2.4462   1.7758  -1.6859 N.pl3          1 S1                 0.0000
     14 ****         3.7830   2.1151  -1.7028 C.2            1 S1                 0.0000
     15 ****         3.9718   2.9688  -2.7516 C.2            1 S1                 0.0000
     16 ****         2.6736   3.0999  -3.3191 C.2            1 S1                 0.0000
     17 ****         1.7616   2.3883  -2.6759 N.2            1 S1                 0.0000
     18 ****        -5.0502  -1.1193   4.5154 H              1 S1                 0.0000
     19 ****        -5.1779   0.6780   4.9321 H              1 S1                 0.0000
     20 ****        -2.9495   1.0653   4.0677 H              1 S1                 0.0000
     21 ****        -1.6164  -1.1452   4.1000 H              1 S1                 0.0000
     22 ****        -3.0192  -1.9619   3.4185 H              1 S1                 0.0000
     23 ****        -2.4016   0.2255   1.7382 H              1 S1                 0.0000
     24 ****        -0.9130   0.2767   0.0457 H              1 S1                 0.0000
     25 ****        -2.9251  -1.0011  -0.7545 H              1 S1                 0.0000
     26 ****        -1.8958  -2.3666  -1.1752 H              1 S1                 0.0000
     27 ****        -1.7402  -0.8394  -2.0356 H              1 S1                 0.0000
     28 ****         1.0745  -1.2462   0.3970 H              1 S1                 0.0000
     29 ****         0.4305  -0.0598  -2.1750 H              1 S1                 0.0000
     30 ****         2.7083  -0.6071  -2.9619 H              1 S1                 0.0000
     31 ****         1.8140  -2.0743  -2.6101 H              1 S1                 0.0000
     32 ****         3.0322  -1.4962  -1.4759 H              1 S1                 0.0000
     33 ****         0.9594   1.4960  -0.2838 H              1 S1                 0.0000
     34 ****         2.4389   0.6254   0.0364 H              1 S1                 0.0000
     35 ****         4.4814   1.7246  -0.9770 H              1 S1                 0.0000
     36 ****         4.8961   3.4319  -3.0639 H              1 S1                 0.0000
     37 ****         2.3686   3.6886  -4.1718 H              1 S1                 0.0000
     38 ****         0.4304  -2.1588  -0.7964 H              1 S1                 0.0000
     39 ****        -0.9670  -2.8107   2.6343 LP             1 S1                 0.0000
     40 ****        -0.1177  -2.9544   1.1316 LP             1 S1                 0.0000
     41 ****         0.7846   2.3196  -2.8778 LP             1 S1                 0.0000
@<TRIPOS>BOND
    1    1    2 2     
    2    1   18 1     
    3    1   19 1     
    4    2    3 1     
    5    2   20 1     
    6    3    4 1     
    7    3   21 1     
    8    3   22 1     
    9    4    5 am    
   10    4   23 1     
   11    5    6 2     
   12    5    7 1     
   13    7    8 1     
   14    7    9 1     
   15    7   24 1     
   16    8   25 1     
   17    8   26 1     
   18    8   27 1     
   19    9   10 1     
   20    9   28 1     
   21    9   38 1     
   22   10   11 1     
   23   10   12 1     
   24   10   29 1     
   25   11   30 1     
   26   11   31 1     
   27   11   32 1     
   28   12   13 1     
   29   12   33 1     
   30   12   34 1     
   31   13   17 1     
   32   13   14 1     
   33   14   15 2     
   34   14   35 1     
   35   15   16 1     
   36   15   36 1     
   37   16   17 2     
   38   16   37 1     
   39    6   39 1     
   40    6   40 1     
   41   17   41 1     
@<TRIPOS>SUBSTRUCTURE
      1 S1             1
@<TRIPOS>SET
LONE_PAIRS      STATIC     ATOMS    <user>   **** ""
3 39 40 41
DONOR_HYDROGENS      STATIC     ATOMS    <user>   **** ""
3 23 28 38
ATOM$BLUE        STATIC     ATOMS    COLORGROUP SYSTEM
3 39 40 41
ATOM$RED        STATIC     ATOMS    COLORGROUP SYSTEM
3 23 28 38
