AV-unprocessed.smi:657|AV-procd|sdf|3220|dock1
  -GOLD-   22720 0153D 1   1.00000     0.00000
 Structure written by MMmdl.
 47 48  0  0  0  0  0  0  0  0  2 V2000
  144.1216  136.3928  153.1748 C   0  0  0  0  0  0  0  0  0  0  0  0
  145.6512  136.5514  153.0618 C   0  0  0  0  0  0  0  0  0  0  0  0
  146.0316  137.7830  152.2217 C   0  0  0  0  0  0  0  0  0  0  0  0
  146.3528  135.3146  152.5758 N   0  3  2  0  0  0  0  0  0  0  0  0
  145.6967  134.7029  151.3814 C   0  0  0  0  0  0  0  0  0  0  0  0
  146.5304  133.5630  150.7837 C   0  0  0  0  0  0  0  0  0  0  0  0
  146.7644  132.4769  151.8329 C   0  0  0  0  0  0  0  0  0  0  0  0
  147.4520  133.0967  153.0502 C   0  0  0  0  0  0  0  0  0  0  0  0
  146.6602  134.2934  153.6348 C   0  0  1  0  0  0  0  0  0  0  0  0
  147.4941  134.8492  154.8016 C   0  0  0  0  0  0  0  0  0  0  0  0
  147.0543  134.8172  155.9515 O   0  0  0  0  0  0  0  0  0  0  0  0
  148.6777  135.3914  154.4796 N   0  0  0  0  0  0  0  0  0  0  0  0
  149.5748  136.0692  155.4107 C   0  0  0  0  0  0  0  0  0  0  0  0
  150.9230  136.4489  154.7643 C   0  0  0  0  0  0  0  0  0  0  0  0
  151.3504  137.8571  155.0899 C   0  0  0  0  0  0  0  0  0  0  0  0
  152.5964  138.4853  154.8054 C   0  0  0  0  0  0  0  0  0  0  0  0
  152.6353  139.7493  155.1937 N   0  0  0  0  0  0  0  0  0  0  0  0
  151.4242  139.9692  155.7451 N   0  0  0  0  0  0  0  0  0  0  0  0
  151.1108  141.2761  156.2818 C   0  0  0  0  0  0  0  0  0  0  0  0
  150.6309  138.8434  155.7035 C   0  0  0  0  0  0  0  0  0  0  0  0
  143.6786  137.2788  153.6306 H   0  0  0  0  0  0  0  0  0  0  0  0
  143.8469  135.5419  153.7977 H   0  0  0  0  0  0  0  0  0  0  0  0
  143.6478  136.2672  152.2012 H   0  0  0  0  0  0  0  0  0  0  0  0
  146.0074  136.7921  154.0616 H   0  0  0  0  0  0  0  0  0  0  0  0
  145.6537  138.6952  152.6845 H   0  0  0  0  0  0  0  0  0  0  0  0
  145.6192  137.7436  151.2140 H   0  0  0  0  0  0  0  0  0  0  0  0
  147.1143  137.8848  152.1400 H   0  0  0  0  0  0  0  0  0  0  0  0
  144.7152  134.3135  151.6541 H   0  0  0  0  0  0  0  0  0  0  0  0
  145.5351  135.4508  150.6067 H   0  0  0  0  0  0  0  0  0  0  0  0
  146.0173  133.1392  149.9199 H   0  0  0  0  0  0  0  0  0  0  0  0
  147.4847  133.9481  150.4221 H   0  0  0  0  0  0  0  0  0  0  0  0
  145.8158  132.0257  152.1271 H   0  0  0  0  0  0  0  0  0  0  0  0
  147.3793  131.6772  151.4190 H   0  0  0  0  0  0  0  0  0  0  0  0
  147.5892  132.3273  153.8118 H   0  0  0  0  0  0  0  0  0  0  0  0
  148.4543  133.4175  152.7591 H   0  0  0  0  0  0  0  0  0  0  0  0
  145.7130  133.9201  154.0274 H   0  0  0  0  0  0  0  0  0  0  0  0
  148.9568  135.3822  153.5090 H   0  0  0  0  0  0  0  0  0  0  0  0
  149.0923  136.9477  155.8418 H   0  0  0  0  0  0  0  0  0  0  0  0
  149.7545  135.3806  156.2367 H   0  0  0  0  0  0  0  0  0  0  0  0
  151.6828  135.7409  155.0974 H   0  0  0  0  0  0  0  0  0  0  0  0
  150.8520  136.3076  153.6856 H   0  0  0  0  0  0  0  0  0  0  0  0
  153.4637  138.0655  154.3175 H   0  0  0  0  0  0  0  0  0  0  0  0
  150.0627  141.3163  156.5792 H   0  0  0  0  0  0  0  0  0  0  0  0
  151.2936  142.0409  155.5265 H   0  0  0  0  0  0  0  0  0  0  0  0
  151.7354  141.4753  157.1530 H   0  0  0  0  0  0  0  0  0  0  0  0
  149.6250  138.8398  156.0970 H   0  0  0  0  0  0  0  0  0  0  0  0
  147.2578  135.6341  152.2604 H   0  0  0  0  0  0  0  0  0  0  0  0
  1  2  1  0  0  0  0
  1 21  1  0  0  0  0
  1 22  1  0  0  0  0
  1 23  1  0  0  0  0
  2  3  1  0  0  0  0
  2  4  1  0  0  0  0
  2 24  1  0  0  0  0
  3 25  1  0  0  0  0
  3 26  1  0  0  0  0
  3 27  1  0  0  0  0
  4  9  1  0  0  0  0
  4  5  1  0  0  0  0
  4 47  1  0  0  0  0
  5  6  1  0  0  0  0
  5 28  1  0  0  0  0
  5 29  1  0  0  0  0
  6  7  1  0  0  0  0
  6 30  1  0  0  0  0
  6 31  1  0  0  0  0
  7  8  1  0  0  0  0
  7 32  1  0  0  0  0
  7 33  1  0  0  0  0
  8  9  1  0  0  0  0
  8 34  1  0  0  0  0
  8 35  1  0  0  0  0
  9 10  1  0  0  0  0
  9 36  1  0  0  0  0
 10 11  2  0  0  0  0
 10 12  1  0  0  0  0
 12 13  1  0  0  0  0
 12 37  1  0  0  0  0
 13 14  1  0  0  0  0
 13 38  1  0  0  0  0
 13 39  1  0  0  0  0
 14 15  1  0  0  0  0
 14 40  1  0  0  0  0
 14 41  1  0  0  0  0
 15 20  2  0  0  0  0
 15 16  1  0  0  0  0
 16 17  2  0  0  0  0
 16 42  1  0  0  0  0
 17 18  1  0  0  0  0
 18 19  1  0  0  0  0
 18 20  1  0  0  0  0
 19 43  1  0  0  0  0
 19 44  1  0  0  0  0
 19 45  1  0  0  0  0
 20 46  1  0  0  0  0
M  CHG  1   4   1
M  END
> <s_m_source_file>
AV-unprocessed.smi

> <i_m_source_file_index>
657

> <i_lp_mmshare_version>
43012

> <i_f3d_flags>
0

> <s_epik_input>
W0NIM11bQ0hdKFtDSDNdKU4xW0NIMl1bQ0gyXVtDSDJdW0NIMl1bQ0BIXTFDKD1PKVtOSF1bQ0gyXVtDSDJdYzJbY0hdbm4oW0NIM10pW2NIXTI=

> <s_epik_cmdline>
J2VwaWtfcHl0aG9uJywgJy1waCcsICc3LjAnLCAnLXRuJywgJzgnLCAnLW1hJywgJzIwMCcsICctbWV0YWxfYmluZGluZycsICctaW1hZScsICc8aW5maWxlLm1hZT4nLCAnLW9tYWUnLCAnPG91dGZpbGUubWFlPic=

> <r_lp_tautomer_probability>
1

> <r_epik_Ionization_Penalty>
0.0244317

> <r_epik_Ionization_Penalty_Charging>
0.0240236

> <r_epik_Ionization_Penalty_Neutral>
0.00040815

> <r_epik_State_Penalty>
0.0194773

> <r_epik_Charging_Adjusted_Penalty>
0.0435009

> <i_epik_Tot_Q>
1

> <i_epik_Tot_abs_Q>
1

> <r_epik_Metal_State_Penalty>
0.0361957

> <b_epik_Metal_Only>
0

> <s_lp_Force_Field>
OPLS_2005

> <r_lp_Energy>
17.8505

> <b_lp_Chiralities_Consistent>
1

> <s_lp_Variant>
AV-unprocessed.smi:657-1

> <Gold.Version>
5.8.1

> <Gold.Id.Protein>
6NUR|6NUR_protein|mol2

> <Gold.PLP.Fitness>
44.3637

> <Gold.PLP.PLP>
-33.9637

> <Gold.PLP.part.hbond>
-3.9251

> <Gold.PLP.part.metal>
0.0000

> <Gold.PLP.part.buried>
-2.6459

> <Gold.PLP.part.nonpolar>
-27.8784

> <Gold.PLP.part.repulsive>
0.0288

> <Gold.PLP.ligand.clash>
0.0000

> <Gold.PLP.ligand.torsion>
0.9058

> <Gold.PLP.Chemscore.Hbond>
4.0225

> <Gold.PLP.Chemscore.CHOScore>
0.0000

> <Gold.PLP.Chemscore.Metal>
0.0000

> <Gold.Chemscore.Hbonds>
donor molecule, donor type, donor heavy atom, donor atom, acceptor molecule, acceptor atom, score
      L1  H     4    47       P1  7948  2.00
      L1  H    12    37       P1  7948  0.99
      P1  H  7989  7998       L1    17  0.01
      P1  H  7997  8010       L1    17  1.00

> <Gold.PLP.Chemscore.Internal.Correction>
0.1439

> <Gold.Rescore>
     Score         DG    S(hbond)    S(metal)    S(lipo)     H(rot)  DE(clash)    DE(int)     intcor
     18.25     -19.68       2.76        0.00      78.05       1.63       0.33       1.09       ----

> <Gold.Chemscore.Fitness>
18.2502

> <Gold.Chemscore.DG>
-19.6762

> <Gold.Chemscore.ZeroCoef>
-5.4800

> <Gold.Chemscore.Hbond>
2.7641

> <Gold.Chemscore.Metal>
0.0000

> <Gold.Chemscore.Lipo>
78.0463

> <Gold.Chemscore.Internal_Hbond>
0.0000

> <Gold.Chemscore.DEClash>
0.3338

> <Gold.Chemscore.DEInternal>
1.0922

> <Gold.Chemscore.Rot>
1.6279

> <Gold.Chemscore.Internal.Correction>
   9.000000E+99

> <Gold.Chemscore.Hbonds>
donor molecule, donor type, donor heavy atom, donor atom, acceptor molecule, acceptor atom, score
      L1  H     4    47       P1  7948  1.00
      L1  H    12    37       P1  7948  0.66
      P1  H  7997  8010       L1    17  0.76

> <Gold.Chemscore.Hbond.Weighted>
-9.2321

> <Gold.Chemscore.Metal.Weighted>
-0.0000

> <Gold.Chemscore.Lipo.Weighted>
-9.1314

> <Gold.Chemscore.Internal_Hbond.Weighted>
0.0000

> <Gold.Chemscore.DEClash.Weighted>
0.3338

> <Gold.Chemscore.DEInternal.Weighted>
1.0922

> <Gold.Chemscore.Rot.Weighted>
4.1673

> <Gold.Chemscore.Internal.Correction.Weighted>
   9.000000E+99

> <Gold.Protein.RotatedTorsions>
[ 6907 6896 6895 6894 ] final   -4.31 input  -60.11 | X-H torsion
[ 7974 7965 7964 7962 ] final  137.84 input  175.53 | X-H torsion
[ 8008 7997 7996 7995 ] final   99.80 input   59.86 | X-H torsion
[ 10167 10162 10161 10158 ] final  157.21 input  -65.29 | X-H torsion
[ 10718 10713 10712 10709 ] final -155.86 input   66.30 | X-H torsion
[ 10763 10752 10751 10750 ] final  -48.18 input  -60.55 | X-H torsion
[ 11005 11000 10999 10996 ] final   -6.61 input  -57.11 | X-H torsion

> <Gold.Protein.ActiveResidues>
 VAL166  LYS551  ARG553  GLY616  TRP617  ASP618  TYR619  PRO620  LYS621  CYS622 
 ASP623  PHE694  ASN695  SER759  ASP760  ASP761  ALA762  ILE779  LEU786  VAL792 
 PHE793  MET794  SER795  GLU796  ALA797  LYS798  CYS799  TRP800  GLU811  SER814 

> <Gold.Protein.RotatedAtoms>
  151.4998  135.1061  159.9825 H   0  0  0  0  0  0  0  0  0  0  0  0  # atno 6907 bound_to 6896
  152.4706  133.8018  159.6967 H   0  0  0  0  0  0  0  0  0  0  0  0  # atno 6908 bound_to 6896
  150.8714  133.7437  159.2986 H   0  0  0  0  0  0  0  0  0  0  0  0  # atno 6909 bound_to 6896
  144.9429  139.4909  143.5563 H   0  0  0  0  0  0  0  0  0  0  0  0  # atno 7974 bound_to 7965
  156.1140  140.3223  155.8113 H   0  0  0  0  0  0  0  0  0  0  0  0  # atno 8008 bound_to 7997
  155.4622  140.0540  157.3006 H   0  0  0  0  0  0  0  0  0  0  0  0  # atno 8009 bound_to 7997
  154.4780  140.2040  155.9846 H   0  0  0  0  0  0  0  0  0  0  0  0  # atno 8010 bound_to 7997
  139.4822  144.4938  151.8269 H   0  0  0  0  0  0  0  0  0  0  0  0  # atno 10167 bound_to 10162
  156.5187  130.8468  151.2674 H   0  0  0  0  0  0  0  0  0  0  0  0  # atno 10718 bound_to 10713
  154.0735  135.6601  153.4827 H   0  0  0  0  0  0  0  0  0  0  0  0  # atno 10763 bound_to 10752
  153.0382  135.5163  154.7544 H   0  0  0  0  0  0  0  0  0  0  0  0  # atno 10764 bound_to 10752
  154.6617  135.3016  154.9826 H   0  0  0  0  0  0  0  0  0  0  0  0  # atno 10765 bound_to 10752
  140.7038  133.8967  155.8702 H   0  0  0  0  0  0  0  0  0  0  0  0  # atno 11005 bound_to 11000
  146.3292  139.8461  142.8881 LP  0  0  0  0  0  0  0  0  0  0  0  0  # atno 17320 bound_to 7965
  145.2963  141.0181  143.3634 LP  0  0  0  0  0  0  0  0  0  0  0  0  # atno 17321 bound_to 7965
  140.4425  144.1967  150.5892 LP  0  0  0  0  0  0  0  0  0  0  0  0  # atno 17342 bound_to 10162
  140.4669  143.2427  151.9143 LP  0  0  0  0  0  0  0  0  0  0  0  0  # atno 17343 bound_to 10162
  157.7440  130.9925  150.2638 LP  0  0  0  0  0  0  0  0  0  0  0  0  # atno 17370 bound_to 10713
  156.3170  130.3780  149.7609 LP  0  0  0  0  0  0  0  0  0  0  0  0  # atno 17371 bound_to 10713
  141.0141  134.0979  157.4190 LP  0  0  0  0  0  0  0  0  0  0  0  0  # atno 17394 bound_to 11000
  139.8889  135.0101  156.6651 LP  0  0  0  0  0  0  0  0  0  0  0  0  # atno 17395 bound_to 11000

$$$$
