AV-unprocessed.smi:3124|AV-procd|sdf|11904|dock6
  -GOLD-   2272017283D 1   1.00000     0.00000
 Structure written by MMmdl.
 24 24  0  0  0  0  0  0  0  0  2 V2000
  152.2434  141.4776  159.0056 C   0  0  0  0  0  0  0  0  0  0  0  0
  151.4805  141.6108  157.7203 C   0  0  0  0  0  0  0  0  0  0  0  0
  151.0002  140.5720  156.8703 C   0  0  0  0  0  0  0  0  0  0  0  0
  150.3751  141.2304  155.8461 C   0  0  0  0  0  0  0  0  0  0  0  0
  149.6682  140.7471  154.6168 C   0  0  0  0  0  0  0  0  0  0  0  0
  149.5824  139.2147  154.4742 C   0  0  2  0  0  0  0  0  0  0  0  0
  150.9737  138.5665  154.4824 C   0  0  0  0  0  0  0  0  0  0  0  0
  148.8568  138.8391  153.2462 N   0  3  0  0  0  0  0  0  0  0  0  0
  150.5165  142.5723  156.1178 N   0  0  0  0  0  0  0  0  0  0  0  0
  151.1819  142.8161  157.2614 N   0  0  0  0  0  0  0  0  0  0  0  0
  150.1674  143.3242  155.5402 H   0  0  0  0  0  0  0  0  0  0  0  0
  152.7204  140.5002  159.0801 H   0  0  0  0  0  0  0  0  0  0  0  0
  151.5827  141.5912  159.8652 H   0  0  0  0  0  0  0  0  0  0  0  0
  153.0260  142.2330  159.0840 H   0  0  0  0  0  0  0  0  0  0  0  0
  151.1047  139.5049  156.9984 H   0  0  0  0  0  0  0  0  0  0  0  0
  148.6631  141.1705  154.5895 H   0  0  0  0  0  0  0  0  0  0  0  0
  150.1839  141.1546  153.7462 H   0  0  0  0  0  0  0  0  0  0  0  0
  149.0232  138.8133  155.3203 H   0  0  0  0  0  0  0  0  0  0  0  0
  151.5088  138.7973  155.4043 H   0  0  0  0  0  0  0  0  0  0  0  0
  151.5823  138.9186  153.6487 H   0  0  0  0  0  0  0  0  0  0  0  0
  150.9034  137.4807  154.4084 H   0  0  0  0  0  0  0  0  0  0  0  0
  147.8652  138.9727  153.3843 H   0  0  0  0  0  0  0  0  0  0  0  0
  149.0377  137.8680  153.0332 H   0  0  0  0  0  0  0  0  0  0  0  0
  149.1703  139.4155  152.4785 H   0  0  0  0  0  0  0  0  0  0  0  0
  1  2  1  0  0  0  0
  1 12  1  0  0  0  0
  1 13  1  0  0  0  0
  1 14  1  0  0  0  0
  2 10  2  0  0  0  0
  2  3  1  0  0  0  0
  3  4  2  0  0  0  0
  3 15  1  0  0  0  0
  4  5  1  0  0  0  0
  4  9  1  0  0  0  0
  5  6  1  0  0  0  0
  5 16  1  0  0  0  0
  5 17  1  0  0  0  0
  6  7  1  0  0  0  0
  6  8  1  0  0  0  0
  6 18  1  0  0  0  0
  7 19  1  0  0  0  0
  7 20  1  0  0  0  0
  7 21  1  0  0  0  0
  8 22  1  0  0  0  0
  8 23  1  0  0  0  0
  8 24  1  0  0  0  0
  9 11  1  0  0  0  0
  9 10  1  0  0  0  0
M  CHG  1   8   1
M  END
> <s_m_source_file>
AV-unprocessed.smi

> <i_m_source_file_index>
3124

> <i_lp_mmshare_version>
43012

> <i_f3d_flags>
0

> <s_epik_input>
W0NIM11jMVtjSF1jKFtuSF1uMSlbQ0gyXVtDQEhdKFtDSDNdKVtOSDJd

> <s_epik_cmdline>
J2VwaWtfcHl0aG9uJywgJy1waCcsICc3LjAnLCAnLXRuJywgJzgnLCAnLW1hJywgJzIwMCcsICctbWV0YWxfYmluZGluZycsICctaW1hZScsICc8aW5maWxlLm1hZT4nLCAnLW9tYWUnLCAnPG91dGZpbGUubWFlPic=

> <r_lp_tautomer_probability>
0.5

> <r_epik_Ionization_Penalty>
0.00227197

> <r_epik_Ionization_Penalty_Charging>
0.00223142

> <r_epik_Ionization_Penalty_Neutral>
4.05538e-05

> <r_epik_State_Penalty>
0.446108

> <r_epik_Charging_Adjusted_Penalty>
0.448339

> <i_epik_Tot_Q>
1

> <i_epik_Tot_abs_Q>
1

> <r_epik_Metal_State_Penalty>
0.444886

> <b_epik_Metal_Only>
0

> <s_lp_Force_Field>
OPLS_2005

> <r_lp_Energy>
4.61412

> <b_lp_Chiralities_Consistent>
1

> <s_lp_Variant>
AV-unprocessed.smi:3124-3

> <Gold.Version>
5.8.1

> <Gold.Id.Protein>
6NUR|6NUR_protein|mol2

> <Gold.PLP.Fitness>
33.3584

> <Gold.PLP.PLP>
-21.3630

> <Gold.PLP.part.hbond>
-2.9546

> <Gold.PLP.part.metal>
0.0000

> <Gold.PLP.part.buried>
-3.8690

> <Gold.PLP.part.nonpolar>
-15.3937

> <Gold.PLP.part.repulsive>
0.3083

> <Gold.PLP.ligand.clash>
0.0000

> <Gold.PLP.ligand.torsion>
0.0040

> <Gold.PLP.Chemscore.Hbond>
4.0000

> <Gold.PLP.Chemscore.CHOScore>
0.0000

> <Gold.PLP.Chemscore.Metal>
0.0000

> <Gold.Chemscore.Hbonds>
donor molecule, donor type, donor heavy atom, donor atom, acceptor molecule, acceptor atom, score
      L1  H     8    23       P1  7948  2.00
      L1  H     8    24       P1  7957  0.98
      L1  H     9    11       P1  8028  0.78

> <Gold.PLP.Chemscore.Internal.Correction>
0.0033

> <Gold.Rescore>
     Score         DG    S(hbond)    S(metal)    S(lipo)     H(rot)  DE(clash)    DE(int)     intcor
     17.91     -17.93       2.95        0.00      50.52       1.30       0.01       0.01       ----

> <Gold.Chemscore.Fitness>
17.9076

> <Gold.Chemscore.DG>
-17.9303

> <Gold.Chemscore.ZeroCoef>
-5.4800

> <Gold.Chemscore.Hbond>
2.9534

> <Gold.Chemscore.Metal>
0.0000

> <Gold.Chemscore.Lipo>
50.5178

> <Gold.Chemscore.Internal_Hbond>
0.0000

> <Gold.Chemscore.DEClash>
0.0126

> <Gold.Chemscore.DEInternal>
0.0100

> <Gold.Chemscore.Rot>
1.2987

> <Gold.Chemscore.Internal.Correction>
   9.000000E+99

> <Gold.Chemscore.Hbonds>
donor molecule, donor type, donor heavy atom, donor atom, acceptor molecule, acceptor atom, score
      L1  H     8    23       P1  7948  0.94
      L1  H     8    24       P1  7957  0.91
      L1  H     9    11       P1  8028  0.78

> <Gold.Chemscore.Hbond.Weighted>
-9.8643

> <Gold.Chemscore.Metal.Weighted>
-0.0000

> <Gold.Chemscore.Lipo.Weighted>
-5.9106

> <Gold.Chemscore.Internal_Hbond.Weighted>
0.0000

> <Gold.Chemscore.DEClash.Weighted>
0.0126

> <Gold.Chemscore.DEInternal.Weighted>
0.0100

> <Gold.Chemscore.Rot.Weighted>
3.3246

> <Gold.Chemscore.Internal.Correction.Weighted>
   9.000000E+99

> <Gold.Protein.RotatedTorsions>
[ 6907 6896 6895 6894 ] final  106.77 input  -60.11 | X-H torsion
[ 7974 7965 7964 7962 ] final  -89.90 input  175.53 | X-H torsion
[ 8008 7997 7996 7995 ] final  150.28 input   59.86 | X-H torsion
[ 10167 10162 10161 10158 ] final -118.96 input  -65.29 | X-H torsion
[ 10718 10713 10712 10709 ] final  -16.04 input   66.30 | X-H torsion
[ 10763 10752 10751 10750 ] final -138.81 input  -60.55 | X-H torsion
[ 11005 11000 10999 10996 ] final   40.63 input  -57.11 | X-H torsion

> <Gold.Protein.ActiveResidues>
 VAL166  LYS551  ARG553  GLY616  TRP617  ASP618  TYR619  PRO620  LYS621  CYS622 
 ASP623  PHE694  ASN695  SER759  ASP760  ASP761  ALA762  ILE779  LEU786  VAL792 
 PHE793  MET794  SER795  GLU796  ALA797  LYS798  CYS799  TRP800  GLU811  SER814 

> <Gold.Protein.RotatedAtoms>
  152.5181  133.9332  159.7590 H   0  0  0  0  0  0  0  0  0  0  0  0  # atno 6907 bound_to 6896
  150.9678  133.6367  159.2750 H   0  0  0  0  0  0  0  0  0  0  0  0  # atno 6908 bound_to 6896
  151.3589  135.0905  159.9481 H   0  0  0  0  0  0  0  0  0  0  0  0  # atno 6909 bound_to 6896
  145.4337  140.9557  143.2114 H   0  0  0  0  0  0  0  0  0  0  0  0  # atno 7974 bound_to 7965
  156.2722  140.2079  156.5991 H   0  0  0  0  0  0  0  0  0  0  0  0  # atno 8008 bound_to 7997
  154.6921  140.0529  157.0397 H   0  0  0  0  0  0  0  0  0  0  0  0  # atno 8009 bound_to 7997
  155.0852  140.3191  155.4592 H   0  0  0  0  0  0  0  0  0  0  0  0  # atno 8010 bound_to 7997
  140.0518  143.5053  152.2078 H   0  0  0  0  0  0  0  0  0  0  0  0  # atno 10167 bound_to 10162
  156.5932  130.4804  149.6270 H   0  0  0  0  0  0  0  0  0  0  0  0  # atno 10718 bound_to 10713
  154.8627  135.3601  154.5445 H   0  0  0  0  0  0  0  0  0  0  0  0  # atno 10763 bound_to 10752
  153.6065  135.7011  153.5368 H   0  0  0  0  0  0  0  0  0  0  0  0  # atno 10764 bound_to 10752
  153.3246  135.4141  155.1406 H   0  0  0  0  0  0  0  0  0  0  0  0  # atno 10765 bound_to 10752
  140.1912  134.3985  155.8146 H   0  0  0  0  0  0  0  0  0  0  0  0  # atno 11005 bound_to 11000
  144.8166  139.5865  143.7005 LP  0  0  0  0  0  0  0  0  0  0  0  0  # atno 17320 bound_to 7965
  146.2593  139.6374  142.9373 LP  0  0  0  0  0  0  0  0  0  0  0  0  # atno 17321 bound_to 7965
  139.5948  144.7563  151.3312 LP  0  0  0  0  0  0  0  0  0  0  0  0  # atno 17342 bound_to 10162
  140.7213  143.7127  150.7757 LP  0  0  0  0  0  0  0  0  0  0  0  0  # atno 17343 bound_to 10162
  156.2532  130.6919  151.1663 LP  0  0  0  0  0  0  0  0  0  0  0  0  # atno 17370 bound_to 10713
  157.7298  131.0621  150.5755 LP  0  0  0  0  0  0  0  0  0  0  0  0  # atno 17371 bound_to 10713
  141.2226  133.7047  156.8098 LP  0  0  0  0  0  0  0  0  0  0  0  0  # atno 17394 bound_to 11000
  140.2158  134.8794  157.3324 LP  0  0  0  0  0  0  0  0  0  0  0  0  # atno 17395 bound_to 11000

$$$$
