AV-unprocessed.smi:772|AV-procd|sdf|3688|dock8
  -GOLD-   22720 1103D 1   1.00000     0.00000
 Structure written by MMmdl.
 47 48  0  0  0  0  0  0  0  0  2 V2000
  144.7173  142.8317  155.0302 C   0  0  0  0  0  0  0  0  0  0  0  0
  145.9962  142.0230  154.9822 C   0  0  0  0  0  0  0  0  0  0  0  0
  146.9472  142.0523  156.0245 C   0  0  0  0  0  0  0  0  0  0  0  0
  148.1190  141.2764  155.9089 C   0  0  0  0  0  0  0  0  0  0  0  0
  148.3175  140.4885  154.7537 C   0  0  0  0  0  0  0  0  0  0  0  0
  149.5827  139.6659  154.5816 C   0  0  0  0  0  0  0  0  0  0  0  0
  150.8746  140.4536  154.8725 C   0  0  0  0  0  0  0  0  0  0  0  0
  151.0462  140.7339  156.2962 N   0  0  0  0  0  0  0  0  0  0  0  0
  151.9464  140.1553  157.1112 C   0  0  0  0  0  0  0  0  0  0  0  0
  152.7424  139.3049  156.7093 O   0  0  0  0  0  0  0  0  0  0  0  0
  151.9196  140.5991  158.3938 N   0  0  0  0  0  0  0  0  0  0  0  0
  152.7779  140.1256  159.4915 C   0  0  0  0  0  0  0  0  0  0  0  0
  153.9629  141.0901  159.6496 C   0  0  0  0  0  0  0  0  0  0  0  0
  153.3884  142.7544  160.1072 S   0  0  0  0  0  0  0  0  0  0  0  0
  152.0988  143.0122  158.8368 C   0  0  2  0  0  0  0  0  0  0  0  0
  151.3449  144.3528  159.0258 C   0  0  0  0  0  0  0  0  0  0  0  0
  152.3052  145.5132  159.3384 C   0  0  0  0  0  0  0  0  0  0  0  0
  150.2058  144.2898  160.0606 C   0  0  0  0  0  0  0  0  0  0  0  0
  151.1540  141.7905  158.7798 C   0  0  0  0  0  0  0  0  0  0  0  0
  147.3289  140.4949  153.7466 C   0  0  0  0  0  0  0  0  0  0  0  0
  146.2204  141.2520  153.8948 N   0  3  0  0  0  0  0  0  0  0  0  0
  144.6763  143.4491  155.9280 H   0  0  0  0  0  0  0  0  0  0  0  0
  143.8500  142.1712  155.0309 H   0  0  0  0  0  0  0  0  0  0  0  0
  144.6497  143.4887  154.1624 H   0  0  0  0  0  0  0  0  0  0  0  0
  146.7860  142.6635  156.9006 H   0  0  0  0  0  0  0  0  0  0  0  0
  148.8602  141.2965  156.6947 H   0  0  0  0  0  0  0  0  0  0  0  0
  149.5338  138.7903  155.2304 H   0  0  0  0  0  0  0  0  0  0  0  0
  149.6114  139.2836  153.5609 H   0  0  0  0  0  0  0  0  0  0  0  0
  151.7355  139.8738  154.5390 H   0  0  0  0  0  0  0  0  0  0  0  0
  150.8922  141.3781  154.2930 H   0  0  0  0  0  0  0  0  0  0  0  0
  150.4276  141.4231  156.6990 H   0  0  0  0  0  0  0  0  0  0  0  0
  152.2066  140.0851  160.4200 H   0  0  0  0  0  0  0  0  0  0  0  0
  153.1410  139.1083  159.3442 H   0  0  0  0  0  0  0  0  0  0  0  0
  154.6447  140.7320  160.4210 H   0  0  0  0  0  0  0  0  0  0  0  0
  154.5326  141.1516  158.7218 H   0  0  0  0  0  0  0  0  0  0  0  0
  152.6181  143.0666  157.8787 H   0  0  0  0  0  0  0  0  0  0  0  0
  150.8841  144.5923  158.0665 H   0  0  0  0  0  0  0  0  0  0  0  0
  152.7886  145.3877  160.3073 H   0  0  0  0  0  0  0  0  0  0  0  0
  151.7737  146.4650  159.3582 H   0  0  0  0  0  0  0  0  0  0  0  0
  153.0876  145.5924  158.5833 H   0  0  0  0  0  0  0  0  0  0  0  0
  150.5791  144.0732  161.0615 H   0  0  0  0  0  0  0  0  0  0  0  0
  149.4695  143.5285  159.8054 H   0  0  0  0  0  0  0  0  0  0  0  0
  149.6760  145.2414  160.1109 H   0  0  0  0  0  0  0  0  0  0  0  0
  150.3321  141.9812  158.0878 H   0  0  0  0  0  0  0  0  0  0  0  0
  150.6804  141.6229  159.7476 H   0  0  0  0  0  0  0  0  0  0  0  0
  147.3970  139.9310  152.8276 H   0  0  0  0  0  0  0  0  0  0  0  0
  145.5228  141.2445  153.1503 H   0  0  0  0  0  0  0  0  0  0  0  0
  1  2  1  0  0  0  0
  1 22  1  0  0  0  0
  1 23  1  0  0  0  0
  1 24  1  0  0  0  0
  2 21  1  0  0  0  0
  2  3  2  0  0  0  0
  3  4  1  0  0  0  0
  3 25  1  0  0  0  0
  4  5  2  0  0  0  0
  4 26  1  0  0  0  0
  5  6  1  0  0  0  0
  5 20  1  0  0  0  0
  6  7  1  0  0  0  0
  6 27  1  0  0  0  0
  6 28  1  0  0  0  0
  7  8  1  0  0  0  0
  7 29  1  0  0  0  0
  7 30  1  0  0  0  0
  8  9  1  0  0  0  0
  8 31  1  0  0  0  0
  9 10  2  0  0  0  0
  9 11  1  0  0  0  0
 11 19  1  0  0  0  0
 11 12  1  0  0  0  0
 12 13  1  0  0  0  0
 12 32  1  0  0  0  0
 12 33  1  0  0  0  0
 13 14  1  0  0  0  0
 13 34  1  0  0  0  0
 13 35  1  0  0  0  0
 14 15  1  0  0  0  0
 15 16  1  0  0  0  0
 15 19  1  0  0  0  0
 15 36  1  0  0  0  0
 16 17  1  0  0  0  0
 16 18  1  0  0  0  0
 16 37  1  0  0  0  0
 17 38  1  0  0  0  0
 17 39  1  0  0  0  0
 17 40  1  0  0  0  0
 18 41  1  0  0  0  0
 18 42  1  0  0  0  0
 18 43  1  0  0  0  0
 19 44  1  0  0  0  0
 19 45  1  0  0  0  0
 20 21  2  0  0  0  0
 20 46  1  0  0  0  0
 21 47  1  0  0  0  0
M  CHG  1  21   1
M  END
> <s_m_source_file>
AV-unprocessed.smi

> <i_m_source_file_index>
772

> <i_lp_mmshare_version>
43012

> <i_f3d_flags>
0

> <s_epik_input>
W0NIM11jMVtjSF1bY0hdYyhbY0hdbjEpW0NIMl1bQ0gyXVtOSF1DKD1PKU4yW0NIMl1bQ0gyXVNbQ0BIXShbQ0gyXTIpW0NIXShbQ0gzXSlbQ0gzXQ==

> <s_epik_cmdline>
J2VwaWtfcHl0aG9uJywgJy1waCcsICc3LjAnLCAnLXRuJywgJzgnLCAnLW1hJywgJzIwMCcsICctbWV0YWxfYmluZGluZycsICctaW1hZScsICc8aW5maWxlLm1hZT4nLCAnLW9tYWUnLCAnPG91dGZpbGUubWFlPic=

> <r_epik_Ionization_Penalty>
1.41908

> <r_epik_Ionization_Penalty_Charging>
1.41903

> <r_epik_Ionization_Penalty_Neutral>
4.72921e-05

> <r_epik_State_Penalty>
1.50265

> <r_epik_Charging_Adjusted_Penalty>
2.92168

> <i_epik_Tot_Q>
1

> <i_epik_Tot_abs_Q>
1

> <r_epik_Metal_State_Penalty>
1.55496

> <b_epik_Metal_Only>
0

> <s_lp_Force_Field>
OPLS_2005

> <r_lp_Energy>
32.4452

> <b_lp_Chiralities_Consistent>
1

> <s_lp_Variant>
AV-unprocessed.smi:772-4

> <Gold.Version>
5.8.1

> <Gold.Id.Protein>
6NUR|6NUR_protein|mol2

> <Gold.PLP.Fitness>
45.5718

> <Gold.PLP.PLP>
-39.3142

> <Gold.PLP.part.hbond>
-2.0000

> <Gold.PLP.part.metal>
0.0000

> <Gold.PLP.part.buried>
-2.7520

> <Gold.PLP.part.nonpolar>
-34.1234

> <Gold.PLP.part.repulsive>
0.1188

> <Gold.PLP.ligand.clash>
1.7600

> <Gold.PLP.ligand.torsion>
0.5319

> <Gold.PLP.Chemscore.Hbond>
3.0000

> <Gold.PLP.Chemscore.CHOScore>
0.0000

> <Gold.PLP.Chemscore.Metal>
0.0000

> <Gold.Chemscore.Hbonds>
donor molecule, donor type, donor heavy atom, donor atom, acceptor molecule, acceptor atom, score
      L1  H    21    47       P1 10175  1.46
      P1  H  7997  8010       L1    10  1.00

> <Gold.PLP.Chemscore.Internal.Correction>
0.0814

> <Gold.Rescore>
     Score         DG    S(hbond)    S(metal)    S(lipo)     H(rot)  DE(clash)    DE(int)     intcor
     18.16     -21.61       1.96        0.00     112.26       1.39       2.12       1.33       ----

> <Gold.Chemscore.Fitness>
18.1568

> <Gold.Chemscore.DG>
-21.6059

> <Gold.Chemscore.ZeroCoef>
-5.4800

> <Gold.Chemscore.Hbond>
1.9647

> <Gold.Chemscore.Metal>
0.0000

> <Gold.Chemscore.Lipo>
112.2618

> <Gold.Chemscore.Internal_Hbond>
0.0000

> <Gold.Chemscore.DEClash>
2.1224

> <Gold.Chemscore.DEInternal>
1.3267

> <Gold.Chemscore.Rot>
1.3949

> <Gold.Chemscore.Internal.Correction>
   9.000000E+99

> <Gold.Chemscore.Hbonds>
donor molecule, donor type, donor heavy atom, donor atom, acceptor molecule, acceptor atom, score
      L1  H    21    47       P1 10175  0.14
      P1  H  7997  8010       L1    10  0.65

> <Gold.Chemscore.Hbond.Weighted>
-6.5622

> <Gold.Chemscore.Metal.Weighted>
-0.0000

> <Gold.Chemscore.Lipo.Weighted>
-13.1346

> <Gold.Chemscore.Internal_Hbond.Weighted>
0.0000

> <Gold.Chemscore.DEClash.Weighted>
2.1224

> <Gold.Chemscore.DEInternal.Weighted>
1.3267

> <Gold.Chemscore.Rot.Weighted>
3.5709

> <Gold.Chemscore.Internal.Correction.Weighted>
   9.000000E+99

> <Gold.Protein.RotatedTorsions>
[ 6907 6896 6895 6894 ] final -179.37 input  -60.11 | X-H torsion
[ 7974 7965 7964 7962 ] final   94.77 input  175.53 | X-H torsion
[ 8008 7997 7996 7995 ] final   58.27 input   59.86 | X-H torsion
[ 10167 10162 10161 10158 ] final -170.54 input  -65.29 | X-H torsion
[ 10718 10713 10712 10709 ] final   42.47 input   66.30 | X-H torsion
[ 10763 10752 10751 10750 ] final   19.95 input  -60.55 | X-H torsion
[ 11005 11000 10999 10996 ] final  147.76 input  -57.11 | X-H torsion

> <Gold.Protein.ActiveResidues>
 VAL166  LYS551  ARG553  GLY616  TRP617  ASP618  TYR619  PRO620  LYS621  CYS622 
 ASP623  PHE694  ASN695  SER759  ASP760  ASP761  ALA762  ILE779  LEU786  VAL792 
 PHE793  MET794  SER795  GLU796  ALA797  LYS798  CYS799  TRP800  GLU811  SER814 

> <Gold.Protein.RotatedAtoms>
  151.6524  133.3320  159.3154 H   0  0  0  0  0  0  0  0  0  0  0  0  # atno 6907 bound_to 6896
  150.7954  134.7013  159.6561 H   0  0  0  0  0  0  0  0  0  0  0  0  # atno 6908 bound_to 6896
  152.4040  134.6243  160.0110 H   0  0  0  0  0  0  0  0  0  0  0  0  # atno 6909 bound_to 6896
  145.4612  139.2287  143.2986 H   0  0  0  0  0  0  0  0  0  0  0  0  # atno 7974 bound_to 7965
  155.5473  140.3485  155.4460 H   0  0  0  0  0  0  0  0  0  0  0  0  # atno 8008 bound_to 7997
  156.0608  140.1339  156.9969 H   0  0  0  0  0  0  0  0  0  0  0  0  # atno 8009 bound_to 7997
  154.4479  140.0985  156.6499 H   0  0  0  0  0  0  0  0  0  0  0  0  # atno 8010 bound_to 7997
  139.5856  144.1327  152.1570 H   0  0  0  0  0  0  0  0  0  0  0  0  # atno 10167 bound_to 10162
  157.4051  130.7882  149.7382 H   0  0  0  0  0  0  0  0  0  0  0  0  # atno 10718 bound_to 10713
  153.1119  135.6698  153.9486 H   0  0  0  0  0  0  0  0  0  0  0  0  # atno 10763 bound_to 10752
  153.9027  135.3034  155.3450 H   0  0  0  0  0  0  0  0  0  0  0  0  # atno 10764 bound_to 10752
  154.7538  135.5022  153.9414 H   0  0  0  0  0  0  0  0  0  0  0  0  # atno 10765 bound_to 10752
  140.0902  134.9045  157.1639 H   0  0  0  0  0  0  0  0  0  0  0  0  # atno 11005 bound_to 11000
  146.2450  140.5381  142.8918 LP  0  0  0  0  0  0  0  0  0  0  0  0  # atno 17320 bound_to 7965
  144.8002  140.6198  143.6483 LP  0  0  0  0  0  0  0  0  0  0  0  0  # atno 17321 bound_to 7965
  140.0889  144.5637  150.7068 LP  0  0  0  0  0  0  0  0  0  0  0  0  # atno 17342 bound_to 10162
  140.7128  143.2519  151.4529 LP  0  0  0  0  0  0  0  0  0  0  0  0  # atno 17343 bound_to 10162
  155.9834  130.4000  150.3364 LP  0  0  0  0  0  0  0  0  0  0  0  0  # atno 17370 bound_to 10713
  157.1496  131.0317  151.2891 LP  0  0  0  0  0  0  0  0  0  0  0  0  # atno 17371 bound_to 10713
  140.3363  134.2754  155.7219 LP  0  0  0  0  0  0  0  0  0  0  0  0  # atno 17394 bound_to 11000
  141.2075  133.7803  157.0112 LP  0  0  0  0  0  0  0  0  0  0  0  0  # atno 17395 bound_to 11000

$$$$
