AV-unprocessed.smi:1750|AV-procd|sdf|7055|dock1
  -GOLD-   22720 8273D 1   1.00000     0.00000
 Structure written by MMmdl.
 35 36  0  0  0  0  0  0  0  0  2 V2000
  152.4215  144.7681  158.4454 C   0  0  0  0  0  0  0  0  0  0  0  0
  151.8082  143.4151  158.8221 C   0  0  0  0  0  0  0  0  0  0  0  0
  152.8523  142.2915  158.8846 C   0  0  0  0  0  0  0  0  0  0  0  0
  152.2792  140.9577  158.5391 C   0  0  0  0  0  0  0  0  0  0  0  0
  153.0299  139.8651  158.3766 N   0  0  0  0  0  0  0  0  0  0  0  0
  152.2710  138.7563  158.0313 N   0  0  0  0  0  0  0  0  0  0  0  0
  150.9639  139.0300  157.9123 C   0  0  0  0  0  0  0  0  0  0  0  0
  150.0575  138.0942  157.5850 N   0  5  0  0  0  0  0  0  0  0  0  0
  149.8331  137.0509  158.4159 C   0  0  0  0  0  0  0  0  0  0  0  0
  150.5196  136.7310  159.3892 O   0  0  0  0  0  0  0  0  0  0  0  0
  148.7490  136.3307  158.0989 N   0  0  0  0  0  0  0  0  0  0  0  0
  148.2811  135.1534  158.8185 C   0  0  0  0  0  0  0  0  0  0  0  0
  148.2075  135.4356  160.3253 C   0  0  1  0  0  0  0  0  0  0  0  0
  147.5023  136.7453  160.6759 C   0  0  0  0  0  0  0  0  0  0  0  0
  146.9476  136.4973  162.0711 C   0  0  0  0  0  0  0  0  0  0  0  0
  147.1108  134.9892  162.2777 C   0  0  0  0  0  0  0  0  0  0  0  0
  147.4021  134.4731  160.9875 O   0  0  0  0  0  0  0  0  0  0  0  0
  150.5654  140.7145  158.2476 S   0  0  0  0  0  0  0  0  0  0  0  0
  151.6554  145.5423  158.4001 H   0  0  0  0  0  0  0  0  0  0  0  0
  152.9071  144.7225  157.4702 H   0  0  0  0  0  0  0  0  0  0  0  0
  153.1667  145.0793  159.1779 H   0  0  0  0  0  0  0  0  0  0  0  0
  151.3095  143.5045  159.7881 H   0  0  0  0  0  0  0  0  0  0  0  0
  151.0351  143.1554  158.0980 H   0  0  0  0  0  0  0  0  0  0  0  0
  153.6766  142.5065  158.2031 H   0  0  0  0  0  0  0  0  0  0  0  0
  153.2819  142.2341  159.8851 H   0  0  0  0  0  0  0  0  0  0  0  0
  148.2072  136.6251  157.2997 H   0  0  0  0  0  0  0  0  0  0  0  0
  147.2913  134.8750  158.4534 H   0  0  0  0  0  0  0  0  0  0  0  0
  148.9485  134.3145  158.6167 H   0  0  0  0  0  0  0  0  0  0  0  0
  149.2075  135.4274  160.7642 H   0  0  0  0  0  0  0  0  0  0  0  0
  148.1725  137.6044  160.6316 H   0  0  0  0  0  0  0  0  0  0  0  0
  146.6783  136.9274  159.9847 H   0  0  0  0  0  0  0  0  0  0  0  0
  147.4958  137.0548  162.8312 H   0  0  0  0  0  0  0  0  0  0  0  0
  145.9002  136.7960  162.1256 H   0  0  0  0  0  0  0  0  0  0  0  0
  147.9498  134.7819  162.9435 H   0  0  0  0  0  0  0  0  0  0  0  0
  146.2193  134.5237  162.6984 H   0  0  0  0  0  0  0  0  0  0  0  0
  1  2  1  0  0  0  0
  1 19  1  0  0  0  0
  1 20  1  0  0  0  0
  1 21  1  0  0  0  0
  2  3  1  0  0  0  0
  2 22  1  0  0  0  0
  2 23  1  0  0  0  0
  3  4  1  0  0  0  0
  3 24  1  0  0  0  0
  3 25  1  0  0  0  0
  4 18  1  0  0  0  0
  4  5  2  0  0  0  0
  5  6  1  0  0  0  0
  6  7  2  0  0  0  0
  7  8  1  0  0  0  0
  7 18  1  0  0  0  0
  8  9  1  0  0  0  0
  9 10  2  0  0  0  0
  9 11  1  0  0  0  0
 11 12  1  0  0  0  0
 11 26  1  0  0  0  0
 12 13  1  0  0  0  0
 12 27  1  0  0  0  0
 12 28  1  0  0  0  0
 13 17  1  0  0  0  0
 13 14  1  0  0  0  0
 13 29  1  0  0  0  0
 14 15  1  0  0  0  0
 14 30  1  0  0  0  0
 14 31  1  0  0  0  0
 15 16  1  0  0  0  0
 15 32  1  0  0  0  0
 15 33  1  0  0  0  0
 16 17  1  0  0  0  0
 16 34  1  0  0  0  0
 16 35  1  0  0  0  0
M  CHG  1   8  -1
M  END
> <s_m_source_file>
AV-unprocessed.smi

> <i_m_source_file_index>
1750

> <i_lp_mmshare_version>
43012

> <i_f3d_flags>
0

> <s_epik_input>
W0NIM11bQ0gyXVtDSDJdYzFubmMoczEpW05IXUMoPU8pW05IXVtDSDJdW0NAQEhdMltDSDJdW0NIMl1bQ0gyXU8y

> <s_epik_cmdline>
J2VwaWtfcHl0aG9uJywgJy1waCcsICc3LjAnLCAnLXRuJywgJzgnLCAnLW1hJywgJzIwMCcsICctbWV0YWxfYmluZGluZycsICctaW1hZScsICc8aW5maWxlLm1hZT4nLCAnLW9tYWUnLCAnPG91dGZpbGUubWFlPic=

> <r_lp_tautomer_probability>
1

> <r_epik_Ionization_Penalty>
4.22484

> <r_epik_Ionization_Penalty_Charging>
4.21437

> <r_epik_Ionization_Penalty_Neutral>
0.0104685

> <r_epik_State_Penalty>
4.21389

> <r_epik_Charging_Adjusted_Penalty>
8.42826

> <i_epik_Tot_Q>
-1

> <i_epik_Tot_abs_Q>
1

> <r_epik_Metal_State_Penalty>
0.69377

> <b_epik_Metal_Only>
1

> <s_lp_Force_Field>
OPLS_2005

> <r_lp_Energy>
10.9062

> <b_lp_Chiralities_Consistent>
1

> <s_lp_Variant>
AV-unprocessed.smi:1750-4

> <Gold.Version>
5.8.1

> <Gold.Id.Protein>
6NUR|6NUR_protein|mol2

> <Gold.PLP.Fitness>
36.3668

> <Gold.PLP.PLP>
-32.3832

> <Gold.PLP.part.hbond>
-2.0000

> <Gold.PLP.part.metal>
0.0000

> <Gold.PLP.part.buried>
-4.5089

> <Gold.PLP.part.nonpolar>
-25.7980

> <Gold.PLP.part.repulsive>
0.0728

> <Gold.PLP.ligand.clash>
0.0000

> <Gold.PLP.ligand.torsion>
1.0338

> <Gold.PLP.Chemscore.Hbond>
1.9913

> <Gold.PLP.Chemscore.CHOScore>
0.0000

> <Gold.PLP.Chemscore.Metal>
0.0000

> <Gold.Chemscore.Hbonds>
donor molecule, donor type, donor heavy atom, donor atom, acceptor molecule, acceptor atom, score
      P1  H  6896  6909       L1    10  1.00
      P1  H  7997  8008       L1     5  0.89

> <Gold.PLP.Chemscore.Internal.Correction>
0.0776

> <Gold.Rescore>
     Score         DG    S(hbond)    S(metal)    S(lipo)     H(rot)  DE(clash)    DE(int)     intcor
     15.23     -17.75       1.94        0.00      84.25       1.59       0.01       2.51       ----

> <Gold.Chemscore.Fitness>
15.2288

> <Gold.Chemscore.DG>
-17.7461

> <Gold.Chemscore.ZeroCoef>
-5.4800

> <Gold.Chemscore.Hbond>
1.9417

> <Gold.Chemscore.Metal>
0.0000

> <Gold.Chemscore.Lipo>
84.2463

> <Gold.Chemscore.Internal_Hbond>
0.0000

> <Gold.Chemscore.DEClash>
0.0102

> <Gold.Chemscore.DEInternal>
2.5071

> <Gold.Chemscore.Rot>
1.5922

> <Gold.Chemscore.Internal.Correction>
   9.000000E+99

> <Gold.Chemscore.Hbonds>
donor molecule, donor type, donor heavy atom, donor atom, acceptor molecule, acceptor atom, score
      P1  H  6896  6909       L1    10  0.98
      P1  H  7997  8008       L1     5  0.49

> <Gold.Chemscore.Hbond.Weighted>
-6.4853

> <Gold.Chemscore.Metal.Weighted>
-0.0000

> <Gold.Chemscore.Lipo.Weighted>
-9.8568

> <Gold.Chemscore.Internal_Hbond.Weighted>
0.0000

> <Gold.Chemscore.DEClash.Weighted>
0.0102

> <Gold.Chemscore.DEInternal.Weighted>
2.5071

> <Gold.Chemscore.Rot.Weighted>
4.0761

> <Gold.Chemscore.Internal.Correction.Weighted>
   9.000000E+99

> <Gold.Protein.RotatedTorsions>
[ 6907 6896 6895 6894 ] final   77.26 input  -60.11 | X-H torsion
[ 7974 7965 7964 7962 ] final  150.74 input  175.53 | X-H torsion
[ 8008 7997 7996 7995 ] final  -79.66 input   59.86 | X-H torsion
[ 10167 10162 10161 10158 ] final  120.17 input  -65.29 | X-H torsion
[ 10718 10713 10712 10709 ] final   -7.35 input   66.30 | X-H torsion
[ 10763 10752 10751 10750 ] final -167.72 input  -60.55 | X-H torsion
[ 11005 11000 10999 10996 ] final  142.96 input  -57.11 | X-H torsion

> <Gold.Protein.ActiveResidues>
 VAL166  LYS551  ARG553  GLY616  TRP617  ASP618  TYR619  PRO620  LYS621  CYS622 
 ASP623  PHE694  ASN695  SER759  ASP760  ASP761  ALA762  ILE779  LEU786  VAL792 
 PHE793  MET794  SER795  GLU796  ALA797  LYS798  CYS799  TRP800  GLU811  SER814 

> <Gold.Protein.RotatedAtoms>
  152.5110  134.3844  159.9362 H   0  0  0  0  0  0  0  0  0  0  0  0  # atno 6907 bound_to 6896
  151.3802  133.3818  159.2717 H   0  0  0  0  0  0  0  0  0  0  0  0  # atno 6908 bound_to 6896
  150.9510  134.8930  159.7731 H   0  0  0  0  0  0  0  0  0  0  0  0  # atno 6909 bound_to 6896
  144.8342  139.6448  143.6045 H   0  0  0  0  0  0  0  0  0  0  0  0  # atno 7974 bound_to 7965
  154.5807  140.0675  156.9100 H   0  0  0  0  0  0  0  0  0  0  0  0  # atno 8008 bound_to 7997
  155.2468  140.3348  155.4268 H   0  0  0  0  0  0  0  0  0  0  0  0  # atno 8009 bound_to 7997
  156.2187  140.1789  156.7513 H   0  0  0  0  0  0  0  0  0  0  0  0  # atno 8010 bound_to 7997
  139.5999  144.7053  151.3088 H   0  0  0  0  0  0  0  0  0  0  0  0  # atno 10167 bound_to 10162
  156.7185  130.5144  149.5874 H   0  0  0  0  0  0  0  0  0  0  0  0  # atno 10718 bound_to 10713
  154.6703  135.2938  154.9751 H   0  0  0  0  0  0  0  0  0  0  0  0  # atno 10763 bound_to 10752
  154.0780  135.6608  153.4837 H   0  0  0  0  0  0  0  0  0  0  0  0  # atno 10764 bound_to 10752
  153.0482  135.5190  154.7695 H   0  0  0  0  0  0  0  0  0  0  0  0  # atno 10765 bound_to 10752
  140.0517  134.9252  157.1028 H   0  0  0  0  0  0  0  0  0  0  0  0  # atno 11005 bound_to 11000
  146.2642  139.6481  142.9341 LP  0  0  0  0  0  0  0  0  0  0  0  0  # atno 17320 bound_to 7965
  145.4830  141.0438  143.2635 LP  0  0  0  0  0  0  0  0  0  0  0  0  # atno 17321 bound_to 7965
  140.7241  143.7053  150.7812 LP  0  0  0  0  0  0  0  0  0  0  0  0  # atno 17342 bound_to 10162
  140.0627  143.5139  152.2619 LP  0  0  0  0  0  0  0  0  0  0  0  0  # atno 17343 bound_to 10162
  156.1611  130.6374  151.0719 LP  0  0  0  0  0  0  0  0  0  0  0  0  # atno 17370 bound_to 10713
  157.6907  131.0811  150.7115 LP  0  0  0  0  0  0  0  0  0  0  0  0  # atno 17371 bound_to 10713
  140.3908  134.2187  155.7166 LP  0  0  0  0  0  0  0  0  0  0  0  0  # atno 17394 bound_to 11000
  141.1933  133.8154  157.0804 LP  0  0  0  0  0  0  0  0  0  0  0  0  # atno 17395 bound_to 11000

$$$$
