AV-unprocessed.smi:2340|AV-procd|sdf|9351|dock8
  -GOLD-   2272012573D 1   1.00000     0.00000
 Structure written by MMmdl.
 40 41  0  0  0  0  0  0  0  0  1 V2000
  151.2231  143.2357  157.2934 C   0  0  0  0  0  0  0  0  0  0  0  0
  150.9296  141.7847  157.0770 C   0  0  0  0  0  0  0  0  0  0  0  0
  151.0229  140.7737  158.0004 C   0  0  0  0  0  0  0  0  0  0  0  0
  150.5651  139.2337  157.3257 S   0  0  0  0  0  0  0  0  0  0  0  0
  150.2687  140.0308  155.7830 C   0  0  0  0  0  0  0  0  0  0  0  0
  149.7398  139.3272  154.5679 C   0  0  1  0  0  0  0  0  0  0  0  0
  150.6674  138.1946  154.1051 C   0  0  0  0  0  0  0  0  0  0  0  0
  148.2753  138.8562  154.7336 C   0  0  0  0  0  0  0  0  0  0  0  0
  147.8410  137.9526  153.6712 N   0  0  0  0  0  0  0  0  0  0  0  0
  146.6131  137.4296  153.5584 C   0  0  0  0  0  0  0  0  0  0  0  0
  145.6652  137.7295  154.2845 O   0  0  0  0  0  0  0  0  0  0  0  0
  146.5583  136.5061  152.5901 N   0  0  0  0  0  0  0  0  0  0  0  0
  145.4102  135.6478  152.3184 C   0  0  1  0  0  0  0  0  0  0  0  0
  145.0079  135.6933  150.8579 C   0  0  0  0  0  0  0  0  0  0  0  0
  144.3139  134.3469  150.6575 C   0  0  0  0  0  0  0  0  0  0  0  0
  144.8061  133.4794  151.6755 O   0  0  0  0  0  0  0  0  0  0  0  0
  145.7525  134.1634  152.4881 C   0  0  2  0  0  0  0  0  0  0  0  0
  145.6826  133.6500  153.9317 C   0  0  0  0  0  0  0  0  0  0  0  0
  150.5047  141.3456  155.8211 N   0  0  0  0  0  0  0  0  0  0  0  0
  151.4919  143.4384  158.3303 H   0  0  0  0  0  0  0  0  0  0  0  0
  150.3566  143.8519  157.0518 H   0  0  0  0  0  0  0  0  0  0  0  0
  152.0509  143.5674  156.6665 H   0  0  0  0  0  0  0  0  0  0  0  0
  151.3254  140.8416  159.0349 H   0  0  0  0  0  0  0  0  0  0  0  0
  149.7436  140.0636  153.7626 H   0  0  0  0  0  0  0  0  0  0  0  0
  151.6739  138.5669  153.9118 H   0  0  0  0  0  0  0  0  0  0  0  0
  150.3011  137.7402  153.1841 H   0  0  0  0  0  0  0  0  0  0  0  0
  150.7412  137.4073  154.8558 H   0  0  0  0  0  0  0  0  0  0  0  0
  148.1281  138.3888  155.7084 H   0  0  0  0  0  0  0  0  0  0  0  0
  147.6115  139.7205  154.7026 H   0  0  0  0  0  0  0  0  0  0  0  0
  148.5499  137.6412  153.0235 H   0  0  0  0  0  0  0  0  0  0  0  0
  147.3931  136.3338  152.0491 H   0  0  0  0  0  0  0  0  0  0  0  0
  144.5494  135.9153  152.9348 H   0  0  0  0  0  0  0  0  0  0  0  0
  144.3669  136.5419  150.6164 H   0  0  0  0  0  0  0  0  0  0  0  0
  145.8919  135.7446  150.2201 H   0  0  0  0  0  0  0  0  0  0  0  0
  143.2353  134.4478  150.7826 H   0  0  0  0  0  0  0  0  0  0  0  0
  144.5012  133.9354  149.6654 H   0  0  0  0  0  0  0  0  0  0  0  0
  146.7425  133.9623  152.0742 H   0  0  0  0  0  0  0  0  0  0  0  0
  146.4197  134.1457  154.5633 H   0  0  0  0  0  0  0  0  0  0  0  0
  145.8813  132.5790  153.9734 H   0  0  0  0  0  0  0  0  0  0  0  0
  144.6978  133.8243  154.3657 H   0  0  0  0  0  0  0  0  0  0  0  0
  1  2  1  0  0  0  0
  1 20  1  0  0  0  0
  1 21  1  0  0  0  0
  1 22  1  0  0  0  0
  2 19  1  0  0  0  0
  2  3  2  0  0  0  0
  3  4  1  0  0  0  0
  3 23  1  0  0  0  0
  4  5  1  0  0  0  0
  5  6  1  0  0  0  0
  5 19  2  0  0  0  0
  6  7  1  0  0  0  0
  6  8  1  0  0  0  0
  6 24  1  0  0  0  0
  7 25  1  0  0  0  0
  7 26  1  0  0  0  0
  7 27  1  0  0  0  0
  8  9  1  0  0  0  0
  8 28  1  0  0  0  0
  8 29  1  0  0  0  0
  9 10  1  0  0  0  0
  9 30  1  0  0  0  0
 10 11  2  0  0  0  0
 10 12  1  0  0  0  0
 12 13  1  0  0  0  0
 12 31  1  0  0  0  0
 13 17  1  0  0  0  0
 13 14  1  0  0  0  0
 13 32  1  0  0  0  0
 14 15  1  0  0  0  0
 14 33  1  0  0  0  0
 14 34  1  0  0  0  0
 15 16  1  0  0  0  0
 15 35  1  0  0  0  0
 15 36  1  0  0  0  0
 16 17  1  0  0  0  0
 17 18  1  0  0  0  0
 17 37  1  0  0  0  0
 18 38  1  0  0  0  0
 18 39  1  0  0  0  0
 18 40  1  0  0  0  0
M  END
> <s_m_source_file>
AV-unprocessed.smi

> <i_m_source_file_index>
2340

> <i_lp_mmshare_version>
43012

> <i_f3d_flags>
0

> <s_epik_input>
W0NIM11jMVtjSF1zYyhuMSlbQ0BIXShbQ0gzXSlbQ0gyXVtOSF1DKD1PKVtOSF1bQ0BASF0yW0NIMl1bQ0gyXU9bQ0BIXTJbQ0gzXQ==

> <s_epik_cmdline>
J2VwaWtfcHl0aG9uJywgJy1waCcsICc3LjAnLCAnLXRuJywgJzgnLCAnLW1hJywgJzIwMCcsICctbWV0YWxfYmluZGluZycsICctaW1hZScsICc8aW5maWxlLm1hZT4nLCAnLW9tYWUnLCAnPG91dGZpbGUubWFlPic=

> <r_epik_Ionization_Penalty>
0.00156622

> <r_epik_Ionization_Penalty_Charging>
0

> <r_epik_Ionization_Penalty_Neutral>
0.00156622

> <r_epik_State_Penalty>
0.00101902

> <r_epik_Charging_Adjusted_Penalty>
0.00101902

> <i_epik_Tot_Q>
0

> <i_epik_Tot_abs_Q>
0

> <r_epik_Metal_State_Penalty>
-0

> <b_epik_Metal_Only>
0

> <s_lp_Force_Field>
OPLS_2005

> <r_lp_Energy>
3.95119

> <b_lp_Chiralities_Consistent>
1

> <s_lp_Variant>
AV-unprocessed.smi:2340-8

> <Gold.Version>
5.8.1

> <Gold.Id.Protein>
6NUR|6NUR_protein|mol2

> <Gold.PLP.Fitness>
32.2895

> <Gold.PLP.PLP>
-27.0578

> <Gold.PLP.part.hbond>
-1.9596

> <Gold.PLP.part.metal>
0.0000

> <Gold.PLP.part.buried>
-4.5523

> <Gold.PLP.part.nonpolar>
-21.8536

> <Gold.PLP.part.repulsive>
0.3021

> <Gold.PLP.ligand.clash>
0.0000

> <Gold.PLP.ligand.torsion>
0.2466

> <Gold.PLP.Chemscore.Hbond>
1.8640

> <Gold.PLP.Chemscore.CHOScore>
0.0000

> <Gold.PLP.Chemscore.Metal>
0.0000

> <Gold.Chemscore.Hbonds>
donor molecule, donor type, donor heavy atom, donor atom, acceptor molecule, acceptor atom, score
      L1  H     9    30       P1  7948  0.85
      L1  H    12    31       P1  7948  1.00

> <Gold.PLP.Chemscore.Internal.Correction>
0.1329

> <Gold.Rescore>
     Score         DG    S(hbond)    S(metal)    S(lipo)     H(rot)  DE(clash)    DE(int)     intcor
     16.00     -16.43       1.88        0.00      73.30       1.53       0.19       0.24       ----

> <Gold.Chemscore.Fitness>
16.0024

> <Gold.Chemscore.DG>
-16.4252

> <Gold.Chemscore.ZeroCoef>
-5.4800

> <Gold.Chemscore.Hbond>
1.8840

> <Gold.Chemscore.Metal>
0.0000

> <Gold.Chemscore.Lipo>
73.2994

> <Gold.Chemscore.Internal_Hbond>
0.0000

> <Gold.Chemscore.DEClash>
0.1871

> <Gold.Chemscore.DEInternal>
0.2357

> <Gold.Chemscore.Rot>
1.5325

> <Gold.Chemscore.Internal.Correction>
   9.000000E+99

> <Gold.Chemscore.Hbonds>
donor molecule, donor type, donor heavy atom, donor atom, acceptor molecule, acceptor atom, score
      L1  H     9    30       P1  7948  0.85
      L1  H    12    31       P1  7948  0.94

> <Gold.Chemscore.Hbond.Weighted>
-6.2925

> <Gold.Chemscore.Metal.Weighted>
-0.0000

> <Gold.Chemscore.Lipo.Weighted>
-8.5760

> <Gold.Chemscore.Internal_Hbond.Weighted>
0.0000

> <Gold.Chemscore.DEClash.Weighted>
0.1871

> <Gold.Chemscore.DEInternal.Weighted>
0.2357

> <Gold.Chemscore.Rot.Weighted>
3.9233

> <Gold.Chemscore.Internal.Correction.Weighted>
   9.000000E+99

> <Gold.Protein.RotatedTorsions>
[ 6907 6896 6895 6894 ] final    7.63 input  -60.11 | X-H torsion
[ 7974 7965 7964 7962 ] final -146.98 input  175.53 | X-H torsion
[ 8008 7997 7996 7995 ] final  147.65 input   59.86 | X-H torsion
[ 10167 10162 10161 10158 ] final   84.21 input  -65.29 | X-H torsion
[ 10718 10713 10712 10709 ] final   98.58 input   66.30 | X-H torsion
[ 10763 10752 10751 10750 ] final  -89.67 input  -60.55 | X-H torsion
[ 11005 11000 10999 10996 ] final -150.66 input  -57.11 | X-H torsion

> <Gold.Protein.ActiveResidues>
 VAL166  LYS551  ARG553  GLY616  TRP617  ASP618  TYR619  PRO620  LYS621  CYS622 
 ASP623  PHE694  ASN695  SER759  ASP760  ASP761  ALA762  ILE779  LEU786  VAL792 
 PHE793  MET794  SER795  GLU796  ALA797  LYS798  CYS799  TRP800  GLU811  SER814 

> <Gold.Protein.RotatedAtoms>
  151.6929  135.0943  160.0236 H   0  0  0  0  0  0  0  0  0  0  0  0  # atno 6907 bound_to 6896
  152.3767  133.6487  159.6138 H   0  0  0  0  0  0  0  0  0  0  0  0  # atno 6908 bound_to 6896
  150.7715  133.9098  159.3407 H   0  0  0  0  0  0  0  0  0  0  0  0  # atno 6909 bound_to 6896
  144.8124  140.5387  143.5634 H   0  0  0  0  0  0  0  0  0  0  0  0  # atno 7974 bound_to 7965
  156.2817  140.2150  156.5572 H   0  0  0  0  0  0  0  0  0  0  0  0  # atno 8008 bound_to 7997
  154.7242  140.0501  157.0690 H   0  0  0  0  0  0  0  0  0  0  0  0  # atno 8009 bound_to 7997
  155.0438  140.3148  155.4718 H   0  0  0  0  0  0  0  0  0  0  0  0  # atno 8010 bound_to 7997
  139.9104  144.6275  150.8543 H   0  0  0  0  0  0  0  0  0  0  0  0  # atno 10167 bound_to 10162
  157.6893  131.0644  150.4818 H   0  0  0  0  0  0  0  0  0  0  0  0  # atno 10718 bound_to 10713
  154.6577  135.5332  153.7979 H   0  0  0  0  0  0  0  0  0  0  0  0  # atno 10763 bound_to 10752
  153.0423  135.6498  154.0920 H   0  0  0  0  0  0  0  0  0  0  0  0  # atno 10764 bound_to 10752
  154.0831  135.2945  155.3266 H   0  0  0  0  0  0  0  0  0  0  0  0  # atno 10765 bound_to 10752
  140.7378  134.3549  157.5154 H   0  0  0  0  0  0  0  0  0  0  0  0  # atno 11005 bound_to 11000
  145.5294  139.1475  143.3508 LP  0  0  0  0  0  0  0  0  0  0  0  0  # atno 17320 bound_to 7965
  146.2424  140.5434  142.8928 LP  0  0  0  0  0  0  0  0  0  0  0  0  # atno 17321 bound_to 7965
  140.7686  143.3370  151.2288 LP  0  0  0  0  0  0  0  0  0  0  0  0  # atno 17342 bound_to 10162
  139.6947  143.9632  152.2877 LP  0  0  0  0  0  0  0  0  0  0  0  0  # atno 17343 bound_to 10162
  156.5150  130.4148  149.6281 LP  0  0  0  0  0  0  0  0  0  0  0  0  # atno 17370 bound_to 10713
  156.3206  130.7278  151.2189 LP  0  0  0  0  0  0  0  0  0  0  0  0  # atno 17371 bound_to 10713
  139.8812  134.9061  156.2914 LP  0  0  0  0  0  0  0  0  0  0  0  0  # atno 17394 bound_to 11000
  140.9864  133.7236  156.0748 LP  0  0  0  0  0  0  0  0  0  0  0  0  # atno 17395 bound_to 11000

$$$$
