AV-unprocessed.smi:1017|AV-procd|sdf|4439|dock3
  -GOLD-   22720 2403D 1   1.00000     0.00000
 Structure written by MMmdl.
 43 44  0  0  0  0  0  0  0  0  2 V2000
  153.0301  143.8693  160.5386 C   0  0  0  0  0  0  0  0  0  0  0  0
  152.1142  143.3354  159.5956 O   0  0  0  0  0  0  0  0  0  0  0  0
  152.0175  141.9180  159.6210 C   0  0  0  0  0  0  0  0  0  0  0  0
  150.7766  141.4135  158.8591 C   0  0  0  0  0  0  0  0  0  0  0  0
  150.6802  139.9510  158.9013 N   0  0  0  0  0  0  0  0  0  0  0  0
  149.4352  139.4771  159.2784 N   0  0  0  0  0  0  0  0  0  0  0  0
  149.2118  138.2044  159.3494 C   0  0  0  0  0  0  0  0  0  0  0  0
  147.8661  137.6905  159.7589 C   0  0  0  0  0  0  0  0  0  0  0  0
  147.0322  137.6131  158.8488 O   0  0  0  0  0  0  0  0  0  0  0  0
  147.6554  137.3523  161.0681 N   0  5  0  0  0  0  0  0  0  0  0  0
  147.1179  136.0945  161.6353 C   0  0  0  0  0  0  0  0  0  0  0  0
  145.7991  136.4860  162.3746 C   0  0  0  0  0  0  0  0  0  0  0  0
  145.1959  135.4424  162.9403 F   0  0  0  0  0  0  0  0  0  0  0  0
  146.0510  137.3752  163.3382 F   0  0  0  0  0  0  0  0  0  0  0  0
  144.9321  137.0380  161.5225 F   0  0  0  0  0  0  0  0  0  0  0  0
  146.8427  135.0667  160.4880 C   0  0  0  0  0  0  0  0  0  0  0  0
  146.5328  133.6221  160.9559 C   0  0  0  0  0  0  0  0  0  0  0  0
  147.6167  133.0578  161.8949 C   0  0  0  0  0  0  0  0  0  0  0  0
  147.8400  134.0180  163.0794 C   0  0  0  0  0  0  0  0  0  0  0  0
  148.1558  135.4652  162.6230 C   0  0  0  0  0  0  0  0  0  0  0  0
  150.2694  137.2517  159.0322 C   0  0  0  0  0  0  0  0  0  0  0  0
  151.4781  137.7298  158.6650 C   0  0  0  0  0  0  0  0  0  0  0  0
  151.7495  139.1644  158.5773 C   0  0  0  0  0  0  0  0  0  0  0  0
  152.8405  139.6240  158.2395 O   0  0  0  0  0  0  0  0  0  0  0  0
  153.0826  144.9514  160.4185 H   0  0  0  0  0  0  0  0  0  0  0  0
  154.0332  143.4684  160.3874 H   0  0  0  0  0  0  0  0  0  0  0  0
  152.7224  143.6665  161.5643 H   0  0  0  0  0  0  0  0  0  0  0  0
  152.9130  141.5241  159.1393 H   0  0  0  0  0  0  0  0  0  0  0  0
  152.0346  141.5510  160.6484 H   0  0  0  0  0  0  0  0  0  0  0  0
  149.8635  141.8535  159.2616 H   0  0  0  0  0  0  0  0  0  0  0  0
  150.8289  141.7522  157.8227 H   0  0  0  0  0  0  0  0  0  0  0  0
  146.0311  135.4234  159.8532 H   0  0  0  0  0  0  0  0  0  0  0  0
  147.7092  134.9940  159.8318 H   0  0  0  0  0  0  0  0  0  0  0  0
  145.5589  133.5718  161.4432 H   0  0  0  0  0  0  0  0  0  0  0  0
  146.4484  132.9764  160.0813 H   0  0  0  0  0  0  0  0  0  0  0  0
  147.3325  132.0686  162.2544 H   0  0  0  0  0  0  0  0  0  0  0  0
  148.5497  132.9365  161.3432 H   0  0  0  0  0  0  0  0  0  0  0  0
  146.9725  133.9989  163.7392 H   0  0  0  0  0  0  0  0  0  0  0  0
  148.6678  133.6484  163.6852 H   0  0  0  0  0  0  0  0  0  0  0  0
  149.1417  135.4290  162.1618 H   0  0  0  0  0  0  0  0  0  0  0  0
  148.2723  136.1034  163.4992 H   0  0  0  0  0  0  0  0  0  0  0  0
  150.1088  136.1850  159.0846 H   0  0  0  0  0  0  0  0  0  0  0  0
  152.2683  137.0328  158.4282 H   0  0  0  0  0  0  0  0  0  0  0  0
  1  2  1  0  0  0  0
  1 25  1  0  0  0  0
  1 26  1  0  0  0  0
  1 27  1  0  0  0  0
  2  3  1  0  0  0  0
  3  4  1  0  0  0  0
  3 28  1  0  0  0  0
  3 29  1  0  0  0  0
  4  5  1  0  0  0  0
  4 30  1  0  0  0  0
  4 31  1  0  0  0  0
  5 23  1  0  0  0  0
  5  6  1  0  0  0  0
  6  7  2  0  0  0  0
  7  8  1  0  0  0  0
  7 21  1  0  0  0  0
  8  9  2  0  0  0  0
  8 10  1  0  0  0  0
 10 11  1  0  0  0  0
 11 20  1  0  0  0  0
 11 12  1  0  0  0  0
 11 16  1  0  0  0  0
 12 13  1  0  0  0  0
 12 14  1  0  0  0  0
 12 15  1  0  0  0  0
 16 17  1  0  0  0  0
 16 32  1  0  0  0  0
 16 33  1  0  0  0  0
 17 18  1  0  0  0  0
 17 34  1  0  0  0  0
 17 35  1  0  0  0  0
 18 19  1  0  0  0  0
 18 36  1  0  0  0  0
 18 37  1  0  0  0  0
 19 20  1  0  0  0  0
 19 38  1  0  0  0  0
 19 39  1  0  0  0  0
 20 40  1  0  0  0  0
 20 41  1  0  0  0  0
 21 22  2  0  0  0  0
 21 42  1  0  0  0  0
 22 23  1  0  0  0  0
 22 43  1  0  0  0  0
 23 24  2  0  0  0  0
M  CHG  1  10  -1
M  END
> <s_m_source_file>
AV-unprocessed.smi

> <i_m_source_file_index>
1017

> <i_lp_mmshare_version>
43012

> <i_f3d_flags>
0

> <s_epik_input>
W0NIM11PW0NIMl1bQ0gyXW4xbmMoW2NIXVtjSF1jMT1PKUMoPU8pW05IXUMyKEMoRikoRilGKVtDSDJdW0NIMl1bQ0gyXVtDSDJdW0NIMl0y

> <s_epik_cmdline>
J2VwaWtfcHl0aG9uJywgJy1waCcsICc3LjAnLCAnLXRuJywgJzgnLCAnLW1hJywgJzIwMCcsICctbWV0YWxfYmluZGluZycsICctaW1hZScsICc8aW5maWxlLm1hZT4nLCAnLW9tYWUnLCAnPG91dGZpbGUubWFlPic=

> <r_lp_tautomer_probability>
1

> <r_epik_Ionization_Penalty>
6.5547

> <r_epik_Ionization_Penalty_Charging>
6.5547

> <r_epik_Ionization_Penalty_Neutral>
1.08437e-11

> <r_epik_State_Penalty>
6.55469

> <r_epik_Charging_Adjusted_Penalty>
13.1094

> <i_epik_Tot_Q>
-1

> <i_epik_Tot_abs_Q>
1

> <r_epik_Metal_State_Penalty>
2.48023

> <b_epik_Metal_Only>
1

> <s_lp_Force_Field>
OPLS_2005

> <r_lp_Energy>
56.1946

> <b_lp_Chiralities_Consistent>
1

> <s_lp_Variant>
AV-unprocessed.smi:1017-2

> <Gold.Version>
5.8.1

> <Gold.Id.Protein>
6NUR|6NUR_protein|mol2

> <Gold.PLP.Fitness>
44.3822

> <Gold.PLP.PLP>
-39.4521

> <Gold.PLP.part.hbond>
-2.3677

> <Gold.PLP.part.metal>
0.0000

> <Gold.PLP.part.buried>
-5.6900

> <Gold.PLP.part.nonpolar>
-31.8334

> <Gold.PLP.part.repulsive>
0.1081

> <Gold.PLP.ligand.clash>
0.0000

> <Gold.PLP.ligand.torsion>
2.1116

> <Gold.PLP.Chemscore.Hbond>
3.0000

> <Gold.PLP.Chemscore.CHOScore>
0.0000

> <Gold.PLP.Chemscore.Metal>
0.0000

> <Gold.Chemscore.Hbonds>
donor molecule, donor type, donor heavy atom, donor atom, acceptor molecule, acceptor atom, score
      P1  H  6931  6943       L1    10  1.63
      P1  H  7997  8008       L1    24  0.67

> <Gold.PLP.Chemscore.Internal.Correction>
0.1533

> <Gold.Rescore>
     Score         DG    S(hbond)    S(metal)    S(lipo)     H(rot)  DE(clash)    DE(int)     intcor
     12.75     -17.33       1.76        0.00      87.43       1.67       0.02       4.57       ----

> <Gold.Chemscore.Fitness>
12.7461

> <Gold.Chemscore.DG>
-17.3277

> <Gold.Chemscore.ZeroCoef>
-5.4800

> <Gold.Chemscore.Hbond>
1.7611

> <Gold.Chemscore.Metal>
0.0000

> <Gold.Chemscore.Lipo>
87.4344

> <Gold.Chemscore.Internal_Hbond>
0.0000

> <Gold.Chemscore.DEClash>
0.0158

> <Gold.Chemscore.DEInternal>
4.5659

> <Gold.Chemscore.Rot>
1.6657

> <Gold.Chemscore.Internal.Correction>
   9.000000E+99

> <Gold.Chemscore.Hbonds>
donor molecule, donor type, donor heavy atom, donor atom, acceptor molecule, acceptor atom, score
      P1  H  6931  6943       L1    10  0.24
      P1  H  7997  8008       L1    24  0.67

> <Gold.Chemscore.Hbond.Weighted>
-5.8820

> <Gold.Chemscore.Metal.Weighted>
-0.0000

> <Gold.Chemscore.Lipo.Weighted>
-10.2298

> <Gold.Chemscore.Internal_Hbond.Weighted>
0.0000

> <Gold.Chemscore.DEClash.Weighted>
0.0158

> <Gold.Chemscore.DEInternal.Weighted>
4.5659

> <Gold.Chemscore.Rot.Weighted>
4.2641

> <Gold.Chemscore.Internal.Correction.Weighted>
   9.000000E+99

> <Gold.Protein.RotatedTorsions>
[ 6907 6896 6895 6894 ] final  126.91 input  -60.11 | X-H torsion
[ 7974 7965 7964 7962 ] final  -64.94 input  175.53 | X-H torsion
[ 8008 7997 7996 7995 ] final  -84.15 input   59.86 | X-H torsion
[ 10167 10162 10161 10158 ] final -160.13 input  -65.29 | X-H torsion
[ 10718 10713 10712 10709 ] final  -26.98 input   66.30 | X-H torsion
[ 10763 10752 10751 10750 ] final  -35.95 input  -60.55 | X-H torsion
[ 11005 11000 10999 10996 ] final  -53.69 input  -57.11 | X-H torsion

> <Gold.Protein.ActiveResidues>
 VAL166  LYS551  ARG553  GLY616  TRP617  ASP618  TYR619  PRO620  LYS621  CYS622 
 ASP623  PHE694  ASN695  SER759  ASP760  ASP761  ALA762  ILE779  LEU786  VAL792 
 PHE793  MET794  SER795  GLU796  ALA797  LYS798  CYS799  TRP800  GLU811  SER814 

> <Gold.Protein.RotatedAtoms>
  152.3860  133.6612  159.6199 H   0  0  0  0  0  0  0  0  0  0  0  0  # atno 6907 bound_to 6896
  150.7779  133.9034  159.3357 H   0  0  0  0  0  0  0  0  0  0  0  0  # atno 6908 bound_to 6896
  151.6830  135.0960  160.0271 H   0  0  0  0  0  0  0  0  0  0  0  0  # atno 6909 bound_to 6896
  145.7605  140.8864  143.0432 H   0  0  0  0  0  0  0  0  0  0  0  0  # atno 7974 bound_to 7965
  154.6267  140.0609  156.9682 H   0  0  0  0  0  0  0  0  0  0  0  0  # atno 8008 bound_to 7997
  155.1731  140.3292  155.4370 H   0  0  0  0  0  0  0  0  0  0  0  0  # atno 8009 bound_to 7997
  156.2461  140.1910  156.6832 H   0  0  0  0  0  0  0  0  0  0  0  0  # atno 8010 bound_to 7997
  139.6562  143.9994  152.2195 H   0  0  0  0  0  0  0  0  0  0  0  0  # atno 10167 bound_to 10162
  156.4441  130.4470  149.7033 H   0  0  0  0  0  0  0  0  0  0  0  0  # atno 10718 bound_to 10713
  153.8718  135.6830  153.4774 H   0  0  0  0  0  0  0  0  0  0  0  0  # atno 10763 bound_to 10752
  153.1283  135.4709  154.9306 H   0  0  0  0  0  0  0  0  0  0  0  0  # atno 10764 bound_to 10752
  154.7711  135.3239  154.8139 H   0  0  0  0  0  0  0  0  0  0  0  0  # atno 10765 bound_to 10752
  141.0989  133.6620  156.4209 H   0  0  0  0  0  0  0  0  0  0  0  0  # atno 11005 bound_to 11000
  144.6831  139.9716  143.7482 LP  0  0  0  0  0  0  0  0  0  0  0  0  # atno 17320 bound_to 7965
  146.0269  139.3300  143.0779 LP  0  0  0  0  0  0  0  0  0  0  0  0  # atno 17321 bound_to 7965
  139.9721  144.6487  150.7979 LP  0  0  0  0  0  0  0  0  0  0  0  0  # atno 17342 bound_to 10162
  140.7560  143.3058  151.2967 LP  0  0  0  0  0  0  0  0  0  0  0  0  # atno 17343 bound_to 10162
  156.3885  130.7615  151.2614 LP  0  0  0  0  0  0  0  0  0  0  0  0  # atno 17370 bound_to 10713
  157.7505  131.0275  150.4006 LP  0  0  0  0  0  0  0  0  0  0  0  0  # atno 17371 bound_to 10713
  140.5072  134.6429  157.5271 LP  0  0  0  0  0  0  0  0  0  0  0  0  # atno 17394 bound_to 11000
  139.9833  134.7101  155.9819 LP  0  0  0  0  0  0  0  0  0  0  0  0  # atno 17395 bound_to 11000

$$$$
