AV-unprocessed.smi:609|AV-procd|sdf|3045|dock2
  -GOLD-   2262023563D 1   1.00000     0.00000
 Structure written by MMmdl.
 43 45  0  0  0  0  0  0  0  0  2 V2000
  153.3029  142.6383  161.3630 C   0  0  0  0  0  0  0  0  0  0  0  0
  152.6243  142.3774  160.0296 C   0  0  0  0  0  0  0  0  0  0  0  0
  152.9104  141.1802  159.3357 C   0  0  0  0  0  0  0  0  0  0  0  0
  152.2989  140.8986  158.0945 C   0  0  0  0  0  0  0  0  0  0  0  0
  152.4305  139.8059  157.2546 N   0  0  0  0  0  0  0  0  0  0  0  0
  151.6058  140.1292  156.2629 C   0  0  0  0  0  0  0  0  0  0  0  0
  150.9644  141.3103  156.3545 N   0  0  0  0  0  0  0  0  0  0  0  0
  150.0338  141.8798  155.3965 C   0  0  0  0  0  0  0  0  0  0  0  0
  149.3287  140.8055  154.5443 C   0  0  2  0  0  0  0  0  0  0  0  0
  149.4240  141.1900  153.1882 O   0  0  0  0  0  0  0  0  0  0  0  0
  147.8476  140.5979  154.9126 C   0  0  0  0  0  0  0  0  0  0  0  0
  146.7877  141.9251  154.2736 S   0  0  0  0  0  0  0  0  0  0  0  0
  145.4275  142.0180  155.3961 C   0  0  0  0  0  0  0  0  0  0  0  0
  144.1585  141.7574  155.0710 N   0  3  0  0  0  0  0  0  0  0  0  0
  143.3543  141.9218  156.1663 C   0  0  0  0  0  0  0  0  0  0  0  0
  144.1756  142.2907  157.2018 C   0  0  0  0  0  0  0  0  0  0  0  0
  145.4520  142.3367  156.7002 N   0  0  0  0  0  0  0  0  0  0  0  0
  146.6658  142.6714  157.4493 C   0  0  0  0  0  0  0  0  0  0  0  0
  151.3870  141.8560  157.5617 C   0  0  0  0  0  0  0  0  0  0  0  0
  151.0942  143.0507  158.2423 C   0  0  0  0  0  0  0  0  0  0  0  0
  151.7143  143.3166  159.4811 C   0  0  0  0  0  0  0  0  0  0  0  0
  151.3913  144.6098  160.2082 C   0  0  0  0  0  0  0  0  0  0  0  0
  153.9239  141.7948  161.6656 H   0  0  0  0  0  0  0  0  0  0  0  0
  152.5616  142.8037  162.1451 H   0  0  0  0  0  0  0  0  0  0  0  0
  153.9420  143.5191  161.2992 H   0  0  0  0  0  0  0  0  0  0  0  0
  153.6036  140.4649  159.7533 H   0  0  0  0  0  0  0  0  0  0  0  0
  151.4677  139.4740  155.4150 H   0  0  0  0  0  0  0  0  0  0  0  0
  149.2980  142.4744  155.9404 H   0  0  0  0  0  0  0  0  0  0  0  0
  150.5839  142.5713  154.7570 H   0  0  0  0  0  0  0  0  0  0  0  0
  149.8588  139.8594  154.6595 H   0  0  0  0  0  0  0  0  0  0  0  0
  149.3998  140.4113  152.6530 H   0  0  0  0  0  0  0  0  0  0  0  0
  147.4873  139.6595  154.4959 H   0  0  0  0  0  0  0  0  0  0  0  0
  147.7257  140.5312  155.9943 H   0  0  0  0  0  0  0  0  0  0  0  0
  142.2859  141.7663  156.1292 H   0  0  0  0  0  0  0  0  0  0  0  0
  143.9511  142.5146  158.2348 H   0  0  0  0  0  0  0  0  0  0  0  0
  146.5109  142.4452  158.5047 H   0  0  0  0  0  0  0  0  0  0  0  0
  146.8742  143.7355  157.3377 H   0  0  0  0  0  0  0  0  0  0  0  0
  147.5087  142.0850  157.0826 H   0  0  0  0  0  0  0  0  0  0  0  0
  150.3971  143.7560  157.8145 H   0  0  0  0  0  0  0  0  0  0  0  0
  150.7284  145.2427  159.6178 H   0  0  0  0  0  0  0  0  0  0  0  0
  152.3011  145.1758  160.4084 H   0  0  0  0  0  0  0  0  0  0  0  0
  150.8975  144.3995  161.1572 H   0  0  0  0  0  0  0  0  0  0  0  0
  143.8429  141.4827  154.1492 H   0  0  0  0  0  0  0  0  0  0  0  0
  1  2  1  0  0  0  0
  1 23  1  0  0  0  0
  1 24  1  0  0  0  0
  1 25  1  0  0  0  0
  2 21  1  0  0  0  0
  2  3  2  0  0  0  0
  3  4  1  0  0  0  0
  3 26  1  0  0  0  0
  4 19  2  0  0  0  0
  4  5  1  0  0  0  0
  5  6  2  0  0  0  0
  6  7  1  0  0  0  0
  6 27  1  0  0  0  0
  7  8  1  0  0  0  0
  7 19  1  0  0  0  0
  8  9  1  0  0  0  0
  8 28  1  0  0  0  0
  8 29  1  0  0  0  0
  9 10  1  0  0  0  0
  9 11  1  0  0  0  0
  9 30  1  0  0  0  0
 10 31  1  0  0  0  0
 11 12  1  0  0  0  0
 11 32  1  0  0  0  0
 11 33  1  0  0  0  0
 12 13  1  0  0  0  0
 13 17  1  0  0  0  0
 13 14  2  0  0  0  0
 14 15  1  0  0  0  0
 14 43  1  0  0  0  0
 15 16  2  0  0  0  0
 15 34  1  0  0  0  0
 16 17  1  0  0  0  0
 16 35  1  0  0  0  0
 17 18  1  0  0  0  0
 18 36  1  0  0  0  0
 18 37  1  0  0  0  0
 18 38  1  0  0  0  0
 19 20  1  0  0  0  0
 20 21  2  0  0  0  0
 20 39  1  0  0  0  0
 21 22  1  0  0  0  0
 22 40  1  0  0  0  0
 22 41  1  0  0  0  0
 22 42  1  0  0  0  0
M  CHG  1  14   1
M  END
> <s_m_source_file>
AV-unprocessed.smi

> <i_m_source_file_index>
609

> <i_lp_mmshare_version>
43012

> <i_f3d_flags>
0

> <s_epik_input>
W0NIM11jKFtjSF0xKWMoW0NIM10pW2NIXWMoYzEyKW4oW2NIXW4yKVtDSDJdW0NASF0oW09IXSlbQ0gyXVNjM25bY0hdW2NIXW4zW0NIM10=

> <s_epik_cmdline>
J2VwaWtfcHl0aG9uJywgJy1waCcsICc3LjAnLCAnLXRuJywgJzgnLCAnLW1hJywgJzIwMCcsICctbWV0YWxfYmluZGluZycsICctaW1hZScsICc8aW5maWxlLm1hZT4nLCAnLW9tYWUnLCAnPG91dGZpbGUubWFlPic=

> <r_lp_tautomer_probability>
1

> <r_epik_Ionization_Penalty>
0.215713

> <r_epik_Ionization_Penalty_Charging>
0

> <r_epik_Ionization_Penalty_Neutral>
0.215713

> <r_epik_State_Penalty>
0.19579

> <r_epik_Charging_Adjusted_Penalty>
0.19579

> <i_epik_Tot_Q>
1

> <i_epik_Tot_abs_Q>
1

> <r_epik_Metal_State_Penalty>
0.429751

> <b_epik_Metal_Only>
0

> <s_lp_Force_Field>
OPLS_2005

> <r_lp_Energy>
11.8688

> <b_lp_Chiralities_Consistent>
1

> <s_lp_Variant>
AV-unprocessed.smi:609-1

> <Gold.Version>
5.8.1

> <Gold.Id.Protein>
6NUR|6NUR_protein|mol2

> <Gold.PLP.Fitness>
55.4105

> <Gold.PLP.PLP>
-44.1065

> <Gold.PLP.part.hbond>
-4.1996

> <Gold.PLP.part.metal>
0.0000

> <Gold.PLP.part.buried>
-4.3018

> <Gold.PLP.part.nonpolar>
-35.2306

> <Gold.PLP.part.repulsive>
0.0000

> <Gold.PLP.ligand.clash>
0.0000

> <Gold.PLP.ligand.torsion>
1.3420

> <Gold.PLP.Chemscore.Hbond>
4.6303

> <Gold.PLP.Chemscore.CHOScore>
0.0000

> <Gold.PLP.Chemscore.Metal>
0.0000

> <Gold.Chemscore.Hbonds>
donor molecule, donor type, donor heavy atom, donor atom, acceptor molecule, acceptor atom, score
      L1  H    10    31       P1  7957  0.74
      L1  H    14    43       P1 10175  1.80
      P1  H  7989  7998       L1    10  0.01
      P1  H  7997  8009       L1     5  0.90
      P1  H  8011  8017       L1    10  1.00

> <Gold.PLP.Chemscore.Internal.Correction>
0.0970

> <Gold.Rescore>
     Score         DG    S(hbond)    S(metal)    S(lipo)     H(rot)  DE(clash)    DE(int)     intcor
     20.40     -21.70       3.20        0.00     102.24       2.52       0.09       1.20       ----

> <Gold.Chemscore.Fitness>
20.4024

> <Gold.Chemscore.DG>
-21.6990

> <Gold.Chemscore.ZeroCoef>
-5.4800

> <Gold.Chemscore.Hbond>
3.2024

> <Gold.Chemscore.Metal>
0.0000

> <Gold.Chemscore.Lipo>
102.2392

> <Gold.Chemscore.Internal_Hbond>
0.0000

> <Gold.Chemscore.DEClash>
0.0942

> <Gold.Chemscore.DEInternal>
1.2024

> <Gold.Chemscore.Rot>
2.5153

> <Gold.Chemscore.Internal.Correction>
   9.000000E+99

> <Gold.Chemscore.Hbonds>
donor molecule, donor type, donor heavy atom, donor atom, acceptor molecule, acceptor atom, score
      L1  H    10    31       P1  7957  0.70
      L1  H    14    43       P1 10175  0.18
      P1  H  7997  8009       L1     5  0.14
      P1  H  8011  8017       L1    10  0.69

> <Gold.Chemscore.Hbond.Weighted>
-10.6961

> <Gold.Chemscore.Metal.Weighted>
-0.0000

> <Gold.Chemscore.Lipo.Weighted>
-11.9620

> <Gold.Chemscore.Internal_Hbond.Weighted>
0.0000

> <Gold.Chemscore.DEClash.Weighted>
0.0942

> <Gold.Chemscore.DEInternal.Weighted>
1.2024

> <Gold.Chemscore.Rot.Weighted>
6.4391

> <Gold.Chemscore.Internal.Correction.Weighted>
   9.000000E+99

> <Gold.Protein.RotatedTorsions>
[ 6907 6896 6895 6894 ] final   62.14 input  -60.11 | X-H torsion
[ 7974 7965 7964 7962 ] final  103.92 input  175.53 | X-H torsion
[ 8008 7997 7996 7995 ] final  179.59 input   59.86 | X-H torsion
[ 10167 10162 10161 10158 ] final  109.93 input  -65.29 | X-H torsion
[ 10718 10713 10712 10709 ] final   73.23 input   66.30 | X-H torsion
[ 10763 10752 10751 10750 ] final   58.17 input  -60.55 | X-H torsion
[ 11005 11000 10999 10996 ] final -143.19 input  -57.11 | X-H torsion

> <Gold.Protein.ActiveResidues>
 VAL166  LYS551  ARG553  GLY616  TRP617  ASP618  TYR619  PRO620  LYS621  CYS622 
 ASP623  PHE694  ASN695  SER759  ASP760  ASP761  ALA762  ILE779  LEU786  VAL792 
 PHE793  MET794  SER795  GLU796  ALA797  LYS798  CYS799  TRP800  GLU811  SER814 

> <Gold.Protein.RotatedAtoms>
  152.4147  134.6062  160.0013 H   0  0  0  0  0  0  0  0  0  0  0  0  # atno 6907 bound_to 6896
  151.6229  133.3332  159.3100 H   0  0  0  0  0  0  0  0  0  0  0  0  # atno 6908 bound_to 6896
  150.8036  134.7186  159.6690 H   0  0  0  0  0  0  0  0  0  0  0  0  # atno 6909 bound_to 6896
  145.3395  139.2466  143.3617 H   0  0  0  0  0  0  0  0  0  0  0  0  # atno 7974 bound_to 7965
  156.0416  140.1305  157.0149 H   0  0  0  0  0  0  0  0  0  0  0  0  # atno 8008 bound_to 7997
  154.4394  140.1029  156.6316 H   0  0  0  0  0  0  0  0  0  0  0  0  # atno 8009 bound_to 7997
  155.5657  140.3465  155.4505 H   0  0  0  0  0  0  0  0  0  0  0  0  # atno 8010 bound_to 7997
  139.6728  144.7124  151.1657 H   0  0  0  0  0  0  0  0  0  0  0  0  # atno 10167 bound_to 10162
  157.6538  130.9618  150.1040 H   0  0  0  0  0  0  0  0  0  0  0  0  # atno 10718 bound_to 10713
  152.9865  135.5616  154.5510 H   0  0  0  0  0  0  0  0  0  0  0  0  # atno 10763 bound_to 10752
  154.4947  135.2794  155.1471 H   0  0  0  0  0  0  0  0  0  0  0  0  # atno 10764 bound_to 10752
  154.2926  135.6323  153.5444 H   0  0  0  0  0  0  0  0  0  0  0  0  # atno 10765 bound_to 10752
  140.8150  134.2700  157.4925 H   0  0  0  0  0  0  0  0  0  0  0  0  # atno 11005 bound_to 11000
  146.3013  140.3990  142.8703 LP  0  0  0  0  0  0  0  0  0  0  0  0  # atno 17320 bound_to 7965
  144.8801  140.7389  143.5992 LP  0  0  0  0  0  0  0  0  0  0  0  0  # atno 17321 bound_to 7965
  140.7624  143.5818  150.8887 LP  0  0  0  0  0  0  0  0  0  0  0  0  # atno 17342 bound_to 10162
  139.9484  143.6300  152.3035 LP  0  0  0  0  0  0  0  0  0  0  0  0  # atno 17343 bound_to 10162
  156.1954  130.3657  149.8855 LP  0  0  0  0  0  0  0  0  0  0  0  0  # atno 17370 bound_to 10713
  156.6773  130.8844  151.3571 LP  0  0  0  0  0  0  0  0  0  0  0  0  # atno 17371 bound_to 10713
  139.8711  134.9504  156.4053 LP  0  0  0  0  0  0  0  0  0  0  0  0  # atno 17394 bound_to 11000
  140.9159  133.7679  155.9847 LP  0  0  0  0  0  0  0  0  0  0  0  0  # atno 17395 bound_to 11000

$$$$
