AV-unprocessed.smi:1856|AV-procd|sdf|7540|dock4
  -GOLD-   22720 9253D 1   1.00000     0.00000
 Structure written by MMmdl.
 45 46  0  0  0  0  0  0  0  0  2 V2000
  144.3754  133.5531  150.4154 C   0  0  0  0  0  0  0  0  0  0  0  0
  144.3081  135.0378  150.7904 C   0  0  0  0  0  0  0  0  0  0  0  0
  145.6520  135.5718  151.3178 C   0  0  0  0  0  0  0  0  0  0  0  0
  145.5114  136.8690  152.1204 C   0  0  0  0  0  0  0  0  0  0  0  0
  144.4001  137.3351  152.3726 O   0  0  0  0  0  0  0  0  0  0  0  0
  146.6562  137.4466  152.5181 N   0  0  0  0  0  0  0  0  0  0  0  0
  146.7504  138.6768  153.2996 C   0  0  1  0  0  0  0  0  0  0  0  0
  145.6855  138.6719  154.4039 C   0  0  0  0  0  0  0  0  0  0  0  0
  148.1170  138.8729  153.8885 C   0  0  0  0  0  0  0  0  0  0  0  0
  149.1976  138.0651  153.6876 N   0  3  0  0  0  0  0  0  0  0  0  0
  150.2973  138.5613  154.3867 C   0  0  0  0  0  0  0  0  0  0  0  0
  151.6030  138.0899  154.4813 C   0  0  0  0  0  0  0  0  0  0  0  0
  152.4896  138.8394  155.2817 C   0  0  0  0  0  0  0  0  0  0  0  0
  152.0672  140.0083  155.9475 C   0  0  0  0  0  0  0  0  0  0  0  0
  150.7407  140.4758  155.8438 C   0  0  0  0  0  0  0  0  0  0  0  0
  149.8680  139.7270  155.0537 C   0  0  0  0  0  0  0  0  0  0  0  0
  148.5142  139.8756  154.7248 N   0  0  0  0  0  0  0  0  0  0  0  0
  147.7506  141.0048  155.2823 C   0  0  0  0  0  0  0  0  0  0  0  0
  147.3595  142.0518  154.2213 C   0  0  1  0  0  0  0  0  0  0  0  0
  146.1965  142.9362  154.6861 C   0  0  0  0  0  0  0  0  0  0  0  0
  148.4621  142.8814  153.9169 O   0  0  0  0  0  0  0  0  0  0  0  0
  143.4106  133.2009  150.0499 H   0  0  0  0  0  0  0  0  0  0  0  0
  144.6487  132.9417  151.2759 H   0  0  0  0  0  0  0  0  0  0  0  0
  145.1121  133.3779  149.6311 H   0  0  0  0  0  0  0  0  0  0  0  0
  143.9988  135.6126  149.9163 H   0  0  0  0  0  0  0  0  0  0  0  0
  143.5306  135.1765  151.5430 H   0  0  0  0  0  0  0  0  0  0  0  0
  146.1261  134.8243  151.9548 H   0  0  0  0  0  0  0  0  0  0  0  0
  146.3287  135.7425  150.4788 H   0  0  0  0  0  0  0  0  0  0  0  0
  147.5250  136.9950  152.2712 H   0  0  0  0  0  0  0  0  0  0  0  0
  146.5346  139.5100  152.6295 H   0  0  0  0  0  0  0  0  0  0  0  0
  145.7010  139.6068  154.9649 H   0  0  0  0  0  0  0  0  0  0  0  0
  145.8462  137.8571  155.1110 H   0  0  0  0  0  0  0  0  0  0  0  0
  144.6855  138.5565  153.9847 H   0  0  0  0  0  0  0  0  0  0  0  0
  151.9288  137.1964  153.9691 H   0  0  0  0  0  0  0  0  0  0  0  0
  153.5142  138.5128  155.3855 H   0  0  0  0  0  0  0  0  0  0  0  0
  152.7752  140.5593  156.5494 H   0  0  0  0  0  0  0  0  0  0  0  0
  150.4334  141.3769  156.3534 H   0  0  0  0  0  0  0  0  0  0  0  0
  146.8542  140.5926  155.7467 H   0  0  0  0  0  0  0  0  0  0  0  0
  148.3196  141.4609  156.0922 H   0  0  0  0  0  0  0  0  0  0  0  0
  147.0655  141.5443  153.3026 H   0  0  0  0  0  0  0  0  0  0  0  0
  145.3134  142.3359  154.9066 H   0  0  0  0  0  0  0  0  0  0  0  0
  145.9199  143.6582  153.9170 H   0  0  0  0  0  0  0  0  0  0  0  0
  146.4552  143.4922  155.5880 H   0  0  0  0  0  0  0  0  0  0  0  0
  148.5736  143.4995  154.6229 H   0  0  0  0  0  0  0  0  0  0  0  0
  149.1809  137.2374  153.1060 H   0  0  0  0  0  0  0  0  0  0  0  0
  1  2  1  0  0  0  0
  1 22  1  0  0  0  0
  1 23  1  0  0  0  0
  1 24  1  0  0  0  0
  2  3  1  0  0  0  0
  2 25  1  0  0  0  0
  2 26  1  0  0  0  0
  3  4  1  0  0  0  0
  3 27  1  0  0  0  0
  3 28  1  0  0  0  0
  4  5  2  0  0  0  0
  4  6  1  0  0  0  0
  6  7  1  0  0  0  0
  6 29  1  0  0  0  0
  7  8  1  0  0  0  0
  7  9  1  0  0  0  0
  7 30  1  0  0  0  0
  8 31  1  0  0  0  0
  8 32  1  0  0  0  0
  8 33  1  0  0  0  0
  9 17  1  0  0  0  0
  9 10  2  0  0  0  0
 10 11  1  0  0  0  0
 10 45  1  0  0  0  0
 11 16  2  0  0  0  0
 11 12  1  0  0  0  0
 12 13  2  0  0  0  0
 12 34  1  0  0  0  0
 13 14  1  0  0  0  0
 13 35  1  0  0  0  0
 14 15  2  0  0  0  0
 14 36  1  0  0  0  0
 15 16  1  0  0  0  0
 15 37  1  0  0  0  0
 16 17  1  0  0  0  0
 17 18  1  0  0  0  0
 18 19  1  0  0  0  0
 18 38  1  0  0  0  0
 18 39  1  0  0  0  0
 19 20  1  0  0  0  0
 19 21  1  0  0  0  0
 19 40  1  0  0  0  0
 20 41  1  0  0  0  0
 20 42  1  0  0  0  0
 20 43  1  0  0  0  0
 21 44  1  0  0  0  0
M  CHG  1  10   1
M  END
> <s_m_source_file>
AV-unprocessed.smi

> <i_m_source_file_index>
1856

> <i_lp_mmshare_version>
43012

> <i_f3d_flags>
0

> <s_epik_input>
W0NIM11bQ0gyXVtDSDJdQyg9TylbTkhdW0NASF0oW0NIM10pYyhuMSluKFtDSDJdW0NASF0oW0NIM10pW09IXSljKGMxMilbY0hdW2NIXVtjSF1bY0hdMg==

> <s_epik_cmdline>
J2VwaWtfcHl0aG9uJywgJy1waCcsICc3LjAnLCAnLXRuJywgJzgnLCAnLW1hJywgJzIwMCcsICctbWV0YWxfYmluZGluZycsICctaW1hZScsICc8aW5maWxlLm1hZT4nLCAnLW9tYWUnLCAnPG91dGZpbGUubWFlPic=

> <r_epik_Ionization_Penalty>
0.945588

> <r_epik_Ionization_Penalty_Charging>
0.945588

> <r_epik_Ionization_Penalty_Neutral>
8.64698e-08

> <r_epik_State_Penalty>
0.989378

> <r_epik_Charging_Adjusted_Penalty>
1.93497

> <i_epik_Tot_Q>
1

> <i_epik_Tot_abs_Q>
1

> <r_epik_Metal_State_Penalty>
1.10045

> <b_epik_Metal_Only>
0

> <s_lp_Force_Field>
OPLS_2005

> <r_lp_Energy>
6.75026

> <b_lp_Chiralities_Consistent>
1

> <s_lp_Variant>
AV-unprocessed.smi:1856-8

> <Gold.Version>
5.8.1

> <Gold.Id.Protein>
6NUR|6NUR_protein|mol2

> <Gold.PLP.Fitness>
53.7813

> <Gold.PLP.PLP>
-43.0429

> <Gold.PLP.part.hbond>
-5.5726

> <Gold.PLP.part.metal>
0.0000

> <Gold.PLP.part.buried>
-5.0605

> <Gold.PLP.part.nonpolar>
-34.1614

> <Gold.PLP.part.repulsive>
1.5610

> <Gold.PLP.ligand.clash>
0.0000

> <Gold.PLP.ligand.torsion>
0.6419

> <Gold.PLP.Chemscore.Hbond>
3.9913

> <Gold.PLP.Chemscore.CHOScore>
0.0000

> <Gold.PLP.Chemscore.Metal>
0.0000

> <Gold.Chemscore.Hbonds>
donor molecule, donor type, donor heavy atom, donor atom, acceptor molecule, acceptor atom, score
      L1  H     6    29       P1  7948  1.00
      L1  H    10    45       P1  7948  2.00
      L1  H    21    44       P1  8028  1.00

> <Gold.PLP.Chemscore.Internal.Correction>
0.0484

> <Gold.Rescore>
     Score         DG    S(hbond)    S(metal)    S(lipo)     H(rot)  DE(clash)    DE(int)     intcor
     15.62     -19.17       2.96        0.00      87.60       2.52       1.90       1.65       ----

> <Gold.Chemscore.Fitness>
15.6157

> <Gold.Chemscore.DG>
-19.1667

> <Gold.Chemscore.ZeroCoef>
-5.4800

> <Gold.Chemscore.Hbond>
2.9576

> <Gold.Chemscore.Metal>
0.0000

> <Gold.Chemscore.Lipo>
87.6007

> <Gold.Chemscore.Internal_Hbond>
0.0000

> <Gold.Chemscore.DEClash>
1.8966

> <Gold.Chemscore.DEInternal>
1.6544

> <Gold.Chemscore.Rot>
2.5161

> <Gold.Chemscore.Internal.Correction>
   9.000000E+99

> <Gold.Chemscore.Hbonds>
donor molecule, donor type, donor heavy atom, donor atom, acceptor molecule, acceptor atom, score
      L1  H     6    29       P1  7948  1.00
      L1  H    10    45       P1  7948  0.97
      L1  H    21    44       P1  8028  0.98
      P1  H  8011  8017       L1    21  0.02

> <Gold.Chemscore.Hbond.Weighted>
-9.8785

> <Gold.Chemscore.Metal.Weighted>
-0.0000

> <Gold.Chemscore.Lipo.Weighted>
-10.2493

> <Gold.Chemscore.Internal_Hbond.Weighted>
0.0000

> <Gold.Chemscore.DEClash.Weighted>
1.8966

> <Gold.Chemscore.DEInternal.Weighted>
1.6544

> <Gold.Chemscore.Rot.Weighted>
6.4412

> <Gold.Chemscore.Internal.Correction.Weighted>
   9.000000E+99

> <Gold.Protein.RotatedTorsions>
[ 6907 6896 6895 6894 ] final  -94.37 input  -60.11 | X-H torsion
[ 7974 7965 7964 7962 ] final   31.03 input  175.53 | X-H torsion
[ 8008 7997 7996 7995 ] final -127.37 input   59.86 | X-H torsion
[ 10167 10162 10161 10158 ] final  -13.73 input  -65.29 | X-H torsion
[ 10718 10713 10712 10709 ] final  133.00 input   66.30 | X-H torsion
[ 10763 10752 10751 10750 ] final -112.01 input  -60.55 | X-H torsion
[ 11005 11000 10999 10996 ] final -114.63 input  -57.11 | X-H torsion

> <Gold.Protein.ActiveResidues>
 VAL166  LYS551  ARG553  GLY616  TRP617  ASP618  TYR619  PRO620  LYS621  CYS622 
 ASP623  PHE694  ASN695  SER759  ASP760  ASP761  ALA762  ILE779  LEU786  VAL792 
 PHE793  MET794  SER795  GLU796  ALA797  LYS798  CYS799  TRP800  GLU811  SER814 

> <Gold.Protein.RotatedAtoms>
  150.6940  134.1822  159.4252 H   0  0  0  0  0  0  0  0  0  0  0  0  # atno 6907 bound_to 6896
  151.9796  135.0033  160.0566 H   0  0  0  0  0  0  0  0  0  0  0  0  # atno 6908 bound_to 6896
  152.1767  133.4644  159.4973 H   0  0  0  0  0  0  0  0  0  0  0  0  # atno 6909 bound_to 6896
  146.1575  139.6710  142.9056 H   0  0  0  0  0  0  0  0  0  0  0  0  # atno 7974 bound_to 7965
  155.2450  140.0430  157.2980 H   0  0  0  0  0  0  0  0  0  0  0  0  # atno 8008 bound_to 7997
  154.5804  140.2399  155.8031 H   0  0  0  0  0  0  0  0  0  0  0  0  # atno 8009 bound_to 7997
  156.2189  140.2976  155.9913 H   0  0  0  0  0  0  0  0  0  0  0  0  # atno 8010 bound_to 7997
  140.7188  143.5396  150.9425 H   0  0  0  0  0  0  0  0  0  0  0  0  # atno 10167 bound_to 10162
  157.4816  131.1086  150.9675 H   0  0  0  0  0  0  0  0  0  0  0  0  # atno 10718 bound_to 10713
  154.8328  135.4506  154.1127 H   0  0  0  0  0  0  0  0  0  0  0  0  # atno 10763 bound_to 10752
  153.2385  135.6913  153.7816 H   0  0  0  0  0  0  0  0  0  0  0  0  # atno 10764 bound_to 10752
  153.7172  135.3347  155.3235 H   0  0  0  0  0  0  0  0  0  0  0  0  # atno 10765 bound_to 10752
  141.0539  133.9643  157.2788 H   0  0  0  0  0  0  0  0  0  0  0  0  # atno 11005 bound_to 11000
  145.4672  141.0435  143.2719 LP  0  0  0  0  0  0  0  0  0  0  0  0  # atno 17320 bound_to 7965
  144.7983  139.6191  143.7083 LP  0  0  0  0  0  0  0  0  0  0  0  0  # atno 17321 bound_to 7965
  139.9118  143.6711  152.3113 LP  0  0  0  0  0  0  0  0  0  0  0  0  # atno 17342 bound_to 10162
  139.7097  144.7622  151.1133 LP  0  0  0  0  0  0  0  0  0  0  0  0  # atno 17343 bound_to 10162
  157.0406  130.5747  149.5355 LP  0  0  0  0  0  0  0  0  0  0  0  0  # atno 17370 bound_to 10713
  156.0124  130.5217  150.8031 LP  0  0  0  0  0  0  0  0  0  0  0  0  # atno 17371 bound_to 10713
  139.9374  135.0195  156.8598 LP  0  0  0  0  0  0  0  0  0  0  0  0  # atno 17394 bound_to 11000
  140.6001  134.0179  155.7534 LP  0  0  0  0  0  0  0  0  0  0  0  0  # atno 17395 bound_to 11000

$$$$
