AV-unprocessed.smi:2096|AV-procd|sdf|8562|dock4
  -GOLD-   2272011293D 1   1.00000     0.00000
 Structure written by MMmdl.
 35 36  0  0  0  0  0  0  0  0  1 V2000
  154.4170  140.4023  160.8347 C   0  0  0  0  0  0  0  0  0  0  0  0
  153.5557  141.5563  160.6820 N   0  0  0  0  0  0  0  0  0  0  0  0
  153.4001  142.4529  161.7673 C   0  0  0  0  0  0  0  0  0  0  0  0
  153.9746  142.2988  162.8454 O   0  0  0  0  0  0  0  0  0  0  0  0
  152.5051  143.5725  161.4996 C   0  0  0  0  0  0  0  0  0  0  0  0
  151.8985  143.7060  160.2999 C   0  0  0  0  0  0  0  0  0  0  0  0
  152.0710  142.8164  159.2552 N   0  0  0  0  0  0  0  0  0  0  0  0
  151.3617  143.0336  157.9879 C   0  0  0  0  0  0  0  0  0  0  0  0
  150.4301  141.8716  157.6190 C   0  0  0  0  0  0  0  0  0  0  0  0
  150.4884  140.8014  158.2262 O   0  0  0  0  0  0  0  0  0  0  0  0
  149.5559  142.1065  156.6308 N   0  0  0  0  0  0  0  0  0  0  0  0
  148.5904  141.1343  156.1381 C   0  0  0  0  0  0  0  0  0  0  0  0
  148.3989  141.2880  154.6344 C   0  0  0  0  0  0  0  0  0  0  0  0
  147.2615  142.1721  154.1022 C   0  0  0  0  0  0  0  0  0  0  0  0
  147.1024  141.1898  152.9385 C   0  0  0  0  0  0  0  0  0  0  0  0
  147.7831  140.1395  153.8200 C   0  0  0  0  0  0  0  0  0  0  0  0
  152.9183  141.7015  159.4305 C   0  0  0  0  0  0  0  0  0  0  0  0
  153.0885  140.8893  158.5175 O   0  0  0  0  0  0  0  0  0  0  0  0
  154.8568  140.3622  161.8305 H   0  0  0  0  0  0  0  0  0  0  0  0
  155.2056  140.4868  160.0847 H   0  0  0  0  0  0  0  0  0  0  0  0
  153.8022  139.5161  160.6675 H   0  0  0  0  0  0  0  0  0  0  0  0
  152.3251  144.3046  162.2731 H   0  0  0  0  0  0  0  0  0  0  0  0
  151.2417  144.5511  160.1531 H   0  0  0  0  0  0  0  0  0  0  0  0
  150.7625  143.9430  158.0488 H   0  0  0  0  0  0  0  0  0  0  0  0
  152.0778  143.2071  157.1821 H   0  0  0  0  0  0  0  0  0  0  0  0
  149.5673  143.0118  156.1841 H   0  0  0  0  0  0  0  0  0  0  0  0
  148.9356  140.1269  156.3768 H   0  0  0  0  0  0  0  0  0  0  0  0
  147.6423  141.2764  156.6585 H   0  0  0  0  0  0  0  0  0  0  0  0
  149.3302  141.5977  154.1549 H   0  0  0  0  0  0  0  0  0  0  0  0
  146.3916  142.1871  154.7612 H   0  0  0  0  0  0  0  0  0  0  0  0
  147.5639  143.1791  153.8130 H   0  0  0  0  0  0  0  0  0  0  0  0
  146.0706  140.9621  152.6694 H   0  0  0  0  0  0  0  0  0  0  0  0
  147.6996  141.4642  152.0676 H   0  0  0  0  0  0  0  0  0  0  0  0
  148.5061  139.5079  153.3030 H   0  0  0  0  0  0  0  0  0  0  0  0
  147.0699  139.5463  154.3950 H   0  0  0  0  0  0  0  0  0  0  0  0
  1  2  1  0  0  0  0
  1 19  1  0  0  0  0
  1 20  1  0  0  0  0
  1 21  1  0  0  0  0
  2 17  1  0  0  0  0
  2  3  1  0  0  0  0
  3  4  2  0  0  0  0
  3  5  1  0  0  0  0
  5  6  2  0  0  0  0
  5 22  1  0  0  0  0
  6  7  1  0  0  0  0
  6 23  1  0  0  0  0
  7  8  1  0  0  0  0
  7 17  1  0  0  0  0
  8  9  1  0  0  0  0
  8 24  1  0  0  0  0
  8 25  1  0  0  0  0
  9 10  2  0  0  0  0
  9 11  1  0  0  0  0
 11 12  1  0  0  0  0
 11 26  1  0  0  0  0
 12 13  1  0  0  0  0
 12 27  1  0  0  0  0
 12 28  1  0  0  0  0
 13 16  1  0  0  0  0
 13 14  1  0  0  0  0
 13 29  1  0  0  0  0
 14 15  1  0  0  0  0
 14 30  1  0  0  0  0
 14 31  1  0  0  0  0
 15 16  1  0  0  0  0
 15 32  1  0  0  0  0
 15 33  1  0  0  0  0
 16 34  1  0  0  0  0
 16 35  1  0  0  0  0
 17 18  2  0  0  0  0
M  END
> <s_m_source_file>
AV-unprocessed.smi

> <i_m_source_file_index>
2096

> <i_lp_mmshare_version>
43012

> <i_f3d_flags>
0

> <s_epik_input>
W0NIM11uMWMoPU8pW2NIXVtjSF1uKGMxPU8pW0NIMl1DKD1PKVtOSF1bQ0gyXVtDSF0yW0NIMl1bQ0gyXVtDSDJdMg==

> <s_epik_cmdline>
J2VwaWtfcHl0aG9uJywgJy1waCcsICc3LjAnLCAnLXRuJywgJzgnLCAnLW1hJywgJzIwMCcsICctbWV0YWxfYmluZGluZycsICctaW1hZScsICc8aW5maWxlLm1hZT4nLCAnLW9tYWUnLCAnPG91dGZpbGUubWFlPic=

> <r_lp_tautomer_probability>
1

> <r_epik_Ionization_Penalty>
3.11585e-08

> <r_epik_Ionization_Penalty_Charging>
1.18568e-08

> <r_epik_Ionization_Penalty_Neutral>
1.93017e-08

> <r_epik_State_Penalty>
-0

> <r_epik_Charging_Adjusted_Penalty>
1.18568e-08

> <i_epik_Tot_Q>
0

> <i_epik_Tot_abs_Q>
0

> <r_epik_Metal_State_Penalty>
-0

> <b_epik_Metal_Only>
0

> <s_lp_Force_Field>
OPLS_2005

> <r_lp_Energy>
20.363

> <b_lp_Chiralities_Consistent>
1

> <s_lp_Variant>
AV-unprocessed.smi:2096-1

> <Gold.Version>
5.8.1

> <Gold.Id.Protein>
6NUR|6NUR_protein|mol2

> <Gold.PLP.Fitness>
43.4026

> <Gold.PLP.PLP>
-40.7666

> <Gold.PLP.part.hbond>
-3.0000

> <Gold.PLP.part.metal>
0.0000

> <Gold.PLP.part.buried>
-3.2297

> <Gold.PLP.part.nonpolar>
-33.0412

> <Gold.PLP.part.repulsive>
0.0676

> <Gold.PLP.ligand.clash>
0.0000

> <Gold.PLP.ligand.torsion>
0.6156

> <Gold.PLP.Chemscore.Hbond>
1.2636

> <Gold.PLP.Chemscore.CHOScore>
0.0000

> <Gold.PLP.Chemscore.Metal>
0.0000

> <Gold.Chemscore.Hbonds>
donor molecule, donor type, donor heavy atom, donor atom, acceptor molecule, acceptor atom, score
      L1  H    11    26       P1  8028  1.00
      P1  H  7997  8008       L1    18  0.25

> <Gold.PLP.Chemscore.Internal.Correction>
0.0764

> <Gold.Rescore>
     Score         DG    S(hbond)    S(metal)    S(lipo)     H(rot)  DE(clash)    DE(int)     intcor
     10.59     -14.19       1.43        0.00      72.48       1.78       0.59       3.01       ----

> <Gold.Chemscore.Fitness>
10.5905

> <Gold.Chemscore.DG>
-14.1889

> <Gold.Chemscore.ZeroCoef>
-5.4800

> <Gold.Chemscore.Hbond>
1.4349

> <Gold.Chemscore.Metal>
0.0000

> <Gold.Chemscore.Lipo>
72.4790

> <Gold.Chemscore.Internal_Hbond>
0.0000

> <Gold.Chemscore.DEClash>
0.5903

> <Gold.Chemscore.DEInternal>
3.0082

> <Gold.Chemscore.Rot>
1.7827

> <Gold.Chemscore.Internal.Correction>
   9.000000E+99

> <Gold.Chemscore.Hbonds>
donor molecule, donor type, donor heavy atom, donor atom, acceptor molecule, acceptor atom, score
      L1  H    11    26       P1  8028  0.99
      P1  H  7997  8008       L1    18  0.26

> <Gold.Chemscore.Hbond.Weighted>
-4.7924

> <Gold.Chemscore.Metal.Weighted>
-0.0000

> <Gold.Chemscore.Lipo.Weighted>
-8.4800

> <Gold.Chemscore.Internal_Hbond.Weighted>
0.0000

> <Gold.Chemscore.DEClash.Weighted>
0.5903

> <Gold.Chemscore.DEInternal.Weighted>
3.0082

> <Gold.Chemscore.Rot.Weighted>
4.5636

> <Gold.Chemscore.Internal.Correction.Weighted>
   9.000000E+99

> <Gold.Protein.RotatedTorsions>
[ 6907 6896 6895 6894 ] final  -48.07 input  -60.11 | X-H torsion
[ 7974 7965 7964 7962 ] final    6.42 input  175.53 | X-H torsion
[ 8008 7997 7996 7995 ] final  -88.84 input   59.86 | X-H torsion
[ 10167 10162 10161 10158 ] final  -36.22 input  -65.29 | X-H torsion
[ 10718 10713 10712 10709 ] final   69.73 input   66.30 | X-H torsion
[ 10763 10752 10751 10750 ] final  -48.85 input  -60.55 | X-H torsion
[ 11005 11000 10999 10996 ] final -113.26 input  -57.11 | X-H torsion

> <Gold.Protein.ActiveResidues>
 VAL166  LYS551  ARG553  GLY616  TRP617  ASP618  TYR619  PRO620  LYS621  CYS622 
 ASP623  PHE694  ASN695  SER759  ASP760  ASP761  ALA762  ILE779  LEU786  VAL792 
 PHE793  MET794  SER795  GLU796  ALA797  LYS798  CYS799  TRP800  GLU811  SER814 

> <Gold.Protein.RotatedAtoms>
  150.8943  134.8350  159.7315 H   0  0  0  0  0  0  0  0  0  0  0  0  # atno 6907 bound_to 6896
  152.4856  134.4599  159.9612 H   0  0  0  0  0  0  0  0  0  0  0  0  # atno 6908 bound_to 6896
  151.4658  133.3542  159.2851 H   0  0  0  0  0  0  0  0  0  0  0  0  # atno 6909 bound_to 6896
  146.2435  140.0236  142.8396 H   0  0  0  0  0  0  0  0  0  0  0  0  # atno 7974 bound_to 7965
  154.6795  140.0549  157.0251 H   0  0  0  0  0  0  0  0  0  0  0  0  # atno 8008 bound_to 7997
  155.0972  140.3225  155.4538 H   0  0  0  0  0  0  0  0  0  0  0  0  # atno 8009 bound_to 7997
  156.2689  140.2037  156.6098 H   0  0  0  0  0  0  0  0  0  0  0  0  # atno 8010 bound_to 7997
  140.7147  143.3423  151.2330 H   0  0  0  0  0  0  0  0  0  0  0  0  # atno 10167 bound_to 10162
  157.6361  130.9440  150.0553 H   0  0  0  0  0  0  0  0  0  0  0  0  # atno 10718 bound_to 10713
  154.0845  135.6586  153.4843 H   0  0  0  0  0  0  0  0  0  0  0  0  # atno 10763 bound_to 10752
  153.0344  135.5187  154.7441 H   0  0  0  0  0  0  0  0  0  0  0  0  # atno 10764 bound_to 10752
  154.6546  135.3006  154.9912 H   0  0  0  0  0  0  0  0  0  0  0  0  # atno 10765 bound_to 10752
  141.0625  133.9512  157.2640 H   0  0  0  0  0  0  0  0  0  0  0  0  # atno 11005 bound_to 11000
  145.1218  140.9467  143.4595 LP  0  0  0  0  0  0  0  0  0  0  0  0  # atno 17320 bound_to 7965
  145.0473  139.3210  143.5946 LP  0  0  0  0  0  0  0  0  0  0  0  0  # atno 17321 bound_to 7965
  139.6934  143.9654  152.2870 LP  0  0  0  0  0  0  0  0  0  0  0  0  # atno 17342 bound_to 10162
  139.9323  144.6734  150.8350 LP  0  0  0  0  0  0  0  0  0  0  0  0  # atno 17343 bound_to 10162
  156.1602  130.3644  149.9310 LP  0  0  0  0  0  0  0  0  0  0  0  0  # atno 17370 bound_to 10713
  156.7310  130.9043  151.3625 LP  0  0  0  0  0  0  0  0  0  0  0  0  # atno 17371 bound_to 10713
  139.9446  135.0186  156.8812 LP  0  0  0  0  0  0  0  0  0  0  0  0  # atno 17394 bound_to 11000
  140.5840  134.0325  155.7474 LP  0  0  0  0  0  0  0  0  0  0  0  0  # atno 17395 bound_to 11000

$$$$
