AV-unprocessed.smi:1041|AV-procd|sdf|4533|dock7
  -GOLD-   22720 2553D 1   1.00000     0.00000
 Structure written by MMmdl.
 52 53  0  0  0  0  0  0  0  0  3 V2000
  144.3871  131.4513  150.9797 C   0  0  0  0  0  0  0  0  0  0  0  0
  143.7489  132.6900  150.7228 O   0  0  0  0  0  0  0  0  0  0  0  0
  144.2155  133.7289  151.5679 C   0  0  0  0  0  0  0  0  0  0  0  0
  145.7418  133.8344  151.4298 C   0  0  0  0  0  0  0  0  0  0  0  0
  146.2576  135.1664  151.8370 N   0  3  2  0  0  0  0  0  0  0  0  0
  145.9226  135.4905  153.2467 C   0  0  0  0  0  0  0  0  0  0  0  0
  146.5884  136.8030  153.6866 C   0  0  0  0  0  0  0  0  0  0  0  0
  146.1900  137.9736  152.7636 C   0  0  1  0  0  0  0  0  0  0  0  0
  146.8488  139.3114  153.1599 C   0  0  0  0  0  0  0  0  0  0  0  0
  148.2996  139.1781  153.1824 N   0  0  0  0  0  0  0  0  0  0  0  0
  149.0262  138.6904  154.1987 C   0  0  0  0  0  0  0  0  0  0  0  0
  148.5483  138.0803  155.1546 O   0  0  0  0  0  0  0  0  0  0  0  0
  150.5196  139.0102  154.1530 C   0  0  0  0  0  0  0  0  0  0  0  0
  151.0413  139.6804  155.4245 C   0  0  0  0  0  0  0  0  0  0  0  0
  150.4873  140.8062  155.9592 C   0  0  0  0  0  0  0  0  0  0  0  0
  149.2697  141.4919  155.3649 C   0  0  0  0  0  0  0  0  0  0  0  0
  151.0363  141.4149  157.1005 N   0  0  0  0  0  0  0  0  0  0  0  0
  152.0829  140.9163  157.6386 C   0  0  0  0  0  0  0  0  0  0  0  0
  152.6702  141.5785  158.8666 C   0  0  0  0  0  0  0  0  0  0  0  0
  152.7260  139.7923  157.1712 N   0  5  0  0  0  0  0  0  0  0  0  0
  152.2435  139.1331  156.0801 C   0  0  0  0  0  0  0  0  0  0  0  0
  152.7895  138.1253  155.6325 O   0  0  0  0  0  0  0  0  0  0  0  0
  146.5178  137.5929  151.3105 C   0  0  0  0  0  0  0  0  0  0  0  0
  145.8540  136.2626  150.9164 C   0  0  0  0  0  0  0  0  0  0  0  0
  143.9967  130.6912  150.3032 H   0  0  0  0  0  0  0  0  0  0  0  0
  144.2037  131.1178  152.0021 H   0  0  0  0  0  0  0  0  0  0  0  0
  145.4641  131.5209  150.8215 H   0  0  0  0  0  0  0  0  0  0  0  0
  143.7241  134.6719  151.3284 H   0  0  0  0  0  0  0  0  0  0  0  0
  143.9631  133.4932  152.6029 H   0  0  0  0  0  0  0  0  0  0  0  0
  146.2336  133.0569  152.0165 H   0  0  0  0  0  0  0  0  0  0  0  0
  145.9995  133.6404  150.3876 H   0  0  0  0  0  0  0  0  0  0  0  0
  144.8396  135.5601  153.3610 H   0  0  0  0  0  0  0  0  0  0  0  0
  146.2592  134.6860  153.9020 H   0  0  0  0  0  0  0  0  0  0  0  0
  146.2993  137.0075  154.7171 H   0  0  0  0  0  0  0  0  0  0  0  0
  147.6728  136.6843  153.6895 H   0  0  0  0  0  0  0  0  0  0  0  0
  145.1089  138.1041  152.8387 H   0  0  0  0  0  0  0  0  0  0  0  0
  146.5291  140.1059  152.4841 H   0  0  0  0  0  0  0  0  0  0  0  0
  146.5235  139.6054  154.1580 H   0  0  0  0  0  0  0  0  0  0  0  0
  148.8032  139.6421  152.4392 H   0  0  0  0  0  0  0  0  0  0  0  0
  151.0690  138.0849  153.9791 H   0  0  0  0  0  0  0  0  0  0  0  0
  150.7289  139.6265  153.2777 H   0  0  0  0  0  0  0  0  0  0  0  0
  148.4101  140.8214  155.3737 H   0  0  0  0  0  0  0  0  0  0  0  0
  149.4649  141.7960  154.3366 H   0  0  0  0  0  0  0  0  0  0  0  0
  149.0029  142.3846  155.9318 H   0  0  0  0  0  0  0  0  0  0  0  0
  152.4496  140.9855  159.7545 H   0  0  0  0  0  0  0  0  0  0  0  0
  152.2567  142.5779  159.0089 H   0  0  0  0  0  0  0  0  0  0  0  0
  153.7527  141.6700  158.7713 H   0  0  0  0  0  0  0  0  0  0  0  0
  146.1849  138.3812  150.6344 H   0  0  0  0  0  0  0  0  0  0  0  0
  147.5985  137.5131  151.1828 H   0  0  0  0  0  0  0  0  0  0  0  0
  146.1342  136.0219  149.8917 H   0  0  0  0  0  0  0  0  0  0  0  0
  144.7680  136.3686  150.9292 H   0  0  0  0  0  0  0  0  0  0  0  0
  147.2652  135.1024  151.7990 H   0  0  0  0  0  0  0  0  0  0  0  0
  1  2  1  0  0  0  0
  1 25  1  0  0  0  0
  1 26  1  0  0  0  0
  1 27  1  0  0  0  0
  2  3  1  0  0  0  0
  3  4  1  0  0  0  0
  3 28  1  0  0  0  0
  3 29  1  0  0  0  0
  4  5  1  0  0  0  0
  4 30  1  0  0  0  0
  4 31  1  0  0  0  0
  5 24  1  0  0  0  0
  5  6  1  0  0  0  0
  5 52  1  0  0  0  0
  6  7  1  0  0  0  0
  6 32  1  0  0  0  0
  6 33  1  0  0  0  0
  7  8  1  0  0  0  0
  7 34  1  0  0  0  0
  7 35  1  0  0  0  0
  8  9  1  0  0  0  0
  8 23  1  0  0  0  0
  8 36  1  0  0  0  0
  9 10  1  0  0  0  0
  9 37  1  0  0  0  0
  9 38  1  0  0  0  0
 10 11  1  0  0  0  0
 10 39  1  0  0  0  0
 11 12  2  0  0  0  0
 11 13  1  0  0  0  0
 13 14  1  0  0  0  0
 13 40  1  0  0  0  0
 13 41  1  0  0  0  0
 14 21  1  0  0  0  0
 14 15  2  0  0  0  0
 15 16  1  0  0  0  0
 15 17  1  0  0  0  0
 16 42  1  0  0  0  0
 16 43  1  0  0  0  0
 16 44  1  0  0  0  0
 17 18  2  0  0  0  0
 18 19  1  0  0  0  0
 18 20  1  0  0  0  0
 19 45  1  0  0  0  0
 19 46  1  0  0  0  0
 19 47  1  0  0  0  0
 20 21  1  0  0  0  0
 21 22  2  0  0  0  0
 23 24  1  0  0  0  0
 23 48  1  0  0  0  0
 23 49  1  0  0  0  0
 24 50  1  0  0  0  0
 24 51  1  0  0  0  0
M  CHG  1   5   1
M  CHG  1  20  -1
M  END
> <s_m_source_file>
AV-unprocessed.smi

> <i_m_source_file_index>
1041

> <i_lp_mmshare_version>
43012

> <i_f3d_flags>
0

> <s_epik_input>
W0NIM11PW0NIMl1bQ0gyXU4xW0NIMl1bQ0gyXVtDSF0oW0NIMl1bQ0gyXTEpW0NIMl1bTkhdQyg9TylbQ0gyXWMyYyhbQ0gzXSluYyhbQ0gzXSlbbkhdYzI9Tw==

> <s_epik_cmdline>
J2VwaWtfcHl0aG9uJywgJy1waCcsICc3LjAnLCAnLXRuJywgJzgnLCAnLW1hJywgJzIwMCcsICctbWV0YWxfYmluZGluZycsICctaW1hZScsICc8aW5maWxlLm1hZT4nLCAnLW9tYWUnLCAnPG91dGZpbGUubWFlPic=

> <r_lp_tautomer_probability>
0.839158

> <r_epik_Ionization_Penalty>
6.54961

> <r_epik_Ionization_Penalty_Charging>
0.00968647

> <r_epik_Ionization_Penalty_Neutral>
6.53992

> <r_epik_State_Penalty>
4.43892

> <r_epik_Charging_Adjusted_Penalty>
4.44861

> <i_epik_Tot_Q>
0

> <i_epik_Tot_abs_Q>
2

> <r_epik_Metal_State_Penalty>
0.818645

> <b_epik_Metal_Only>
1

> <s_lp_Force_Field>
OPLS_2005

> <r_lp_Energy>
18.5529

> <b_lp_Chiralities_Consistent>
1

> <s_lp_Variant>
AV-unprocessed.smi:1041-6

> <Gold.Version>
5.8.1

> <Gold.Id.Protein>
6NUR|6NUR_protein|mol2

> <Gold.PLP.Fitness>
51.8384

> <Gold.PLP.PLP>
-38.1496

> <Gold.PLP.part.hbond>
-3.4749

> <Gold.PLP.part.metal>
0.0000

> <Gold.PLP.part.buried>
0.3136

> <Gold.PLP.part.nonpolar>
-34.9817

> <Gold.PLP.part.repulsive>
0.4695

> <Gold.PLP.ligand.clash>
0.0000

> <Gold.PLP.ligand.torsion>
0.4288

> <Gold.PLP.Chemscore.Hbond>
4.7920

> <Gold.PLP.Chemscore.CHOScore>
0.0000

> <Gold.PLP.Chemscore.Metal>
0.0000

> <Gold.Chemscore.Hbonds>
donor molecule, donor type, donor heavy atom, donor atom, acceptor molecule, acceptor atom, score
      L1  H     5    52       P1  7948  1.73
      L1  H    10    39       P1  7957  1.00
      P1  H  7997  8009       L1    20  2.00

> <Gold.PLP.Chemscore.Internal.Correction>
0.1704

> <Gold.Rescore>
     Score         DG    S(hbond)    S(metal)    S(lipo)     H(rot)  DE(clash)    DE(int)     intcor
     13.79     -18.33       2.40        0.00      92.82       2.35       1.65       2.88       ----

> <Gold.Chemscore.Fitness>
13.7937

> <Gold.Chemscore.DG>
-18.3253

> <Gold.Chemscore.ZeroCoef>
-5.4800

> <Gold.Chemscore.Hbond>
2.3970

> <Gold.Chemscore.Metal>
0.0000

> <Gold.Chemscore.Lipo>
92.8232

> <Gold.Chemscore.Internal_Hbond>
0.0000

> <Gold.Chemscore.DEClash>
1.6512

> <Gold.Chemscore.DEInternal>
2.8804

> <Gold.Chemscore.Rot>
2.3520

> <Gold.Chemscore.Internal.Correction>
   9.000000E+99

> <Gold.Chemscore.Hbonds>
donor molecule, donor type, donor heavy atom, donor atom, acceptor molecule, acceptor atom, score
      L1  H     5    52       P1  7948  0.79
      L1  H    10    39       P1  7957  0.96
      P1  H  7997  8009       L1    20  0.42

> <Gold.Chemscore.Hbond.Weighted>
-8.0061

> <Gold.Chemscore.Metal.Weighted>
-0.0000

> <Gold.Chemscore.Lipo.Weighted>
-10.8603

> <Gold.Chemscore.Internal_Hbond.Weighted>
0.0000

> <Gold.Chemscore.DEClash.Weighted>
1.6512

> <Gold.Chemscore.DEInternal.Weighted>
2.8804

> <Gold.Chemscore.Rot.Weighted>
6.0211

> <Gold.Chemscore.Internal.Correction.Weighted>
   9.000000E+99

> <Gold.Protein.RotatedTorsions>
[ 6907 6896 6895 6894 ] final  -59.50 input  -60.11 | X-H torsion
[ 7974 7965 7964 7962 ] final   11.47 input  175.53 | X-H torsion
[ 8008 7997 7996 7995 ] final  167.87 input   59.86 | X-H torsion
[ 10167 10162 10161 10158 ] final -114.14 input  -65.29 | X-H torsion
[ 10718 10713 10712 10709 ] final -165.33 input   66.30 | X-H torsion
[ 10763 10752 10751 10750 ] final  -20.05 input  -60.55 | X-H torsion
[ 11005 11000 10999 10996 ] final   21.71 input  -57.11 | X-H torsion

> <Gold.Protein.ActiveResidues>
 VAL166  LYS551  ARG553  GLY616  TRP617  ASP618  TYR619  PRO620  LYS621  CYS622 
 ASP623  PHE694  ASN695  SER759  ASP760  ASP761  ALA762  ILE779  LEU786  VAL792 
 PHE793  MET794  SER795  GLU796  ALA797  LYS798  CYS799  TRP800  GLU811  SER814 

> <Gold.Protein.RotatedAtoms>
  150.7926  134.6960  159.6523 H   0  0  0  0  0  0  0  0  0  0  0  0  # atno 6907 bound_to 6896
  152.4033  134.6246  160.0069 H   0  0  0  0  0  0  0  0  0  0  0  0  # atno 6908 bound_to 6896
  151.6511  133.3284  159.3188 H   0  0  0  0  0  0  0  0  0  0  0  0  # atno 6909 bound_to 6896
  146.2370  139.9480  142.8474 H   0  0  0  0  0  0  0  0  0  0  0  0  # atno 7974 bound_to 7965
  156.1596  140.1605  156.8635 H   0  0  0  0  0  0  0  0  0  0  0  0  # atno 8008 bound_to 7997
  154.5148  140.0792  156.8095 H   0  0  0  0  0  0  0  0  0  0  0  0  # atno 8009 bound_to 7997
  155.3734  140.3401  155.4246 H   0  0  0  0  0  0  0  0  0  0  0  0  # atno 8010 bound_to 7997
  140.1042  143.4585  152.1793 H   0  0  0  0  0  0  0  0  0  0  0  0  # atno 10167 bound_to 10162
  156.6518  130.9010  151.3014 H   0  0  0  0  0  0  0  0  0  0  0  0  # atno 10718 bound_to 10713
  153.6143  135.6995  153.5335 H   0  0  0  0  0  0  0  0  0  0  0  0  # atno 10763 bound_to 10752
  153.2990  135.4134  155.1235 H   0  0  0  0  0  0  0  0  0  0  0  0  # atno 10764 bound_to 10752
  154.8557  135.3644  154.5682 H   0  0  0  0  0  0  0  0  0  0  0  0  # atno 10765 bound_to 10752
  140.3886  134.1843  155.7663 H   0  0  0  0  0  0  0  0  0  0  0  0  # atno 11005 bound_to 11000
  145.1889  140.9802  143.4223 LP  0  0  0  0  0  0  0  0  0  0  0  0  # atno 17320 bound_to 7965
  144.9875  139.3722  143.6231 LP  0  0  0  0  0  0  0  0  0  0  0  0  # atno 17321 bound_to 7965
  139.5654  144.7432  151.4036 LP  0  0  0  0  0  0  0  0  0  0  0  0  # atno 17342 bound_to 10162
  140.6961  143.7745  150.7329 LP  0  0  0  0  0  0  0  0  0  0  0  0  # atno 17343 bound_to 10162
  157.7138  130.9472  150.1183 LP  0  0  0  0  0  0  0  0  0  0  0  0  # atno 17370 bound_to 10713
  156.2078  130.3664  149.8708 LP  0  0  0  0  0  0  0  0  0  0  0  0  # atno 17371 bound_to 10713
  141.1899  133.8229  157.0941 LP  0  0  0  0  0  0  0  0  0  0  0  0  # atno 17394 bound_to 11000
  140.0423  134.9848  157.0985 LP  0  0  0  0  0  0  0  0  0  0  0  0  # atno 17395 bound_to 11000

$$$$
