AV-unprocessed.smi:1259|AV-procd|sdf|5292|dock2
  -GOLD-   22720 4413D 1   1.00000     0.00000
 Structure written by MMmdl.
 34 35  0  0  0  0  0  0  0  0  1 V2000
  153.7269  141.6746  160.7269 C   0  0  0  0  0  0  0  0  0  0  0  0
  152.7760  142.3226  159.7643 C   0  0  0  0  0  0  0  0  0  0  0  0
  151.9336  141.6912  158.8035 C   0  0  0  0  0  0  0  0  0  0  0  0
  151.2970  142.7515  158.2181 C   0  0  0  0  0  0  0  0  0  0  0  0
  150.3664  142.7490  157.2269 N   0  0  0  0  0  0  0  0  0  0  0  0
  149.6373  141.7204  156.7604 C   0  0  0  0  0  0  0  0  0  0  0  0
  149.6873  140.5630  157.1771 O   0  0  0  0  0  0  0  0  0  0  0  0
  148.8312  142.1143  155.7637 N   0  0  0  0  0  0  0  0  0  0  0  0
  147.9168  141.2509  155.0230 C   0  0  1  0  0  0  0  0  0  0  0  0
  147.0894  142.1192  154.0652 C   0  0  0  0  0  0  0  0  0  0  0  0
  148.6186  140.1327  154.2701 C   0  0  0  0  0  0  0  0  0  0  0  0
  149.0952  138.8923  154.9880 C   0  0  0  0  0  0  0  0  0  0  0  0
  150.0985  139.8788  154.4365 C   0  0  0  0  0  0  0  0  0  0  0  0
  151.7436  143.9162  158.8023 N   0  0  0  0  0  0  0  0  0  0  0  0
  151.3658  145.2895  158.5306 C   0  0  0  0  0  0  0  0  0  0  0  0
  152.6573  143.6457  159.7592 N   0  0  0  0  0  0  0  0  0  0  0  0
  153.7577  140.5943  160.5833 H   0  0  0  0  0  0  0  0  0  0  0  0
  153.4296  141.8636  161.7586 H   0  0  0  0  0  0  0  0  0  0  0  0
  154.7399  142.0555  160.5954 H   0  0  0  0  0  0  0  0  0  0  0  0
  151.8290  140.6366  158.5975 H   0  0  0  0  0  0  0  0  0  0  0  0
  150.2141  143.6405  156.7789 H   0  0  0  0  0  0  0  0  0  0  0  0
  148.8565  143.0855  155.4897 H   0  0  0  0  0  0  0  0  0  0  0  0
  147.2200  140.7967  155.7301 H   0  0  0  0  0  0  0  0  0  0  0  0
  146.3534  141.5197  153.5285 H   0  0  0  0  0  0  0  0  0  0  0  0
  147.7226  142.6086  153.3244 H   0  0  0  0  0  0  0  0  0  0  0  0
  146.5468  142.8952  154.6061 H   0  0  0  0  0  0  0  0  0  0  0  0
  148.2187  139.9663  153.2713 H   0  0  0  0  0  0  0  0  0  0  0  0
  148.9740  138.8528  156.0685 H   0  0  0  0  0  0  0  0  0  0  0  0
  148.9879  137.9409  154.4711 H   0  0  0  0  0  0  0  0  0  0  0  0
  150.6593  139.5869  153.5510 H   0  0  0  0  0  0  0  0  0  0  0  0
  150.6437  140.4904  155.1527 H   0  0  0  0  0  0  0  0  0  0  0  0
  150.3984  145.4987  158.9874 H   0  0  0  0  0  0  0  0  0  0  0  0
  151.2953  145.4486  157.4545 H   0  0  0  0  0  0  0  0  0  0  0  0
  152.1083  145.9773  158.9374 H   0  0  0  0  0  0  0  0  0  0  0  0
  1  2  1  0  0  0  0
  1 17  1  0  0  0  0
  1 18  1  0  0  0  0
  1 19  1  0  0  0  0
  2 16  2  0  0  0  0
  2  3  1  0  0  0  0
  3  4  2  0  0  0  0
  3 20  1  0  0  0  0
  4  5  1  0  0  0  0
  4 14  1  0  0  0  0
  5  6  1  0  0  0  0
  5 21  1  0  0  0  0
  6  7  2  0  0  0  0
  6  8  1  0  0  0  0
  8  9  1  0  0  0  0
  8 22  1  0  0  0  0
  9 10  1  0  0  0  0
  9 11  1  0  0  0  0
  9 23  1  0  0  0  0
 10 24  1  0  0  0  0
 10 25  1  0  0  0  0
 10 26  1  0  0  0  0
 11 13  1  0  0  0  0
 11 12  1  0  0  0  0
 11 27  1  0  0  0  0
 12 13  1  0  0  0  0
 12 28  1  0  0  0  0
 12 29  1  0  0  0  0
 13 30  1  0  0  0  0
 13 31  1  0  0  0  0
 14 15  1  0  0  0  0
 14 16  1  0  0  0  0
 15 32  1  0  0  0  0
 15 33  1  0  0  0  0
 15 34  1  0  0  0  0
M  END
> <s_m_source_file>
AV-unprocessed.smi

> <i_m_source_file_index>
1259

> <i_lp_mmshare_version>
43012

> <i_f3d_flags>
0

> <s_epik_input>
W0NIM11jMVtjSF1jKG4objEpW0NIM10pW05IXUMoPU8pW05IXVtDQEhdKFtDSDNdKVtDSF0yW0NIMl1bQ0gyXTI=

> <s_epik_cmdline>
J2VwaWtfcHl0aG9uJywgJy1waCcsICc3LjAnLCAnLXRuJywgJzgnLCAnLW1hJywgJzIwMCcsICctbWV0YWxfYmluZGluZycsICctaW1hZScsICc8aW5maWxlLm1hZT4nLCAnLW9tYWUnLCAnPG91dGZpbGUubWFlPic=

> <r_lp_tautomer_probability>
1

> <r_epik_Ionization_Penalty>
0.000100032

> <r_epik_Ionization_Penalty_Charging>
0

> <r_epik_Ionization_Penalty_Neutral>
0.000100032

> <r_epik_State_Penalty>
-0

> <r_epik_Charging_Adjusted_Penalty>
0

> <i_epik_Tot_Q>
0

> <i_epik_Tot_abs_Q>
0

> <r_epik_Metal_State_Penalty>
-0

> <b_epik_Metal_Only>
0

> <s_lp_Force_Field>
OPLS_2005

> <r_lp_Energy>
14.2964

> <b_lp_Chiralities_Consistent>
1

> <s_lp_Variant>
AV-unprocessed.smi:1259-2

> <Gold.Version>
5.8.1

> <Gold.Id.Protein>
6NUR|6NUR_protein|mol2

> <Gold.PLP.Fitness>
39.2223

> <Gold.PLP.PLP>
-34.3694

> <Gold.PLP.part.hbond>
-2.0000

> <Gold.PLP.part.metal>
0.0000

> <Gold.PLP.part.buried>
-3.6942

> <Gold.PLP.part.nonpolar>
-28.5806

> <Gold.PLP.part.repulsive>
0.1435

> <Gold.PLP.ligand.clash>
0.0000

> <Gold.PLP.ligand.torsion>
0.9657

> <Gold.PLP.Chemscore.Hbond>
1.9040

> <Gold.PLP.Chemscore.CHOScore>
0.0000

> <Gold.PLP.Chemscore.Metal>
0.0000

> <Gold.Chemscore.Hbonds>
donor molecule, donor type, donor heavy atom, donor atom, acceptor molecule, acceptor atom, score
      L1  H     5    21       P1  8028  0.89
      L1  H     8    22       P1  8028  1.00

> <Gold.PLP.Chemscore.Internal.Correction>
1.0723

> <Gold.Rescore>
     Score         DG    S(hbond)    S(metal)    S(lipo)     H(rot)  DE(clash)    DE(int)     intcor
     11.95     -15.62       1.34        0.00      74.76       1.20       1.42       2.25       ----

> <Gold.Chemscore.Fitness>
11.9502

> <Gold.Chemscore.DG>
-15.6219

> <Gold.Chemscore.ZeroCoef>
-5.4800

> <Gold.Chemscore.Hbond>
1.3368

> <Gold.Chemscore.Metal>
0.0000

> <Gold.Chemscore.Lipo>
74.7572

> <Gold.Chemscore.Internal_Hbond>
0.0000

> <Gold.Chemscore.DEClash>
1.4183

> <Gold.Chemscore.DEInternal>
2.2534

> <Gold.Chemscore.Rot>
1.1990

> <Gold.Chemscore.Internal.Correction>
   9.000000E+99

> <Gold.Chemscore.Hbonds>
donor molecule, donor type, donor heavy atom, donor atom, acceptor molecule, acceptor atom, score
      L1  H     5    21       P1  8028  0.81
      L1  H     8    22       P1  8028  0.99

> <Gold.Chemscore.Hbond.Weighted>
-4.4648

> <Gold.Chemscore.Metal.Weighted>
-0.0000

> <Gold.Chemscore.Lipo.Weighted>
-8.7466

> <Gold.Chemscore.Internal_Hbond.Weighted>
0.0000

> <Gold.Chemscore.DEClash.Weighted>
1.4183

> <Gold.Chemscore.DEInternal.Weighted>
2.2534

> <Gold.Chemscore.Rot.Weighted>
3.0695

> <Gold.Chemscore.Internal.Correction.Weighted>
   9.000000E+99

> <Gold.Protein.RotatedTorsions>
[ 6907 6896 6895 6894 ] final -142.39 input  -60.11 | X-H torsion
[ 7974 7965 7964 7962 ] final -175.99 input  175.53 | X-H torsion
[ 8008 7997 7996 7995 ] final  -26.67 input   59.86 | X-H torsion
[ 10167 10162 10161 10158 ] final  -57.52 input  -65.29 | X-H torsion
[ 10718 10713 10712 10709 ] final  -41.28 input   66.30 | X-H torsion
[ 10763 10752 10751 10750 ] final -172.25 input  -60.55 | X-H torsion
[ 11005 11000 10999 10996 ] final  146.05 input  -57.11 | X-H torsion

> <Gold.Protein.ActiveResidues>
 VAL166  LYS551  ARG553  GLY616  TRP617  ASP618  TYR619  PRO620  LYS621  CYS622 
 ASP623  PHE694  ASN695  SER759  ASP760  ASP761  ALA762  ILE779  LEU786  VAL792 
 PHE793  MET794  SER795  GLU796  ALA797  LYS798  CYS799  TRP800  GLU811  SER814 

> <Gold.Protein.RotatedAtoms>
  151.0864  133.5350  159.2617 H   0  0  0  0  0  0  0  0  0  0  0  0  # atno 6907 bound_to 6896
  151.2233  135.0526  159.8968 H   0  0  0  0  0  0  0  0  0  0  0  0  # atno 6908 bound_to 6896
  152.5429  134.0663  159.8228 H   0  0  0  0  0  0  0  0  0  0  0  0  # atno 6909 bound_to 6896
  144.7127  140.1238  143.6403 H   0  0  0  0  0  0  0  0  0  0  0  0  # atno 7974 bound_to 7965
  154.4414  140.1893  156.0811 H   0  0  0  0  0  0  0  0  0  0  0  0  # atno 8008 bound_to 7997
  156.0438  140.3316  155.7247 H   0  0  0  0  0  0  0  0  0  0  0  0  # atno 8009 bound_to 7997
  155.5660  140.0608  157.2808 H   0  0  0  0  0  0  0  0  0  0  0  0  # atno 8010 bound_to 7997
  140.6253  143.2436  151.5379 H   0  0  0  0  0  0  0  0  0  0  0  0  # atno 10167 bound_to 10162
  156.2721  130.4208  149.8427 H   0  0  0  0  0  0  0  0  0  0  0  0  # atno 10718 bound_to 10713
  154.6213  135.2875  155.0322 H   0  0  0  0  0  0  0  0  0  0  0  0  # atno 10763 bound_to 10752
  154.1516  135.6502  153.4968 H   0  0  0  0  0  0  0  0  0  0  0  0  # atno 10764 bound_to 10752
  153.0237  135.5357  154.7004 H   0  0  0  0  0  0  0  0  0  0  0  0  # atno 10765 bound_to 10752
  140.0762  134.9124  157.1426 H   0  0  0  0  0  0  0  0  0  0  0  0  # atno 11005 bound_to 11000
  145.9347  139.2629  143.1304 LP  0  0  0  0  0  0  0  0  0  0  0  0  # atno 17320 bound_to 7965
  145.9486  140.8926  143.0271 LP  0  0  0  0  0  0  0  0  0  0  0  0  # atno 17321 bound_to 7965
  139.5474  144.2484  152.1468 LP  0  0  0  0  0  0  0  0  0  0  0  0  # atno 17342 bound_to 10162
  140.1714  144.4932  150.6577 LP  0  0  0  0  0  0  0  0  0  0  0  0  # atno 17343 bound_to 10162
  156.5905  130.8504  151.3406 LP  0  0  0  0  0  0  0  0  0  0  0  0  # atno 17370 bound_to 10713
  157.7287  130.9661  150.1755 LP  0  0  0  0  0  0  0  0  0  0  0  0  # atno 17371 bound_to 10713
  140.3555  134.2552  155.7193 LP  0  0  0  0  0  0  0  0  0  0  0  0  # atno 17394 bound_to 11000
  141.2030  133.7923  157.0362 LP  0  0  0  0  0  0  0  0  0  0  0  0  # atno 17395 bound_to 11000

$$$$
