AV-unprocessed.smi:2217|AV-procd|sdf|8968|dock1
  -GOLD-   2272012183D 1   1.00000     0.00000
 Structure written by MMmdl.
 45 48  0  0  0  0  0  0  0  0  1 V2000
  144.2916  132.4430  150.6578 C   0  0  0  0  0  0  0  0  0  0  0  0
  144.5157  133.8873  151.0541 C   0  0  0  0  0  0  0  0  0  0  0  0
  145.7330  134.5360  150.7754 C   0  0  0  0  0  0  0  0  0  0  0  0
  145.8895  135.8808  151.1622 C   0  0  0  0  0  0  0  0  0  0  0  0
  144.8303  136.5484  151.8176 C   0  0  0  0  0  0  0  0  0  0  0  0
  145.1073  137.9068  152.1532 N   0  0  0  0  0  0  0  0  0  0  0  0
  146.2507  138.5214  152.5247 C   0  0  0  0  0  0  0  0  0  0  0  0
  147.3049  137.8956  152.6218 O   0  0  0  0  0  0  0  0  0  0  0  0
  146.1636  139.8369  152.7730 N   0  0  0  0  0  0  0  0  0  0  0  0
  147.2857  140.7027  153.1108 C   0  0  2  0  0  0  0  0  0  0  0  0
  148.2401  140.0547  154.1134 C   0  0  1  0  0  0  0  0  0  0  0  0
  149.6413  139.5618  154.0450 C   0  0  0  0  0  0  0  0  0  0  0  0
  150.1690  140.2311  155.3411 C   0  0  0  0  0  0  0  0  0  0  0  0
  149.1322  141.1483  155.7655 O   0  0  0  0  0  0  0  0  0  0  0  0
  148.4634  141.4837  154.5665 C   0  0  2  0  0  0  0  0  0  0  0  0
  146.9694  141.7250  154.2685 C   0  0  0  0  0  0  0  0  0  0  0  0
  146.5666  143.1431  153.8407 C   0  0  0  0  0  0  0  0  0  0  0  0
  145.3744  143.5891  154.6906 C   0  0  0  0  0  0  0  0  0  0  0  0
  144.7492  142.2944  155.1895 C   0  0  0  0  0  0  0  0  0  0  0  0
  145.9421  141.3600  155.3609 C   0  0  0  0  0  0  0  0  0  0  0  0
  143.6591  135.9125  152.0767 N   0  0  0  0  0  0  0  0  0  0  0  0
  143.5087  134.6235  151.7065 C   0  0  0  0  0  0  0  0  0  0  0  0
  145.2365  131.9008  150.6115 H   0  0  0  0  0  0  0  0  0  0  0  0
  143.8163  132.3917  149.6781 H   0  0  0  0  0  0  0  0  0  0  0  0
  143.6475  131.9397  151.3795 H   0  0  0  0  0  0  0  0  0  0  0  0
  146.5357  134.0155  150.2735 H   0  0  0  0  0  0  0  0  0  0  0  0
  146.8185  136.3920  150.9542 H   0  0  0  0  0  0  0  0  0  0  0  0
  144.2960  138.5075  152.1515 H   0  0  0  0  0  0  0  0  0  0  0  0
  145.2586  140.2762  152.6760 H   0  0  0  0  0  0  0  0  0  0  0  0
  147.7938  141.1392  152.2457 H   0  0  0  0  0  0  0  0  0  0  0  0
  147.6810  139.4653  154.8469 H   0  0  0  0  0  0  0  0  0  0  0  0
  149.7099  138.4741  154.0772 H   0  0  0  0  0  0  0  0  0  0  0  0
  150.1591  139.9264  153.1568 H   0  0  0  0  0  0  0  0  0  0  0  0
  150.3561  139.5017  156.1296 H   0  0  0  0  0  0  0  0  0  0  0  0
  151.0982  140.7692  155.1491 H   0  0  0  0  0  0  0  0  0  0  0  0
  149.1185  142.0641  153.9065 H   0  0  0  0  0  0  0  0  0  0  0  0
  147.3910  143.8498  153.9397 H   0  0  0  0  0  0  0  0  0  0  0  0
  146.2807  143.1507  152.7888 H   0  0  0  0  0  0  0  0  0  0  0  0
  145.7314  144.1709  155.5414 H   0  0  0  0  0  0  0  0  0  0  0  0
  144.6702  144.2097  154.1357 H   0  0  0  0  0  0  0  0  0  0  0  0
  144.1777  142.4258  156.1083 H   0  0  0  0  0  0  0  0  0  0  0  0
  144.0770  141.8938  154.4295 H   0  0  0  0  0  0  0  0  0  0  0  0
  145.6190  140.3193  155.3295 H   0  0  0  0  0  0  0  0  0  0  0  0
  146.3811  141.5183  156.3469 H   0  0  0  0  0  0  0  0  0  0  0  0
  142.5563  134.1694  151.9381 H   0  0  0  0  0  0  0  0  0  0  0  0
  1  2  1  0  0  0  0
  1 23  1  0  0  0  0
  1 24  1  0  0  0  0
  1 25  1  0  0  0  0
  2 22  1  0  0  0  0
  2  3  2  0  0  0  0
  3  4  1  0  0  0  0
  3 26  1  0  0  0  0
  4  5  2  0  0  0  0
  4 27  1  0  0  0  0
  5  6  1  0  0  0  0
  5 21  1  0  0  0  0
  6  7  1  0  0  0  0
  6 28  1  0  0  0  0
  7  8  2  0  0  0  0
  7  9  1  0  0  0  0
  9 10  1  0  0  0  0
  9 29  1  0  0  0  0
 10 16  1  0  0  0  0
 10 11  1  0  0  0  0
 10 30  1  0  0  0  0
 11 15  1  0  0  0  0
 11 12  1  0  0  0  0
 11 31  1  0  0  0  0
 12 13  1  0  0  0  0
 12 32  1  0  0  0  0
 12 33  1  0  0  0  0
 13 14  1  0  0  0  0
 13 34  1  0  0  0  0
 13 35  1  0  0  0  0
 14 15  1  0  0  0  0
 15 16  1  0  0  0  0
 15 36  1  0  0  0  0
 16 20  1  0  0  0  0
 16 17  1  0  0  0  0
 17 18  1  0  0  0  0
 17 37  1  0  0  0  0
 17 38  1  0  0  0  0
 18 19  1  0  0  0  0
 18 39  1  0  0  0  0
 18 40  1  0  0  0  0
 19 20  1  0  0  0  0
 19 41  1  0  0  0  0
 19 42  1  0  0  0  0
 20 43  1  0  0  0  0
 20 44  1  0  0  0  0
 21 22  2  0  0  0  0
 22 45  1  0  0  0  0
M  END
> <s_m_source_file>
AV-unprocessed.smi

> <i_m_source_file_index>
2217

> <i_lp_mmshare_version>
43012

> <i_f3d_flags>
0

> <s_epik_input>
W0NIM11jMVtjSF1bY0hdYyhuW2NIXTEpW05IXUMoPU8pW05IXVtDQEBIXTJbQ0BASF0oW0NIMl1bQ0gyXU8zKVtDQEhdM0MyNFtDSDJdW0NIMl1bQ0gyXVtDSDJdNA==

> <s_epik_cmdline>
J2VwaWtfcHl0aG9uJywgJy1waCcsICc3LjAnLCAnLXRuJywgJzgnLCAnLW1hJywgJzIwMCcsICctbWV0YWxfYmluZGluZycsICctaW1hZScsICc8aW5maWxlLm1hZT4nLCAnLW9tYWUnLCAnPG91dGZpbGUubWFlPic=

> <r_lp_tautomer_probability>
1

> <r_epik_Ionization_Penalty>
6.14796e-05

> <r_epik_Ionization_Penalty_Charging>
0

> <r_epik_Ionization_Penalty_Neutral>
6.14796e-05

> <r_epik_State_Penalty>
-0

> <r_epik_Charging_Adjusted_Penalty>
0

> <i_epik_Tot_Q>
0

> <i_epik_Tot_abs_Q>
0

> <r_epik_Metal_State_Penalty>
-0

> <b_epik_Metal_Only>
0

> <s_lp_Force_Field>
OPLS_2005

> <r_lp_Energy>
79.4862

> <b_lp_Chiralities_Consistent>
1

> <s_lp_Variant>
AV-unprocessed.smi:2217-1

> <Gold.Version>
5.8.1

> <Gold.Id.Protein>
6NUR|6NUR_protein|mol2

> <Gold.PLP.Fitness>
40.8169

> <Gold.PLP.PLP>
-35.7706

> <Gold.PLP.part.hbond>
-3.0000

> <Gold.PLP.part.metal>
0.0000

> <Gold.PLP.part.buried>
0.4083

> <Gold.PLP.part.nonpolar>
-36.2337

> <Gold.PLP.part.repulsive>
4.7723

> <Gold.PLP.ligand.clash>
0.0000

> <Gold.PLP.ligand.torsion>
0.4634

> <Gold.PLP.Chemscore.Hbond>
1.8445

> <Gold.PLP.Chemscore.CHOScore>
0.0528

> <Gold.PLP.Chemscore.Metal>
0.0000

> <Gold.Chemscore.Hbonds>
donor molecule, donor type, donor heavy atom, donor atom, acceptor molecule, acceptor atom, score
      L1  H     6    28       P1 10175  0.83
      L1  H     9    29       P1 10175  1.00
      L1  C    22    45       P1 10186  0.06

> <Gold.PLP.Chemscore.Internal.Correction>
0.2814

> <Gold.Rescore>
     Score         DG    S(hbond)    S(metal)    S(lipo)     H(rot)  DE(clash)    DE(int)     intcor
     14.07     -19.41       1.77        0.00      90.30       1.00       2.16       3.17       ----

> <Gold.Chemscore.Fitness>
14.0730

> <Gold.Chemscore.DG>
-19.4096

> <Gold.Chemscore.ZeroCoef>
-5.4800

> <Gold.Chemscore.Hbond>
1.7739

> <Gold.Chemscore.Metal>
0.0000

> <Gold.Chemscore.Lipo>
90.2985

> <Gold.Chemscore.Internal_Hbond>
0.0000

> <Gold.Chemscore.DEClash>
2.1649

> <Gold.Chemscore.DEInternal>
3.1717

> <Gold.Chemscore.Rot>
1.0000

> <Gold.Chemscore.Internal.Correction>
   9.000000E+99

> <Gold.Chemscore.Hbonds>
donor molecule, donor type, donor heavy atom, donor atom, acceptor molecule, acceptor atom, score
      L1  H     6    28       P1 10175  0.78
      L1  H     9    29       P1 10175  0.89

> <Gold.Chemscore.Hbond.Weighted>
-5.9247

> <Gold.Chemscore.Metal.Weighted>
-0.0000

> <Gold.Chemscore.Lipo.Weighted>
-10.5649

> <Gold.Chemscore.Internal_Hbond.Weighted>
0.0000

> <Gold.Chemscore.DEClash.Weighted>
2.1649

> <Gold.Chemscore.DEInternal.Weighted>
3.1717

> <Gold.Chemscore.Rot.Weighted>
2.5600

> <Gold.Chemscore.Internal.Correction.Weighted>
   9.000000E+99

> <Gold.Protein.RotatedTorsions>
[ 6907 6896 6895 6894 ] final   47.58 input  -60.11 | X-H torsion
[ 7974 7965 7964 7962 ] final  126.28 input  175.53 | X-H torsion
[ 8008 7997 7996 7995 ] final -141.29 input   59.86 | X-H torsion
[ 10167 10162 10161 10158 ] final -156.29 input  -65.29 | X-H torsion
[ 10718 10713 10712 10709 ] final -128.20 input   66.30 | X-H torsion
[ 10763 10752 10751 10750 ] final   82.49 input  -60.55 | X-H torsion
[ 11005 11000 10999 10996 ] final -138.17 input  -57.11 | X-H torsion

> <Gold.Protein.ActiveResidues>
 VAL166  LYS551  ARG553  GLY616  TRP617  ASP618  TYR619  PRO620  LYS621  CYS622 
 ASP623  PHE694  ASN695  SER759  ASP760  ASP761  ALA762  ILE779  LEU786  VAL792 
 PHE793  MET794  SER795  GLU796  ALA797  LYS798  CYS799  TRP800  GLU811  SER814 

> <Gold.Protein.RotatedAtoms>
  152.2697  134.7946  160.0416 H   0  0  0  0  0  0  0  0  0  0  0  0  # atno 6907 bound_to 6896
  151.8563  133.3444  159.3697 H   0  0  0  0  0  0  0  0  0  0  0  0  # atno 6908 bound_to 6896
  150.7147  134.5178  159.5683 H   0  0  0  0  0  0  0  0  0  0  0  0  # atno 6909 bound_to 6896
  145.0635  139.3786  143.4993 H   0  0  0  0  0  0  0  0  0  0  0  0  # atno 7974 bound_to 7965
  155.4754  140.0556  157.2974 H   0  0  0  0  0  0  0  0  0  0  0  0  # atno 8008 bound_to 7997
  154.4681  140.2028  156.0017 H   0  0  0  0  0  0  0  0  0  0  0  0  # atno 8009 bound_to 7997
  156.1010  140.3219  155.7946 H   0  0  0  0  0  0  0  0  0  0  0  0  # atno 8010 bound_to 7997
  139.6862  143.9497  152.2362 H   0  0  0  0  0  0  0  0  0  0  0  0  # atno 10167 bound_to 10162
  156.1929  130.6807  151.0446 H   0  0  0  0  0  0  0  0  0  0  0  0  # atno 10718 bound_to 10713
  153.1207  135.4726  154.9190 H   0  0  0  0  0  0  0  0  0  0  0  0  # atno 10763 bound_to 10752
  154.7573  135.3122  154.8449 H   0  0  0  0  0  0  0  0  0  0  0  0  # atno 10764 bound_to 10752
  153.9014  135.6874  153.4809 H   0  0  0  0  0  0  0  0  0  0  0  0  # atno 10765 bound_to 10752
  140.8642  134.2131  157.4690 H   0  0  0  0  0  0  0  0  0  0  0  0  # atno 11005 bound_to 11000
  146.3525  140.0345  142.8648 LP  0  0  0  0  0  0  0  0  0  0  0  0  # atno 17320 bound_to 7965
  145.1379  140.9555  143.4506 LP  0  0  0  0  0  0  0  0  0  0  0  0  # atno 17321 bound_to 7965
  139.9300  144.6747  150.8372 LP  0  0  0  0  0  0  0  0  0  0  0  0  # atno 17342 bound_to 10162
  140.7668  143.3315  151.2400 LP  0  0  0  0  0  0  0  0  0  0  0  0  # atno 17343 bound_to 10162
  157.6940  131.0800  150.7025 LP  0  0  0  0  0  0  0  0  0  0  0  0  # atno 17370 bound_to 10713
  156.7081  130.4643  149.5554 LP  0  0  0  0  0  0  0  0  0  0  0  0  # atno 17371 bound_to 10713
  139.8708  134.9744  156.4844 LP  0  0  0  0  0  0  0  0  0  0  0  0  # atno 17394 bound_to 11000
  140.8648  133.8032  155.9303 LP  0  0  0  0  0  0  0  0  0  0  0  0  # atno 17395 bound_to 11000

$$$$
