#       Name:                AV-unprocessed.smi:1641
#       Creating user name   scv26
#       Creation time:       Fri Mar 27 07:25:31 2020


#       File generated by GOLD software.
#

@<TRIPOS>MOLECULE
AV-unprocessed.smi:1641
    48    49     1
SMALL
NO_CHARGES


@<TRIPOS>ATOM
      1 ****        -6.5977   5.5343   1.6431 C.3            1 S1                 0.0000
      2 ****        -5.4883   4.5467   1.7668 C.2            1 S1                 0.0000
      3 ****        -5.5522   3.4792   2.5665 N.2            1 S1                 0.0000
      4 ****        -4.3957   2.7150   2.5111 N.2            1 S1                 0.0000
      5 ****        -3.4782   3.2094   1.6678 C.2            1 S1                 0.0000
      6 ****        -2.2856   2.6212   1.4771 N.pl3          1 S1                -1.0000
      7 ****        -2.1008   1.7890   0.4279 C.2            1 S1                 0.0000
      8 ****        -2.9330   1.4990  -0.4345 O.2            1 S1                 0.0000
      9 ****        -0.8730   1.2567   0.3749 N.am           1 S1                 0.0000
     10 ****        -0.4101   0.3151  -0.6344 C.3            1 S1                 0.0000
     11 ****         1.0490  -0.0824  -0.3636 C.3            1 S1                 0.0000
     12 ****         1.5740  -1.0211  -1.3901 N.4            1 S1                 1.0000
     13 ****         3.0509  -0.9882  -1.5283 C.3            1 S1                 0.0000
     14 ****         3.7386  -1.7628  -0.3854 C.3            1 S1                 0.0000
     15 ****         5.2607  -1.8179  -0.5581 C.3            1 S1                 0.0000
     16 ****         3.2486  -3.0993  -0.3748 O.3            1 S1                 0.0000
     17 ****         1.8478  -3.1722  -0.1315 C.3            1 S1                 0.0000
     18 ****         1.4542  -4.6518  -0.0655 C.3            1 S1                 0.0000
     19 ****         1.0975  -2.4214  -1.2533 C.3            1 S1                 0.0000
     20 ****        -3.9838   4.7012   0.8753 S.3            1 S1                 0.0000
     21 ****        -7.5197   5.1305   2.0626 H              1 S1                 0.0000
     22 ****        -6.7686   5.7748   0.5938 H              1 S1                 0.0000
     23 ****        -6.3408   6.4496   2.1765 H              1 S1                 0.0000
     24 ****        -0.2199   1.5216   1.0977 H              1 S1                 0.0000
     25 ****        -1.0641  -0.5571  -0.6207 H              1 S1                 0.0000
     26 ****        -0.4978   0.7709  -1.6219 H              1 S1                 0.0000
     27 ****         1.6499   0.8282  -0.3726 H              1 S1                 0.0000
     28 ****         1.1521  -0.5045   0.6360 H              1 S1                 0.0000
     29 ****         3.3126  -1.4425  -2.4850 H              1 S1                 0.0000
     30 ****         3.4082   0.0414  -1.5731 H              1 S1                 0.0000
     31 ****         3.5191  -1.2900   0.5732 H              1 S1                 0.0000
     32 ****         5.6923  -0.8167  -0.5624 H              1 S1                 0.0000
     33 ****         5.5357  -2.3060  -1.4936 H              1 S1                 0.0000
     34 ****         5.7245  -2.3751   0.2563 H              1 S1                 0.0000
     35 ****         1.6298  -2.7220   0.8378 H              1 S1                 0.0000
     36 ****         0.3883  -4.7657   0.1328 H              1 S1                 0.0000
     37 ****         1.9957  -5.1633   0.7308 H              1 S1                 0.0000
     38 ****         1.6778  -5.1641  -1.0018 H              1 S1                 0.0000
     39 ****         0.0216  -2.4551  -1.0858 H              1 S1                 0.0000
     40 ****         1.2705  -2.9275  -2.2041 H              1 S1                 0.0000
     41 ****         1.2089  -0.6760  -2.2665 H              1 S1                 0.0000
     42 ****        -6.3416   3.2566   3.1386 LP             1 S1                 0.0000
     43 ****        -4.2602   1.8807   3.0455 LP             1 S1                 0.0000
     44 ****        -1.5337   2.7991   2.1119 LP             1 S1                 0.0000
     45 ****        -3.8509   1.8940  -0.3965 LP             1 S1                 0.0000
     46 ****        -2.6900   0.8688  -1.1720 LP             1 S1                 0.0000
     47 ****         3.7243  -3.6082   0.3427 LP             1 S1                 0.0000
     48 ****         3.4407  -3.5170  -1.2629 LP             1 S1                 0.0000
@<TRIPOS>BOND
    1    1    2 1     
    2    1   21 1     
    3    1   22 1     
    4    1   23 1     
    5    2   20 1     
    6    2    3 2     
    7    3    4 1     
    8    4    5 2     
    9    5    6 1     
   10    5   20 1     
   11    6    7 1     
   12    7    8 2     
   13    7    9 am    
   14    9   10 1     
   15    9   24 1     
   16   10   11 1     
   17   10   25 1     
   18   10   26 1     
   19   11   12 1     
   20   11   27 1     
   21   11   28 1     
   22   12   19 1     
   23   12   13 1     
   24   12   41 1     
   25   13   14 1     
   26   13   29 1     
   27   13   30 1     
   28   14   15 1     
   29   14   16 1     
   30   14   31 1     
   31   15   32 1     
   32   15   33 1     
   33   15   34 1     
   34   16   17 1     
   35   17   18 1     
   36   17   19 1     
   37   17   35 1     
   38   18   36 1     
   39   18   37 1     
   40   18   38 1     
   41   19   39 1     
   42   19   40 1     
   43    3   42 1     
   44    4   43 1     
   45    6   44 1     
   46    8   45 1     
   47    8   46 1     
   48   16   47 1     
   49   16   48 1     
@<TRIPOS>SUBSTRUCTURE
      1 S1             1
@<TRIPOS>SET
LONE_PAIRS      STATIC     ATOMS    <user>   **** ""
7 42 43 44 45 46 47 48
DONOR_HYDROGENS      STATIC     ATOMS    <user>   **** ""
2 24 41
ATOM$BLUE        STATIC     ATOMS    COLORGROUP SYSTEM
7 42 43 44 45 46 47 48
ATOM$RED        STATIC     ATOMS    COLORGROUP SYSTEM
2 24 41
