AV-unprocessed.smi:2826|AV-procd|sdf|10894|dock9
  -GOLD-   2272015343D 1   1.00000     0.00000
 Structure written by MMmdl.
 50 51  0  0  0  0  0  0  0  0  1 V2000
  150.9576  142.8397  157.7337 C   0  0  0  0  0  0  0  0  0  0  0  0
  151.6128  142.0644  156.7360 O   0  0  0  0  0  0  0  0  0  0  0  0
  150.8450  141.2430  155.9363 C   0  0  0  0  0  0  0  0  0  0  0  0
  149.5127  141.6133  155.6714 C   0  0  0  0  0  0  0  0  0  0  0  0
  148.7251  140.7802  154.8555 C   0  0  0  0  0  0  0  0  0  0  0  0
  149.2962  139.6019  154.3179 C   0  0  0  0  0  0  0  0  0  0  0  0
  148.5708  138.6893  153.5017 N   0  0  0  0  0  0  0  0  0  0  0  0
  147.2385  138.5621  153.3787 C   0  0  0  0  0  0  0  0  0  0  0  0
  146.4020  139.2535  153.9596 O   0  0  0  0  0  0  0  0  0  0  0  0
  146.9213  137.5894  152.5122 N   0  0  0  0  0  0  0  0  0  0  0  0
  145.5619  137.2105  152.1378 C   0  0  2  0  0  0  0  0  0  0  0  0
  144.6995  137.0372  153.3958 C   0  0  0  0  0  0  0  0  0  0  0  0
  143.3084  136.4998  153.0258 C   0  0  0  0  0  0  0  0  0  0  0  0
  143.4359  135.2787  152.3054 O   0  0  0  0  0  0  0  0  0  0  0  0
  144.1185  135.4247  151.0622 C   0  0  2  0  0  0  0  0  0  0  0  0
  144.0936  134.0724  150.3256 C   0  0  0  0  0  0  0  0  0  0  0  0
  144.5368  132.8621  151.1764 C   0  0  0  0  0  0  0  0  0  0  0  0
  146.0421  132.9349  151.4753 C   0  0  0  0  0  0  0  0  0  0  0  0
  144.1891  131.5167  150.5165 C   0  0  0  0  0  0  0  0  0  0  0  0
  145.5591  135.8983  151.3349 C   0  0  0  0  0  0  0  0  0  0  0  0
  150.6396  139.3091  154.6563 C   0  0  0  0  0  0  0  0  0  0  0  0
  151.3310  138.0577  154.1441 C   0  0  0  0  0  0  0  0  0  0  0  0
  151.3964  140.1086  155.4398 N   0  0  0  0  0  0  0  0  0  0  0  0
  151.6975  143.4263  158.2782 H   0  0  0  0  0  0  0  0  0  0  0  0
  150.4414  142.2063  158.4565 H   0  0  0  0  0  0  0  0  0  0  0  0
  150.2431  143.5360  157.2926 H   0  0  0  0  0  0  0  0  0  0  0  0
  149.0997  142.5186  156.0912 H   0  0  0  0  0  0  0  0  0  0  0  0
  147.6975  141.0525  154.6711 H   0  0  0  0  0  0  0  0  0  0  0  0
  149.1312  138.1161  152.8881 H   0  0  0  0  0  0  0  0  0  0  0  0
  147.6728  137.0755  152.0763 H   0  0  0  0  0  0  0  0  0  0  0  0
  145.1218  138.0025  151.5284 H   0  0  0  0  0  0  0  0  0  0  0  0
  145.1804  136.3401  154.0837 H   0  0  0  0  0  0  0  0  0  0  0  0
  144.6050  137.9858  153.9255 H   0  0  0  0  0  0  0  0  0  0  0  0
  142.7258  136.3162  153.9287 H   0  0  0  0  0  0  0  0  0  0  0  0
  142.7536  137.2285  152.4328 H   0  0  0  0  0  0  0  0  0  0  0  0
  143.6120  136.1778  150.4577 H   0  0  0  0  0  0  0  0  0  0  0  0
  143.0897  133.8884  149.9406 H   0  0  0  0  0  0  0  0  0  0  0  0
  144.7392  134.1481  149.4495 H   0  0  0  0  0  0  0  0  0  0  0  0
  144.0190  132.9082  152.1350 H   0  0  0  0  0  0  0  0  0  0  0  0
  146.6309  132.8922  150.5585 H   0  0  0  0  0  0  0  0  0  0  0  0
  146.3574  132.1081  152.1126 H   0  0  0  0  0  0  0  0  0  0  0  0
  146.2970  133.8605  151.9920 H   0  0  0  0  0  0  0  0  0  0  0  0
  144.6395  131.4329  149.5270 H   0  0  0  0  0  0  0  0  0  0  0  0
  143.1131  131.3859  150.4070 H   0  0  0  0  0  0  0  0  0  0  0  0
  144.5517  130.6818  151.1168 H   0  0  0  0  0  0  0  0  0  0  0  0
  146.0909  136.0331  150.3922 H   0  0  0  0  0  0  0  0  0  0  0  0
  146.0968  135.1268  151.8884 H   0  0  0  0  0  0  0  0  0  0  0  0
  151.3131  138.0327  153.0542 H   0  0  0  0  0  0  0  0  0  0  0  0
  150.8271  137.1665  154.5186 H   0  0  0  0  0  0  0  0  0  0  0  0
  152.3733  138.0159  154.4640 H   0  0  0  0  0  0  0  0  0  0  0  0
  1  2  1  0  0  0  0
  1 24  1  0  0  0  0
  1 25  1  0  0  0  0
  1 26  1  0  0  0  0
  2  3  1  0  0  0  0
  3 23  1  0  0  0  0
  3  4  2  0  0  0  0
  4  5  1  0  0  0  0
  4 27  1  0  0  0  0
  5  6  2  0  0  0  0
  5 28  1  0  0  0  0
  6  7  1  0  0  0  0
  6 21  1  0  0  0  0
  7  8  1  0  0  0  0
  7 29  1  0  0  0  0
  8  9  2  0  0  0  0
  8 10  1  0  0  0  0
 10 11  1  0  0  0  0
 10 30  1  0  0  0  0
 11 20  1  0  0  0  0
 11 12  1  0  0  0  0
 11 31  1  0  0  0  0
 12 13  1  0  0  0  0
 12 32  1  0  0  0  0
 12 33  1  0  0  0  0
 13 14  1  0  0  0  0
 13 34  1  0  0  0  0
 13 35  1  0  0  0  0
 14 15  1  0  0  0  0
 15 16  1  0  0  0  0
 15 20  1  0  0  0  0
 15 36  1  0  0  0  0
 16 17  1  0  0  0  0
 16 37  1  0  0  0  0
 16 38  1  0  0  0  0
 17 18  1  0  0  0  0
 17 19  1  0  0  0  0
 17 39  1  0  0  0  0
 18 40  1  0  0  0  0
 18 41  1  0  0  0  0
 18 42  1  0  0  0  0
 19 43  1  0  0  0  0
 19 44  1  0  0  0  0
 19 45  1  0  0  0  0
 20 46  1  0  0  0  0
 20 47  1  0  0  0  0
 21 22  1  0  0  0  0
 21 23  2  0  0  0  0
 22 48  1  0  0  0  0
 22 49  1  0  0  0  0
 22 50  1  0  0  0  0
M  END
> <s_m_source_file>
AV-unprocessed.smi

> <i_m_source_file_index>
2826

> <i_lp_mmshare_version>
43012

> <i_f3d_flags>
0

> <s_epik_input>
W0NIM11PYzFbY0hdW2NIXWMoYyhuMSlbQ0gzXSlbTkhdQyg9TylbTkhdW0NAQEhdMltDSDJdW0NIMl1PW0NASF0oW0NIMl0yKVtDSDJdW0NIXShbQ0gzXSlbQ0gzXQ==

> <s_epik_cmdline>
J2VwaWtfcHl0aG9uJywgJy1waCcsICc3LjAnLCAnLXRuJywgJzgnLCAnLW1hJywgJzIwMCcsICctbWV0YWxfYmluZGluZycsICctaW1hZScsICc8aW5maWxlLm1hZT4nLCAnLW9tYWUnLCAnPG91dGZpbGUubWFlPic=

> <r_lp_tautomer_probability>
1

> <r_epik_Ionization_Penalty>
0.000249977

> <r_epik_Ionization_Penalty_Charging>
0

> <r_epik_Ionization_Penalty_Neutral>
0.000249977

> <r_epik_State_Penalty>
-0

> <r_epik_Charging_Adjusted_Penalty>
0

> <i_epik_Tot_Q>
0

> <i_epik_Tot_abs_Q>
0

> <r_epik_Metal_State_Penalty>
-0

> <b_epik_Metal_Only>
0

> <s_lp_Force_Field>
OPLS_2005

> <r_lp_Energy>
13.3689

> <b_lp_Chiralities_Consistent>
1

> <s_lp_Variant>
AV-unprocessed.smi:2826-3

> <Gold.Version>
5.8.1

> <Gold.Id.Protein>
6NUR|6NUR_protein|mol2

> <Gold.PLP.Fitness>
43.4960

> <Gold.PLP.PLP>
-40.0198

> <Gold.PLP.part.hbond>
-3.9349

> <Gold.PLP.part.metal>
0.0000

> <Gold.PLP.part.buried>
-0.8092

> <Gold.PLP.part.nonpolar>
-36.4273

> <Gold.PLP.part.repulsive>
0.5074

> <Gold.PLP.ligand.clash>
0.0000

> <Gold.PLP.ligand.torsion>
0.6963

> <Gold.PLP.Chemscore.Hbond>
1.6155

> <Gold.PLP.Chemscore.CHOScore>
0.0000

> <Gold.PLP.Chemscore.Metal>
0.0000

> <Gold.Chemscore.Hbonds>
donor molecule, donor type, donor heavy atom, donor atom, acceptor molecule, acceptor atom, score
      L1  H     7    29       P1  7948  0.61
      L1  H    10    30       P1  7948  1.00

> <Gold.PLP.Chemscore.Internal.Correction>
0.0223

> <Gold.Rescore>
     Score         DG    S(hbond)    S(metal)    S(lipo)     H(rot)  DE(clash)    DE(int)     intcor
     14.37     -18.74       1.82        0.00      94.48       1.51       0.21       4.16       ----

> <Gold.Chemscore.Fitness>
14.3741

> <Gold.Chemscore.DG>
-18.7429

> <Gold.Chemscore.ZeroCoef>
-5.4800

> <Gold.Chemscore.Hbond>
1.8154

> <Gold.Chemscore.Metal>
0.0000

> <Gold.Chemscore.Lipo>
94.4810

> <Gold.Chemscore.Internal_Hbond>
0.0000

> <Gold.Chemscore.DEClash>
0.2052

> <Gold.Chemscore.DEInternal>
4.1637

> <Gold.Chemscore.Rot>
1.5057

> <Gold.Chemscore.Internal.Correction>
   9.000000E+99

> <Gold.Chemscore.Hbonds>
donor molecule, donor type, donor heavy atom, donor atom, acceptor molecule, acceptor atom, score
      L1  H     7    29       P1  7948  0.59
      L1  H    10    30       P1  7948  0.93

> <Gold.Chemscore.Hbond.Weighted>
-6.0633

> <Gold.Chemscore.Metal.Weighted>
-0.0000

> <Gold.Chemscore.Lipo.Weighted>
-11.0543

> <Gold.Chemscore.Internal_Hbond.Weighted>
0.0000

> <Gold.Chemscore.DEClash.Weighted>
0.2052

> <Gold.Chemscore.DEInternal.Weighted>
4.1637

> <Gold.Chemscore.Rot.Weighted>
3.8547

> <Gold.Chemscore.Internal.Correction.Weighted>
   9.000000E+99

> <Gold.Protein.RotatedTorsions>
[ 6907 6896 6895 6894 ] final  135.44 input  -60.11 | X-H torsion
[ 7974 7965 7964 7962 ] final   43.98 input  175.53 | X-H torsion
[ 8008 7997 7996 7995 ] final  -61.05 input   59.86 | X-H torsion
[ 10167 10162 10161 10158 ] final  -72.85 input  -65.29 | X-H torsion
[ 10718 10713 10712 10709 ] final  -99.86 input   66.30 | X-H torsion
[ 10763 10752 10751 10750 ] final  -57.31 input  -60.55 | X-H torsion
[ 11005 11000 10999 10996 ] final  -45.33 input  -57.11 | X-H torsion

> <Gold.Protein.ActiveResidues>
 VAL166  LYS551  ARG553  GLY616  TRP617  ASP618  TYR619  PRO620  LYS621  CYS622 
 ASP623  PHE694  ASN695  SER759  ASP760  ASP761  ALA762  ILE779  LEU786  VAL792 
 PHE793  MET794  SER795  GLU796  ALA797  LYS798  CYS799  TRP800  GLU811  SER814 

> <Gold.Protein.RotatedAtoms>
  152.3004  133.5649  159.5614 H   0  0  0  0  0  0  0  0  0  0  0  0  # atno 6907 bound_to 6896
  150.7275  134.0300  159.3739 H   0  0  0  0  0  0  0  0  0  0  0  0  # atno 6908 bound_to 6896
  151.8200  135.0655  160.0475 H   0  0  0  0  0  0  0  0  0  0  0  0  # atno 6909 bound_to 6896
  146.0609  139.5126  142.9659 H   0  0  0  0  0  0  0  0  0  0  0  0  # atno 7974 bound_to 7965
  154.4428  140.1026  156.6370 H   0  0  0  0  0  0  0  0  0  0  0  0  # atno 8008 bound_to 7997
  155.5543  140.3486  155.4457 H   0  0  0  0  0  0  0  0  0  0  0  0  # atno 8009 bound_to 7997
  156.0506  140.1303  157.0043 H   0  0  0  0  0  0  0  0  0  0  0  0  # atno 8010 bound_to 7997
  140.5159  143.2338  151.7514 H   0  0  0  0  0  0  0  0  0  0  0  0  # atno 10167 bound_to 10162
  156.0146  130.5301  150.6732 H   0  0  0  0  0  0  0  0  0  0  0  0  # atno 10718 bound_to 10713
  154.2205  135.6378  153.5143 H   0  0  0  0  0  0  0  0  0  0  0  0  # atno 10763 bound_to 10752
  152.9970  135.5495  154.6120 H   0  0  0  0  0  0  0  0  0  0  0  0  # atno 10764 bound_to 10752
  154.5578  135.2906  155.0921 H   0  0  0  0  0  0  0  0  0  0  0  0  # atno 10765 bound_to 10752
  141.0509  133.6743  156.2999 H   0  0  0  0  0  0  0  0  0  0  0  0  # atno 11005 bound_to 11000
  145.6562  141.0251  143.1733 LP  0  0  0  0  0  0  0  0  0  0  0  0  # atno 17320 bound_to 7965
  144.7174  139.8148  143.7394 LP  0  0  0  0  0  0  0  0  0  0  0  0  # atno 17321 bound_to 7965
  139.4909  144.4325  151.9856 LP  0  0  0  0  0  0  0  0  0  0  0  0  # atno 17342 bound_to 10162
  140.3419  144.3193  150.5965 LP  0  0  0  0  0  0  0  0  0  0  0  0  # atno 17343 bound_to 10162
  157.4450  131.0866  151.0904 LP  0  0  0  0  0  0  0  0  0  0  0  0  # atno 17370 bound_to 10713
  157.1437  130.6154  149.5562 LP  0  0  0  0  0  0  0  0  0  0  0  0  # atno 17371 bound_to 10713
  140.6058  134.5509  157.5525 LP  0  0  0  0  0  0  0  0  0  0  0  0  # atno 17394 bound_to 11000
  139.9349  134.7893  156.0829 LP  0  0  0  0  0  0  0  0  0  0  0  0  # atno 17395 bound_to 11000

$$$$
