AV-unprocessed.smi:1|AV-procd|sdf|13|dock6
  -GOLD-   2262015103D 1   1.00000     0.00000
 Structure written by MMmdl.
 57 62  0  0  0  0  0  0  0  0  1 V2000
  154.1110  139.9748  158.8949 O   0  0  0  0  0  0  0  0  0  0  0  0
  153.7833  140.1472  160.0721 C   0  0  0  0  0  0  0  0  0  0  0  0
  153.8741  139.2636  161.1398 N   0  0  0  0  0  0  0  0  0  0  0  0
  154.1879  138.0206  160.9324 C   0  0  0  0  0  0  0  0  0  0  0  0
  154.4883  137.3027  159.7681 N   0  0  0  0  0  0  0  0  0  0  0  0
  154.8081  135.9384  159.7025 C   0  0  0  0  0  0  0  0  0  0  0  0
  154.8707  135.1365  160.7316 N   0  0  0  0  0  0  0  0  0  0  0  0
  154.5850  135.7976  161.9177 C   0  0  0  0  0  0  0  0  0  0  0  0
  154.2613  137.1248  162.1074 C   0  0  0  0  0  0  0  0  0  0  0  0
  154.0499  137.3958  163.4544 N   0  0  0  0  0  0  0  0  0  0  0  0
  154.2563  136.2121  164.0243 C   0  0  0  0  0  0  0  0  0  0  0  0
  154.5713  135.2094  163.1829 N   0  0  0  0  0  0  0  0  0  0  0  0
  154.8586  133.7949  163.5810 C   0  0  2  0  0  0  0  0  0  0  0  0
  153.9996  132.9378  162.8881 O   0  0  0  0  0  0  0  0  0  0  0  0
  153.1527  132.2314  163.7910 C   0  0  1  0  0  0  0  0  0  0  0  0
  152.8049  130.8410  163.2468 C   0  0  0  0  0  0  0  0  0  0  0  0
  152.1494  130.0997  164.2621 O   0  0  0  0  0  0  0  0  0  0  0  0
  150.8941  129.6531  164.0679 C   0  0  0  0  0  0  0  0  0  0  0  0
  150.2549  129.8434  163.0311 O   0  0  0  0  0  0  0  0  0  0  0  0
  150.3572  128.9050  165.2412 C   0  0  0  0  0  0  0  0  0  0  0  0
  151.1390  128.8044  166.4158 C   0  0  0  0  0  0  0  0  0  0  0  0
  150.6605  128.1007  167.5382 C   0  0  0  0  0  0  0  0  0  0  0  0
  149.3941  127.4889  167.4996 C   0  0  0  0  0  0  0  0  0  0  0  0
  148.6066  127.5817  166.3372 C   0  0  0  0  0  0  0  0  0  0  0  0
  149.0831  128.2852  165.2138 C   0  0  0  0  0  0  0  0  0  0  0  0
  153.9307  132.2207  165.1056 C   0  0  1  0  0  0  0  0  0  0  0  0
  154.9108  131.1955  165.1186 O   0  0  0  0  0  0  0  0  0  0  0  0
  156.3209  131.8226  165.7581 S   0  0  0  0  0  0  0  0  0  0  0  0
  156.4335  131.3768  167.1551 O   0  0  0  0  0  0  0  0  0  0  0  0
  157.3977  131.6300  164.7746 O   0  0  0  0  0  0  0  0  0  0  0  0
  155.8901  133.4380  165.7579 O   0  0  0  0  0  0  0  0  0  0  0  0
  154.6495  133.5726  165.0865 C   0  0  1  0  0  0  0  0  0  0  0  0
  153.2313  141.4813  160.4556 C   0  0  0  0  0  0  0  0  0  0  0  0
  153.1117  141.8329  161.8169 C   0  0  0  0  0  0  0  0  0  0  0  0
  152.5849  143.0885  162.1782 C   0  0  0  0  0  0  0  0  0  0  0  0
  152.1746  143.9943  161.1807 C   0  0  0  0  0  0  0  0  0  0  0  0
  152.2900  143.6444  159.8213 C   0  0  0  0  0  0  0  0  0  0  0  0
  152.8168  142.3894  159.4585 C   0  0  0  0  0  0  0  0  0  0  0  0
  155.0086  135.5774  158.6929 H   0  0  0  0  0  0  0  0  0  0  0  0
  154.1739  136.0699  165.0919 H   0  0  0  0  0  0  0  0  0  0  0  0
  155.8836  133.6118  163.2555 H   0  0  0  0  0  0  0  0  0  0  0  0
  152.2366  132.8027  163.9372 H   0  0  0  0  0  0  0  0  0  0  0  0
  152.1732  130.9207  162.3611 H   0  0  0  0  0  0  0  0  0  0  0  0
  153.7174  130.3180  162.9572 H   0  0  0  0  0  0  0  0  0  0  0  0
  152.1150  129.2650  166.4683 H   0  0  0  0  0  0  0  0  0  0  0  0
  151.2668  128.0300  168.4291 H   0  0  0  0  0  0  0  0  0  0  0  0
  149.0276  126.9486  168.3600 H   0  0  0  0  0  0  0  0  0  0  0  0
  147.6347  127.1117  166.3060 H   0  0  0  0  0  0  0  0  0  0  0  0
  148.4534  128.3357  164.3376 H   0  0  0  0  0  0  0  0  0  0  0  0
  153.2817  132.1049  165.9744 H   0  0  0  0  0  0  0  0  0  0  0  0
  154.0329  134.3594  165.5217 H   0  0  0  0  0  0  0  0  0  0  0  0
  153.4217  141.1422  162.5876 H   0  0  0  0  0  0  0  0  0  0  0  0
  152.4936  143.3556  163.2205 H   0  0  0  0  0  0  0  0  0  0  0  0
  151.7696  144.9562  161.4581 H   0  0  0  0  0  0  0  0  0  0  0  0
  151.9728  144.3380  159.0567 H   0  0  0  0  0  0  0  0  0  0  0  0
  152.8996  142.1268  158.4137 H   0  0  0  0  0  0  0  0  0  0  0  0
  154.4720  137.8154  158.8978 H   0  0  0  0  0  0  0  0  0  0  0  0
  1  2  2  0  0  0  0
  2  3  1  0  0  0  0
  2 33  1  0  0  0  0
  3  4  2  0  0  0  0
  4  9  1  0  0  0  0
  4  5  1  0  0  0  0
  5  6  1  0  0  0  0
  5 57  1  0  0  0  0
  6  7  2  0  0  0  0
  6 39  1  0  0  0  0
  7  8  1  0  0  0  0
  8 12  1  0  0  0  0
  8  9  2  0  0  0  0
  9 10  1  0  0  0  0
 10 11  2  0  0  0  0
 11 12  1  0  0  0  0
 11 40  1  0  0  0  0
 12 13  1  0  0  0  0
 13 32  1  0  0  0  0
 13 14  1  0  0  0  0
 13 41  1  0  0  0  0
 14 15  1  0  0  0  0
 15 16  1  0  0  0  0
 15 26  1  0  0  0  0
 15 42  1  0  0  0  0
 16 17  1  0  0  0  0
 16 43  1  0  0  0  0
 16 44  1  0  0  0  0
 17 18  1  0  0  0  0
 18 19  2  0  0  0  0
 18 20  1  0  0  0  0
 20 25  1  0  0  0  0
 20 21  2  0  0  0  0
 21 22  1  0  0  0  0
 21 45  1  0  0  0  0
 22 23  2  0  0  0  0
 22 46  1  0  0  0  0
 23 24  1  0  0  0  0
 23 47  1  0  0  0  0
 24 25  2  0  0  0  0
 24 48  1  0  0  0  0
 25 49  1  0  0  0  0
 26 32  1  0  0  0  0
 26 27  1  0  0  0  0
 26 50  1  0  0  0  0
 27 28  1  0  0  0  0
 28 29  2  0  0  0  0
 28 30  2  0  0  0  0
 28 31  1  0  0  0  0
 31 32  1  0  0  0  0
 32 51  1  0  0  0  0
 33 38  1  0  0  0  0
 33 34  2  0  0  0  0
 34 35  1  0  0  0  0
 34 52  1  0  0  0  0
 35 36  2  0  0  0  0
 35 53  1  0  0  0  0
 36 37  1  0  0  0  0
 36 54  1  0  0  0  0
 37 38  2  0  0  0  0
 37 55  1  0  0  0  0
 38 56  1  0  0  0  0
M  END
> <s_m_source_file>
AV-unprocessed.smi

> <i_m_source_file_index>
1

> <i_lp_mmshare_version>
43012

> <i_f3d_flags>
0

> <s_epik_input>
W2NIXTFbY0hdW2NIXVtjSF1bY0hdYzFDKD1PKVtOSF1jKG5bY0hdbjIpYyhjMjMpbltjSF1uM1tDQEBIXShbQ0BIXShbQ0BIXTQ1KU9TKE81KSg9Tyk9TylPW0NASF00W0NIMl1PQyg9TyljNltjSF1bY0hdW2NIXVtjSF1bY0hdNg==

> <s_epik_cmdline>
J2VwaWtfcHl0aG9uJywgJy1waCcsICc3LjAnLCAnLXRuJywgJzgnLCAnLW1hJywgJzIwMCcsICctbWV0YWxfYmluZGluZycsICctaW1hZScsICc8aW5maWxlLm1hZT4nLCAnLW9tYWUnLCAnPG91dGZpbGUubWFlPic=

> <r_epik_Ionization_Penalty>
0.122545

> <r_epik_Ionization_Penalty_Charging>
0.122545

> <r_epik_Ionization_Penalty_Neutral>
7.8935e-16

> <r_epik_State_Penalty>
2.69178

> <r_epik_Charging_Adjusted_Penalty>
2.81433

> <i_epik_Tot_Q>
0

> <i_epik_Tot_abs_Q>
0

> <r_epik_Metal_State_Penalty>
3.02665

> <b_epik_Metal_Only>
0

> <s_epik_Chemistry_Notes>
This compound has an ester and may undergo hydrolysis at high or low pH. This compound contains an acetal/aminal-like group ( X-CH(R)-Y where X, Y are N, S, or O) that may be acid/base labile, releasing an aldehyde.

> <s_lp_Force_Field>
OPLS_2005

> <r_lp_Energy>
62.4827

> <b_lp_Chiralities_Consistent>
1

> <s_lp_Variant>
AV-unprocessed.smi:1-13

> <Gold.Version>
5.8.1

> <Gold.Id.Protein>
6NUR|6NUR_protein|mol2

> <Gold.PLP.Fitness>
69.2209

> <Gold.PLP.PLP>
-67.1697

> <Gold.PLP.part.hbond>
-1.0000

> <Gold.PLP.part.metal>
0.0000

> <Gold.PLP.part.buried>
-7.2107

> <Gold.PLP.part.nonpolar>
-57.8302

> <Gold.PLP.part.repulsive>
0.2894

> <Gold.PLP.ligand.clash>
0.0000

> <Gold.PLP.ligand.torsion>
0.5423

> <Gold.PLP.Chemscore.Hbond>
1.0000

> <Gold.PLP.Chemscore.CHOScore>
0.0000

> <Gold.PLP.Chemscore.Metal>
0.0000

> <Gold.Chemscore.Hbonds>
donor molecule, donor type, donor heavy atom, donor atom, acceptor molecule, acceptor atom, score
      P1  H  7997  8008       L1     1  1.00

> <Gold.PLP.Chemscore.Internal.Correction>
0.1359

> <Gold.Rescore>
     Score         DG    S(hbond)    S(metal)    S(lipo)     H(rot)  DE(clash)    DE(int)     intcor
     21.15     -21.91       0.99        0.00     158.99       2.13       0.27       0.49       ----

> <Gold.Chemscore.Fitness>
21.1498

> <Gold.Chemscore.DG>
-21.9102

> <Gold.Chemscore.ZeroCoef>
-5.4800

> <Gold.Chemscore.Hbond>
0.9850

> <Gold.Chemscore.Metal>
0.0000

> <Gold.Chemscore.Lipo>
158.9871

> <Gold.Chemscore.Internal_Hbond>
0.0000

> <Gold.Chemscore.DEClash>
0.2692

> <Gold.Chemscore.DEInternal>
0.4912

> <Gold.Chemscore.Rot>
2.1333

> <Gold.Chemscore.Internal.Correction>
   9.000000E+99

> <Gold.Chemscore.Hbonds>
donor molecule, donor type, donor heavy atom, donor atom, acceptor molecule, acceptor atom, score
      P1  H  7997  8008       L1     1  0.95

> <Gold.Chemscore.Hbond.Weighted>
-3.2901

> <Gold.Chemscore.Metal.Weighted>
-0.0000

> <Gold.Chemscore.Lipo.Weighted>
-18.6015

> <Gold.Chemscore.Internal_Hbond.Weighted>
0.0000

> <Gold.Chemscore.DEClash.Weighted>
0.2692

> <Gold.Chemscore.DEInternal.Weighted>
0.4912

> <Gold.Chemscore.Rot.Weighted>
5.4614

> <Gold.Chemscore.Internal.Correction.Weighted>
   9.000000E+99

> <Gold.Protein.RotatedTorsions>
[ 6907 6896 6895 6894 ] final   58.39 input  -60.11 | X-H torsion
[ 7974 7965 7964 7962 ] final  -93.00 input  175.53 | X-H torsion
[ 8008 7997 7996 7995 ] final -116.04 input   59.86 | X-H torsion
[ 10167 10162 10161 10158 ] final -128.75 input  -65.29 | X-H torsion
[ 10718 10713 10712 10709 ] final   12.44 input   66.30 | X-H torsion
[ 10763 10752 10751 10750 ] final  -19.63 input  -60.55 | X-H torsion
[ 11005 11000 10999 10996 ] final  179.93 input  -57.11 | X-H torsion

> <Gold.Protein.ActiveResidues>
 VAL166  LYS551  ARG553  GLY616  TRP617  ASP618  TYR619  PRO620  LYS621  CYS622 
 ASP623  PHE694  ASN695  SER759  ASP760  ASP761  ALA762  ILE779  LEU786  VAL792 
 PHE793  MET794  SER795  GLU796  ALA797  LYS798  CYS799  TRP800  GLU811  SER814 

> <Gold.Protein.RotatedAtoms>
  152.3820  134.6576  160.0139 H   0  0  0  0  0  0  0  0  0  0  0  0  # atno 6907 bound_to 6896
  151.6836  133.3306  159.3233 H   0  0  0  0  0  0  0  0  0  0  0  0  # atno 6908 bound_to 6896
  150.7755  134.6695  159.6428 H   0  0  0  0  0  0  0  0  0  0  0  0  # atno 6909 bound_to 6896
  145.3923  140.9529  143.2333 H   0  0  0  0  0  0  0  0  0  0  0  0  # atno 7974 bound_to 7965
  155.0615  140.0393  157.2578 H   0  0  0  0  0  0  0  0  0  0  0  0  # atno 8008 bound_to 7997
  154.7056  140.2682  155.6654 H   0  0  0  0  0  0  0  0  0  0  0  0  # atno 8009 bound_to 7997
  156.2774  140.2732  156.1681 H   0  0  0  0  0  0  0  0  0  0  0  0  # atno 8010 bound_to 7997
  139.9470  143.6099  152.2487 H   0  0  0  0  0  0  0  0  0  0  0  0  # atno 10167 bound_to 10162
  157.0101  130.6114  149.5707 H   0  0  0  0  0  0  0  0  0  0  0  0  # atno 10718 bound_to 10713
  153.6078  135.6997  153.5359 H   0  0  0  0  0  0  0  0  0  0  0  0  # atno 10763 bound_to 10752
  153.3042  135.4120  155.1279 H   0  0  0  0  0  0  0  0  0  0  0  0  # atno 10764 bound_to 10752
  154.8569  135.3656  154.5616 H   0  0  0  0  0  0  0  0  0  0  0  0  # atno 10765 bound_to 10752
  140.4116  134.6686  157.4617 H   0  0  0  0  0  0  0  0  0  0  0  0  # atno 11005 bound_to 11000
  144.8431  139.5439  143.6891 LP  0  0  0  0  0  0  0  0  0  0  0  0  # atno 17320 bound_to 7965
  146.2792  139.6831  142.9241 LP  0  0  0  0  0  0  0  0  0  0  0  0  # atno 17321 bound_to 7965
  139.6659  144.7662  151.1875 LP  0  0  0  0  0  0  0  0  0  0  0  0  # atno 17342 bound_to 10162
  140.7594  143.5939  150.8768 LP  0  0  0  0  0  0  0  0  0  0  0  0  # atno 17343 bound_to 10162
  156.0139  130.5232  150.8074 LP  0  0  0  0  0  0  0  0  0  0  0  0  # atno 17370 bound_to 10713
  157.5326  131.0937  150.9934 LP  0  0  0  0  0  0  0  0  0  0  0  0  # atno 17371 bound_to 10713
  140.0263  134.6472  155.9168 LP  0  0  0  0  0  0  0  0  0  0  0  0  # atno 17394 bound_to 11000
  141.1819  133.6548  156.5054 LP  0  0  0  0  0  0  0  0  0  0  0  0  # atno 17395 bound_to 11000

$$$$
