AV-unprocessed.smi:80|AV-procd|sdf|785|dock5
  -GOLD-   2262017153D 1   1.00000     0.00000
 Structure written by MMmdl.
 51 54  0  0  0  0  0  0  0  0  1 V2000
  146.0546  134.3996  162.7757 N   0  0  0  0  0  0  0  0  0  0  0  0
  146.8698  135.0169  162.2337 C   0  0  0  0  0  0  0  0  0  0  0  0
  147.9093  135.7998  161.5449 C   0  0  0  0  0  0  0  0  0  0  0  0
  147.3478  136.8311  160.5572 C   0  0  0  0  0  0  0  0  0  0  0  0
  146.3404  137.4677  160.8685 O   0  0  0  0  0  0  0  0  0  0  0  0
  147.9784  137.0040  159.3720 N   0  0  0  0  0  0  0  0  0  0  0  0
  149.1420  136.2359  158.9121 C   0  0  0  0  0  0  0  0  0  0  0  0
  148.7101  135.3465  157.7323 C   0  0  0  0  0  0  0  0  0  0  0  0
  148.0903  136.1537  156.6827 N   0  0  0  0  0  0  0  0  0  0  0  0
  147.7933  135.4541  155.5685 C   0  0  0  0  0  0  0  0  0  0  0  0
  148.6973  134.5324  155.1570 N   0  0  0  0  0  0  0  0  0  0  0  0
  148.4566  133.8065  154.0607 C   0  0  0  0  0  0  0  0  0  0  0  0
  147.3959  133.8434  153.2508 N   0  0  0  0  0  0  0  0  0  0  0  0
  146.4836  134.7696  153.6656 C   0  0  0  0  0  0  0  0  0  0  0  0
  146.6038  135.6150  154.8042 C   0  0  0  0  0  0  0  0  0  0  0  0
  145.4876  136.4356  154.9068 N   0  0  0  0  0  0  0  0  0  0  0  0
  144.7514  136.0982  153.8833 C   0  0  0  0  0  0  0  0  0  0  0  0
  145.2652  135.0933  153.0926 N   0  0  0  0  0  0  0  0  0  0  0  0
  144.6822  134.5431  151.9010 C   0  0  0  0  0  0  0  0  0  0  0  0
  144.4506  133.0365  151.7769 C   0  0  0  0  0  0  0  0  0  0  0  0
  144.8065  133.0936  150.2736 C   0  0  0  0  0  0  0  0  0  0  0  0
  145.7778  131.9961  149.8130 C   0  0  0  0  0  0  0  0  0  0  0  0
  146.8374  131.8239  150.7320 O   0  0  0  0  0  0  0  0  0  0  0  0
  143.6165  133.0900  149.2883 C   0  0  0  0  0  0  0  0  0  0  0  0
  143.0435  131.8107  149.1095 O   0  0  0  0  0  0  0  0  0  0  0  0
  145.4584  134.4607  150.5828 C   0  0  0  0  0  0  0  0  0  0  0  0
  147.0192  137.0479  157.1208 C   0  0  0  0  0  0  0  0  0  0  0  0
  147.4787  137.8985  158.3204 C   0  0  0  0  0  0  0  0  0  0  0  0
  148.5011  136.3011  162.3112 H   0  0  0  0  0  0  0  0  0  0  0  0
  148.5527  135.0921  161.0213 H   0  0  0  0  0  0  0  0  0  0  0  0
  149.9198  136.9294  158.5892 H   0  0  0  0  0  0  0  0  0  0  0  0
  149.5991  135.6243  159.6880 H   0  0  0  0  0  0  0  0  0  0  0  0
  149.5752  134.8201  157.3272 H   0  0  0  0  0  0  0  0  0  0  0  0
  148.0073  134.5889  158.0810 H   0  0  0  0  0  0  0  0  0  0  0  0
  149.2226  133.0929  153.7949 H   0  0  0  0  0  0  0  0  0  0  0  0
  143.8075  136.5817  153.6788 H   0  0  0  0  0  0  0  0  0  0  0  0
  143.7486  135.0829  151.7382 H   0  0  0  0  0  0  0  0  0  0  0  0
  145.1666  132.4596  152.3645 H   0  0  0  0  0  0  0  0  0  0  0  0
  143.4297  132.7223  151.9965 H   0  0  0  0  0  0  0  0  0  0  0  0
  145.2650  131.0386  149.7163 H   0  0  0  0  0  0  0  0  0  0  0  0
  146.1940  132.2231  148.8310 H   0  0  0  0  0  0  0  0  0  0  0  0
  147.5729  131.4457  150.2748 H   0  0  0  0  0  0  0  0  0  0  0  0
  142.8235  133.7548  149.6317 H   0  0  0  0  0  0  0  0  0  0  0  0
  143.9256  133.4543  148.3081 H   0  0  0  0  0  0  0  0  0  0  0  0
  142.1977  131.7983  149.5307 H   0  0  0  0  0  0  0  0  0  0  0  0
  145.2149  135.2506  149.8715 H   0  0  0  0  0  0  0  0  0  0  0  0
  146.5375  134.3874  150.7211 H   0  0  0  0  0  0  0  0  0  0  0  0
  146.7233  137.6977  156.2963 H   0  0  0  0  0  0  0  0  0  0  0  0
  146.1409  136.4642  157.3992 H   0  0  0  0  0  0  0  0  0  0  0  0
  146.6602  138.5361  158.6570 H   0  0  0  0  0  0  0  0  0  0  0  0
  148.2790  138.5744  158.0155 H   0  0  0  0  0  0  0  0  0  0  0  0
  1  2  3  0  0  0  0
  2  3  1  0  0  0  0
  3  4  1  0  0  0  0
  3 29  1  0  0  0  0
  3 30  1  0  0  0  0
  4  5  2  0  0  0  0
  4  6  1  0  0  0  0
  6 28  1  0  0  0  0
  6  7  1  0  0  0  0
  7  8  1  0  0  0  0
  7 31  1  0  0  0  0
  7 32  1  0  0  0  0
  8  9  1  0  0  0  0
  8 33  1  0  0  0  0
  8 34  1  0  0  0  0
  9 10  1  0  0  0  0
  9 27  1  0  0  0  0
 10 15  1  0  0  0  0
 10 11  2  0  0  0  0
 11 12  1  0  0  0  0
 12 13  2  0  0  0  0
 12 35  1  0  0  0  0
 13 14  1  0  0  0  0
 14 18  1  0  0  0  0
 14 15  2  0  0  0  0
 15 16  1  0  0  0  0
 16 17  2  0  0  0  0
 17 18  1  0  0  0  0
 17 36  1  0  0  0  0
 18 19  1  0  0  0  0
 19 26  1  0  0  0  0
 19 20  1  0  0  0  0
 19 37  1  0  0  0  0
 20 21  1  0  0  0  0
 20 38  1  0  0  0  0
 20 39  1  0  0  0  0
 21 22  1  0  0  0  0
 21 24  1  0  0  0  0
 21 26  1  0  0  0  0
 22 23  1  0  0  0  0
 22 40  1  0  0  0  0
 22 41  1  0  0  0  0
 23 42  1  0  0  0  0
 24 25  1  0  0  0  0
 24 43  1  0  0  0  0
 24 44  1  0  0  0  0
 25 45  1  0  0  0  0
 26 46  1  0  0  0  0
 26 47  1  0  0  0  0
 27 28  1  0  0  0  0
 27 48  1  0  0  0  0
 27 49  1  0  0  0  0
 28 50  1  0  0  0  0
 28 51  1  0  0  0  0
M  END
> <s_m_source_file>
AV-unprocessed.smi

> <i_m_source_file_index>
80

> <i_lp_mmshare_version>
43012

> <i_f3d_flags>
0

> <s_epik_input>
TiNDW0NIMl1DKD1PKU4xW0NIMl1bQ0gyXU4oW0NIMl1bQ0gyXTEpYyhuW2NIXW4yKWMoYzIzKW5bY0hdbjNbQ0hdKFtDSDJdNClbQ0gyXUM0KFtDSDJdW09IXSlbQ0gyXVtPSF0=

> <s_epik_cmdline>
J2VwaWtfcHl0aG9uJywgJy1waCcsICc3LjAnLCAnLXRuJywgJzgnLCAnLW1hJywgJzIwMCcsICctbWV0YWxfYmluZGluZycsICctaW1hZScsICc8aW5maWxlLm1hZT4nLCAnLW9tYWUnLCAnPG91dGZpbGUubWFlPic=

> <r_lp_tautomer_probability>
1

> <r_epik_Ionization_Penalty>
0.000827394

> <r_epik_Ionization_Penalty_Charging>
0

> <r_epik_Ionization_Penalty_Neutral>
0.000827394

> <r_epik_State_Penalty>
0.000406949

> <r_epik_Charging_Adjusted_Penalty>
0.000406949

> <i_epik_Tot_Q>
0

> <i_epik_Tot_abs_Q>
0

> <r_epik_Metal_State_Penalty>
-0

> <b_epik_Metal_Only>
0

> <s_lp_Force_Field>
OPLS_2005

> <r_lp_Energy>
60.4217

> <b_lp_Chiralities_Consistent>
1

> <s_lp_Variant>
AV-unprocessed.smi:80-1

> <Gold.Version>
5.8.1

> <Gold.Id.Protein>
6NUR|6NUR_protein|mol2

> <Gold.PLP.Fitness>
45.1942

> <Gold.PLP.PLP>
-35.5079

> <Gold.PLP.part.hbond>
-4.2616

> <Gold.PLP.part.metal>
0.0000

> <Gold.PLP.part.buried>
-4.3959

> <Gold.PLP.part.nonpolar>
-27.1287

> <Gold.PLP.part.repulsive>
0.2514

> <Gold.PLP.ligand.clash>
0.0000

> <Gold.PLP.ligand.torsion>
0.8454

> <Gold.PLP.Chemscore.Hbond>
3.5760

> <Gold.PLP.Chemscore.CHOScore>
0.0000

> <Gold.PLP.Chemscore.Metal>
0.0000

> <Gold.Chemscore.Hbonds>
donor molecule, donor type, donor heavy atom, donor atom, acceptor molecule, acceptor atom, score
      L1  H    23    42       P1 10747  0.96
      L1  H    25    45       P1 10952  0.61
      P1  H  6934  6947       L1     5  0.75
      P1  H 10785 10796       L1    25  0.95

> <Gold.PLP.Chemscore.Internal.Correction>
0.6491

> <Gold.Rescore>
     Score         DG    S(hbond)    S(metal)    S(lipo)     H(rot)  DE(clash)    DE(int)     intcor
     10.18     -12.78       2.82        0.00      65.31       3.82       0.47       2.13       ----

> <Gold.Chemscore.Fitness>
10.1824

> <Gold.Chemscore.DG>
-12.7829

> <Gold.Chemscore.ZeroCoef>
-5.4800

> <Gold.Chemscore.Hbond>
2.8240

> <Gold.Chemscore.Metal>
0.0000

> <Gold.Chemscore.Lipo>
65.3059

> <Gold.Chemscore.Internal_Hbond>
0.0000

> <Gold.Chemscore.DEClash>
0.4687

> <Gold.Chemscore.DEInternal>
2.1319

> <Gold.Chemscore.Rot>
3.8164

> <Gold.Chemscore.Internal.Correction>
   9.000000E+99

> <Gold.Chemscore.Hbonds>
donor molecule, donor type, donor heavy atom, donor atom, acceptor molecule, acceptor atom, score
      L1  H    23    42       P1 10747  0.88
      L1  H    25    45       P1 10952  0.58
      P1  H  6934  6947       L1     5  0.09
      P1  H 10785 10796       L1    25  0.21

> <Gold.Chemscore.Hbond.Weighted>
-9.4320

> <Gold.Chemscore.Metal.Weighted>
-0.0000

> <Gold.Chemscore.Lipo.Weighted>
-7.6408

> <Gold.Chemscore.Internal_Hbond.Weighted>
0.0000

> <Gold.Chemscore.DEClash.Weighted>
0.4687

> <Gold.Chemscore.DEInternal.Weighted>
2.1319

> <Gold.Chemscore.Rot.Weighted>
9.7699

> <Gold.Chemscore.Internal.Correction.Weighted>
   9.000000E+99

> <Gold.Protein.RotatedTorsions>
[ 6907 6896 6895 6894 ] final   76.74 input  -60.11 | X-H torsion
[ 7974 7965 7964 7962 ] final  134.06 input  175.53 | X-H torsion
[ 8008 7997 7996 7995 ] final   92.35 input   59.86 | X-H torsion
[ 10167 10162 10161 10158 ] final  134.58 input  -65.29 | X-H torsion
[ 10718 10713 10712 10709 ] final -111.12 input   66.30 | X-H torsion
[ 10763 10752 10751 10750 ] final   95.84 input  -60.55 | X-H torsion
[ 11005 11000 10999 10996 ] final -116.11 input  -57.11 | X-H torsion

> <Gold.Protein.ActiveResidues>
 VAL166  LYS551  ARG553  GLY616  TRP617  ASP618  TYR619  PRO620  LYS621  CYS622 
 ASP623  PHE694  ASN695  SER759  ASP760  ASP761  ALA762  ILE779  LEU786  VAL792 
 PHE793  MET794  SER795  GLU796  ALA797  LYS798  CYS799  TRP800  GLU811  SER814 

> <Gold.Protein.RotatedAtoms>
  152.5087  134.3923  159.9387 H   0  0  0  0  0  0  0  0  0  0  0  0  # atno 6907 bound_to 6896
  151.3883  133.3791  159.2726 H   0  0  0  0  0  0  0  0  0  0  0  0  # atno 6908 bound_to 6896
  150.9452  134.8878  159.7696 H   0  0  0  0  0  0  0  0  0  0  0  0  # atno 6909 bound_to 6896
  144.9802  139.4513  143.5390 H   0  0  0  0  0  0  0  0  0  0  0  0  # atno 7974 bound_to 7965
  156.0344  140.3326  155.7174 H   0  0  0  0  0  0  0  0  0  0  0  0  # atno 8008 bound_to 7997
  155.5837  140.0639  157.2794 H   0  0  0  0  0  0  0  0  0  0  0  0  # atno 8009 bound_to 7997
  154.4366  140.1839  156.0991 H   0  0  0  0  0  0  0  0  0  0  0  0  # atno 8010 bound_to 7997
  139.5251  144.6560  151.5160 H   0  0  0  0  0  0  0  0  0  0  0  0  # atno 10167 bound_to 10162
  156.0629  130.5851  150.8330 H   0  0  0  0  0  0  0  0  0  0  0  0  # atno 10718 bound_to 10713
  153.2579  135.4239  155.0864 H   0  0  0  0  0  0  0  0  0  0  0  0  # atno 10763 bound_to 10752
  154.8408  135.3442  154.6419 H   0  0  0  0  0  0  0  0  0  0  0  0  # atno 10764 bound_to 10752
  153.6840  135.7037  153.5166 H   0  0  0  0  0  0  0  0  0  0  0  0  # atno 10765 bound_to 10752
  141.0443  133.9787  157.2943 H   0  0  0  0  0  0  0  0  0  0  0  0  # atno 11005 bound_to 11000
  146.3406  139.9069  142.8786 LP  0  0  0  0  0  0  0  0  0  0  0  0  # atno 17320 bound_to 7965
  145.2432  141.0017  143.3923 LP  0  0  0  0  0  0  0  0  0  0  0  0  # atno 17321 bound_to 7965
  140.6386  143.8934  150.6670 LP  0  0  0  0  0  0  0  0  0  0  0  0  # atno 17342 bound_to 10162
  140.2261  143.3771  152.1603 LP  0  0  0  0  0  0  0  0  0  0  0  0  # atno 17343 bound_to 10162
  157.5650  131.0946  150.9502 LP  0  0  0  0  0  0  0  0  0  0  0  0  # atno 17370 bound_to 10713
  156.9731  130.5498  149.5291 LP  0  0  0  0  0  0  0  0  0  0  0  0  # atno 17371 bound_to 10713
  139.9300  135.0200  156.8366 LP  0  0  0  0  0  0  0  0  0  0  0  0  # atno 17394 bound_to 11000
  140.6176  134.0024  155.7604 LP  0  0  0  0  0  0  0  0  0  0  0  0  # atno 17395 bound_to 11000

$$$$
