AV-unprocessed.smi:2557|AV-procd|sdf|10027|dock5
  -GOLD-   2272014 73D 1   1.00000     0.00000
 Structure written by MMmdl.
 38 40  0  0  0  0  0  0  0  0  2 V2000
  146.8686  140.9494  153.3764 O   0  5  0  0  0  0  0  0  0  0  0  0
  146.9979  141.2947  154.5747 C   0  0  0  0  0  0  0  0  0  0  0  0
  148.1226  141.4573  155.3874 C   0  0  0  0  0  0  0  0  0  0  0  0
  149.4825  141.2383  154.8686 C   0  0  0  0  0  0  0  0  0  0  0  0
  149.7673  140.8922  153.7228 O   0  0  0  0  0  0  0  0  0  0  0  0
  150.4604  141.4486  155.7709 N   0  0  0  0  0  0  0  0  0  0  0  0
  150.2260  141.8447  157.0894 C   0  0  0  0  0  0  0  0  0  0  0  0
  151.5325  141.9919  157.8710 C   0  0  0  0  0  0  0  0  0  0  0  0
  151.6649  140.9150  158.9721 C   0  0  0  0  0  0  0  0  0  0  0  0
  152.9992  141.0365  159.7271 C   0  0  0  0  0  0  0  0  0  0  0  0
  153.1847  142.4441  160.3139 C   0  0  0  0  0  0  0  0  0  0  0  0
  153.0668  143.5171  159.2211 C   0  0  0  0  0  0  0  0  0  0  0  0
  151.7275  143.4029  158.4753 C   0  0  0  0  0  0  0  0  0  0  0  0
  149.0511  142.0473  157.6042 N   0  0  0  0  0  0  0  0  0  0  0  0
  148.0003  141.8540  156.7382 N   0  0  0  0  0  0  0  0  0  0  0  0
  145.6577  141.4883  155.1617 C   0  0  0  0  0  0  0  0  0  0  0  0
  144.9648  142.7087  155.0042 C   0  0  0  0  0  0  0  0  0  0  0  0
  143.6919  142.8468  155.5916 C   0  0  0  0  0  0  0  0  0  0  0  0
  143.0938  141.8695  156.3058 N   0  0  0  0  0  0  0  0  0  0  0  0
  143.7620  140.7064  156.4611 C   0  0  0  0  0  0  0  0  0  0  0  0
  145.0384  140.4673  155.9156 C   0  0  0  0  0  0  0  0  0  0  0  0
  152.3475  141.8346  157.1619 H   0  0  0  0  0  0  0  0  0  0  0  0
  150.8392  141.0070  159.6796 H   0  0  0  0  0  0  0  0  0  0  0  0
  151.5900  139.9154  158.5422 H   0  0  0  0  0  0  0  0  0  0  0  0
  153.0445  140.2931  160.5235 H   0  0  0  0  0  0  0  0  0  0  0  0
  153.8234  140.8126  159.0488 H   0  0  0  0  0  0  0  0  0  0  0  0
  152.4324  142.6224  161.0833 H   0  0  0  0  0  0  0  0  0  0  0  0
  154.1546  142.5180  160.8064 H   0  0  0  0  0  0  0  0  0  0  0  0
  153.1628  144.5096  159.6625 H   0  0  0  0  0  0  0  0  0  0  0  0
  153.8904  143.4121  158.5137 H   0  0  0  0  0  0  0  0  0  0  0  0
  151.6866  144.1583  157.6892 H   0  0  0  0  0  0  0  0  0  0  0  0
  150.9161  143.6308  159.1684 H   0  0  0  0  0  0  0  0  0  0  0  0
  147.0802  142.0150  157.1333 H   0  0  0  0  0  0  0  0  0  0  0  0
  145.4023  143.5211  154.4429 H   0  0  0  0  0  0  0  0  0  0  0  0
  143.1390  143.7684  155.4852 H   0  0  0  0  0  0  0  0  0  0  0  0
  143.2639  139.9421  157.0388 H   0  0  0  0  0  0  0  0  0  0  0  0
  145.5329  139.5193  156.0691 H   0  0  0  0  0  0  0  0  0  0  0  0
  151.4134  141.3109  155.4689 H   0  0  0  0  0  0  0  0  0  0  0  0
  1  2  1  0  0  0  0
  2  3  2  0  0  0  0
  2 16  1  0  0  0  0
  3 15  1  0  0  0  0
  3  4  1  0  0  0  0
  4  5  2  0  0  0  0
  4  6  1  0  0  0  0
  6  7  1  0  0  0  0
  6 38  1  0  0  0  0
  7  8  1  0  0  0  0
  7 14  2  0  0  0  0
  8 13  1  0  0  0  0
  8  9  1  0  0  0  0
  8 22  1  0  0  0  0
  9 10  1  0  0  0  0
  9 23  1  0  0  0  0
  9 24  1  0  0  0  0
 10 11  1  0  0  0  0
 10 25  1  0  0  0  0
 10 26  1  0  0  0  0
 11 12  1  0  0  0  0
 11 27  1  0  0  0  0
 11 28  1  0  0  0  0
 12 13  1  0  0  0  0
 12 29  1  0  0  0  0
 12 30  1  0  0  0  0
 13 31  1  0  0  0  0
 13 32  1  0  0  0  0
 14 15  1  0  0  0  0
 15 33  1  0  0  0  0
 16 21  1  0  0  0  0
 16 17  2  0  0  0  0
 17 18  1  0  0  0  0
 17 34  1  0  0  0  0
 18 19  2  0  0  0  0
 18 35  1  0  0  0  0
 19 20  1  0  0  0  0
 20 21  2  0  0  0  0
 20 36  1  0  0  0  0
 21 37  1  0  0  0  0
M  CHG  1   1  -1
M  END
> <s_m_source_file>
AV-unprocessed.smi

> <i_m_source_file_index>
2557

> <i_lp_mmshare_version>
43012

> <i_f3d_flags>
0

> <s_epik_input>
W2NIXTFbY0hdbltjSF1bY0hdYzFDKD1PKUMyPUMoW09IXSlOPUMoW05IXVtOSF0yKVtDSF0zW0NIMl1bQ0gyXVtDSDJdW0NIMl1bQ0gyXTM=

> <s_epik_cmdline>
J2VwaWtfcHl0aG9uJywgJy1waCcsICc3LjAnLCAnLXRuJywgJzgnLCAnLW1hJywgJzIwMCcsICctbWV0YWxfYmluZGluZycsICctaW1hZScsICc8aW5maWxlLm1hZT4nLCAnLW9tYWUnLCAnPG91dGZpbGUubWFlPic=

> <r_epik_Ionization_Penalty>
0.0900605

> <r_epik_Ionization_Penalty_Charging>
0.000501436

> <r_epik_Ionization_Penalty_Neutral>
0.0895591

> <r_epik_State_Penalty>
0.142021

> <r_epik_Charging_Adjusted_Penalty>
0.142522

> <i_epik_Tot_Q>
-1

> <i_epik_Tot_abs_Q>
1

> <r_epik_Metal_State_Penalty>
0.0730028

> <b_epik_Metal_Only>
0

> <s_epik_Chemistry_Notes>
This compound has an imine and may undergo hydrolysis.

> <s_lp_Force_Field>
OPLS_2005

> <r_lp_Energy>
31.0156

> <b_lp_Chiralities_Consistent>
1

> <s_lp_Variant>
AV-unprocessed.smi:2557-1

> <Gold.Version>
5.8.1

> <Gold.Id.Protein>
6NUR|6NUR_protein|mol2

> <Gold.PLP.Fitness>
37.5382

> <Gold.PLP.PLP>
-34.6851

> <Gold.PLP.part.hbond>
-2.9395

> <Gold.PLP.part.metal>
0.0000

> <Gold.PLP.part.buried>
-3.0593

> <Gold.PLP.part.nonpolar>
-31.8665

> <Gold.PLP.part.repulsive>
4.0829

> <Gold.PLP.ligand.clash>
0.0000

> <Gold.PLP.ligand.torsion>
1.5308

> <Gold.PLP.Chemscore.Hbond>
1.2566

> <Gold.PLP.Chemscore.CHOScore>
0.0000

> <Gold.PLP.Chemscore.Metal>
0.0000

> <Gold.Chemscore.Hbonds>
donor molecule, donor type, donor heavy atom, donor atom, acceptor molecule, acceptor atom, score
      P1  H  7989  7998       L1     5  0.40
      P1  H  8011  8017       L1     5  0.92

> <Gold.PLP.Chemscore.Internal.Correction>
2.1450

> <Gold.Rescore>
     Score         DG    S(hbond)    S(metal)    S(lipo)     H(rot)  DE(clash)    DE(int)     intcor
     14.86     -16.72       0.95        0.00      90.83       1.00       0.06       1.79       ----

> <Gold.Chemscore.Fitness>
14.8642

> <Gold.Chemscore.DG>
-16.7188

> <Gold.Chemscore.ZeroCoef>
-5.4800

> <Gold.Chemscore.Hbond>
0.9497

> <Gold.Chemscore.Metal>
0.0000

> <Gold.Chemscore.Lipo>
90.8267

> <Gold.Chemscore.Internal_Hbond>
0.0000

> <Gold.Chemscore.DEClash>
0.0649

> <Gold.Chemscore.DEInternal>
1.7897

> <Gold.Chemscore.Rot>
1.0000

> <Gold.Chemscore.Internal.Correction>
   9.000000E+99

> <Gold.Chemscore.Hbonds>
donor molecule, donor type, donor heavy atom, donor atom, acceptor molecule, acceptor atom, score
      P1  H  7989  7998       L1     5  0.31
      P1  H  8011  8017       L1     5  0.75

> <Gold.Chemscore.Hbond.Weighted>
-3.1721

> <Gold.Chemscore.Metal.Weighted>
-0.0000

> <Gold.Chemscore.Lipo.Weighted>
-10.6267

> <Gold.Chemscore.Internal_Hbond.Weighted>
0.0000

> <Gold.Chemscore.DEClash.Weighted>
0.0649

> <Gold.Chemscore.DEInternal.Weighted>
1.7897

> <Gold.Chemscore.Rot.Weighted>
2.5600

> <Gold.Chemscore.Internal.Correction.Weighted>
   9.000000E+99

> <Gold.Protein.RotatedTorsions>
[ 6907 6896 6895 6894 ] final -159.12 input  -60.11 | X-H torsion
[ 7974 7965 7964 7962 ] final -174.15 input  175.53 | X-H torsion
[ 8008 7997 7996 7995 ] final  -42.87 input   59.86 | X-H torsion
[ 10167 10162 10161 10158 ] final -109.46 input  -65.29 | X-H torsion
[ 10718 10713 10712 10709 ] final -131.13 input   66.30 | X-H torsion
[ 10763 10752 10751 10750 ] final  151.64 input  -60.55 | X-H torsion
[ 11005 11000 10999 10996 ] final  -90.84 input  -57.11 | X-H torsion

> <Gold.Protein.ActiveResidues>
 VAL166  LYS551  ARG553  GLY616  TRP617  ASP618  TYR619  PRO620  LYS621  CYS622 
 ASP623  PHE694  ASN695  SER759  ASP760  ASP761  ALA762  ILE779  LEU786  VAL792 
 PHE793  MET794  SER795  GLU796  ALA797  LYS798  CYS799  TRP800  GLU811  SER814 

> <Gold.Protein.RotatedAtoms>
  151.3287  133.4009  159.2660 H   0  0  0  0  0  0  0  0  0  0  0  0  # atno 6907 bound_to 6896
  150.9974  134.9295  159.7944 H   0  0  0  0  0  0  0  0  0  0  0  0  # atno 6908 bound_to 6896
  152.5265  134.3252  159.9215 H   0  0  0  0  0  0  0  0  0  0  0  0  # atno 6909 bound_to 6896
  144.7133  140.1515  143.6384 H   0  0  0  0  0  0  0  0  0  0  0  0  # atno 7974 bound_to 7965
  154.3998  140.1462  156.3426 H   0  0  0  0  0  0  0  0  0  0  0  0  # atno 8008 bound_to 7997
  155.8342  140.3464  155.5570 H   0  0  0  0  0  0  0  0  0  0  0  0  # atno 8009 bound_to 7997
  155.8156  140.0890  157.1869 H   0  0  0  0  0  0  0  0  0  0  0  0  # atno 8010 bound_to 7997
  140.1550  143.4167  152.1467 H   0  0  0  0  0  0  0  0  0  0  0  0  # atno 10167 bound_to 10162
  156.2214  130.6980  151.0759 H   0  0  0  0  0  0  0  0  0  0  0  0  # atno 10718 bound_to 10713
  154.1071  135.2841  155.3239 H   0  0  0  0  0  0  0  0  0  0  0  0  # atno 10763 bound_to 10752
  154.6515  135.5367  153.7911 H   0  0  0  0  0  0  0  0  0  0  0  0  # atno 10764 bound_to 10752
  153.0358  135.6511  154.1232 H   0  0  0  0  0  0  0  0  0  0  0  0  # atno 10765 bound_to 10752
  141.1557  133.7718  156.9795 H   0  0  0  0  0  0  0  0  0  0  0  0  # atno 11005 bound_to 11000
  145.9112  139.2488  143.1436 LP  0  0  0  0  0  0  0  0  0  0  0  0  # atno 17320 bound_to 7965
  145.9714  140.8757  143.0161 LP  0  0  0  0  0  0  0  0  0  0  0  0  # atno 17321 bound_to 7965
  139.5408  144.7254  151.4742 LP  0  0  0  0  0  0  0  0  0  0  0  0  # atno 17342 bound_to 10162
  140.6679  143.8359  150.6963 LP  0  0  0  0  0  0  0  0  0  0  0  0  # atno 17343 bound_to 10162
  157.7089  131.0743  150.6570 LP  0  0  0  0  0  0  0  0  0  0  0  0  # atno 17370 bound_to 10713
  156.6634  130.4518  149.5680 LP  0  0  0  0  0  0  0  0  0  0  0  0  # atno 17371 bound_to 10713
  140.1075  134.9497  157.2016 LP  0  0  0  0  0  0  0  0  0  0  0  0  # atno 17394 bound_to 11000
  140.3237  134.2888  155.7241 LP  0  0  0  0  0  0  0  0  0  0  0  0  # atno 17395 bound_to 11000

$$$$
