#       Name:                AV-unprocessed.smi:1107
#       Creating user name   scv26
#       Creation time:       Fri Mar 27 03:32:30 2020


#       File generated by GOLD software.
#

@<TRIPOS>MOLECULE
AV-unprocessed.smi:1107
    54    55     1
SMALL
NO_CHARGES


@<TRIPOS>ATOM
      1 ****        -3.2961   5.9145  -1.0731 C.3            1 S1                 0.0000
      2 ****        -2.8885   4.4626  -0.9396 C.2            1 S1                 0.0000
      3 ****        -2.9432   3.7970   0.1670 N.2            1 S1                 0.0000
      4 ****        -2.5422   2.4536   0.1673 C.2            1 S1                 0.0000
      5 ****        -2.6436   1.7416   1.5054 C.3            1 S1                 0.0000
      6 ****        -2.1006   1.8397  -0.9697 C.2            1 S1                 0.0000
      7 ****        -1.6552   0.3798  -1.0171 C.3            1 S1                 0.0000
      8 ****        -0.1627   0.1394  -0.7814 C.2            1 S1                 0.0000
      9 ****         0.4139   0.6886   0.1568 O.2            1 S1                 0.0000
     10 ****         0.4512  -0.6894  -1.6408 N.am           1 S1                 0.0000
     11 ****         1.8718  -1.0400  -1.6325 C.3            1 S1                 0.0000
     12 ****         2.3622  -1.1737  -3.0805 C.3            1 S1                 0.0000
     13 ****         2.1261  -2.3374  -0.8313 C.3            1 S1                 0.0000
     14 ****         1.6580  -2.2554   0.5764 N.4            1 S1                 1.0000
     15 ****         1.3034  -3.5815   1.1440 C.3            1 S1                 0.0000
     16 ****         0.6703  -3.4324   2.5379 C.3            1 S1                 0.0000
     17 ****         1.5980  -2.6600   3.4853 C.3            1 S1                 0.0000
     18 ****         1.9836  -1.3130   2.8596 C.3            1 S1                 0.0000
     19 ****         2.5928  -1.5119   1.4621 C.3            1 S1                 0.0000
     20 ****        -2.0334   2.6116  -2.2252 C.2            1 S1                 0.0000
     21 ****        -1.6355   2.1595  -3.2978 O.2            1 S1                 0.0000
     22 ****        -2.4423   3.8966  -2.1327 N.am           1 S1                 0.0000
     23 ****        -2.4168   4.4666  -2.9657 H              1 S1                 0.0000
     24 ****        -4.3354   6.0414  -0.7692 H              1 S1                 0.0000
     25 ****        -3.1959   6.2689  -2.1000 H              1 S1                 0.0000
     26 ****        -2.6729   6.5397  -0.4335 H              1 S1                 0.0000
     27 ****        -1.6877   1.2992   1.7841 H              1 S1                 0.0000
     28 ****        -3.3931   0.9513   1.4602 H              1 S1                 0.0000
     29 ****        -2.9333   2.4309   2.2991 H              1 S1                 0.0000
     30 ****        -2.1992  -0.1935  -0.2671 H              1 S1                 0.0000
     31 ****        -1.9562  -0.0606  -1.9693 H              1 S1                 0.0000
     32 ****        -0.1063  -1.0860  -2.3841 H              1 S1                 0.0000
     33 ****         2.4399  -0.2237  -1.1843 H              1 S1                 0.0000
     34 ****         3.4286  -1.3983  -3.1140 H              1 S1                 0.0000
     35 ****         2.2045  -0.2484  -3.6359 H              1 S1                 0.0000
     36 ****         1.8376  -1.9715  -3.6075 H              1 S1                 0.0000
     37 ****         1.6018  -3.1502  -1.3364 H              1 S1                 0.0000
     38 ****         3.1839  -2.6036  -0.8507 H              1 S1                 0.0000
     39 ****         0.5966  -4.0882   0.4858 H              1 S1                 0.0000
     40 ****         2.1957  -4.2075   1.1966 H              1 S1                 0.0000
     41 ****        -0.2826  -2.9081   2.4519 H              1 S1                 0.0000
     42 ****         0.4465  -4.4152   2.9539 H              1 S1                 0.0000
     43 ****         1.1101  -2.5033   4.4477 H              1 S1                 0.0000
     44 ****         2.4965  -3.2466   3.6814 H              1 S1                 0.0000
     45 ****         1.1014  -0.6750   2.7869 H              1 S1                 0.0000
     46 ****         2.6908  -0.7909   3.5047 H              1 S1                 0.0000
     47 ****         3.5360  -2.0553   1.5374 H              1 S1                 0.0000
     48 ****         2.8252  -0.5372   1.0341 H              1 S1                 0.0000
     49 ****         0.7985  -1.7247   0.5522 H              1 S1                 0.0000
     50 ****        -3.2657   4.2323   1.0076 LP             1 S1                 0.0000
     51 ****        -0.0932   1.2951   0.7692 LP             1 S1                 0.0000
     52 ****         1.3895   0.5284   0.3068 LP             1 S1                 0.0000
     53 ****        -1.3300   1.2092  -3.3573 LP             1 S1                 0.0000
     54 ****        -1.6176   2.7423  -4.1102 LP             1 S1                 0.0000
@<TRIPOS>BOND
    1    1    2 1     
    2    1   24 1     
    3    1   25 1     
    4    1   26 1     
    5    2   22 1     
    6    2    3 2     
    7    3    4 1     
    8    4    5 1     
    9    4    6 2     
   10    5   27 1     
   11    5   28 1     
   12    5   29 1     
   13    6    7 1     
   14    6   20 1     
   15    7    8 1     
   16    7   30 1     
   17    7   31 1     
   18    8    9 2     
   19    8   10 am    
   20   10   11 1     
   21   10   32 1     
   22   11   12 1     
   23   11   13 1     
   24   11   33 1     
   25   12   34 1     
   26   12   35 1     
   27   12   36 1     
   28   13   14 1     
   29   13   37 1     
   30   13   38 1     
   31   14   19 1     
   32   14   15 1     
   33   14   49 1     
   34   15   16 1     
   35   15   39 1     
   36   15   40 1     
   37   16   17 1     
   38   16   41 1     
   39   16   42 1     
   40   17   18 1     
   41   17   43 1     
   42   17   44 1     
   43   18   19 1     
   44   18   45 1     
   45   18   46 1     
   46   19   47 1     
   47   19   48 1     
   48   20   21 2     
   49   20   22 am    
   50   22   23 1     
   51    3   50 1     
   52    9   51 1     
   53    9   52 1     
   54   21   53 1     
   55   21   54 1     
@<TRIPOS>SUBSTRUCTURE
      1 S1             1
@<TRIPOS>SET
LONE_PAIRS      STATIC     ATOMS    <user>   **** ""
5 50 51 52 53 54
DONOR_HYDROGENS      STATIC     ATOMS    <user>   **** ""
3 32 49 23
ATOM$BLUE        STATIC     ATOMS    COLORGROUP SYSTEM
5 50 51 52 53 54
ATOM$RED        STATIC     ATOMS    COLORGROUP SYSTEM
3 32 49 23
