AV-unprocessed.smi:1331|AV-procd|sdf|5487|dock1
  -GOLD-   22720 5 63D 1   1.00000     0.00000
 Structure written by MMmdl.
 38 39  0  0  0  0  0  0  0  0  1 V2000
  147.7278  142.0209  154.8233 C   0  0  0  0  0  0  0  0  0  0  0  0
  149.0479  141.2832  154.5545 C   0  0  2  0  0  0  0  0  0  0  0  0
  148.8730  139.7545  154.6337 C   0  0  0  0  0  0  0  0  0  0  0  0
  150.1464  139.0591  154.7085 N   0  0  0  0  0  0  0  0  0  0  0  0
  150.3756  137.7107  154.8832 C   0  0  0  0  0  0  0  0  0  0  0  0
  151.7282  137.5245  154.8767 C   0  0  0  0  0  0  0  0  0  0  0  0
  152.2491  138.8352  154.6890 C   0  0  0  0  0  0  0  0  0  0  0  0
  151.3002  139.7519  154.5898 N   0  0  0  0  0  0  0  0  0  0  0  0
  150.0627  141.7203  155.5104 N   0  0  0  0  0  0  0  0  0  0  0  0
  149.9381  141.6992  156.8459 C   0  0  0  0  0  0  0  0  0  0  0  0
  148.9463  141.2568  157.4264 O   0  0  0  0  0  0  0  0  0  0  0  0
  151.1138  142.2731  157.6470 C   0  0  0  0  0  0  0  0  0  0  0  0
  151.6323  141.2530  158.6832 C   0  0  0  0  0  0  0  0  0  0  0  0
  152.7992  141.8308  159.5005 C   0  0  0  0  0  0  0  0  0  0  0  0
  152.4004  143.1472  160.1859 C   0  0  0  0  0  0  0  0  0  0  0  0
  151.8761  144.1689  159.1644 C   0  0  0  0  0  0  0  0  0  0  0  0
  150.7114  143.5903  158.3443 C   0  0  0  0  0  0  0  0  0  0  0  0
  146.9594  141.7208  154.1108 H   0  0  0  0  0  0  0  0  0  0  0  0
  147.8539  143.1005  154.7332 H   0  0  0  0  0  0  0  0  0  0  0  0
  147.3527  141.8113  155.8256 H   0  0  0  0  0  0  0  0  0  0  0  0
  149.3718  141.5294  153.5413 H   0  0  0  0  0  0  0  0  0  0  0  0
  148.2613  139.4793  155.4946 H   0  0  0  0  0  0  0  0  0  0  0  0
  148.3467  139.3912  153.7502 H   0  0  0  0  0  0  0  0  0  0  0  0
  149.5657  137.0044  154.9928 H   0  0  0  0  0  0  0  0  0  0  0  0
  152.2640  136.5936  154.9875 H   0  0  0  0  0  0  0  0  0  0  0  0
  153.2815  139.1455  154.6225 H   0  0  0  0  0  0  0  0  0  0  0  0
  150.9122  142.1058  155.1233 H   0  0  0  0  0  0  0  0  0  0  0  0
  151.9274  142.4921  156.9526 H   0  0  0  0  0  0  0  0  0  0  0  0
  150.8290  140.9635  159.3629 H   0  0  0  0  0  0  0  0  0  0  0  0
  151.9559  140.3400  158.1818 H   0  0  0  0  0  0  0  0  0  0  0  0
  153.1243  141.1063  160.2477 H   0  0  0  0  0  0  0  0  0  0  0  0
  153.6541  142.0038  158.8455 H   0  0  0  0  0  0  0  0  0  0  0  0
  151.6308  142.9506  160.9333 H   0  0  0  0  0  0  0  0  0  0  0  0
  153.2545  143.5613  160.7225 H   0  0  0  0  0  0  0  0  0  0  0  0
  151.5543  145.0756  159.6776 H   0  0  0  0  0  0  0  0  0  0  0  0
  152.6841  144.4634  158.4937 H   0  0  0  0  0  0  0  0  0  0  0  0
  150.3885  144.3232  157.6033 H   0  0  0  0  0  0  0  0  0  0  0  0
  149.8581  143.4222  159.0036 H   0  0  0  0  0  0  0  0  0  0  0  0
  1  2  1  0  0  0  0
  1 18  1  0  0  0  0
  1 19  1  0  0  0  0
  1 20  1  0  0  0  0
  2  3  1  0  0  0  0
  2  9  1  0  0  0  0
  2 21  1  0  0  0  0
  3  4  1  0  0  0  0
  3 22  1  0  0  0  0
  3 23  1  0  0  0  0
  4  8  1  0  0  0  0
  4  5  1  0  0  0  0
  5  6  2  0  0  0  0
  5 24  1  0  0  0  0
  6  7  1  0  0  0  0
  6 25  1  0  0  0  0
  7  8  2  0  0  0  0
  7 26  1  0  0  0  0
  9 10  1  0  0  0  0
  9 27  1  0  0  0  0
 10 11  2  0  0  0  0
 10 12  1  0  0  0  0
 12 17  1  0  0  0  0
 12 13  1  0  0  0  0
 12 28  1  0  0  0  0
 13 14  1  0  0  0  0
 13 29  1  0  0  0  0
 13 30  1  0  0  0  0
 14 15  1  0  0  0  0
 14 31  1  0  0  0  0
 14 32  1  0  0  0  0
 15 16  1  0  0  0  0
 15 33  1  0  0  0  0
 15 34  1  0  0  0  0
 16 17  1  0  0  0  0
 16 35  1  0  0  0  0
 16 36  1  0  0  0  0
 17 37  1  0  0  0  0
 17 38  1  0  0  0  0
M  END
> <s_m_source_file>
AV-unprocessed.smi

> <i_m_source_file_index>
1331

> <i_lp_mmshare_version>
43012

> <i_f3d_flags>
0

> <s_epik_input>
bjFbY0hdW2NIXVtjSF1uMVtDSDJdW0NAQEhdKFtDSDNdKVtOSF1DKD1PKVtDSF0yW0NIMl1bQ0gyXVtDSDJdW0NIMl1bQ0gyXTI=

> <s_epik_cmdline>
J2VwaWtfcHl0aG9uJywgJy1waCcsICc3LjAnLCAnLXRuJywgJzgnLCAnLW1hJywgJzIwMCcsICctbWV0YWxfYmluZGluZycsICctaW1hZScsICc8aW5maWxlLm1hZT4nLCAnLW9tYWUnLCAnPG91dGZpbGUubWFlPic=

> <r_lp_tautomer_probability>
1

> <r_epik_Ionization_Penalty>
0.000326658

> <r_epik_Ionization_Penalty_Charging>
0

> <r_epik_Ionization_Penalty_Neutral>
0.000326658

> <r_epik_State_Penalty>
-0

> <r_epik_Charging_Adjusted_Penalty>
0

> <i_epik_Tot_Q>
0

> <i_epik_Tot_abs_Q>
0

> <r_epik_Metal_State_Penalty>
-0

> <b_epik_Metal_Only>
0

> <s_lp_Force_Field>
OPLS_2005

> <r_lp_Energy>
10.6365

> <b_lp_Chiralities_Consistent>
1

> <s_lp_Variant>
AV-unprocessed.smi:1331-1

> <Gold.Version>
5.8.1

> <Gold.Id.Protein>
6NUR|6NUR_protein|mol2

> <Gold.PLP.Fitness>
40.4166

> <Gold.PLP.PLP>
-37.9575

> <Gold.PLP.part.hbond>
-1.3744

> <Gold.PLP.part.metal>
0.0000

> <Gold.PLP.part.buried>
-2.5982

> <Gold.PLP.part.nonpolar>
-35.5319

> <Gold.PLP.part.repulsive>
0.3189

> <Gold.PLP.ligand.clash>
0.0000

> <Gold.PLP.ligand.torsion>
0.2931

> <Gold.PLP.Chemscore.Hbond>
1.0000

> <Gold.PLP.Chemscore.CHOScore>
0.0000

> <Gold.PLP.Chemscore.Metal>
0.0000

> <Gold.Chemscore.Hbonds>
donor molecule, donor type, donor heavy atom, donor atom, acceptor molecule, acceptor atom, score
      P1  H  7989  7998       L1     8  1.00

> <Gold.PLP.Chemscore.Internal.Correction>
0.0454

> <Gold.Rescore>
     Score         DG    S(hbond)    S(metal)    S(lipo)     H(rot)  DE(clash)    DE(int)     intcor
     15.26     -16.64       0.97        0.00     100.29       1.49       0.02       1.36       ----

> <Gold.Chemscore.Fitness>
15.2560

> <Gold.Chemscore.DG>
-16.6436

> <Gold.Chemscore.ZeroCoef>
-5.4800

> <Gold.Chemscore.Hbond>
0.9713

> <Gold.Chemscore.Metal>
0.0000

> <Gold.Chemscore.Lipo>
100.2936

> <Gold.Chemscore.Internal_Hbond>
0.0000

> <Gold.Chemscore.DEClash>
0.0240

> <Gold.Chemscore.DEInternal>
1.3636

> <Gold.Chemscore.Rot>
1.4902

> <Gold.Chemscore.Internal.Correction>
   9.000000E+99

> <Gold.Chemscore.Hbonds>
donor molecule, donor type, donor heavy atom, donor atom, acceptor molecule, acceptor atom, score
      P1  H  7989  7998       L1     8  0.81

> <Gold.Chemscore.Hbond.Weighted>
-3.2442

> <Gold.Chemscore.Metal.Weighted>
-0.0000

> <Gold.Chemscore.Lipo.Weighted>
-11.7343

> <Gold.Chemscore.Internal_Hbond.Weighted>
0.0000

> <Gold.Chemscore.DEClash.Weighted>
0.0240

> <Gold.Chemscore.DEInternal.Weighted>
1.3636

> <Gold.Chemscore.Rot.Weighted>
3.8149

> <Gold.Chemscore.Internal.Correction.Weighted>
   9.000000E+99

> <Gold.Protein.RotatedTorsions>
[ 6907 6896 6895 6894 ] final  -86.68 input  -60.11 | X-H torsion
[ 7974 7965 7964 7962 ] final  157.60 input  175.53 | X-H torsion
[ 8008 7997 7996 7995 ] final   14.22 input   59.86 | X-H torsion
[ 10167 10162 10161 10158 ] final  105.99 input  -65.29 | X-H torsion
[ 10718 10713 10712 10709 ] final   94.02 input   66.30 | X-H torsion
[ 10763 10752 10751 10750 ] final   87.90 input  -60.55 | X-H torsion
[ 11005 11000 10999 10996 ] final   32.83 input  -57.11 | X-H torsion

> <Gold.Protein.ActiveResidues>
 VAL166  LYS551  ARG553  GLY616  TRP617  ASP618  TYR619  PRO620  LYS621  CYS622 
 ASP623  PHE694  ASN695  SER759  ASP760  ASP761  ALA762  ILE779  LEU786  VAL792 
 PHE793  MET794  SER795  GLU796  ALA797  LYS798  CYS799  TRP800  GLU811  SER814 

> <Gold.Protein.RotatedAtoms>
  150.6866  134.3013  159.4707 H   0  0  0  0  0  0  0  0  0  0  0  0  # atno 6907 bound_to 6896
  152.0909  134.9405  160.0581 H   0  0  0  0  0  0  0  0  0  0  0  0  # atno 6908 bound_to 6896
  152.0722  133.4077  159.4501 H   0  0  0  0  0  0  0  0  0  0  0  0  # atno 6909 bound_to 6896
  144.7894  139.7363  143.6227 H   0  0  0  0  0  0  0  0  0  0  0  0  # atno 7974 bound_to 7965
  154.8454  140.2921  155.5632 H   0  0  0  0  0  0  0  0  0  0  0  0  # atno 8008 bound_to 7997
  156.3014  140.2506  156.3336 H   0  0  0  0  0  0  0  0  0  0  0  0  # atno 8009 bound_to 7997
  154.9079  140.0389  157.1919 H   0  0  0  0  0  0  0  0  0  0  0  0  # atno 8010 bound_to 7997
  139.7046  144.7088  151.1128 H   0  0  0  0  0  0  0  0  0  0  0  0  # atno 10167 bound_to 10162
  157.6951  131.0498  150.4123 H   0  0  0  0  0  0  0  0  0  0  0  0  # atno 10718 bound_to 10713
  153.1714  135.4527  154.9907 H   0  0  0  0  0  0  0  0  0  0  0  0  # atno 10763 bound_to 10752
  154.7968  135.3241  154.7649 H   0  0  0  0  0  0  0  0  0  0  0  0  # atno 10764 bound_to 10752
  153.8125  135.6953  153.4893 H   0  0  0  0  0  0  0  0  0  0  0  0  # atno 10765 bound_to 10752
  140.2694  134.3100  155.7832 H   0  0  0  0  0  0  0  0  0  0  0  0  # atno 11005 bound_to 11000
  146.2139  139.5515  142.9662 LP  0  0  0  0  0  0  0  0  0  0  0  0  # atno 17320 bound_to 7965
  145.5835  141.0379  143.2109 LP  0  0  0  0  0  0  0  0  0  0  0  0  # atno 17321 bound_to 7965
  140.7718  143.5376  150.9350 LP  0  0  0  0  0  0  0  0  0  0  0  0  # atno 17342 bound_to 10162
  139.9059  143.6779  152.3123 LP  0  0  0  0  0  0  0  0  0  0  0  0  # atno 17343 bound_to 10162
  156.4506  130.4011  149.6638 LP  0  0  0  0  0  0  0  0  0  0  0  0  # atno 17370 bound_to 10713
  156.3789  130.7569  151.2560 LP  0  0  0  0  0  0  0  0  0  0  0  0  # atno 17371 bound_to 10713
  141.2179  133.7457  156.9311 LP  0  0  0  0  0  0  0  0  0  0  0  0  # atno 17394 bound_to 11000
  140.1388  134.9307  157.2438 LP  0  0  0  0  0  0  0  0  0  0  0  0  # atno 17395 bound_to 11000

$$$$
