AV-unprocessed.smi:231|AV-procd|sdf|1766|dock8
  -GOLD-   2262020303D 1   1.00000     0.00000
 Structure written by MMmdl.
 50 53  0  0  0  0  0  0  0  0  1 V2000
  150.1260  132.6613  156.9092 C   0  0  0  0  0  0  0  0  0  0  0  0
  151.2982  132.1887  156.0401 C   0  0  0  0  0  0  0  0  0  0  0  0
  151.1483  130.8161  155.5620 N   0  0  0  0  0  0  0  0  0  0  0  0
  150.1359  130.5867  154.6924 C   0  0  0  0  0  0  0  0  0  0  0  0
  149.9204  129.3051  154.3041 N   0  0  0  0  0  0  0  0  0  0  0  0
  148.9432  129.0242  153.4373 C   0  0  0  0  0  0  0  0  0  0  0  0
  148.0778  129.8576  152.8566 N   0  0  0  0  0  0  0  0  0  0  0  0
  148.2754  131.1436  153.2665 C   0  0  0  0  0  0  0  0  0  0  0  0
  149.2723  131.5932  154.1774 C   0  0  0  0  0  0  0  0  0  0  0  0
  149.1687  132.9678  154.3486 N   0  0  0  0  0  0  0  0  0  0  0  0
  148.1825  133.3142  153.5677 C   0  0  0  0  0  0  0  0  0  0  0  0
  147.5729  132.2774  152.8981 N   0  0  0  0  0  0  0  0  0  0  0  0
  146.5049  132.3746  151.9473 C   0  0  0  0  0  0  0  0  0  0  0  0
  146.5126  133.4311  150.8368 C   0  0  0  0  0  0  0  0  0  0  0  0
  144.9692  133.4967  150.9111 C   0  0  0  0  0  0  0  0  0  0  0  0
  144.3287  134.8905  150.7596 C   0  0  0  0  0  0  0  0  0  0  0  0
  144.3180  135.3418  149.4200 O   0  0  0  0  0  0  0  0  0  0  0  0
  144.2511  132.5567  149.9235 C   0  0  0  0  0  0  0  0  0  0  0  0
  142.8815  132.4149  150.2424 O   0  0  0  0  0  0  0  0  0  0  0  0
  145.1410  132.9456  152.3460 C   0  0  0  0  0  0  0  0  0  0  0  0
  152.1592  129.7829  155.8409 C   0  0  1  0  0  0  0  0  0  0  0  0
  152.8960  129.3002  154.5742 C   0  0  0  0  0  0  0  0  0  0  0  0
  154.2979  129.9226  154.6452 C   0  0  0  0  0  0  0  0  0  0  0  0
  154.4497  130.3060  156.0344 N   0  0  0  0  0  0  0  0  0  0  0  0
  153.3093  130.2656  156.7225 C   0  0  0  0  0  0  0  0  0  0  0  0
  153.1854  130.5517  157.9111 O   0  0  0  0  0  0  0  0  0  0  0  0
  150.3008  133.6749  157.2696 H   0  0  0  0  0  0  0  0  0  0  0  0
  149.9912  132.0210  157.7806 H   0  0  0  0  0  0  0  0  0  0  0  0
  149.1922  132.6721  156.3478 H   0  0  0  0  0  0  0  0  0  0  0  0
  151.3991  132.8459  155.1757 H   0  0  0  0  0  0  0  0  0  0  0  0
  152.2282  132.2901  156.6019 H   0  0  0  0  0  0  0  0  0  0  0  0
  148.8407  127.9829  153.1700 H   0  0  0  0  0  0  0  0  0  0  0  0
  147.8711  134.3431  153.4621 H   0  0  0  0  0  0  0  0  0  0  0  0
  146.3923  131.3743  151.5258 H   0  0  0  0  0  0  0  0  0  0  0  0
  147.0076  134.3532  151.1454 H   0  0  0  0  0  0  0  0  0  0  0  0
  146.9107  133.0789  149.8848 H   0  0  0  0  0  0  0  0  0  0  0  0
  143.2987  134.8846  151.1177 H   0  0  0  0  0  0  0  0  0  0  0  0
  144.8630  135.6345  151.3512 H   0  0  0  0  0  0  0  0  0  0  0  0
  145.1602  135.1553  149.0341 H   0  0  0  0  0  0  0  0  0  0  0  0
  144.3362  132.9239  148.9003 H   0  0  0  0  0  0  0  0  0  0  0  0
  144.6965  131.5618  149.9263 H   0  0  0  0  0  0  0  0  0  0  0  0
  142.4106  133.1484  149.8772 H   0  0  0  0  0  0  0  0  0  0  0  0
  144.4102  132.1931  152.6431 H   0  0  0  0  0  0  0  0  0  0  0  0
  145.2255  133.7232  153.1071 H   0  0  0  0  0  0  0  0  0  0  0  0
  151.6726  128.9363  156.3274 H   0  0  0  0  0  0  0  0  0  0  0  0
  152.9895  128.2139  154.6146 H   0  0  0  0  0  0  0  0  0  0  0  0
  152.3832  129.5280  153.6402 H   0  0  0  0  0  0  0  0  0  0  0  0
  155.0764  129.2253  154.3348 H   0  0  0  0  0  0  0  0  0  0  0  0
  154.3623  130.8151  154.0210 H   0  0  0  0  0  0  0  0  0  0  0  0
  155.3359  130.5908  156.4260 H   0  0  0  0  0  0  0  0  0  0  0  0
  1  2  1  0  0  0  0
  1 27  1  0  0  0  0
  1 28  1  0  0  0  0
  1 29  1  0  0  0  0
  2  3  1  0  0  0  0
  2 30  1  0  0  0  0
  2 31  1  0  0  0  0
  3  4  1  0  0  0  0
  3 21  1  0  0  0  0
  4  9  1  0  0  0  0
  4  5  2  0  0  0  0
  5  6  1  0  0  0  0
  6  7  2  0  0  0  0
  6 32  1  0  0  0  0
  7  8  1  0  0  0  0
  8 12  1  0  0  0  0
  8  9  2  0  0  0  0
  9 10  1  0  0  0  0
 10 11  2  0  0  0  0
 11 12  1  0  0  0  0
 11 33  1  0  0  0  0
 12 13  1  0  0  0  0
 13 20  1  0  0  0  0
 13 14  1  0  0  0  0
 13 34  1  0  0  0  0
 14 15  1  0  0  0  0
 14 35  1  0  0  0  0
 14 36  1  0  0  0  0
 15 16  1  0  0  0  0
 15 18  1  0  0  0  0
 15 20  1  0  0  0  0
 16 17  1  0  0  0  0
 16 37  1  0  0  0  0
 16 38  1  0  0  0  0
 17 39  1  0  0  0  0
 18 19  1  0  0  0  0
 18 40  1  0  0  0  0
 18 41  1  0  0  0  0
 19 42  1  0  0  0  0
 20 43  1  0  0  0  0
 20 44  1  0  0  0  0
 21 25  1  0  0  0  0
 21 22  1  0  0  0  0
 21 45  1  0  0  0  0
 22 23  1  0  0  0  0
 22 46  1  0  0  0  0
 22 47  1  0  0  0  0
 23 24  1  0  0  0  0
 23 48  1  0  0  0  0
 23 49  1  0  0  0  0
 24 25  1  0  0  0  0
 24 50  1  0  0  0  0
 25 26  2  0  0  0  0
M  END
> <s_m_source_file>
AV-unprocessed.smi

> <i_m_source_file_index>
231

> <i_lp_mmshare_version>
43012

> <i_f3d_flags>
0

> <s_epik_input>
Tz1DMVtOSF1bQ0gyXVtDSDJdW0NASF0xTihbQ0gyXVtDSDNdKWMobltjSF1uMiljKGMyMyluW2NIXW4zW0NIXShbQ0gyXTQpW0NIMl1DNChbQ0gyXVtPSF0pW0NIMl1bT0hd

> <s_epik_cmdline>
J2VwaWtfcHl0aG9uJywgJy1waCcsICc3LjAnLCAnLXRuJywgJzgnLCAnLW1hJywgJzIwMCcsICctbWV0YWxfYmluZGluZycsICctaW1hZScsICc8aW5maWxlLm1hZT4nLCAnLW9tYWUnLCAnPG91dGZpbGUubWFlPic=

> <r_lp_tautomer_probability>
1

> <r_epik_Ionization_Penalty>
0.000842899

> <r_epik_Ionization_Penalty_Charging>
0

> <r_epik_Ionization_Penalty_Neutral>
0.000842899

> <r_epik_State_Penalty>
0.000441286

> <r_epik_Charging_Adjusted_Penalty>
0.000441286

> <i_epik_Tot_Q>
0

> <i_epik_Tot_abs_Q>
0

> <r_epik_Metal_State_Penalty>
-0

> <b_epik_Metal_Only>
0

> <s_lp_Force_Field>
OPLS_2005

> <r_lp_Energy>
52.3391

> <b_lp_Chiralities_Consistent>
1

> <s_lp_Variant>
AV-unprocessed.smi:231-2

> <Gold.Version>
5.8.1

> <Gold.Id.Protein>
6NUR|6NUR_protein|mol2

> <Gold.PLP.Fitness>
54.7112

> <Gold.PLP.PLP>
-45.8130

> <Gold.PLP.part.hbond>
-2.7053

> <Gold.PLP.part.metal>
0.0000

> <Gold.PLP.part.buried>
-7.1558

> <Gold.PLP.part.nonpolar>
-37.4083

> <Gold.PLP.part.repulsive>
1.0713

> <Gold.PLP.ligand.clash>
0.0000

> <Gold.PLP.ligand.torsion>
0.4254

> <Gold.PLP.Chemscore.Hbond>
2.0000

> <Gold.PLP.Chemscore.CHOScore>
1.0000

> <Gold.PLP.Chemscore.Metal>
0.0000

> <Gold.Chemscore.Hbonds>
donor molecule, donor type, donor heavy atom, donor atom, acceptor molecule, acceptor atom, score
      L1  H    17    39       P1  7921  0.99
      L1  H    19    42       P1 10186  1.00
      L1  C    11    33       P1  7948  0.60

> <Gold.PLP.Chemscore.Internal.Correction>
0.7489

> <Gold.Rescore>
     Score         DG    S(hbond)    S(metal)    S(lipo)     H(rot)  DE(clash)    DE(int)     intcor
      9.13     -11.45       1.96        0.00      74.47       3.63       0.10       2.22       ----

> <Gold.Chemscore.Fitness>
9.1326

> <Gold.Chemscore.DG>
-11.4488

> <Gold.Chemscore.ZeroCoef>
-5.4800

> <Gold.Chemscore.Hbond>
1.9579

> <Gold.Chemscore.Metal>
0.0000

> <Gold.Chemscore.Lipo>
74.4680

> <Gold.Chemscore.Internal_Hbond>
0.0000

> <Gold.Chemscore.DEClash>
0.0990

> <Gold.Chemscore.DEInternal>
2.2172

> <Gold.Chemscore.Rot>
3.6264

> <Gold.Chemscore.Internal.Correction>
   9.000000E+99

> <Gold.Chemscore.Hbonds>
donor molecule, donor type, donor heavy atom, donor atom, acceptor molecule, acceptor atom, score
      L1  H    17    39       P1  7921  0.94
      L1  H    19    42       P1 10186  0.99

> <Gold.Chemscore.Hbond.Weighted>
-6.5395

> <Gold.Chemscore.Metal.Weighted>
-0.0000

> <Gold.Chemscore.Lipo.Weighted>
-8.7128

> <Gold.Chemscore.Internal_Hbond.Weighted>
0.0000

> <Gold.Chemscore.DEClash.Weighted>
0.0990

> <Gold.Chemscore.DEInternal.Weighted>
2.2172

> <Gold.Chemscore.Rot.Weighted>
9.2835

> <Gold.Chemscore.Internal.Correction.Weighted>
   9.000000E+99

> <Gold.Protein.RotatedTorsions>
[ 6907 6896 6895 6894 ] final   58.50 input  -60.11 | X-H torsion
[ 7974 7965 7964 7962 ] final  -16.57 input  175.53 | X-H torsion
[ 8008 7997 7996 7995 ] final  -32.72 input   59.86 | X-H torsion
[ 10167 10162 10161 10158 ] final -106.44 input  -65.29 | X-H torsion
[ 10718 10713 10712 10709 ] final   51.33 input   66.30 | X-H torsion
[ 10763 10752 10751 10750 ] final  -90.15 input  -60.55 | X-H torsion
[ 11005 11000 10999 10996 ] final  158.29 input  -57.11 | X-H torsion

> <Gold.Protein.ActiveResidues>
 VAL166  LYS551  ARG553  GLY616  TRP617  ASP618  TYR619  PRO620  LYS621  CYS622 
 ASP623  PHE694  ASN695  SER759  ASP760  ASP761  ALA762  ILE779  LEU786  VAL792 
 PHE793  MET794  SER795  GLU796  ALA797  LYS798  CYS799  TRP800  GLU811  SER814 

> <Gold.Protein.RotatedAtoms>
  152.3830  134.6561  160.0135 H   0  0  0  0  0  0  0  0  0  0  0  0  # atno 6907 bound_to 6896
  151.6819  133.3306  159.3229 H   0  0  0  0  0  0  0  0  0  0  0  0  # atno 6908 bound_to 6896
  150.7762  134.6710  159.6436 H   0  0  0  0  0  0  0  0  0  0  0  0  # atno 6909 bound_to 6896
  146.1982  140.3655  142.8433 H   0  0  0  0  0  0  0  0  0  0  0  0  # atno 7974 bound_to 7965
  154.4171  140.1730  156.1773 H   0  0  0  0  0  0  0  0  0  0  0  0  # atno 8008 bound_to 7997
  155.9711  140.3385  155.6552 H   0  0  0  0  0  0  0  0  0  0  0  0  # atno 8009 bound_to 7997
  155.6624  140.0702  157.2540 H   0  0  0  0  0  0  0  0  0  0  0  0  # atno 8010 bound_to 7997
  140.1877  143.3916  152.1231 H   0  0  0  0  0  0  0  0  0  0  0  0  # atno 10167 bound_to 10162
  157.4970  130.8413  149.8270 H   0  0  0  0  0  0  0  0  0  0  0  0  # atno 10718 bound_to 10713
  154.6627  135.5315  153.8039 H   0  0  0  0  0  0  0  0  0  0  0  0  # atno 10763 bound_to 10752
  153.0452  135.6510  154.0846 H   0  0  0  0  0  0  0  0  0  0  0  0  # atno 10764 bound_to 10752
  154.0753  135.2951  155.3280 H   0  0  0  0  0  0  0  0  0  0  0  0  # atno 10765 bound_to 10752
  140.1851  134.8448  157.2848 H   0  0  0  0  0  0  0  0  0  0  0  0  # atno 11005 bound_to 11000
  144.8625  140.7159  143.6098 LP  0  0  0  0  0  0  0  0  0  0  0  0  # atno 17320 bound_to 7965
  145.3574  139.1690  143.4401 LP  0  0  0  0  0  0  0  0  0  0  0  0  # atno 17321 bound_to 7965
  139.5269  144.7113  151.5197 LP  0  0  0  0  0  0  0  0  0  0  0  0  # atno 17342 bound_to 10162
  140.6477  143.8761  150.6754 LP  0  0  0  0  0  0  0  0  0  0  0  0  # atno 17343 bound_to 10162
  156.0206  130.3797  150.1973 LP  0  0  0  0  0  0  0  0  0  0  0  0  # atno 17370 bound_to 10713
  157.0162  130.9966  151.3352 LP  0  0  0  0  0  0  0  0  0  0  0  0  # atno 17371 bound_to 10713
  140.2223  134.4009  155.7560 LP  0  0  0  0  0  0  0  0  0  0  0  0  # atno 17394 bound_to 11000
  141.2224  133.7172  156.8509 LP  0  0  0  0  0  0  0  0  0  0  0  0  # atno 17395 bound_to 11000

$$$$
