AV-unprocessed.smi:3156|AV-procd|sdf|12035|dock8
  -GOLD-   2272017453D 1   1.00000     0.00000
 Structure written by MMmdl.
 41 42  0  0  0  0  0  0  0  0  2 V2000
  145.5527  136.4688  150.9244 C   0  0  0  0  0  0  0  0  0  0  0  0
  145.8085  135.7843  152.2794 C   0  0  2  0  0  0  0  0  0  0  0  0
  146.6823  136.6561  153.0967 N   0  3  0  0  0  0  0  0  0  0  0  0
  146.2140  138.0504  153.2369 C   0  0  0  0  0  0  0  0  0  0  0  0
  147.3936  139.0425  153.2740 C   0  0  1  0  0  0  0  0  0  0  0  0
  146.9597  140.4565  153.7099 C   0  0  0  0  0  0  0  0  0  0  0  0
  148.1741  141.3859  153.8164 C   0  0  0  0  0  0  0  0  0  0  0  0
  149.2313  140.7496  154.7245 C   0  0  0  0  0  0  0  0  0  0  0  0
  149.5536  139.3240  154.2501 C   0  0  0  0  0  0  0  0  0  0  0  0
  148.3599  138.5476  154.1994 O   0  0  0  0  0  0  0  0  0  0  0  0
  146.4354  134.3708  152.1441 C   0  0  1  0  0  0  0  0  0  0  0  0
  146.8105  133.7543  153.5057 C   0  0  0  0  0  0  0  0  0  0  0  0
  145.5769  133.4560  151.4019 N   0  0  0  0  0  0  0  0  0  0  0  0
  145.8598  132.1737  150.9783 C   0  0  0  0  0  0  0  0  0  0  0  0
  144.7552  131.7056  150.3265 C   0  0  0  0  0  0  0  0  0  0  0  0
  143.8328  132.7856  150.4051 C   0  0  0  0  0  0  0  0  0  0  0  0
  144.3263  133.8309  151.0491 N   0  0  0  0  0  0  0  0  0  0  0  0
  144.8353  135.9154  150.3180 H   0  0  0  0  0  0  0  0  0  0  0  0
  146.4734  136.5634  150.3476 H   0  0  0  0  0  0  0  0  0  0  0  0
  145.1445  137.4703  151.0648 H   0  0  0  0  0  0  0  0  0  0  0  0
  144.8404  135.6837  152.7739 H   0  0  0  0  0  0  0  0  0  0  0  0
  146.7605  136.2510  154.0187 H   0  0  0  0  0  0  0  0  0  0  0  0
  145.5381  138.2799  152.4121 H   0  0  0  0  0  0  0  0  0  0  0  0
  145.6240  138.1322  154.1511 H   0  0  0  0  0  0  0  0  0  0  0  0
  147.8608  139.0977  152.2884 H   0  0  0  0  0  0  0  0  0  0  0  0
  146.2393  140.8665  153.0012 H   0  0  0  0  0  0  0  0  0  0  0  0
  146.4556  140.4071  154.6761 H   0  0  0  0  0  0  0  0  0  0  0  0
  148.5954  141.5572  152.8250 H   0  0  0  0  0  0  0  0  0  0  0  0
  147.8758  142.3606  154.2037 H   0  0  0  0  0  0  0  0  0  0  0  0
  150.1357  141.3585  154.7361 H   0  0  0  0  0  0  0  0  0  0  0  0
  148.8621  140.7169  155.7503 H   0  0  0  0  0  0  0  0  0  0  0  0
  150.0334  139.3385  153.2703 H   0  0  0  0  0  0  0  0  0  0  0  0
  150.2531  138.8497  154.9387 H   0  0  0  0  0  0  0  0  0  0  0  0
  147.3555  134.4682  151.5656 H   0  0  0  0  0  0  0  0  0  0  0  0
  147.5621  134.3512  154.0224 H   0  0  0  0  0  0  0  0  0  0  0  0
  147.2251  132.7534  153.3807 H   0  0  0  0  0  0  0  0  0  0  0  0
  145.9434  133.6738  154.1620 H   0  0  0  0  0  0  0  0  0  0  0  0
  146.8136  131.7055  151.1728 H   0  0  0  0  0  0  0  0  0  0  0  0
  144.6250  130.7379  149.8653 H   0  0  0  0  0  0  0  0  0  0  0  0
  142.8264  132.8405  150.0168 H   0  0  0  0  0  0  0  0  0  0  0  0
  147.5998  136.6705  152.6748 H   0  0  0  0  0  0  0  0  0  0  0  0
  1  2  1  0  0  0  0
  1 18  1  0  0  0  0
  1 19  1  0  0  0  0
  1 20  1  0  0  0  0
  2  3  1  0  0  0  0
  2 11  1  0  0  0  0
  2 21  1  0  0  0  0
  3  4  1  0  0  0  0
  3 22  1  0  0  0  0
  3 41  1  0  0  0  0
  4  5  1  0  0  0  0
  4 23  1  0  0  0  0
  4 24  1  0  0  0  0
  5 10  1  0  0  0  0
  5  6  1  0  0  0  0
  5 25  1  0  0  0  0
  6  7  1  0  0  0  0
  6 26  1  0  0  0  0
  6 27  1  0  0  0  0
  7  8  1  0  0  0  0
  7 28  1  0  0  0  0
  7 29  1  0  0  0  0
  8  9  1  0  0  0  0
  8 30  1  0  0  0  0
  8 31  1  0  0  0  0
  9 10  1  0  0  0  0
  9 32  1  0  0  0  0
  9 33  1  0  0  0  0
 11 12  1  0  0  0  0
 11 13  1  0  0  0  0
 11 34  1  0  0  0  0
 12 35  1  0  0  0  0
 12 36  1  0  0  0  0
 12 37  1  0  0  0  0
 13 17  1  0  0  0  0
 13 14  1  0  0  0  0
 14 15  2  0  0  0  0
 14 38  1  0  0  0  0
 15 16  1  0  0  0  0
 15 39  1  0  0  0  0
 16 17  2  0  0  0  0
 16 40  1  0  0  0  0
M  CHG  1   3   1
M  END
> <s_m_source_file>
AV-unprocessed.smi

> <i_m_source_file_index>
3156

> <i_lp_mmshare_version>
43012

> <i_f3d_flags>
0

> <s_epik_input>
bjFbY0hdW2NIXVtjSF1uMVtDQEBIXShbQ0gzXSlbQ0BIXShbQ0gzXSlbTkhdW0NIMl1bQ0BASF0yW0NIMl1bQ0gyXVtDSDJdW0NIMl1PMg==

> <s_epik_cmdline>
J2VwaWtfcHl0aG9uJywgJy1waCcsICc3LjAnLCAnLXRuJywgJzgnLCAnLW1hJywgJzIwMCcsICctbWV0YWxfYmluZGluZycsICctaW1hZScsICc8aW5maWxlLm1hZT4nLCAnLW9tYWUnLCAnPG91dGZpbGUubWFlPic=

> <r_lp_tautomer_probability>
1

> <r_epik_Ionization_Penalty>
0.00658015

> <r_epik_Ionization_Penalty_Charging>
0.00656881

> <r_epik_Ionization_Penalty_Neutral>
1.13431e-05

> <r_epik_State_Penalty>
0.0048654

> <r_epik_Charging_Adjusted_Penalty>
0.0114342

> <i_epik_Tot_Q>
1

> <i_epik_Tot_abs_Q>
1

> <r_epik_Metal_State_Penalty>
-0

> <b_epik_Metal_Only>
0

> <s_lp_Force_Field>
OPLS_2005

> <r_lp_Energy>
21.7915

> <b_lp_Chiralities_Consistent>
1

> <s_lp_Variant>
AV-unprocessed.smi:3156-7

> <Gold.Version>
5.8.1

> <Gold.Id.Protein>
6NUR|6NUR_protein|mol2

> <Gold.PLP.Fitness>
41.5032

> <Gold.PLP.PLP>
-30.2459

> <Gold.PLP.part.hbond>
-1.0000

> <Gold.PLP.part.metal>
0.0000

> <Gold.PLP.part.buried>
0.6373

> <Gold.PLP.part.nonpolar>
-29.7748

> <Gold.PLP.part.repulsive>
0.3372

> <Gold.PLP.ligand.clash>
0.0000

> <Gold.PLP.ligand.torsion>
0.4038

> <Gold.PLP.Chemscore.Hbond>
2.0000

> <Gold.PLP.Chemscore.CHOScore>
2.0000

> <Gold.PLP.Chemscore.Metal>
0.0000

> <Gold.Chemscore.Hbonds>
donor molecule, donor type, donor heavy atom, donor atom, acceptor molecule, acceptor atom, score
      L1  H     3    41       P1  7948  2.00
      L1  C    14    38       P1 10747  1.00
      L1  C    16    40       P1 10186  1.00

> <Gold.PLP.Chemscore.Internal.Correction>
0.0649

> <Gold.Rescore>
     Score         DG    S(hbond)    S(metal)    S(lipo)     H(rot)  DE(clash)    DE(int)     intcor
     13.81     -14.91       0.98        0.00      87.59       1.59       0.42       0.68       ----

> <Gold.Chemscore.Fitness>
13.8112

> <Gold.Chemscore.DG>
-14.9084

> <Gold.Chemscore.ZeroCoef>
-5.4800

> <Gold.Chemscore.Hbond>
0.9763

> <Gold.Chemscore.Metal>
0.0000

> <Gold.Chemscore.Lipo>
87.5875

> <Gold.Chemscore.Internal_Hbond>
0.0000

> <Gold.Chemscore.DEClash>
0.4194

> <Gold.Chemscore.DEInternal>
0.6778

> <Gold.Chemscore.Rot>
1.5938

> <Gold.Chemscore.Internal.Correction>
   9.000000E+99

> <Gold.Chemscore.Hbonds>
donor molecule, donor type, donor heavy atom, donor atom, acceptor molecule, acceptor atom, score
      L1  H     3    41       P1  7948  0.99

> <Gold.Chemscore.Hbond.Weighted>
-3.2609

> <Gold.Chemscore.Metal.Weighted>
-0.0000

> <Gold.Chemscore.Lipo.Weighted>
-10.2477

> <Gold.Chemscore.Internal_Hbond.Weighted>
0.0000

> <Gold.Chemscore.DEClash.Weighted>
0.4194

> <Gold.Chemscore.DEInternal.Weighted>
0.6778

> <Gold.Chemscore.Rot.Weighted>
4.0802

> <Gold.Chemscore.Internal.Correction.Weighted>
   9.000000E+99

> <Gold.Protein.RotatedTorsions>
[ 6907 6896 6895 6894 ] final   87.67 input  -60.11 | X-H torsion
[ 7974 7965 7964 7962 ] final   69.77 input  175.53 | X-H torsion
[ 8008 7997 7996 7995 ] final   57.49 input   59.86 | X-H torsion
[ 10167 10162 10161 10158 ] final   10.88 input  -65.29 | X-H torsion
[ 10718 10713 10712 10709 ] final  171.61 input   66.30 | X-H torsion
[ 10763 10752 10751 10750 ] final  -24.61 input  -60.55 | X-H torsion
[ 11005 11000 10999 10996 ] final  -24.74 input  -57.11 | X-H torsion

> <Gold.Protein.ActiveResidues>
 VAL166  LYS551  ARG553  GLY616  TRP617  ASP618  TYR619  PRO620  LYS621  CYS622 
 ASP623  PHE694  ASN695  SER759  ASP760  ASP761  ALA762  ILE779  LEU786  VAL792 
 PHE793  MET794  SER795  GLU796  ALA797  LYS798  CYS799  TRP800  GLU811  SER814 

> <Gold.Protein.RotatedAtoms>
  152.5414  134.2240  159.8798 H   0  0  0  0  0  0  0  0  0  0  0  0  # atno 6907 bound_to 6896
  151.2216  133.4493  159.2608 H   0  0  0  0  0  0  0  0  0  0  0  0  # atno 6908 bound_to 6896
  151.0800  134.9865  159.8407 H   0  0  0  0  0  0  0  0  0  0  0  0  # atno 6909 bound_to 6896
  145.7864  139.2912  143.1236 H   0  0  0  0  0  0  0  0  0  0  0  0  # atno 7974 bound_to 7965
  155.5346  140.3483  155.4433 H   0  0  0  0  0  0  0  0  0  0  0  0  # atno 8008 bound_to 7997
  156.0694  140.1359  156.9873 H   0  0  0  0  0  0  0  0  0  0  0  0  # atno 8009 bound_to 7997
  154.4520  140.0969  156.6621 H   0  0  0  0  0  0  0  0  0  0  0  0  # atno 8010 bound_to 7997
  140.6167  143.8293  150.7126 H   0  0  0  0  0  0  0  0  0  0  0  0  # atno 10167 bound_to 10162
  156.9910  131.0148  151.2856 H   0  0  0  0  0  0  0  0  0  0  0  0  # atno 10718 bound_to 10713
  153.6865  135.6964  153.5102 H   0  0  0  0  0  0  0  0  0  0  0  0  # atno 10763 bound_to 10752
  153.2445  135.4295  155.0732 H   0  0  0  0  0  0  0  0  0  0  0  0  # atno 10764 bound_to 10752
  154.8385  135.3516  154.6407 H   0  0  0  0  0  0  0  0  0  0  0  0  # atno 10765 bound_to 10752
  140.8873  133.7612  156.0377 H   0  0  0  0  0  0  0  0  0  0  0  0  # atno 11005 bound_to 11000
  146.0022  140.8510  143.0013 LP  0  0  0  0  0  0  0  0  0  0  0  0  # atno 17320 bound_to 7965
  144.6788  140.2369  143.7348 LP  0  0  0  0  0  0  0  0  0  0  0  0  # atno 17321 bound_to 7965
  140.1874  143.4065  152.1889 LP  0  0  0  0  0  0  0  0  0  0  0  0  # atno 17342 bound_to 10162
  139.5404  144.7251  151.4752 LP  0  0  0  0  0  0  0  0  0  0  0  0  # atno 17343 bound_to 10162
  157.5458  130.8150  149.8084 LP  0  0  0  0  0  0  0  0  0  0  0  0  # atno 17370 bound_to 10713
  156.0207  130.3797  150.1971 LP  0  0  0  0  0  0  0  0  0  0  0  0  # atno 17371 bound_to 10713
  140.8389  134.3090  157.5321 LP  0  0  0  0  0  0  0  0  0  0  0  0  # atno 17394 bound_to 11000
  139.8726  134.9405  156.3771 LP  0  0  0  0  0  0  0  0  0  0  0  0  # atno 17395 bound_to 11000

$$$$
