#       Name:                AV-unprocessed.smi:910
#       Creating user name   scv26
#       Creation time:       Fri Mar 27 02:02:00 2020


#       File generated by GOLD software.
#

@<TRIPOS>MOLECULE
AV-unprocessed.smi:910
    53    54     1
SMALL
NO_CHARGES


@<TRIPOS>ATOM
      1 ****        -5.3410   3.4459  -1.9501 C.3            1 S1                 0.0000
      2 ****        -3.9164   2.9449  -2.0451 C.2            1 S1                 0.0000
      3 ****        -3.6251   1.6287  -2.2805 N.pl3          1 S1                 0.0000
      4 ****        -2.2462   1.4896  -2.3177 C.2            1 S1                 0.0000
      5 ****        -1.5653   0.4032  -2.5148 N.2            1 S1                 0.0000
      6 ****        -0.1794   0.4586  -2.5326 C.2            1 S1                 0.0000
      7 ****         0.5497   1.4551  -2.5685 O.2            1 S1                 0.0000
      8 ****         0.3305  -0.7810  -2.4831 N.am           1 S1                 0.0000
      9 ****         1.7507  -1.1149  -2.4422 C.3            1 S1                 0.0000
     10 ****         2.3390  -0.9098  -1.0389 C.3            1 S1                 0.0000
     11 ****         1.6660  -1.7713  -0.1325 O.3            1 S1                 0.0000
     12 ****         2.0244  -1.5930   1.2319 C.3            1 S1                 0.0000
     13 ****         3.3191  -2.3758   1.5357 C.3            1 S1                 0.0000
     14 ****         3.6679  -2.3305   3.0305 C.3            1 S1                 0.0000
     15 ****         2.5018  -2.8473   3.8848 C.3            1 S1                 0.0000
     16 ****         1.2140  -2.0626   3.5927 C.3            1 S1                 0.0000
     17 ****         0.8477  -2.1012   2.0953 C.3            1 S1                 0.0000
     18 ****        -0.4385  -1.3009   1.8298 C.3            1 S1                 0.0000
     19 ****        -1.7238   2.7434  -2.0966 O.3            1 S1                 0.0000
     20 ****        -2.7659   3.6050  -1.9358 C.2            1 S1                 0.0000
     21 ****        -2.4662   5.0654  -1.6833 C.3            1 S1                 0.0000
     22 ****        -5.5252   4.2045  -2.7111 H              1 S1                 0.0000
     23 ****        -5.5209   3.8890  -0.9705 H              1 S1                 0.0000
     24 ****        -6.0525   2.6327  -2.0958 H              1 S1                 0.0000
     25 ****        -4.3288   0.9151  -2.4033 H              1 S1                 0.0000
     26 ****        -0.3173  -1.5548  -2.4483 H              1 S1                 0.0000
     27 ****         1.8688  -2.1553  -2.7456 H              1 S1                 0.0000
     28 ****         2.2957  -0.5152  -3.1729 H              1 S1                 0.0000
     29 ****         3.4058  -1.1332  -1.0515 H              1 S1                 0.0000
     30 ****         2.2291   0.1318  -0.7335 H              1 S1                 0.0000
     31 ****         2.1766  -0.5339   1.4494 H              1 S1                 0.0000
     32 ****         3.1996  -3.4140   1.2228 H              1 S1                 0.0000
     33 ****         4.1532  -1.9749   0.9604 H              1 S1                 0.0000
     34 ****         4.5618  -2.9247   3.2221 H              1 S1                 0.0000
     35 ****         3.9081  -1.3065   3.3192 H              1 S1                 0.0000
     36 ****         2.3392  -3.9068   3.6821 H              1 S1                 0.0000
     37 ****         2.7531  -2.7692   4.9429 H              1 S1                 0.0000
     38 ****         0.3966  -2.4723   4.1870 H              1 S1                 0.0000
     39 ****         1.3398  -1.0280   3.9149 H              1 S1                 0.0000
     40 ****         0.6535  -3.1407   1.8259 H              1 S1                 0.0000
     41 ****        -0.3050  -0.2451   2.0679 H              1 S1                 0.0000
     42 ****        -1.2652  -1.6763   2.4334 H              1 S1                 0.0000
     43 ****        -0.7418  -1.3688   0.7845 H              1 S1                 0.0000
     44 ****        -3.3427   5.5776  -1.2860 H              1 S1                 0.0000
     45 ****        -2.1694   5.5542  -2.6112 H              1 S1                 0.0000
     46 ****        -1.6531   5.1653  -0.9641 H              1 S1                 0.0000
     47 ****        -2.0363  -0.4681  -2.6529 LP             1 S1                 0.0000
     48 ****         0.1458   2.3696  -2.5888 LP             1 S1                 0.0000
     49 ****         1.5438   1.3472  -2.5772 LP             1 S1                 0.0000
     50 ****         1.8726  -2.7157  -0.3882 LP             1 S1                 0.0000
     51 ****         0.6830  -1.6097  -0.2203 LP             1 S1                 0.0000
     52 ****        -1.1683   3.0235  -2.8794 LP             1 S1                 0.0000
     53 ****        -1.1581   2.7358  -1.2720 LP             1 S1                 0.0000
@<TRIPOS>BOND
    1    1   22 1     
    2    1   23 1     
    3    1   24 1     
    4    1    2 1     
    5    2    3 1     
    6    2   20 2     
    7    3   25 1     
    8    3    4 1     
    9    4   19 1     
   10    4    5 2     
   11    5    6 1     
   12    6    8 am    
   13    6    7 2     
   14    8    9 1     
   15    8   26 1     
   16    9   10 1     
   17    9   27 1     
   18    9   28 1     
   19   10   11 1     
   20   10   29 1     
   21   10   30 1     
   22   11   12 1     
   23   12   17 1     
   24   12   13 1     
   25   12   31 1     
   26   13   14 1     
   27   13   32 1     
   28   13   33 1     
   29   14   15 1     
   30   14   34 1     
   31   14   35 1     
   32   15   16 1     
   33   15   36 1     
   34   15   37 1     
   35   16   17 1     
   36   16   38 1     
   37   16   39 1     
   38   17   18 1     
   39   17   40 1     
   40   18   41 1     
   41   18   42 1     
   42   18   43 1     
   43   19   20 1     
   44   20   21 1     
   45   21   44 1     
   46   21   45 1     
   47   21   46 1     
   48    5   47 1     
   49    7   48 1     
   50    7   49 1     
   51   11   50 1     
   52   11   51 1     
   53   19   52 1     
   54   19   53 1     
@<TRIPOS>SUBSTRUCTURE
      1 S1             1
@<TRIPOS>SET
LONE_PAIRS      STATIC     ATOMS    <user>   **** ""
7 47 48 49 50 51 52 53
DONOR_HYDROGENS      STATIC     ATOMS    <user>   **** ""
2 25 26
ATOM$BLUE        STATIC     ATOMS    COLORGROUP SYSTEM
7 47 48 49 50 51 52 53
ATOM$RED        STATIC     ATOMS    COLORGROUP SYSTEM
2 25 26
