#       Name:                AV-unprocessed.smi:3201
#       Creating user name   scv26
#       Creation time:       Fri Mar 27 18:07:14 2020


#       File generated by GOLD software.
#

@<TRIPOS>MOLECULE
AV-unprocessed.smi:3201
    42    44     1
SMALL
NO_CHARGES


@<TRIPOS>ATOM
      1 ****        -2.6522   3.2590   0.4821 C.3            1 S1                 0.0000
      2 ****        -3.0581   1.9372   1.0498 C.2            1 S1                 0.0000
      3 ****        -2.3047   0.8700   1.4600 C.2            1 S1                 0.0000
      4 ****        -0.8095   0.7061   1.4573 C.3            1 S1                 0.0000
      5 ****        -0.3113   0.1422   0.1206 C.3            1 S1                 0.0000
      6 ****         1.1566  -0.0192   0.1260 N.4            1 S1                 1.0000
      7 ****         1.7186  -0.5623  -1.1300 C.3            1 S1                 0.0000
      8 ****         1.4142  -2.0584  -1.3644 C.3            1 S1                 0.0000
      9 ****         2.8109  -2.6478  -1.6431 C.3            1 S1                 0.0000
     10 ****         3.5819  -2.7503  -0.3156 C.3            1 S1                 0.0000
     11 ****         3.8926  -1.2772   0.0063 C.3            1 S1                 0.0000
     12 ****         3.2612  -0.5203  -1.1831 C.3            1 S1                 0.0000
     13 ****         3.5292  -1.4898  -2.3302 C.3            1 S1                 0.0000
     14 ****        -3.2729  -0.0778   1.8968 C.2            1 S1                 0.0000
     15 ****        -4.5128   0.3590   1.7694 N.2            1 S1                 0.0000
     16 ****        -4.3831   1.5970   1.2499 N.pl3          1 S1                 0.0000
     17 ****        -5.5719   2.3825   0.9789 C.3            1 S1                 0.0000
     18 ****        -1.5788   3.2981   0.2981 H              1 S1                 0.0000
     19 ****        -2.9055   4.0678   1.1676 H              1 S1                 0.0000
     20 ****        -3.1576   3.4475  -0.4651 H              1 S1                 0.0000
     21 ****        -0.3177   1.6590   1.6561 H              1 S1                 0.0000
     22 ****        -0.5000   0.0415   2.2648 H              1 S1                 0.0000
     23 ****        -0.7835  -0.8219  -0.0725 H              1 S1                 0.0000
     24 ****        -0.5955   0.8093  -0.6944 H              1 S1                 0.0000
     25 ****         1.5670   0.8897   0.2859 H              1 S1                 0.0000
     26 ****         1.3286   0.0248  -1.9635 H              1 S1                 0.0000
     27 ****         0.9361  -2.5415  -0.5111 H              1 S1                 0.0000
     28 ****         0.7575  -2.1825  -2.2263 H              1 S1                 0.0000
     29 ****         2.7891  -3.5801  -2.2082 H              1 S1                 0.0000
     30 ****         2.9997  -3.2361   0.4683 H              1 S1                 0.0000
     31 ****         4.5049  -3.3170  -0.4452 H              1 S1                 0.0000
     32 ****         3.4943  -0.9678   0.9726 H              1 S1                 0.0000
     33 ****         4.9714  -1.1166   0.0321 H              1 S1                 0.0000
     34 ****         3.6663   0.4815  -1.3291 H              1 S1                 0.0000
     35 ****         4.5908  -1.6790  -2.4998 H              1 S1                 0.0000
     36 ****         3.0656  -1.1907  -3.2722 H              1 S1                 0.0000
     37 ****        -3.1106  -1.0671   2.2988 H              1 S1                 0.0000
     38 ****        -5.5792   3.2664   1.6170 H              1 S1                 0.0000
     39 ****        -6.4731   1.7991   1.1732 H              1 S1                 0.0000
     40 ****        -5.5757   2.6953  -0.0653 H              1 S1                 0.0000
     41 ****         1.4190  -0.6291   0.8871 H              1 S1                 0.0000
     42 ****        -5.3581  -0.1205   2.0052 LP             1 S1                 0.0000
@<TRIPOS>BOND
    1    1    2 1     
    2    1   18 1     
    3    1   19 1     
    4    1   20 1     
    5    2   16 1     
    6    2    3 2     
    7    3    4 1     
    8    3   14 1     
    9    4    5 1     
   10    4   21 1     
   11    4   22 1     
   12    5    6 1     
   13    5   23 1     
   14    5   24 1     
   15    6    7 1     
   16    6   25 1     
   17    6   41 1     
   18    7   12 1     
   19    7    8 1     
   20    7   26 1     
   21    8    9 1     
   22    8   27 1     
   23    8   28 1     
   24    9   13 1     
   25    9   10 1     
   26    9   29 1     
   27   10   11 1     
   28   10   30 1     
   29   10   31 1     
   30   11   12 1     
   31   11   32 1     
   32   11   33 1     
   33   12   13 1     
   34   12   34 1     
   35   13   35 1     
   36   13   36 1     
   37   14   15 2     
   38   14   37 1     
   39   15   16 1     
   40   16   17 1     
   41   17   38 1     
   42   17   39 1     
   43   17   40 1     
   44   15   42 1     
@<TRIPOS>SUBSTRUCTURE
      1 S1             1
@<TRIPOS>SET
LONE_PAIRS      STATIC     ATOMS    <user>   **** ""
1 42
DONOR_HYDROGENS      STATIC     ATOMS    <user>   **** ""
2 25 41
ATOM$BLUE        STATIC     ATOMS    COLORGROUP SYSTEM
1 42
ATOM$RED        STATIC     ATOMS    COLORGROUP SYSTEM
2 25 41
