#       Name:                AV-unprocessed.smi:1027
#       Creating user name   scv26
#       Creation time:       Fri Mar 27 02:44:32 2020


#       File generated by GOLD software.
#

@<TRIPOS>MOLECULE
AV-unprocessed.smi:1027
    39    40     1
SMALL
NO_CHARGES


@<TRIPOS>ATOM
      1 ****        -3.4604  -2.9025  -2.9136 C.3            1 S1                 0.0000
      2 ****        -2.8459  -2.1568  -1.7152 C.3            1 S1                 0.0000
      3 ****        -3.3844  -0.7131  -1.6831 C.3            1 S1                 0.0000
      4 ****        -1.2939  -2.2122  -1.7190 C.3            1 S1                 0.0000
      5 ****        -0.7350  -3.6448  -1.6697 C.3            1 S1                 0.0000
      6 ****        -0.7457  -1.4786  -0.5772 N.am           1 S1                 0.0000
      7 ****        -0.0623  -0.3252  -0.6331 C.2            1 S1                 0.0000
      8 ****         0.1741   0.2786  -1.6798 O.2            1 S1                 0.0000
      9 ****         0.3197   0.0701   0.5940 N.am           1 S1                 0.0000
     10 ****         1.0570   1.2283   0.9555 C.2            1 S1                 0.0000
     11 ****         1.4298   2.1759   0.0844 N.2            1 S1                 0.0000
     12 ****         2.1420   3.1948   0.7012 N.2            1 S1                 0.0000
     13 ****         2.2877   2.9892   2.0156 C.2            1 S1                 0.0000
     14 ****         3.0250   3.9443   2.8936 C.3            1 S1                 0.0000
     15 ****         4.5316   4.0474   2.8295 C.3            1 S1                 0.0000
     16 ****         3.8716   3.4621   4.0515 C.3            1 S1                 0.0000
     17 ****         1.5424   1.5122   2.6180 S.3            1 S1                 0.0000
     18 ****        -3.0941  -2.5019  -3.8592 H              1 S1                 0.0000
     19 ****        -4.5471  -2.8135  -2.9159 H              1 S1                 0.0000
     20 ****        -3.2337  -3.9679  -2.8888 H              1 S1                 0.0000
     21 ****        -3.1993  -2.6511  -0.8090 H              1 S1                 0.0000
     22 ****        -3.0217  -0.1378  -2.5357 H              1 S1                 0.0000
     23 ****        -3.0871  -0.1877  -0.7757 H              1 S1                 0.0000
     24 ****        -4.4742  -0.6990  -1.7127 H              1 S1                 0.0000
     25 ****        -0.9416  -1.7606  -2.6483 H              1 S1                 0.0000
     26 ****        -0.9924  -4.2108  -2.5645 H              1 S1                 0.0000
     27 ****        -1.1146  -4.1907  -0.8054 H              1 S1                 0.0000
     28 ****         0.3538  -3.6374  -1.6049 H              1 S1                 0.0000
     29 ****        -0.8918  -1.8932   0.3314 H              1 S1                 0.0000
     30 ****         0.0636  -0.5358   1.3596 H              1 S1                 0.0000
     31 ****         2.4564   4.8625   3.0265 H              1 S1                 0.0000
     32 ****         5.0576   3.3631   2.1666 H              1 S1                 0.0000
     33 ****         4.9700   5.0392   2.9194 H              1 S1                 0.0000
     34 ****         3.8695   4.0635   4.9581 H              1 S1                 0.0000
     35 ****         3.9733   2.3896   4.2050 H              1 S1                 0.0000
     36 ****        -0.1492  -0.0878  -2.5523 LP             1 S1                 0.0000
     37 ****         0.6894   1.1353  -1.6574 LP             1 S1                 0.0000
     38 ****         1.2199   2.1517  -0.8930 LP             1 S1                 0.0000
     39 ****         2.5050   3.9918   0.2186 LP             1 S1                 0.0000
@<TRIPOS>BOND
    1    1    2 1     
    2    1   18 1     
    3    1   19 1     
    4    1   20 1     
    5    2    3 1     
    6    2    4 1     
    7    2   21 1     
    8    3   22 1     
    9    3   23 1     
   10    3   24 1     
   11    4    5 1     
   12    4    6 1     
   13    4   25 1     
   14    5   26 1     
   15    5   27 1     
   16    5   28 1     
   17    6    7 am    
   18    6   29 1     
   19    7    8 2     
   20    7    9 am    
   21    9   10 1     
   22    9   30 1     
   23   10   17 1     
   24   10   11 2     
   25   11   12 1     
   26   12   13 2     
   27   13   14 1     
   28   13   17 1     
   29   14   16 1     
   30   14   15 1     
   31   14   31 1     
   32   15   16 1     
   33   15   32 1     
   34   15   33 1     
   35   16   34 1     
   36   16   35 1     
   37    8   36 1     
   38    8   37 1     
   39   11   38 1     
   40   12   39 1     
@<TRIPOS>SUBSTRUCTURE
      1 S1             1
@<TRIPOS>SET
LONE_PAIRS      STATIC     ATOMS    <user>   **** ""
4 36 37 38 39
DONOR_HYDROGENS      STATIC     ATOMS    <user>   **** ""
2 29 30
ATOM$BLUE        STATIC     ATOMS    COLORGROUP SYSTEM
4 36 37 38 39
ATOM$RED        STATIC     ATOMS    COLORGROUP SYSTEM
2 29 30
