#       Name:                AV-unprocessed.smi:160
#       Creating user name   scv26
#       Creation time:       Thu Mar 26 19:05:16 2020


#       File generated by GOLD software.
#

@<TRIPOS>MOLECULE
AV-unprocessed.smi:160
    41    42     1
SMALL
NO_CHARGES


@<TRIPOS>ATOM
      1 ****        -3.4555   1.9908  -0.5112 N.am           1 S1                 0.0000
      2 ****        -3.8539   0.8856   0.1276 C.2            1 S1                 0.0000
      3 ****        -5.0060   0.7379   0.5324 O.2            1 S1                 0.0000
      4 ****        -2.8090  -0.1762   0.3319 C.2            1 S1                 0.0000
      5 ****        -3.0948  -1.3285   1.0067 N.2            1 S1                 0.0000
      6 ****        -1.9054  -1.9120   0.9341 C.2            1 S1                 0.0000
      7 ****        -0.9853  -1.2068   0.2679 N.pl3          1 S1                 0.0000
      8 ****         0.4631  -1.5252   0.0284 C.3            1 S1                 0.0000
      9 ****         1.2197  -0.8757   0.9989 O.3            1 S1                 0.0000
     10 ****         1.5409   0.4365   0.5552 C.3            1 S1                 0.0000
     11 ****         2.8000   0.9347   1.2812 C.3            1 S1                 0.0000
     12 ****         2.4597   1.4411   2.5543 O.3            1 S1                 0.0000
     13 ****         1.7397   0.2643  -0.9616 C.3            1 S1                 0.0000
     14 ****         1.2112   1.3840  -1.6441 O.3            1 S1                 0.0000
     15 ****         0.9559  -1.0005  -1.3299 C.3            1 S1                 0.0000
     16 ****         1.7977  -1.9433  -1.9627 O.3            1 S1                 0.0000
     17 ****        -1.5641  -0.0440  -0.1282 N.2            1 S1                 0.0000
     18 ****         0.5168  -2.6096   0.1353 H              1 S1                 0.0000
     19 ****         0.6980   1.1003   0.7554 H              1 S1                 0.0000
     20 ****         2.7978   0.1534  -1.2046 H              1 S1                 0.0000
     21 ****         0.1139  -0.8091  -1.9971 H              1 S1                 0.0000
     22 ****        -4.1104   2.7408  -0.6769 H              1 S1                 0.0000
     23 ****        -2.4979   2.0682  -0.8225 H              1 S1                 0.0000
     24 ****        -1.6988  -2.8746   1.3785 H              1 S1                 0.0000
     25 ****         3.5451   0.1437   1.3725 H              1 S1                 0.0000
     26 ****         3.2585   1.7489   0.7190 H              1 S1                 0.0000
     27 ****         3.2474   1.7500   2.9752 H              1 S1                 0.0000
     28 ****         1.3220   1.2465  -2.5726 H              1 S1                 0.0000
     29 ****         1.2937  -2.7218  -2.1437 H              1 S1                 0.0000
     30 ****        -5.6831   1.4594   0.3878 LP             1 S1                 0.0000
     31 ****        -5.2655  -0.1037   1.0061 LP             1 S1                 0.0000
     32 ****        -3.9461  -1.6395   1.4293 LP             1 S1                 0.0000
     33 ****         2.0632  -1.3878   1.1611 LP             1 S1                 0.0000
     34 ****         0.6947  -0.8205   1.8483 LP             1 S1                 0.0000
     35 ****         2.0448   0.7171   3.1053 LP             1 S1                 0.0000
     36 ****         1.8122   2.1966   2.4546 LP             1 S1                 0.0000
     37 ****         1.6987   2.2111  -1.3645 LP             1 S1                 0.0000
     38 ****         0.2391   1.4819  -1.4307 LP             1 S1                 0.0000
     39 ****         2.5632  -2.1696  -1.3604 LP             1 S1                 0.0000
     40 ****         2.1481  -1.5619  -2.8181 LP             1 S1                 0.0000
     41 ****        -1.1600   0.7172  -0.6354 LP             1 S1                 0.0000
@<TRIPOS>BOND
    1    1    2 am    
    2    1   22 1     
    3    1   23 1     
    4    2    3 2     
    5    2    4 1     
    6    4   17 2     
    7    4    5 1     
    8    5    6 2     
    9    6    7 1     
   10    6   24 1     
   11    7    8 1     
   12    7   17 1     
   13    8   18 1     
   14    8   15 1     
   15    8    9 1     
   16    9   10 1     
   17   10   19 1     
   18   10   11 1     
   19   10   13 1     
   20   11   12 1     
   21   11   25 1     
   22   11   26 1     
   23   12   27 1     
   24   13   20 1     
   25   13   14 1     
   26   13   15 1     
   27   14   28 1     
   28   15   21 1     
   29   15   16 1     
   30   16   29 1     
   31    3   30 1     
   32    3   31 1     
   33    5   32 1     
   34    9   33 1     
   35    9   34 1     
   36   12   35 1     
   37   12   36 1     
   38   14   37 1     
   39   14   38 1     
   40   16   39 1     
   41   16   40 1     
   42   17   41 1     
@<TRIPOS>SUBSTRUCTURE
      1 S1             1
@<TRIPOS>SET
LONE_PAIRS      STATIC     ATOMS    <user>   **** ""
12 30 31 32 33 34 35 36 37 38 39 40 41
DONOR_HYDROGENS      STATIC     ATOMS    <user>   **** ""
5 22 23 27 28 29
ATOM$BLUE        STATIC     ATOMS    COLORGROUP SYSTEM
12 30 31 32 33 34 35 36 37 38 39 40 41
ATOM$RED        STATIC     ATOMS    COLORGROUP SYSTEM
5 22 23 27 28 29
