AV-unprocessed.smi:1834|AV-procd|sdf|7471|dock9
  -GOLD-   22720 9163D 1   1.00000     0.00000
 Structure written by MMmdl.
 46 47  0  0  0  0  0  0  0  0  2 V2000
  148.5647  133.1742  152.8386 C   0  0  0  0  0  0  0  0  0  0  0  0
  147.9254  134.1711  153.8158 C   0  0  0  0  0  0  0  0  0  0  0  0
  147.1360  135.2246  153.1274 N   0  3  1  0  0  0  0  0  0  0  0  0
  146.1562  134.6477  152.1701 C   0  0  0  0  0  0  0  0  0  0  0  0
  145.4249  135.7454  151.3800 C   0  0  0  0  0  0  0  0  0  0  0  0
  144.7611  136.7607  152.3226 C   0  0  0  0  0  0  0  0  0  0  0  0
  145.7757  137.3314  153.3311 C   0  0  2  0  0  0  0  0  0  0  0  0
  146.7394  138.3459  152.6692 C   0  0  0  0  0  0  0  0  0  0  0  0
  148.0810  138.3059  153.2447 N   0  0  0  0  0  0  0  0  0  0  0  0
  148.4780  138.9980  154.3225 C   0  0  0  0  0  0  0  0  0  0  0  0
  147.7327  139.7451  154.9566 O   0  0  0  0  0  0  0  0  0  0  0  0
  149.7740  138.7729  154.5982 N   0  0  0  0  0  0  0  0  0  0  0  0
  150.5467  139.3451  155.5595 C   0  0  0  0  0  0  0  0  0  0  0  0
  150.1632  140.0983  156.6354 C   0  0  0  0  0  0  0  0  0  0  0  0
  151.4070  140.4157  157.2551 C   0  0  0  0  0  0  0  0  0  0  0  0
  151.6413  141.2268  158.4952 C   0  0  0  0  0  0  0  0  0  0  0  0
  152.4473  139.9031  156.6077 N   0  0  0  0  0  0  0  0  0  0  0  0
  151.9198  139.2410  155.5555 N   0  0  0  0  0  0  0  0  0  0  0  0
  152.7887  138.5530  154.6204 C   0  0  0  0  0  0  0  0  0  0  0  0
  146.4792  136.1689  154.0714 C   0  0  0  0  0  0  0  0  0  0  0  0
  149.1029  132.3980  153.3827 H   0  0  0  0  0  0  0  0  0  0  0  0
  149.2778  133.6512  152.1671 H   0  0  0  0  0  0  0  0  0  0  0  0
  147.8070  132.6797  152.2308 H   0  0  0  0  0  0  0  0  0  0  0  0
  147.2710  133.6049  154.4799 H   0  0  0  0  0  0  0  0  0  0  0  0
  148.6854  134.6286  154.4508 H   0  0  0  0  0  0  0  0  0  0  0  0
  146.6685  133.9870  151.4697 H   0  0  0  0  0  0  0  0  0  0  0  0
  145.4353  134.0352  152.7141 H   0  0  0  0  0  0  0  0  0  0  0  0
  146.1269  136.2511  150.7165 H   0  0  0  0  0  0  0  0  0  0  0  0
  144.6709  135.2949  150.7339 H   0  0  0  0  0  0  0  0  0  0  0  0
  144.2960  137.5631  151.7488 H   0  0  0  0  0  0  0  0  0  0  0  0
  143.9534  136.2673  152.8651 H   0  0  0  0  0  0  0  0  0  0  0  0
  145.2068  137.8885  154.0769 H   0  0  0  0  0  0  0  0  0  0  0  0
  146.7807  138.1984  151.5894 H   0  0  0  0  0  0  0  0  0  0  0  0
  146.3563  139.3565  152.8145 H   0  0  0  0  0  0  0  0  0  0  0  0
  148.7551  137.7097  152.7866 H   0  0  0  0  0  0  0  0  0  0  0  0
  150.2472  138.1037  154.0089 H   0  0  0  0  0  0  0  0  0  0  0  0
  149.1703  140.3869  156.9451 H   0  0  0  0  0  0  0  0  0  0  0  0
  150.7046  141.6167  158.8941 H   0  0  0  0  0  0  0  0  0  0  0  0
  152.2939  142.0764  158.2923 H   0  0  0  0  0  0  0  0  0  0  0  0
  152.1082  140.6251  159.2751 H   0  0  0  0  0  0  0  0  0  0  0  0
  152.6301  138.9461  153.6158 H   0  0  0  0  0  0  0  0  0  0  0  0
  152.5618  137.4865  154.6266 H   0  0  0  0  0  0  0  0  0  0  0  0
  153.8356  138.6936  154.8933 H   0  0  0  0  0  0  0  0  0  0  0  0
  145.7436  135.6183  154.6600 H   0  0  0  0  0  0  0  0  0  0  0  0
  147.1970  136.5597  154.7902 H   0  0  0  0  0  0  0  0  0  0  0  0
  147.7918  135.7619  152.5775 H   0  0  0  0  0  0  0  0  0  0  0  0
  1  2  1  0  0  0  0
  1 21  1  0  0  0  0
  1 22  1  0  0  0  0
  1 23  1  0  0  0  0
  2  3  1  0  0  0  0
  2 24  1  0  0  0  0
  2 25  1  0  0  0  0
  3 20  1  0  0  0  0
  3  4  1  0  0  0  0
  3 46  1  0  0  0  0
  4  5  1  0  0  0  0
  4 26  1  0  0  0  0
  4 27  1  0  0  0  0
  5  6  1  0  0  0  0
  5 28  1  0  0  0  0
  5 29  1  0  0  0  0
  6  7  1  0  0  0  0
  6 30  1  0  0  0  0
  6 31  1  0  0  0  0
  7  8  1  0  0  0  0
  7 20  1  0  0  0  0
  7 32  1  0  0  0  0
  8  9  1  0  0  0  0
  8 33  1  0  0  0  0
  8 34  1  0  0  0  0
  9 10  1  0  0  0  0
  9 35  1  0  0  0  0
 10 11  2  0  0  0  0
 10 12  1  0  0  0  0
 12 13  1  0  0  0  0
 12 36  1  0  0  0  0
 13 18  1  0  0  0  0
 13 14  2  0  0  0  0
 14 15  1  0  0  0  0
 14 37  1  0  0  0  0
 15 16  1  0  0  0  0
 15 17  2  0  0  0  0
 16 38  1  0  0  0  0
 16 39  1  0  0  0  0
 16 40  1  0  0  0  0
 17 18  1  0  0  0  0
 18 19  1  0  0  0  0
 19 41  1  0  0  0  0
 19 42  1  0  0  0  0
 19 43  1  0  0  0  0
 20 44  1  0  0  0  0
 20 45  1  0  0  0  0
M  CHG  1   3   1
M  END
> <s_m_source_file>
AV-unprocessed.smi

> <i_m_source_file_index>
1834

> <i_lp_mmshare_version>
43012

> <i_f3d_flags>
0

> <s_epik_input>
W0NIM11bQ0gyXU4xW0NIMl1bQ0gyXVtDSDJdW0NASF0oW0NIMl0xKVtDSDJdW05IXUMoPU8pW05IXWMyW2NIXWMoW0NIM10pbm4yW0NIM10=

> <s_epik_cmdline>
J2VwaWtfcHl0aG9uJywgJy1waCcsICc3LjAnLCAnLXRuJywgJzgnLCAnLW1hJywgJzIwMCcsICctbWV0YWxfYmluZGluZycsICctaW1hZScsICc8aW5maWxlLm1hZT4nLCAnLW9tYWUnLCAnPG91dGZpbGUubWFlPic=

> <r_lp_tautomer_probability>
1

> <r_epik_Ionization_Penalty>
0.000466842

> <r_epik_Ionization_Penalty_Charging>
0.000378984

> <r_epik_Ionization_Penalty_Neutral>
8.78572e-05

> <r_epik_State_Penalty>
0.000231434

> <r_epik_Charging_Adjusted_Penalty>
0.000610418

> <i_epik_Tot_Q>
1

> <i_epik_Tot_abs_Q>
1

> <r_epik_Metal_State_Penalty>
-0

> <b_epik_Metal_Only>
0

> <s_lp_Force_Field>
OPLS_2005

> <r_lp_Energy>
21.0152

> <b_lp_Chiralities_Consistent>
1

> <s_lp_Variant>
AV-unprocessed.smi:1834-3

> <Gold.Version>
5.8.1

> <Gold.Id.Protein>
6NUR|6NUR_protein|mol2

> <Gold.PLP.Fitness>
43.3119

> <Gold.PLP.PLP>
-32.7763

> <Gold.PLP.part.hbond>
-3.9705

> <Gold.PLP.part.metal>
0.0000

> <Gold.PLP.part.buried>
1.9098

> <Gold.PLP.part.nonpolar>
-29.8471

> <Gold.PLP.part.repulsive>
0.2103

> <Gold.PLP.ligand.clash>
0.0000

> <Gold.PLP.ligand.torsion>
0.7468

> <Gold.PLP.Chemscore.Hbond>
4.0000

> <Gold.PLP.Chemscore.CHOScore>
0.0000

> <Gold.PLP.Chemscore.Metal>
0.0000

> <Gold.Chemscore.Hbonds>
donor molecule, donor type, donor heavy atom, donor atom, acceptor molecule, acceptor atom, score
      L1  H     3    46       P1  7948  1.50
      L1  H     9    35       P1  7948  0.91
      P1  H  7997  8009       L1    17  1.00

> <Gold.PLP.Chemscore.Internal.Correction>
0.0291

> <Gold.Rescore>
     Score         DG    S(hbond)    S(metal)    S(lipo)     H(rot)  DE(clash)    DE(int)     intcor
     16.80     -18.91       2.96        0.00      61.71       1.43       0.24       1.88       ----

> <Gold.Chemscore.Fitness>
16.7954

> <Gold.Chemscore.DG>
-18.9147

> <Gold.Chemscore.ZeroCoef>
-5.4800

> <Gold.Chemscore.Hbond>
2.9560

> <Gold.Chemscore.Metal>
0.0000

> <Gold.Chemscore.Lipo>
61.7113

> <Gold.Chemscore.Internal_Hbond>
0.0000

> <Gold.Chemscore.DEClash>
0.2438

> <Gold.Chemscore.DEInternal>
1.8755

> <Gold.Chemscore.Rot>
1.4291

> <Gold.Chemscore.Internal.Correction>
   9.000000E+99

> <Gold.Chemscore.Hbonds>
donor molecule, donor type, donor heavy atom, donor atom, acceptor molecule, acceptor atom, score
      L1  H     3    46       P1  7948  0.75
      L1  H     9    35       P1  7948  0.90
      P1  H  7997  8009       L1    17  0.64

> <Gold.Chemscore.Hbond.Weighted>
-9.8729

> <Gold.Chemscore.Metal.Weighted>
-0.0000

> <Gold.Chemscore.Lipo.Weighted>
-7.2202

> <Gold.Chemscore.Internal_Hbond.Weighted>
0.0000

> <Gold.Chemscore.DEClash.Weighted>
0.2438

> <Gold.Chemscore.DEInternal.Weighted>
1.8755

> <Gold.Chemscore.Rot.Weighted>
3.6584

> <Gold.Chemscore.Internal.Correction.Weighted>
   9.000000E+99

> <Gold.Protein.RotatedTorsions>
[ 6907 6896 6895 6894 ] final  -65.90 input  -60.11 | X-H torsion
[ 7974 7965 7964 7962 ] final -111.05 input  175.53 | X-H torsion
[ 8008 7997 7996 7995 ] final -157.27 input   59.86 | X-H torsion
[ 10167 10162 10161 10158 ] final  -40.49 input  -65.29 | X-H torsion
[ 10718 10713 10712 10709 ] final   52.69 input   66.30 | X-H torsion
[ 10763 10752 10751 10750 ] final -157.58 input  -60.55 | X-H torsion
[ 11005 11000 10999 10996 ] final  -20.07 input  -57.11 | X-H torsion

> <Gold.Protein.ActiveResidues>
 VAL166  LYS551  ARG553  GLY616  TRP617  ASP618  TYR619  PRO620  LYS621  CYS622 
 ASP623  PHE694  ASN695  SER759  ASP760  ASP761  ALA762  ILE779  LEU786  VAL792 
 PHE793  MET794  SER795  GLU796  ALA797  LYS798  CYS799  TRP800  GLU811  SER814 

> <Gold.Protein.RotatedAtoms>
  150.7496  134.6095  159.6078 H   0  0  0  0  0  0  0  0  0  0  0  0  # atno 6907 bound_to 6896
  152.3433  134.7101  160.0266 H   0  0  0  0  0  0  0  0  0  0  0  0  # atno 6908 bound_to 6896
  151.7546  133.3293  159.3437 H   0  0  0  0  0  0  0  0  0  0  0  0  # atno 6909 bound_to 6896
  145.1608  140.8877  143.3592 H   0  0  0  0  0  0  0  0  0  0  0  0  # atno 7974 bound_to 7965
  155.7299  140.0800  157.2293 H   0  0  0  0  0  0  0  0  0  0  0  0  # atno 8008 bound_to 7997
  154.4034  140.1597  156.2551 H   0  0  0  0  0  0  0  0  0  0  0  0  # atno 8009 bound_to 7997
  155.9119  140.3403  155.6108 H   0  0  0  0  0  0  0  0  0  0  0  0  # atno 8010 bound_to 7997
  140.7032  143.3150  151.2932 H   0  0  0  0  0  0  0  0  0  0  0  0  # atno 10167 bound_to 10162
  157.5098  130.8493  149.8420 H   0  0  0  0  0  0  0  0  0  0  0  0  # atno 10718 bound_to 10713
  154.7624  135.3121  154.8352 H   0  0  0  0  0  0  0  0  0  0  0  0  # atno 10763 bound_to 10752
  153.9109  135.6806  153.4755 H   0  0  0  0  0  0  0  0  0  0  0  0  # atno 10764 bound_to 10752
  153.1226  135.4815  154.9153 H   0  0  0  0  0  0  0  0  0  0  0  0  # atno 10765 bound_to 10752
  140.8428  133.7914  155.9879 H   0  0  0  0  0  0  0  0  0  0  0  0  # atno 11005 bound_to 11000
  145.0333  139.3322  143.6013 LP  0  0  0  0  0  0  0  0  0  0  0  0  # atno 17320 bound_to 7965
  146.3482  139.9679  142.8709 LP  0  0  0  0  0  0  0  0  0  0  0  0  # atno 17321 bound_to 7965
  139.6586  144.0231  152.2676 LP  0  0  0  0  0  0  0  0  0  0  0  0  # atno 17342 bound_to 10162
  139.9791  144.6441  150.7917 LP  0  0  0  0  0  0  0  0  0  0  0  0  # atno 17343 bound_to 10162
  156.0281  130.3773  150.1764 LP  0  0  0  0  0  0  0  0  0  0  0  0  # atno 17370 bound_to 10713
  156.9953  130.9906  151.3404 LP  0  0  0  0  0  0  0  0  0  0  0  0  # atno 17371 bound_to 10713
  140.8876  134.2534  157.5111 LP  0  0  0  0  0  0  0  0  0  0  0  0  # atno 17394 bound_to 11000
  139.8703  134.9646  156.4500 LP  0  0  0  0  0  0  0  0  0  0  0  0  # atno 17395 bound_to 11000

$$$$
