AV-unprocessed.smi:1252|AV-procd|sdf|5266|dock6
  -GOLD-   22720 4383D 1   1.00000     0.00000
 Structure written by MMmdl.
 44 45  0  0  0  0  0  0  0  0  2 V2000
  150.1869  142.7228  156.8959 C   0  0  0  0  0  0  0  0  0  0  0  0
  149.9659  141.4798  156.0139 C   0  0  2  0  0  0  0  0  0  0  0  0
  148.9464  140.4931  156.6026 C   0  0  0  0  0  0  0  0  0  0  0  0
  149.2125  139.8201  157.5985 O   0  0  0  0  0  0  0  0  0  0  0  0
  147.7876  140.3915  155.9342 N   0  0  0  0  0  0  0  0  0  0  0  0
  146.7422  139.3982  156.1687 C   0  0  0  0  0  0  0  0  0  0  0  0
  145.4678  139.6404  155.3033 C   0  0  0  0  0  0  0  0  0  0  0  0
  144.3394  138.7380  155.8623 C   0  0  0  0  0  0  0  0  0  0  0  0
  145.0264  141.1108  155.4852 C   0  0  0  0  0  0  0  0  0  0  0  0
  145.7339  139.3108  153.8551 N   0  3  0  0  0  0  0  0  0  0  0  0
  146.6939  140.2026  153.1455 C   0  0  0  0  0  0  0  0  0  0  0  0
  146.7484  139.8597  151.6466 C   0  0  0  0  0  0  0  0  0  0  0  0
  147.0902  138.4920  151.4724 O   0  0  0  0  0  0  0  0  0  0  0  0
  146.1289  137.6304  152.0645 C   0  0  0  0  0  0  0  0  0  0  0  0
  146.0766  137.8876  153.5786 C   0  0  0  0  0  0  0  0  0  0  0  0
  151.2218  140.7849  155.7589 N   0  0  0  0  0  0  0  0  0  0  0  0
  152.1906  140.3951  156.5921 C   0  0  0  0  0  0  0  0  0  0  0  0
  153.1740  139.7333  155.9991 N   0  0  0  0  0  0  0  0  0  0  0  0
  152.7236  139.7612  154.7101 C   0  0  0  0  0  0  0  0  0  0  0  0
  151.5500  140.3617  154.5145 N   0  0  0  0  0  0  0  0  0  0  0  0
  149.2556  143.2708  157.0442 H   0  0  0  0  0  0  0  0  0  0  0  0
  150.8967  143.4075  156.4308 H   0  0  0  0  0  0  0  0  0  0  0  0
  150.5791  142.4597  157.8792 H   0  0  0  0  0  0  0  0  0  0  0  0
  149.5676  141.8215  155.0569 H   0  0  0  0  0  0  0  0  0  0  0  0
  147.6531  141.0092  155.1465 H   0  0  0  0  0  0  0  0  0  0  0  0
  147.1299  138.3890  156.0184 H   0  0  0  0  0  0  0  0  0  0  0  0
  146.4949  139.4430  157.2293 H   0  0  0  0  0  0  0  0  0  0  0  0
  144.2665  138.8190  156.9473 H   0  0  0  0  0  0  0  0  0  0  0  0
  144.5050  137.6868  155.6247 H   0  0  0  0  0  0  0  0  0  0  0  0
  143.3593  139.0136  155.4729 H   0  0  0  0  0  0  0  0  0  0  0  0
  144.8047  141.3213  156.5322 H   0  0  0  0  0  0  0  0  0  0  0  0
  144.1253  141.3425  154.9180 H   0  0  0  0  0  0  0  0  0  0  0  0
  145.8000  141.8156  155.1815 H   0  0  0  0  0  0  0  0  0  0  0  0
  146.4057  141.2487  153.2289 H   0  0  0  0  0  0  0  0  0  0  0  0
  147.6889  140.1045  153.5801 H   0  0  0  0  0  0  0  0  0  0  0  0
  145.7941  140.0719  151.1638 H   0  0  0  0  0  0  0  0  0  0  0  0
  147.4978  140.4753  151.1488 H   0  0  0  0  0  0  0  0  0  0  0  0
  145.1497  137.7812  151.6074 H   0  0  0  0  0  0  0  0  0  0  0  0
  146.4157  136.5971  151.8691 H   0  0  0  0  0  0  0  0  0  0  0  0
  147.0435  137.6408  154.0178 H   0  0  0  0  0  0  0  0  0  0  0  0
  145.3449  137.2094  154.0136 H   0  0  0  0  0  0  0  0  0  0  0  0
  152.1683  140.5865  157.6551 H   0  0  0  0  0  0  0  0  0  0  0  0
  153.2672  139.3083  153.8942 H   0  0  0  0  0  0  0  0  0  0  0  0
  144.8483  139.4654  153.3947 H   0  0  0  0  0  0  0  0  0  0  0  0
  1  2  1  0  0  0  0
  1 21  1  0  0  0  0
  1 22  1  0  0  0  0
  1 23  1  0  0  0  0
  2  3  1  0  0  0  0
  2 16  1  0  0  0  0
  2 24  1  0  0  0  0
  3  4  2  0  0  0  0
  3  5  1  0  0  0  0
  5  6  1  0  0  0  0
  5 25  1  0  0  0  0
  6  7  1  0  0  0  0
  6 26  1  0  0  0  0
  6 27  1  0  0  0  0
  7  8  1  0  0  0  0
  7  9  1  0  0  0  0
  7 10  1  0  0  0  0
  8 28  1  0  0  0  0
  8 29  1  0  0  0  0
  8 30  1  0  0  0  0
  9 31  1  0  0  0  0
  9 32  1  0  0  0  0
  9 33  1  0  0  0  0
 10 15  1  0  0  0  0
 10 11  1  0  0  0  0
 10 44  1  0  0  0  0
 11 12  1  0  0  0  0
 11 34  1  0  0  0  0
 11 35  1  0  0  0  0
 12 13  1  0  0  0  0
 12 36  1  0  0  0  0
 12 37  1  0  0  0  0
 13 14  1  0  0  0  0
 14 15  1  0  0  0  0
 14 38  1  0  0  0  0
 14 39  1  0  0  0  0
 15 40  1  0  0  0  0
 15 41  1  0  0  0  0
 16 20  1  0  0  0  0
 16 17  1  0  0  0  0
 17 18  2  0  0  0  0
 17 42  1  0  0  0  0
 18 19  1  0  0  0  0
 19 20  2  0  0  0  0
 19 43  1  0  0  0  0
M  CHG  1  10   1
M  END
> <s_m_source_file>
AV-unprocessed.smi

> <i_m_source_file_index>
1252

> <i_lp_mmshare_version>
43012

> <i_f3d_flags>
0

> <s_epik_input>
bjFbY0hdbltjSF1uMVtDQEhdKFtDSDNdKUMoPU8pW05IXVtDSDJdQyhbQ0gzXSkoW0NIM10pTjJbQ0gyXVtDSDJdT1tDSDJdW0NIMl0y

> <s_epik_cmdline>
J2VwaWtfcHl0aG9uJywgJy1waCcsICc3LjAnLCAnLXRuJywgJzgnLCAnLW1hJywgJzIwMCcsICctbWV0YWxfYmluZGluZycsICctaW1hZScsICc8aW5maWxlLm1hZT4nLCAnLW9tYWUnLCAnPG91dGZpbGUubWFlPic=

> <r_lp_tautomer_probability>
1

> <r_epik_Ionization_Penalty>
0.71326

> <r_epik_Ionization_Penalty_Charging>
0.713252

> <r_epik_Ionization_Penalty_Neutral>
8.22342e-06

> <r_epik_State_Penalty>
0.737017

> <r_epik_Charging_Adjusted_Penalty>
1.45027

> <i_epik_Tot_Q>
1

> <i_epik_Tot_abs_Q>
1

> <r_epik_Metal_State_Penalty>
0.73702

> <b_epik_Metal_Only>
0

> <s_lp_Force_Field>
OPLS_2005

> <r_lp_Energy>
34.1677

> <b_lp_Chiralities_Consistent>
1

> <s_lp_Variant>
AV-unprocessed.smi:1252-3

> <Gold.Version>
5.8.1

> <Gold.Id.Protein>
6NUR|6NUR_protein|mol2

> <Gold.PLP.Fitness>
36.8891

> <Gold.PLP.PLP>
-23.4794

> <Gold.PLP.part.hbond>
-4.0000

> <Gold.PLP.part.metal>
0.0000

> <Gold.PLP.part.buried>
0.6280

> <Gold.PLP.part.nonpolar>
-23.8096

> <Gold.PLP.part.repulsive>
2.8468

> <Gold.PLP.ligand.clash>
0.0000

> <Gold.PLP.ligand.torsion>
0.6617

> <Gold.PLP.Chemscore.Hbond>
4.8500

> <Gold.PLP.Chemscore.CHOScore>
0.0000

> <Gold.PLP.Chemscore.Metal>
0.0000

> <Gold.Chemscore.Hbonds>
donor molecule, donor type, donor heavy atom, donor atom, acceptor molecule, acceptor atom, score
      L1  H    10    44       P1 10175  2.00
      P1  H  7954  7966       L1    13  1.00
      P1  H  7997  8008       L1    18  0.32

> <Gold.PLP.Chemscore.Internal.Correction>
0.1832

> <Gold.Rescore>
     Score         DG    S(hbond)    S(metal)    S(lipo)     H(rot)  DE(clash)    DE(int)     intcor
     10.28     -14.16       2.89        0.00      48.24       2.59       2.68       1.20       ----

> <Gold.Chemscore.Fitness>
10.2754

> <Gold.Chemscore.DG>
-14.1573

> <Gold.Chemscore.ZeroCoef>
-5.4800

> <Gold.Chemscore.Hbond>
2.8904

> <Gold.Chemscore.Metal>
0.0000

> <Gold.Chemscore.Lipo>
48.2440

> <Gold.Chemscore.Internal_Hbond>
0.0000

> <Gold.Chemscore.DEClash>
2.6788

> <Gold.Chemscore.DEInternal>
1.2032

> <Gold.Chemscore.Rot>
2.5864

> <Gold.Chemscore.Internal.Correction>
   9.000000E+99

> <Gold.Chemscore.Hbonds>
donor molecule, donor type, donor heavy atom, donor atom, acceptor molecule, acceptor atom, score
      L1  H    10    44       P1 10175  0.97
      P1  H  7954  7966       L1    13  0.92
      P1  H  7989  7998       L1    20  0.03
      P1  H  7997  8008       L1    18  0.29

> <Gold.Chemscore.Hbond.Weighted>
-9.6539

> <Gold.Chemscore.Metal.Weighted>
-0.0000

> <Gold.Chemscore.Lipo.Weighted>
-5.6445

> <Gold.Chemscore.Internal_Hbond.Weighted>
0.0000

> <Gold.Chemscore.DEClash.Weighted>
2.6788

> <Gold.Chemscore.DEInternal.Weighted>
1.2032

> <Gold.Chemscore.Rot.Weighted>
6.6211

> <Gold.Chemscore.Internal.Correction.Weighted>
   9.000000E+99

> <Gold.Protein.RotatedTorsions>
[ 6907 6896 6895 6894 ] final -146.10 input  -60.11 | X-H torsion
[ 7974 7965 7964 7962 ] final   94.84 input  175.53 | X-H torsion
[ 8008 7997 7996 7995 ] final  -32.04 input   59.86 | X-H torsion
[ 10167 10162 10161 10158 ] final  -40.01 input  -65.29 | X-H torsion
[ 10718 10713 10712 10709 ] final  111.12 input   66.30 | X-H torsion
[ 10763 10752 10751 10750 ] final  135.68 input  -60.55 | X-H torsion
[ 11005 11000 10999 10996 ] final  111.53 input  -57.11 | X-H torsion

> <Gold.Protein.ActiveResidues>
 VAL166  LYS551  ARG553  GLY616  TRP617  ASP618  TYR619  PRO620  LYS621  CYS622 
 ASP623  PHE694  ASN695  SER759  ASP760  ASP761  ALA762  ILE779  LEU786  VAL792 
 PHE793  MET794  SER795  GLU796  ALA797  LYS798  CYS799  TRP800  GLU811  SER814 

> <Gold.Protein.RotatedAtoms>
  151.1370  133.4998  159.2597 H   0  0  0  0  0  0  0  0  0  0  0  0  # atno 6907 bound_to 6896
  151.1696  135.0311  159.8756 H   0  0  0  0  0  0  0  0  0  0  0  0  # atno 6908 bound_to 6896
  152.5461  134.1234  159.8462 H   0  0  0  0  0  0  0  0  0  0  0  0  # atno 6909 bound_to 6896
  145.4601  139.2287  143.2992 H   0  0  0  0  0  0  0  0  0  0  0  0  # atno 7974 bound_to 7965
  154.4193  140.1748  156.1663 H   0  0  0  0  0  0  0  0  0  0  0  0  # atno 8008 bound_to 7997
  155.9797  140.3378  155.6627 H   0  0  0  0  0  0  0  0  0  0  0  0  # atno 8009 bound_to 7997
  155.6516  140.0691  157.2575 H   0  0  0  0  0  0  0  0  0  0  0  0  # atno 8010 bound_to 7997
  140.7047  143.3179  151.2864 H   0  0  0  0  0  0  0  0  0  0  0  0  # atno 10167 bound_to 10162
  157.6460  131.0945  150.6702 H   0  0  0  0  0  0  0  0  0  0  0  0  # atno 10718 bound_to 10713
  153.8440  135.3088  155.3428 H   0  0  0  0  0  0  0  0  0  0  0  0  # atno 10763 bound_to 10752
  154.7920  135.4777  154.0078 H   0  0  0  0  0  0  0  0  0  0  0  0  # atno 10764 bound_to 10752
  153.1558  135.6852  153.8906 H   0  0  0  0  0  0  0  0  0  0  0  0  # atno 10765 bound_to 10752
  139.8906  134.9510  156.6447 H   0  0  0  0  0  0  0  0  0  0  0  0  # atno 11005 bound_to 11000
  146.2456  140.5369  142.8915 LP  0  0  0  0  0  0  0  0  0  0  0  0  # atno 17320 bound_to 7965
  144.8008  140.6209  143.6479 LP  0  0  0  0  0  0  0  0  0  0  0  0  # atno 17321 bound_to 7965
  139.6623  144.0166  152.2701 LP  0  0  0  0  0  0  0  0  0  0  0  0  # atno 17342 bound_to 10162
  139.9738  144.6475  150.7964 LP  0  0  0  0  0  0  0  0  0  0  0  0  # atno 17343 bound_to 10162
  156.7019  130.4626  149.5570 LP  0  0  0  0  0  0  0  0  0  0  0  0  # atno 17370 bound_to 10713
  156.1789  130.6486  151.0928 LP  0  0  0  0  0  0  0  0  0  0  0  0  # atno 17371 bound_to 10713
  140.7566  133.8852  155.8387 LP  0  0  0  0  0  0  0  0  0  0  0  0  # atno 17394 bound_to 11000
  140.9956  134.1219  157.4366 LP  0  0  0  0  0  0  0  0  0  0  0  0  # atno 17395 bound_to 11000

$$$$
