#       Name:                AV-unprocessed.smi:702
#       Creating user name   scv26
#       Creation time:       Fri Mar 27 00:40:16 2020


#       File generated by GOLD software.
#

@<TRIPOS>MOLECULE
AV-unprocessed.smi:702
    55    57     1
SMALL
NO_CHARGES


@<TRIPOS>ATOM
      1 ****        -0.9962  -0.1947  -2.1661 C.3            1 S1                 0.0000
      2 ****        -0.5346   0.1778  -0.7380 C.3            1 S1                 0.0000
      3 ****         0.9321   0.1972  -0.7075 N.am           1 S1                 0.0000
      4 ****         1.7166   1.2291  -1.0504 C.2            1 S1                 0.0000
      5 ****         1.2836   2.3036  -1.4656 O.2            1 S1                 0.0000
      6 ****         3.0151   0.9183  -0.8950 N.am           1 S1                 0.0000
      7 ****         4.1601   1.7295  -1.1218 C.ar           1 S1                 0.0000
      8 ****         5.4024   1.0796  -1.2741 C.ar           1 S1                 0.0000
      9 ****         6.5568   1.8602  -1.4831 C.ar           1 S1                 0.0000
     10 ****         6.5404   3.2087  -1.5364 N.ar           1 S1                 0.0000
     11 ****         5.3530   3.8302  -1.3759 C.ar           1 S1                 0.0000
     12 ****         4.1399   3.1448  -1.1631 C.ar           1 S1                 0.0000
     13 ****        -1.1335  -0.7406   0.3941 C.3            1 S1                 0.0000
     14 ****        -2.6256  -0.8251   0.3060 N.3            1 S1                 0.0000
     15 ****        -3.2685  -1.6570   1.3366 C.3            1 S1                 0.0000
     16 ****        -4.7797  -1.8103   1.0986 C.3            1 S1                 0.0000
     17 ****        -5.3876  -0.5254   1.0697 O.3            1 S1                 0.0000
     18 ****        -4.8382   0.3095   0.0584 C.3            1 S1                 0.0000
     19 ****        -3.3233   0.4695   0.2761 C.3            1 S1                 0.0000
     20 ****        -0.4575  -2.1502   0.2795 C.3            1 S1                 0.0000
     21 ****         0.4490  -2.3359   1.4993 C.3            1 S1                 0.0000
     22 ****        -0.1426  -1.4318   2.5691 C.3            1 S1                 0.0000
     23 ****        -0.6629  -0.2228   1.7918 C.3            1 S1                 0.0000
     24 ****        -2.0807  -0.1701  -2.2668 H              1 S1                 0.0000
     25 ****        -0.6651  -1.1910  -2.4576 H              1 S1                 0.0000
     26 ****        -0.5968   0.5064  -2.8997 H              1 S1                 0.0000
     27 ****        -0.8550   1.2014  -0.5419 H              1 S1                 0.0000
     28 ****         1.3811  -0.6461  -0.3821 H              1 S1                 0.0000
     29 ****         3.2108  -0.0335  -0.6221 H              1 S1                 0.0000
     30 ****         5.4739   0.0022  -1.2375 H              1 S1                 0.0000
     31 ****         7.5197   1.3878  -1.6087 H              1 S1                 0.0000
     32 ****         5.3704   4.9096  -1.4115 H              1 S1                 0.0000
     33 ****         3.2340   3.7143  -1.0249 H              1 S1                 0.0000
     34 ****        -2.8373  -2.6534   1.3841 H              1 S1                 0.0000
     35 ****        -3.1218  -1.2151   2.3222 H              1 S1                 0.0000
     36 ****        -4.9733  -2.3375   0.1632 H              1 S1                 0.0000
     37 ****        -5.2310  -2.3977   1.8981 H              1 S1                 0.0000
     38 ****        -5.0430  -0.1163  -0.9251 H              1 S1                 0.0000
     39 ****        -5.3301   1.2816   0.0942 H              1 S1                 0.0000
     40 ****        -3.1539   1.0156   1.2038 H              1 S1                 0.0000
     41 ****        -2.9536   1.1008  -0.5285 H              1 S1                 0.0000
     42 ****        -1.1818  -2.9601   0.2353 H              1 S1                 0.0000
     43 ****         0.1279  -2.2820  -0.6298 H              1 S1                 0.0000
     44 ****         0.5138  -3.3765   1.8184 H              1 S1                 0.0000
     45 ****         1.4588  -2.0005   1.2594 H              1 S1                 0.0000
     46 ****        -0.9670  -1.9418   3.0679 H              1 S1                 0.0000
     47 ****         0.5852  -1.1560   3.3328 H              1 S1                 0.0000
     48 ****         0.1524   0.4942   1.7001 H              1 S1                 0.0000
     49 ****        -1.4345   0.3002   2.3551 H              1 S1                 0.0000
     50 ****         0.2979   2.4417  -1.5622 LP             1 S1                 0.0000
     51 ****         1.9174   3.0386  -1.7064 LP             1 S1                 0.0000
     52 ****         7.3799   3.7300  -1.6897 LP             1 S1                 0.0000
     53 ****        -2.7287  -1.2721  -0.5826 LP             1 S1                 0.0000
     54 ****        -5.2528  -0.0859   1.9578 LP             1 S1                 0.0000
     55 ****        -6.3665  -0.6367   0.8981 LP             1 S1                 0.0000
@<TRIPOS>BOND
    1    1    2 1     
    2    1   24 1     
    3    1   25 1     
    4    1   26 1     
    5    2    3 1     
    6    2   13 1     
    7    2   27 1     
    8    3    4 am    
    9    3   28 1     
   10    4    5 2     
   11    4    6 am    
   12    6    7 1     
   13    6   29 1     
   14    7   12 ar    
   15    7    8 ar    
   16    8    9 ar    
   17    8   30 1     
   18    9   10 ar    
   19    9   31 1     
   20   10   11 ar    
   21   11   12 ar    
   22   11   32 1     
   23   12   33 1     
   24   13   23 1     
   25   13   14 1     
   26   13   20 1     
   27   14   19 1     
   28   14   15 1     
   29   15   16 1     
   30   15   34 1     
   31   15   35 1     
   32   16   17 1     
   33   16   36 1     
   34   16   37 1     
   35   17   18 1     
   36   18   19 1     
   37   18   38 1     
   38   18   39 1     
   39   19   40 1     
   40   19   41 1     
   41   20   21 1     
   42   20   42 1     
   43   20   43 1     
   44   21   22 1     
   45   21   44 1     
   46   21   45 1     
   47   22   23 1     
   48   22   46 1     
   49   22   47 1     
   50   23   48 1     
   51   23   49 1     
   52    5   50 1     
   53    5   51 1     
   54   10   52 1     
   55   14   53 1     
   56   17   54 1     
   57   17   55 1     
@<TRIPOS>SUBSTRUCTURE
      1 S1             1
@<TRIPOS>SET
LONE_PAIRS      STATIC     ATOMS    <user>   **** ""
6 50 51 52 53 54 55
DONOR_HYDROGENS      STATIC     ATOMS    <user>   **** ""
2 28 29
ATOM$BLUE        STATIC     ATOMS    COLORGROUP SYSTEM
6 50 51 52 53 54 55
ATOM$RED        STATIC     ATOMS    COLORGROUP SYSTEM
2 28 29
