AV-unprocessed.smi:2391|AV-procd|sdf|9486|dock7
  -GOLD-   2272013113D 1   1.00000     0.00000
 Structure written by MMmdl.
 34 35  0  0  0  0  0  0  0  0  2 V2000
  148.2640  138.7538  158.3785 O   0  0  0  0  0  0  0  0  0  0  0  0
  149.4264  138.3462  158.4283 C   0  0  0  0  0  0  0  0  0  0  0  0
  149.8350  137.1515  158.9158 N   0  5  0  0  0  0  0  0  0  0  0  0
  148.9416  136.2737  159.3966 C   0  0  0  0  0  0  0  0  0  0  0  0
  148.1587  136.5972  160.5274 C   0  0  0  0  0  0  0  0  0  0  0  0
  147.2442  135.6430  161.0038 C   0  0  0  0  0  0  0  0  0  0  0  0
  147.1769  134.4195  160.3167 C   0  0  0  0  0  0  0  0  0  0  0  0
  147.9489  134.1478  159.2427 N   0  0  0  0  0  0  0  0  0  0  0  0
  148.8173  135.0625  158.7965 N   0  0  0  0  0  0  0  0  0  0  0  0
  150.4310  139.1146  157.9820 N   0  0  0  0  0  0  0  0  0  0  0  0
  150.3242  140.4541  157.3976 C   0  0  1  0  0  0  0  0  0  0  0  0
  151.5325  141.3165  157.8487 C   0  0  0  0  0  0  0  0  0  0  0  0
  151.8672  141.2088  159.3421 C   0  0  0  0  0  0  0  0  0  0  0  0
  152.7568  142.4183  159.6367 C   0  0  0  0  0  0  0  0  0  0  0  0
  152.3663  143.4894  158.6096 C   0  0  0  0  0  0  0  0  0  0  0  0
  151.3617  142.8293  157.6566 C   0  0  0  0  0  0  0  0  0  0  0  0
  150.1951  140.3141  155.8636 C   0  0  0  0  0  0  0  0  0  0  0  0
  149.1483  139.5434  155.5651 F   0  0  0  0  0  0  0  0  0  0  0  0
  149.9987  141.5006  155.2899 F   0  0  0  0  0  0  0  0  0  0  0  0
  151.2932  139.7616  155.3462 F   0  0  0  0  0  0  0  0  0  0  0  0
  148.2553  137.5559  161.0159 H   0  0  0  0  0  0  0  0  0  0  0  0
  146.6196  135.8413  161.8620 H   0  0  0  0  0  0  0  0  0  0  0  0
  146.4949  133.6444  160.6332 H   0  0  0  0  0  0  0  0  0  0  0  0
  151.3615  138.7287  158.0454 H   0  0  0  0  0  0  0  0  0  0  0  0
  149.4120  140.9364  157.7527 H   0  0  0  0  0  0  0  0  0  0  0  0
  152.4159  141.0036  157.2895 H   0  0  0  0  0  0  0  0  0  0  0  0
  150.9524  141.2767  159.9328 H   0  0  0  0  0  0  0  0  0  0  0  0
  152.3557  140.2681  159.5987 H   0  0  0  0  0  0  0  0  0  0  0  0
  152.6401  142.7668  160.6631 H   0  0  0  0  0  0  0  0  0  0  0  0
  153.8041  142.1467  159.5004 H   0  0  0  0  0  0  0  0  0  0  0  0
  151.9304  144.3666  159.0889 H   0  0  0  0  0  0  0  0  0  0  0  0
  153.2505  143.8215  158.0644 H   0  0  0  0  0  0  0  0  0  0  0  0
  151.5221  143.1402  156.6240 H   0  0  0  0  0  0  0  0  0  0  0  0
  150.3502  143.1263  157.9375 H   0  0  0  0  0  0  0  0  0  0  0  0
  1  2  2  0  0  0  0
  2  3  1  0  0  0  0
  2 10  1  0  0  0  0
  3  4  1  0  0  0  0
  4  9  1  0  0  0  0
  4  5  2  0  0  0  0
  5  6  1  0  0  0  0
  5 21  1  0  0  0  0
  6  7  2  0  0  0  0
  6 22  1  0  0  0  0
  7  8  1  0  0  0  0
  7 23  1  0  0  0  0
  8  9  2  0  0  0  0
 10 11  1  0  0  0  0
 10 24  1  0  0  0  0
 11 12  1  0  0  0  0
 11 17  1  0  0  0  0
 11 25  1  0  0  0  0
 12 16  1  0  0  0  0
 12 13  1  0  0  0  0
 12 26  1  0  0  0  0
 13 14  1  0  0  0  0
 13 27  1  0  0  0  0
 13 28  1  0  0  0  0
 14 15  1  0  0  0  0
 14 29  1  0  0  0  0
 14 30  1  0  0  0  0
 15 16  1  0  0  0  0
 15 31  1  0  0  0  0
 15 32  1  0  0  0  0
 16 33  1  0  0  0  0
 16 34  1  0  0  0  0
 17 18  1  0  0  0  0
 17 19  1  0  0  0  0
 17 20  1  0  0  0  0
M  CHG  1   3  -1
M  END
> <s_m_source_file>
AV-unprocessed.smi

> <i_m_source_file_index>
2391

> <i_lp_mmshare_version>
43012

> <i_f3d_flags>
0

> <s_epik_input>
W0NIMl0xW0NIMl1bQ0gyXVtDSDJdW0NIXTFbQ0BIXShDKEYpKEYpRilbTkhdQyg9TylbTkhdYzJbY0hdW2NIXVtjSF1ubjI=

> <s_epik_cmdline>
J2VwaWtfcHl0aG9uJywgJy1waCcsICc3LjAnLCAnLXRuJywgJzgnLCAnLW1hJywgJzIwMCcsICctbWV0YWxfYmluZGluZycsICctaW1hZScsICc8aW5maWxlLm1hZT4nLCAnLW9tYWUnLCAnPG91dGZpbGUubWFlPic=

> <r_lp_tautomer_probability>
1

> <r_epik_Ionization_Penalty>
8.90766

> <r_epik_Ionization_Penalty_Charging>
5.82661

> <r_epik_Ionization_Penalty_Neutral>
3.08106

> <r_epik_State_Penalty>
5.83894

> <r_epik_Charging_Adjusted_Penalty>
11.6655

> <i_epik_Tot_Q>
-1

> <i_epik_Tot_abs_Q>
1

> <r_epik_Metal_State_Penalty>
1.80768

> <b_epik_Metal_Only>
1

> <s_lp_Force_Field>
OPLS_2005

> <r_lp_Energy>
28.2955

> <b_lp_Chiralities_Consistent>
1

> <s_lp_Variant>
AV-unprocessed.smi:2391-6

> <Gold.Version>
5.8.1

> <Gold.Id.Protein>
6NUR|6NUR_protein|mol2

> <Gold.PLP.Fitness>
31.8754

> <Gold.PLP.PLP>
-33.8244

> <Gold.PLP.part.hbond>
-2.0000

> <Gold.PLP.part.metal>
0.0000

> <Gold.PLP.part.buried>
-2.2463

> <Gold.PLP.part.nonpolar>
-29.3879

> <Gold.PLP.part.repulsive>
0.1017

> <Gold.PLP.ligand.clash>
0.0000

> <Gold.PLP.ligand.torsion>
1.1737

> <Gold.PLP.Chemscore.Hbond>
0.0000

> <Gold.PLP.Chemscore.CHOScore>
0.0000

> <Gold.PLP.Chemscore.Metal>
0.0000

> <Gold.PLP.Chemscore.Internal.Correction>
0.3983

> <Gold.Rescore>
     Score         DG    S(hbond)    S(metal)    S(lipo)     H(rot)  DE(clash)    DE(int)     intcor
      9.58     -10.89       0.00        0.00      75.04       1.32       0.01       1.29       ----

> <Gold.Chemscore.Fitness>
9.5822

> <Gold.Chemscore.DG>
-10.8857

> <Gold.Chemscore.ZeroCoef>
-5.4800

> <Gold.Chemscore.Hbond>
0.0000

> <Gold.Chemscore.Metal>
0.0000

> <Gold.Chemscore.Lipo>
75.0376

> <Gold.Chemscore.Internal_Hbond>
0.0000

> <Gold.Chemscore.DEClash>
0.0089

> <Gold.Chemscore.DEInternal>
1.2947

> <Gold.Chemscore.Rot>
1.3179

> <Gold.Chemscore.Internal.Correction>
   9.000000E+99

> <Gold.Chemscore.Hbond.Weighted>
-0.0001

> <Gold.Chemscore.Metal.Weighted>
-0.0000

> <Gold.Chemscore.Lipo.Weighted>
-8.7794

> <Gold.Chemscore.Internal_Hbond.Weighted>
0.0000

> <Gold.Chemscore.DEClash.Weighted>
0.0089

> <Gold.Chemscore.DEInternal.Weighted>
1.2947

> <Gold.Chemscore.Rot.Weighted>
3.3737

> <Gold.Chemscore.Internal.Correction.Weighted>
   9.000000E+99

> <Gold.Protein.RotatedTorsions>
[ 6907 6896 6895 6894 ] final   85.45 input  -60.11 | X-H torsion
[ 7974 7965 7964 7962 ] final -147.41 input  175.53 | X-H torsion
[ 8008 7997 7996 7995 ] final   11.89 input   59.86 | X-H torsion
[ 10167 10162 10161 10158 ] final  142.91 input  -65.29 | X-H torsion
[ 10718 10713 10712 10709 ] final  158.47 input   66.30 | X-H torsion
[ 10763 10752 10751 10750 ] final -160.10 input  -60.55 | X-H torsion
[ 11005 11000 10999 10996 ] final   12.80 input  -57.11 | X-H torsion

> <Gold.Protein.ActiveResidues>
 VAL166  LYS551  ARG553  GLY616  TRP617  ASP618  TYR619  PRO620  LYS621  CYS622 
 ASP623  PHE694  ASN695  SER759  ASP760  ASP761  ALA762  ILE779  LEU786  VAL792 
 PHE793  MET794  SER795  GLU796  ALA797  LYS798  CYS799  TRP800  GLU811  SER814 

> <Gold.Protein.RotatedAtoms>
  152.5375  134.2584  159.8925 H   0  0  0  0  0  0  0  0  0  0  0  0  # atno 6907 bound_to 6896
  151.2544  133.4327  159.2620 H   0  0  0  0  0  0  0  0  0  0  0  0  # atno 6908 bound_to 6896
  151.0509  134.9687  159.8267 H   0  0  0  0  0  0  0  0  0  0  0  0  # atno 6909 bound_to 6896
  144.8095  140.5330  143.5652 H   0  0  0  0  0  0  0  0  0  0  0  0  # atno 7974 bound_to 7965
  154.8130  140.2871  155.5839 H   0  0  0  0  0  0  0  0  0  0  0  0  # atno 8008 bound_to 7997
  156.2990  140.2564  156.2952 H   0  0  0  0  0  0  0  0  0  0  0  0  # atno 8009 bound_to 7997
  154.9425  140.0381  157.2093 H   0  0  0  0  0  0  0  0  0  0  0  0  # atno 8010 bound_to 7997
  139.4982  144.6075  151.6345 H   0  0  0  0  0  0  0  0  0  0  0  0  # atno 10167 bound_to 10162
  157.1774  131.0624  151.2150 H   0  0  0  0  0  0  0  0  0  0  0  0  # atno 10718 bound_to 10713
  154.7419  135.3070  154.8713 H   0  0  0  0  0  0  0  0  0  0  0  0  # atno 10763 bound_to 10752
  153.9526  135.6762  153.4748 H   0  0  0  0  0  0  0  0  0  0  0  0  # atno 10764 bound_to 10752
  153.1017  135.4909  154.8804 H   0  0  0  0  0  0  0  0  0  0  0  0  # atno 10765 bound_to 10752
  140.4879  134.0869  155.7765 H   0  0  0  0  0  0  0  0  0  0  0  0  # atno 11005 bound_to 11000
  145.5357  139.1475  143.3475 LP  0  0  0  0  0  0  0  0  0  0  0  0  # atno 17320 bound_to 7965
  146.2392  140.5497  142.8941 LP  0  0  0  0  0  0  0  0  0  0  0  0  # atno 17321 bound_to 7965
  140.5741  144.0058  150.6232 LP  0  0  0  0  0  0  0  0  0  0  0  0  # atno 17342 bound_to 10162
  140.3186  143.3152  152.0807 LP  0  0  0  0  0  0  0  0  0  0  0  0  # atno 17343 bound_to 10162
  157.3985  130.7320  149.6750 LP  0  0  0  0  0  0  0  0  0  0  0  0  # atno 17370 bound_to 10713
  155.9729  130.4127  150.4045 LP  0  0  0  0  0  0  0  0  0  0  0  0  # atno 17371 bound_to 10713
  141.1498  133.8988  157.2125 LP  0  0  0  0  0  0  0  0  0  0  0  0  # atno 17394 bound_to 11000
  139.9787  135.0105  156.9695 LP  0  0  0  0  0  0  0  0  0  0  0  0  # atno 17395 bound_to 11000

$$$$
