AV-unprocessed.smi:34|AV-procd|sdf|233|dock4
  -GOLD-   2262015563D 1   1.00000     0.00000
 Structure written by MMmdl.
 54 58  0  0  0  0  0  0  0  0  2 V2000
  153.4507  140.2967  160.0848 O   0  0  0  0  0  0  0  0  0  0  0  0
  152.5204  140.6993  159.3830 C   0  0  0  0  0  0  0  0  0  0  0  0
  151.6400  139.9598  158.6619 N   0  5  0  0  0  0  0  0  0  0  0  0
  152.0642  138.8802  157.9875 C   0  0  0  0  0  0  0  0  0  0  0  0
  153.3589  138.7845  157.5916 N   0  0  0  0  0  0  0  0  0  0  0  0
  153.7783  137.7147  156.9067 C   0  0  0  0  0  0  0  0  0  0  0  0
  153.0806  136.6466  156.5103 N   0  0  0  0  0  0  0  0  0  0  0  0
  151.7751  136.7297  156.8966 C   0  0  0  0  0  0  0  0  0  0  0  0
  151.1997  137.8090  157.6296 C   0  0  0  0  0  0  0  0  0  0  0  0
  149.8501  137.5857  157.8572 N   0  0  0  0  0  0  0  0  0  0  0  0
  149.6707  136.4059  157.2685 C   0  0  0  0  0  0  0  0  0  0  0  0
  150.7388  135.8341  156.6779 N   0  0  0  0  0  0  0  0  0  0  0  0
  150.7592  134.5283  155.9495 C   0  0  2  0  0  0  0  0  0  0  0  0
  150.1179  134.6843  154.7173 O   0  0  0  0  0  0  0  0  0  0  0  0
  149.2429  133.5810  154.4551 C   0  0  2  0  0  0  0  0  0  0  0  0
  147.7820  134.0509  154.4923 C   0  0  0  0  0  0  0  0  0  0  0  0
  147.1818  133.8410  153.2245 O   0  0  0  0  0  0  0  0  0  0  0  0
  145.8400  133.8704  153.1029 C   0  0  0  0  0  0  0  0  0  0  0  0
  145.0841  134.2936  153.9802 O   0  0  0  0  0  0  0  0  0  0  0  0
  145.3629  133.3385  151.7943 C   0  0  0  0  0  0  0  0  0  0  0  0
  143.9733  133.2013  151.5683 C   0  0  0  0  0  0  0  0  0  0  0  0
  143.4914  132.7035  150.3421 C   0  0  0  0  0  0  0  0  0  0  0  0
  144.3935  132.3371  149.3265 C   0  0  0  0  0  0  0  0  0  0  0  0
  145.7782  132.4697  149.5385 C   0  0  0  0  0  0  0  0  0  0  0  0
  146.2622  132.9678  150.7640 C   0  0  0  0  0  0  0  0  0  0  0  0
  149.5465  132.5693  155.5627 C   0  0  1  0  0  0  0  0  0  0  0  0
  150.5568  131.8003  155.1461 F   0  0  0  0  0  0  0  0  0  0  0  0
  149.9809  133.4617  156.7138 C   0  0  1  0  0  0  0  0  0  0  0  0
  150.7641  132.7348  157.6390 O   0  0  0  0  0  0  0  0  0  0  0  0
  152.3253  142.1830  159.2180 C   0  0  0  0  0  0  0  0  0  0  0  0
  152.6564  143.0553  160.2800 C   0  0  0  0  0  0  0  0  0  0  0  0
  152.4573  144.4443  160.1551 C   0  0  0  0  0  0  0  0  0  0  0  0
  151.9165  144.9754  158.9693 C   0  0  0  0  0  0  0  0  0  0  0  0
  151.5705  144.1158  157.9100 C   0  0  0  0  0  0  0  0  0  0  0  0
  151.7684  142.7268  158.0344 C   0  0  0  0  0  0  0  0  0  0  0  0
  154.8233  137.7149  156.6341 H   0  0  0  0  0  0  0  0  0  0  0  0
  148.7009  135.9304  157.2602 H   0  0  0  0  0  0  0  0  0  0  0  0
  151.8123  134.2855  155.7970 H   0  0  0  0  0  0  0  0  0  0  0  0
  149.4607  133.1577  153.4735 H   0  0  0  0  0  0  0  0  0  0  0  0
  147.2274  133.4820  155.2393 H   0  0  0  0  0  0  0  0  0  0  0  0
  147.7258  135.0995  154.7837 H   0  0  0  0  0  0  0  0  0  0  0  0
  143.2612  133.4770  152.3328 H   0  0  0  0  0  0  0  0  0  0  0  0
  142.4279  132.6042  150.1810 H   0  0  0  0  0  0  0  0  0  0  0  0
  144.0236  131.9564  148.3859 H   0  0  0  0  0  0  0  0  0  0  0  0
  146.4717  132.1895  148.7593 H   0  0  0  0  0  0  0  0  0  0  0  0
  147.3308  133.0593  150.8931 H   0  0  0  0  0  0  0  0  0  0  0  0
  148.7102  131.9131  155.8061 H   0  0  0  0  0  0  0  0  0  0  0  0
  149.1138  133.9096  157.2021 H   0  0  0  0  0  0  0  0  0  0  0  0
  150.3215  131.9225  157.8328 H   0  0  0  0  0  0  0  0  0  0  0  0
  153.0711  142.6637  161.1976 H   0  0  0  0  0  0  0  0  0  0  0  0
  152.7189  145.1017  160.9709 H   0  0  0  0  0  0  0  0  0  0  0  0
  151.7633  146.0400  158.8738 H   0  0  0  0  0  0  0  0  0  0  0  0
  151.1494  144.5206  157.0017 H   0  0  0  0  0  0  0  0  0  0  0  0
  151.4852  142.0837  157.2136 H   0  0  0  0  0  0  0  0  0  0  0  0
  1  2  2  0  0  0  0
  2  3  1  0  0  0  0
  2 30  1  0  0  0  0
  3  4  1  0  0  0  0
  4  9  1  0  0  0  0
  4  5  2  0  0  0  0
  5  6  1  0  0  0  0
  6  7  2  0  0  0  0
  6 36  1  0  0  0  0
  7  8  1  0  0  0  0
  8 12  1  0  0  0  0
  8  9  2  0  0  0  0
  9 10  1  0  0  0  0
 10 11  2  0  0  0  0
 11 12  1  0  0  0  0
 11 37  1  0  0  0  0
 12 13  1  0  0  0  0
 13 28  1  0  0  0  0
 13 14  1  0  0  0  0
 13 38  1  0  0  0  0
 14 15  1  0  0  0  0
 15 16  1  0  0  0  0
 15 26  1  0  0  0  0
 15 39  1  0  0  0  0
 16 17  1  0  0  0  0
 16 40  1  0  0  0  0
 16 41  1  0  0  0  0
 17 18  1  0  0  0  0
 18 19  2  0  0  0  0
 18 20  1  0  0  0  0
 20 25  1  0  0  0  0
 20 21  2  0  0  0  0
 21 22  1  0  0  0  0
 21 42  1  0  0  0  0
 22 23  2  0  0  0  0
 22 43  1  0  0  0  0
 23 24  1  0  0  0  0
 23 44  1  0  0  0  0
 24 25  2  0  0  0  0
 24 45  1  0  0  0  0
 25 46  1  0  0  0  0
 26 27  1  0  0  0  0
 26 28  1  0  0  0  0
 26 47  1  0  0  0  0
 28 29  1  0  0  0  0
 28 48  1  0  0  0  0
 29 49  1  0  0  0  0
 30 35  1  0  0  0  0
 30 31  2  0  0  0  0
 31 32  1  0  0  0  0
 31 50  1  0  0  0  0
 32 33  2  0  0  0  0
 32 51  1  0  0  0  0
 33 34  1  0  0  0  0
 33 52  1  0  0  0  0
 34 35  2  0  0  0  0
 34 53  1  0  0  0  0
 35 54  1  0  0  0  0
M  CHG  1   3  -1
M  END
> <s_m_source_file>
AV-unprocessed.smi

> <i_m_source_file_index>
34

> <i_lp_mmshare_version>
43012

> <i_f3d_flags>
0

> <s_epik_input>
W2NIXTFbY0hdW2NIXVtjSF1bY0hdYzFDKD1PKVtOSF1jKG5bY0hdbjIpYyhjMjMpbltjSF1uM1tDQEBIXTRPW0NASF0oW0NAQEhdKEYpW0NASF00W09IXSlbQ0gyXU9DKD1PKWM1W2NIXVtjSF1bY0hdW2NIXVtjSF01

> <s_epik_cmdline>
J2VwaWtfcHl0aG9uJywgJy1waCcsICc3LjAnLCAnLXRuJywgJzgnLCAnLW1hJywgJzIwMCcsICctbWV0YWxfYmluZGluZycsICctaW1hZScsICc8aW5maWxlLm1hZT4nLCAnLW9tYWUnLCAnPG91dGZpbGUubWFlPic=

> <r_lp_tautomer_probability>
1

> <r_epik_Ionization_Penalty>
4.33227

> <r_epik_Ionization_Penalty_Charging>
3.41027

> <r_epik_Ionization_Penalty_Neutral>
0.922001

> <r_epik_State_Penalty>
3.41358

> <r_epik_Charging_Adjusted_Penalty>
6.82385

> <i_epik_Tot_Q>
-1

> <i_epik_Tot_abs_Q>
1

> <r_epik_Metal_State_Penalty>
0.496292

> <b_epik_Metal_Only>
1

> <s_epik_Chemistry_Notes>
This compound has an ester and may undergo hydrolysis at high or low pH. This compound contains an acetal/aminal-like group ( X-CH(R)-Y where X, Y are N, S, or O) that may be acid/base labile, releasing an aldehyde.

> <s_lp_Force_Field>
OPLS_2005

> <r_lp_Energy>
46.7296

> <b_lp_Chiralities_Consistent>
1

> <s_lp_Variant>
AV-unprocessed.smi:34-19

> <Gold.Version>
5.8.1

> <Gold.Id.Protein>
6NUR|6NUR_protein|mol2

> <Gold.PLP.Fitness>
63.2774

> <Gold.PLP.PLP>
-58.3643

> <Gold.PLP.part.hbond>
-3.0000

> <Gold.PLP.part.metal>
0.0000

> <Gold.PLP.part.buried>
-8.3307

> <Gold.PLP.part.nonpolar>
-48.1293

> <Gold.PLP.part.repulsive>
0.3457

> <Gold.PLP.ligand.clash>
0.0000

> <Gold.PLP.ligand.torsion>
2.1716

> <Gold.PLP.Chemscore.Hbond>
3.0000

> <Gold.PLP.Chemscore.CHOScore>
0.0000

> <Gold.PLP.Chemscore.Metal>
0.0000

> <Gold.Chemscore.Hbonds>
donor molecule, donor type, donor heavy atom, donor atom, acceptor molecule, acceptor atom, score
      P1  H  6896  6907       L1    29  1.00
      P1  H  7997  8010       L1     5  0.90
      P1  H 10752 10763       L1     7  0.94

> <Gold.PLP.Chemscore.Internal.Correction>
0.2562

> <Gold.Rescore>
     Score         DG    S(hbond)    S(metal)    S(lipo)     H(rot)  DE(clash)    DE(int)     intcor
     20.51     -24.19       2.52        0.00     146.96       2.69       0.24       3.44       ----

> <Gold.Chemscore.Fitness>
20.5128

> <Gold.Chemscore.DG>
-24.1942

> <Gold.Chemscore.ZeroCoef>
-5.4800

> <Gold.Chemscore.Hbond>
2.5203

> <Gold.Chemscore.Metal>
0.0000

> <Gold.Chemscore.Lipo>
146.9580

> <Gold.Chemscore.Internal_Hbond>
0.0000

> <Gold.Chemscore.DEClash>
0.2400

> <Gold.Chemscore.DEInternal>
3.4415

> <Gold.Chemscore.Rot>
2.6944

> <Gold.Chemscore.Internal.Correction>
   9.000000E+99

> <Gold.Chemscore.Hbonds>
donor molecule, donor type, donor heavy atom, donor atom, acceptor molecule, acceptor atom, score
      P1  H  6896  6907       L1    29  0.54
      P1  H  7997  8010       L1     5  0.18
      P1  H 10752 10763       L1     7  0.87

> <Gold.Chemscore.Hbond.Weighted>
-8.4177

> <Gold.Chemscore.Metal.Weighted>
-0.0000

> <Gold.Chemscore.Lipo.Weighted>
-17.1941

> <Gold.Chemscore.Internal_Hbond.Weighted>
0.0000

> <Gold.Chemscore.DEClash.Weighted>
0.2400

> <Gold.Chemscore.DEInternal.Weighted>
3.4415

> <Gold.Chemscore.Rot.Weighted>
6.8975

> <Gold.Chemscore.Internal.Correction.Weighted>
   9.000000E+99

> <Gold.Protein.RotatedTorsions>
[ 6907 6896 6895 6894 ] final -153.98 input  -60.11 | X-H torsion
[ 7974 7965 7964 7962 ] final   23.91 input  175.53 | X-H torsion
[ 8008 7997 7996 7995 ] final   44.86 input   59.86 | X-H torsion
[ 10167 10162 10161 10158 ] final  -78.45 input  -65.29 | X-H torsion
[ 10718 10713 10712 10709 ] final  -27.50 input   66.30 | X-H torsion
[ 10763 10752 10751 10750 ] final  115.80 input  -60.55 | X-H torsion
[ 11005 11000 10999 10996 ] final  109.23 input  -57.11 | X-H torsion

> <Gold.Protein.ActiveResidues>
 VAL166  LYS551  ARG553  GLY616  TRP617  ASP618  TYR619  PRO620  LYS621  CYS622 
 ASP623  PHE694  ASN695  SER759  ASP760  ASP761  ALA762  ILE779  LEU786  VAL792 
 PHE793  MET794  SER795  GLU796  ALA797  LYS798  CYS799  TRP800  GLU811  SER814 

> <Gold.Protein.RotatedAtoms>
  151.2507  133.4351  159.2611 H   0  0  0  0  0  0  0  0  0  0  0  0  # atno 6907 bound_to 6896
  151.0620  134.9743  159.8275 H   0  0  0  0  0  0  0  0  0  0  0  0  # atno 6908 bound_to 6896
  152.5399  134.2457  159.8932 H   0  0  0  0  0  0  0  0  0  0  0  0  # atno 6909 bound_to 6896
  146.1962  139.7679  142.8795 H   0  0  0  0  0  0  0  0  0  0  0  0  # atno 7974 bound_to 7965
  155.3263  140.3400  155.4240 H   0  0  0  0  0  0  0  0  0  0  0  0  # atno 8008 bound_to 7997
  156.1884  140.1688  156.8178 H   0  0  0  0  0  0  0  0  0  0  0  0  # atno 8009 bound_to 7997
  154.5413  140.0724  156.8497 H   0  0  0  0  0  0  0  0  0  0  0  0  # atno 8010 bound_to 7997
  140.4681  143.2434  151.8247 H   0  0  0  0  0  0  0  0  0  0  0  0  # atno 10167 bound_to 10162
  156.4374  130.4457  149.7076 H   0  0  0  0  0  0  0  0  0  0  0  0  # atno 10718 bound_to 10713
  153.5277  135.3584  155.2661 H   0  0  0  0  0  0  0  0  0  0  0  0  # atno 10763 bound_to 10752
  154.8729  135.4061  154.3187 H   0  0  0  0  0  0  0  0  0  0  0  0  # atno 10764 bound_to 10752
  153.3870  135.7070  153.6590 H   0  0  0  0  0  0  0  0  0  0  0  0  # atno 10765 bound_to 10752
  139.8858  134.9452  156.6094 H   0  0  0  0  0  0  0  0  0  0  0  0  # atno 11005 bound_to 11000
  145.3634  141.0330  143.3272 LP  0  0  0  0  0  0  0  0  0  0  0  0  # atno 17320 bound_to 7965
  144.8586  139.5211  143.6823 LP  0  0  0  0  0  0  0  0  0  0  0  0  # atno 17321 bound_to 7965
  139.4814  144.4926  151.9165 LP  0  0  0  0  0  0  0  0  0  0  0  0  # atno 17342 bound_to 10162
  140.4011  144.2491  150.5893 LP  0  0  0  0  0  0  0  0  0  0  0  0  # atno 17343 bound_to 10162
  156.3955  130.7648  151.2652 LP  0  0  0  0  0  0  0  0  0  0  0  0  # atno 17370 bound_to 10713
  157.7507  131.0255  150.3923 LP  0  0  0  0  0  0  0  0  0  0  0  0  # atno 17371 bound_to 10713
  140.7823  133.8650  155.8578 LP  0  0  0  0  0  0  0  0  0  0  0  0  # atno 17394 bound_to 11000
  140.9749  134.1482  157.4544 LP  0  0  0  0  0  0  0  0  0  0  0  0  # atno 17395 bound_to 11000

$$$$
