#       Name:                AV-unprocessed.smi:1225
#       Creating user name   scv26
#       Creation time:       Fri Mar 27 04:21:11 2020


#       File generated by GOLD software.
#

@<TRIPOS>MOLECULE
AV-unprocessed.smi:1225
    53    55     1
SMALL
NO_CHARGES


@<TRIPOS>ATOM
      1 ****        -5.4843   5.2432   1.9371 C.3            1 S1                 0.0000
      2 ****        -4.8437   4.2028   1.0834 C.2            1 S1                 0.0000
      3 ****        -4.5506   4.3817  -0.2066 N.2            1 S1                 0.0000
      4 ****        -3.9606   3.2544  -0.7816 C.2            1 S1                 0.0000
      5 ****        -3.8017   2.2055   0.0908 C.2            1 S1                 0.0000
      6 ****        -3.2067   0.8634  -0.1904 C.3            1 S1                 0.0000
      7 ****        -1.8546   0.6974   0.4014 N.4            1 S1                 1.0000
      8 ****        -0.8490   1.6029  -0.2091 C.3            1 S1                 0.0000
      9 ****        -1.4157  -0.7224   0.4126 C.3            1 S1                 0.0000
     10 ****        -0.3942  -1.0173   1.5336 C.3            1 S1                 0.0000
     11 ****        -1.0170  -0.8011   2.7835 O.3            1 S1                 0.0000
     12 ****         0.1368  -2.4649   1.5162 C.3            1 S1                 0.0000
     13 ****         0.7528  -2.8187   0.2503 N.pl3          1 S1                 0.0000
     14 ****         0.2765  -3.6746  -0.6748 C.2            1 S1                 0.0000
     15 ****         1.0013  -3.8453  -1.7761 N.2            1 S1                 0.0000
     16 ****         2.0813  -3.0144  -1.5319 C.ar           1 S1                 0.0000
     17 ****         3.2219  -2.7384  -2.3169 C.ar           1 S1                 0.0000
     18 ****         4.2153  -1.8424  -1.8618 C.ar           1 S1                 0.0000
     19 ****         5.4265  -1.5754  -2.7383 C.3            1 S1                 0.0000
     20 ****         4.0756  -1.2067  -0.6018 C.ar           1 S1                 0.0000
     21 ****         5.1330  -0.2445  -0.0901 C.3            1 S1                 0.0000
     22 ****         2.9414  -1.4700   0.1944 C.ar           1 S1                 0.0000
     23 ****         1.9588  -2.3619  -0.2703 C.ar           1 S1                 0.0000
     24 ****        -4.3980   2.6092   1.6805 S.3            1 S1                 0.0000
     25 ****        -5.6244   6.1681   1.3767 H              1 S1                 0.0000
     26 ****        -4.8575   5.4518   2.8042 H              1 S1                 0.0000
     27 ****        -6.4571   4.8937   2.2832 H              1 S1                 0.0000
     28 ****        -3.6802   3.2864  -1.8241 H              1 S1                 0.0000
     29 ****        -3.8795   0.1061   0.2136 H              1 S1                 0.0000
     30 ****        -3.1585   0.6873  -1.2661 H              1 S1                 0.0000
     31 ****        -0.7293   1.3912  -1.2723 H              1 S1                 0.0000
     32 ****         0.1255   1.5010   0.2660 H              1 S1                 0.0000
     33 ****        -1.1425   2.6472  -0.1030 H              1 S1                 0.0000
     34 ****        -2.2723  -1.3827   0.5560 H              1 S1                 0.0000
     35 ****        -1.0086  -0.9675  -0.5693 H              1 S1                 0.0000
     36 ****         0.4547  -0.3384   1.4625 H              1 S1                 0.0000
     37 ****        -0.3846  -0.9629   3.4679 H              1 S1                 0.0000
     38 ****         0.8760  -2.6086   2.3055 H              1 S1                 0.0000
     39 ****        -0.6735  -3.1684   1.7146 H              1 S1                 0.0000
     40 ****        -0.6603  -4.1948  -0.5365 H              1 S1                 0.0000
     41 ****         3.3290  -3.2238  -3.2759 H              1 S1                 0.0000
     42 ****         6.3449  -1.8359  -2.2125 H              1 S1                 0.0000
     43 ****         5.4722  -0.5221  -3.0151 H              1 S1                 0.0000
     44 ****         5.3905  -2.1613  -3.6570 H              1 S1                 0.0000
     45 ****         4.8568   0.1719   0.8789 H              1 S1                 0.0000
     46 ****         5.2650   0.5852  -0.7848 H              1 S1                 0.0000
     47 ****         6.0890  -0.7556   0.0255 H              1 S1                 0.0000
     48 ****         2.8255  -0.9942   1.1568 H              1 S1                 0.0000
     49 ****        -1.9445   0.9632   1.3720 H              1 S1                 0.0000
     50 ****        -4.7333   5.2288  -0.7056 LP             1 S1                 0.0000
     51 ****        -1.7917  -1.4251   2.8863 LP             1 S1                 0.0000
     52 ****        -1.3402   0.1436   2.8399 LP             1 S1                 0.0000
     53 ****         0.8153  -4.4221  -2.5716 LP             1 S1                 0.0000
@<TRIPOS>BOND
    1    1    2 1     
    2    1   25 1     
    3    1   26 1     
    4    1   27 1     
    5    2   24 1     
    6    2    3 2     
    7    3    4 1     
    8    4    5 2     
    9    4   28 1     
   10    5    6 1     
   11    5   24 1     
   12    6    7 1     
   13    6   29 1     
   14    6   30 1     
   15    7    8 1     
   16    7    9 1     
   17    7   49 1     
   18    8   31 1     
   19    8   32 1     
   20    8   33 1     
   21    9   10 1     
   22    9   34 1     
   23    9   35 1     
   24   10   11 1     
   25   10   12 1     
   26   10   36 1     
   27   11   37 1     
   28   12   13 1     
   29   12   38 1     
   30   12   39 1     
   31   13   23 1     
   32   13   14 1     
   33   14   15 2     
   34   14   40 1     
   35   15   16 1     
   36   16   23 ar    
   37   16   17 ar    
   38   17   18 ar    
   39   17   41 1     
   40   18   19 1     
   41   18   20 ar    
   42   19   42 1     
   43   19   43 1     
   44   19   44 1     
   45   20   21 1     
   46   20   22 ar    
   47   21   45 1     
   48   21   46 1     
   49   21   47 1     
   50   22   23 ar    
   51   22   48 1     
   52    3   50 1     
   53   11   51 1     
   54   11   52 1     
   55   15   53 1     
@<TRIPOS>SUBSTRUCTURE
      1 S1             1
@<TRIPOS>SET
LONE_PAIRS      STATIC     ATOMS    <user>   **** ""
4 50 51 52 53
DONOR_HYDROGENS      STATIC     ATOMS    <user>   **** ""
2 49 37
ATOM$BLUE        STATIC     ATOMS    COLORGROUP SYSTEM
4 50 51 52 53
ATOM$RED        STATIC     ATOMS    COLORGROUP SYSTEM
2 49 37
