AV-unprocessed.smi:1356|AV-procd|sdf|5545|dock3
  -GOLD-   22720 5133D 1   1.00000     0.00000
 Structure written by MMmdl.
 42 43  0  0  0  0  0  0  0  0  2 V2000
  152.6123  142.9438  160.5307 C   0  0  0  0  0  0  0  0  0  0  0  0
  152.1059  144.0786  159.6576 C   0  0  1  0  0  0  0  0  0  0  0  0
  152.8461  144.4784  158.4038 C   0  0  0  0  0  0  0  0  0  0  0  0
  151.4544  143.8868  158.2940 C   0  0  1  0  0  0  0  0  0  0  0  0
  151.3180  142.5140  157.7119 C   0  0  0  0  0  0  0  0  0  0  0  0
  151.7405  141.4955  158.2610 O   0  0  0  0  0  0  0  0  0  0  0  0
  150.6959  142.4908  156.5246 N   0  0  0  0  0  0  0  0  0  0  0  0
  150.4370  141.2810  155.7562 C   0  0  0  0  0  0  0  0  0  0  0  0
  149.2549  141.4878  154.7960 C   0  0  0  0  0  0  0  0  0  0  0  0
  148.4170  140.2164  154.6520 C   0  0  0  0  0  0  0  0  0  0  0  0
  147.7204  139.8258  155.5884 O   0  0  0  0  0  0  0  0  0  0  0  0
  148.5074  139.5686  153.4805 N   0  0  0  0  0  0  0  0  0  0  0  0
  147.8470  138.3050  153.1637 C   0  0  0  0  0  0  0  0  0  0  0  0
  146.3153  138.3562  153.3490 C   0  0  0  0  0  0  0  0  0  0  0  0
  145.5715  137.2601  152.6050 C   0  0  0  0  0  0  0  0  0  0  0  0
  144.1894  137.0333  152.7874 C   0  0  0  0  0  0  0  0  0  0  0  0
  143.5620  135.9892  152.0769 C   0  0  0  0  0  0  0  0  0  0  0  0
  144.3279  135.1966  151.1971 C   0  0  0  0  0  0  0  0  0  0  0  0
  145.7037  135.4684  151.0509 C   0  0  0  0  0  0  0  0  0  0  0  0
  146.2687  136.4768  151.7508 N   0  3  0  0  0  0  0  0  0  0  0  0
  153.2336  142.2484  159.9671 H   0  0  0  0  0  0  0  0  0  0  0  0
  151.7724  142.3972  160.9598 H   0  0  0  0  0  0  0  0  0  0  0  0
  153.2145  143.3456  161.3456 H   0  0  0  0  0  0  0  0  0  0  0  0
  151.6733  144.8870  160.2437 H   0  0  0  0  0  0  0  0  0  0  0  0
  152.9480  145.5402  158.1895 H   0  0  0  0  0  0  0  0  0  0  0  0
  153.6978  143.8699  158.1046 H   0  0  0  0  0  0  0  0  0  0  0  0
  150.6450  144.5778  158.0628 H   0  0  0  0  0  0  0  0  0  0  0  0
  150.3756  143.3653  156.1341 H   0  0  0  0  0  0  0  0  0  0  0  0
  151.3345  141.0148  155.1945 H   0  0  0  0  0  0  0  0  0  0  0  0
  150.2307  140.4589  156.4439 H   0  0  0  0  0  0  0  0  0  0  0  0
  148.6097  142.2876  155.1619 H   0  0  0  0  0  0  0  0  0  0  0  0
  149.6203  141.8035  153.8174 H   0  0  0  0  0  0  0  0  0  0  0  0
  149.0941  139.9692  152.7626 H   0  0  0  0  0  0  0  0  0  0  0  0
  148.0981  137.9932  152.1488 H   0  0  0  0  0  0  0  0  0  0  0  0
  148.2655  137.5495  153.8292 H   0  0  0  0  0  0  0  0  0  0  0  0
  146.0712  138.2840  154.4097 H   0  0  0  0  0  0  0  0  0  0  0  0
  145.9386  139.3265  153.0233 H   0  0  0  0  0  0  0  0  0  0  0  0
  143.6174  137.6463  153.4692 H   0  0  0  0  0  0  0  0  0  0  0  0
  142.5066  135.7981  152.2065 H   0  0  0  0  0  0  0  0  0  0  0  0
  143.8670  134.3919  150.6429 H   0  0  0  0  0  0  0  0  0  0  0  0
  146.3644  134.9133  150.4011 H   0  0  0  0  0  0  0  0  0  0  0  0
  147.2662  136.6544  151.6302 H   0  0  0  0  0  0  0  0  0  0  0  0
  1  2  1  0  0  0  0
  1 21  1  0  0  0  0
  1 22  1  0  0  0  0
  1 23  1  0  0  0  0
  2  4  1  0  0  0  0
  2  3  1  0  0  0  0
  2 24  1  0  0  0  0
  3  4  1  0  0  0  0
  3 25  1  0  0  0  0
  3 26  1  0  0  0  0
  4  5  1  0  0  0  0
  4 27  1  0  0  0  0
  5  6  2  0  0  0  0
  5  7  1  0  0  0  0
  7  8  1  0  0  0  0
  7 28  1  0  0  0  0
  8  9  1  0  0  0  0
  8 29  1  0  0  0  0
  8 30  1  0  0  0  0
  9 10  1  0  0  0  0
  9 31  1  0  0  0  0
  9 32  1  0  0  0  0
 10 11  2  0  0  0  0
 10 12  1  0  0  0  0
 12 13  1  0  0  0  0
 12 33  1  0  0  0  0
 13 14  1  0  0  0  0
 13 34  1  0  0  0  0
 13 35  1  0  0  0  0
 14 15  1  0  0  0  0
 14 36  1  0  0  0  0
 14 37  1  0  0  0  0
 15 20  1  0  0  0  0
 15 16  2  0  0  0  0
 16 17  1  0  0  0  0
 16 38  1  0  0  0  0
 17 18  2  0  0  0  0
 17 39  1  0  0  0  0
 18 19  1  0  0  0  0
 18 40  1  0  0  0  0
 19 20  2  0  0  0  0
 19 41  1  0  0  0  0
 20 42  1  0  0  0  0
M  CHG  1  20   1
M  END
> <s_m_source_file>
AV-unprocessed.smi

> <i_m_source_file_index>
1356

> <i_lp_mmshare_version>
43012

> <i_f3d_flags>
0

> <s_epik_input>
W0NIM11bQ0BASF0xW0NIMl1bQ0BIXTFDKD1PKVtOSF1bQ0gyXVtDSDJdQyg9TylbTkhdW0NIMl1bQ0gyXWMyW2NIXVtjSF1bY0hdW2NIXW4y

> <s_epik_cmdline>
J2VwaWtfcHl0aG9uJywgJy1waCcsICc3LjAnLCAnLXRuJywgJzgnLCAnLW1hJywgJzIwMCcsICctbWV0YWxfYmluZGluZycsICctaW1hZScsICc8aW5maWxlLm1hZT4nLCAnLW9tYWUnLCAnPG91dGZpbGUubWFlPic=

> <r_epik_Ionization_Penalty>
1.86966

> <r_epik_Ionization_Penalty_Charging>
1.86966

> <r_epik_Ionization_Penalty_Neutral>
5.0403e-08

> <r_epik_State_Penalty>
1.98858

> <r_epik_Charging_Adjusted_Penalty>
3.85824

> <i_epik_Tot_Q>
1

> <i_epik_Tot_abs_Q>
1

> <r_epik_Metal_State_Penalty>
2.01347

> <b_epik_Metal_Only>
0

> <s_lp_Force_Field>
OPLS_2005

> <r_lp_Energy>
15.5699

> <b_lp_Chiralities_Consistent>
1

> <s_lp_Variant>
AV-unprocessed.smi:1356-6

> <Gold.Version>
5.8.1

> <Gold.Id.Protein>
6NUR|6NUR_protein|mol2

> <Gold.PLP.Fitness>
53.2498

> <Gold.PLP.PLP>
-42.4720

> <Gold.PLP.part.hbond>
-3.0000

> <Gold.PLP.part.metal>
0.0000

> <Gold.PLP.part.buried>
-2.0492

> <Gold.PLP.part.nonpolar>
-37.2524

> <Gold.PLP.part.repulsive>
0.2640

> <Gold.PLP.ligand.clash>
0.0000

> <Gold.PLP.ligand.torsion>
0.7372

> <Gold.PLP.Chemscore.Hbond>
4.0000

> <Gold.PLP.Chemscore.CHOScore>
0.0000

> <Gold.PLP.Chemscore.Metal>
0.0000

> <Gold.Chemscore.Hbonds>
donor molecule, donor type, donor heavy atom, donor atom, acceptor molecule, acceptor atom, score
      L1  H     7    28       P1  8028  0.93
      L1  H    12    33       P1  7957  1.00
      L1  H    20    42       P1  7948  2.00

> <Gold.PLP.Chemscore.Internal.Correction>
0.2521

> <Gold.Rescore>
     Score         DG    S(hbond)    S(metal)    S(lipo)     H(rot)  DE(clash)    DE(int)     intcor
     18.40     -21.72       2.91        0.00     106.32       2.31       1.29       2.03       ----

> <Gold.Chemscore.Fitness>
18.4016

> <Gold.Chemscore.DG>
-21.7219

> <Gold.Chemscore.ZeroCoef>
-5.4800

> <Gold.Chemscore.Hbond>
2.9122

> <Gold.Chemscore.Metal>
0.0000

> <Gold.Chemscore.Lipo>
106.3159

> <Gold.Chemscore.Internal_Hbond>
0.0000

> <Gold.Chemscore.DEClash>
1.2946

> <Gold.Chemscore.DEInternal>
2.0256

> <Gold.Chemscore.Rot>
2.3140

> <Gold.Chemscore.Internal.Correction>
   9.000000E+99

> <Gold.Chemscore.Hbonds>
donor molecule, donor type, donor heavy atom, donor atom, acceptor molecule, acceptor atom, score
      L1  H     7    28       P1  8028  0.86
      L1  H    12    33       P1  7957  0.94
      L1  H    20    42       P1  7948  0.97

> <Gold.Chemscore.Hbond.Weighted>
-9.7268

> <Gold.Chemscore.Metal.Weighted>
-0.0000

> <Gold.Chemscore.Lipo.Weighted>
-12.4390

> <Gold.Chemscore.Internal_Hbond.Weighted>
0.0000

> <Gold.Chemscore.DEClash.Weighted>
1.2946

> <Gold.Chemscore.DEInternal.Weighted>
2.0256

> <Gold.Chemscore.Rot.Weighted>
5.9238

> <Gold.Chemscore.Internal.Correction.Weighted>
   9.000000E+99

> <Gold.Protein.RotatedTorsions>
[ 6907 6896 6895 6894 ] final  -21.64 input  -60.11 | X-H torsion
[ 7974 7965 7964 7962 ] final -158.82 input  175.53 | X-H torsion
[ 8008 7997 7996 7995 ] final  101.47 input   59.86 | X-H torsion
[ 10167 10162 10161 10158 ] final  172.01 input  -65.29 | X-H torsion
[ 10718 10713 10712 10709 ] final -116.78 input   66.30 | X-H torsion
[ 10763 10752 10751 10750 ] final -152.63 input  -60.55 | X-H torsion
[ 11005 11000 10999 10996 ] final   88.44 input  -57.11 | X-H torsion

> <Gold.Protein.ActiveResidues>
 VAL166  LYS551  ARG553  GLY616  TRP617  ASP618  TYR619  PRO620  LYS621  CYS622 
 ASP623  PHE694  ASN695  SER759  ASP760  ASP761  ALA762  ILE779  LEU786  VAL792 
 PHE793  MET794  SER795  GLU796  ALA797  LYS798  CYS799  TRP800  GLU811  SER814 

> <Gold.Protein.RotatedAtoms>
  151.2304  135.0552  159.8984 H   0  0  0  0  0  0  0  0  0  0  0  0  # atno 6907 bound_to 6896
  152.5405  134.0543  159.8134 H   0  0  0  0  0  0  0  0  0  0  0  0  # atno 6908 bound_to 6896
  151.0722  133.5408  159.2658 H   0  0  0  0  0  0  0  0  0  0  0  0  # atno 6909 bound_to 6896
  144.7490  140.3774  143.6062 H   0  0  0  0  0  0  0  0  0  0  0  0  # atno 7974 bound_to 7965
  156.1302  140.3197  155.8337 H   0  0  0  0  0  0  0  0  0  0  0  0  # atno 8008 bound_to 7997
  155.4346  140.0521  157.3033 H   0  0  0  0  0  0  0  0  0  0  0  0  # atno 8009 bound_to 7997
  154.4893  140.2086  155.9597 H   0  0  0  0  0  0  0  0  0  0  0  0  # atno 8010 bound_to 7997
  139.5063  144.3422  152.0007 H   0  0  0  0  0  0  0  0  0  0  0  0  # atno 10167 bound_to 10162
  156.0987  130.6154  150.9080 H   0  0  0  0  0  0  0  0  0  0  0  0  # atno 10718 bound_to 10713
  154.7981  135.3231  154.7617 H   0  0  0  0  0  0  0  0  0  0  0  0  # atno 10763 bound_to 10752
  153.8291  135.6881  153.4821 H   0  0  0  0  0  0  0  0  0  0  0  0  # atno 10764 bound_to 10752
  153.1683  135.4633  154.9810 H   0  0  0  0  0  0  0  0  0  0  0  0  # atno 10765 bound_to 10752
  139.8896  134.8488  156.3000 H   0  0  0  0  0  0  0  0  0  0  0  0  # atno 11005 bound_to 11000
  145.7014  139.1662  143.2591 LP  0  0  0  0  0  0  0  0  0  0  0  0  # atno 17320 bound_to 7965
  146.1413  140.7054  142.9366 LP  0  0  0  0  0  0  0  0  0  0  0  0  # atno 17321 bound_to 7965
  140.2860  144.3807  150.6103 LP  0  0  0  0  0  0  0  0  0  0  0  0  # atno 17342 bound_to 10162
  140.5982  143.2167  151.7122 LP  0  0  0  0  0  0  0  0  0  0  0  0  # atno 17343 bound_to 10162
  157.6153  131.0933  150.8721 LP  0  0  0  0  0  0  0  0  0  0  0  0  # atno 17370 bound_to 10713
  156.8853  130.5194  149.5289 LP  0  0  0  0  0  0  0  0  0  0  0  0  # atno 17371 bound_to 10713
  140.9919  133.7203  156.0827 LP  0  0  0  0  0  0  0  0  0  0  0  0  # atno 17394 bound_to 11000
  140.7613  134.3936  157.5525 LP  0  0  0  0  0  0  0  0  0  0  0  0  # atno 17395 bound_to 11000

$$$$
