#       Name:                AV-unprocessed.smi:2223
#       Creating user name   scv26
#       Creation time:       Fri Mar 27 12:20:16 2020


#       File generated by GOLD software.
#

@<TRIPOS>MOLECULE
AV-unprocessed.smi:2223
    51    52     1
SMALL
NO_CHARGES


@<TRIPOS>ATOM
      1 ****        -5.7082   3.8728  -0.3248 C.3            1 S1                 0.0000
      2 ****        -5.0834   2.4996  -0.1945 C.ar           1 S1                 0.0000
      3 ****        -5.8402   1.3378  -0.4394 C.ar           1 S1                 0.0000
      4 ****        -5.2030   0.0887  -0.3055 C.ar           1 S1                 0.0000
      5 ****        -5.9575  -1.2003  -0.5548 C.3            1 S1                 0.0000
      6 ****        -3.9049  -0.0428   0.0422 N.ar           1 S1                 0.0000
      7 ****        -3.1661   1.0694   0.2798 C.ar           1 S1                 0.0000
      8 ****        -1.7972   1.0405   0.6563 N.am           1 S1                 0.0000
      9 ****        -0.9981  -0.0305   0.8055 C.2            1 S1                 0.0000
     10 ****        -1.3287  -1.2009   0.6128 O.2            1 S1                 0.0000
     11 ****         0.2330   0.3342   1.1912 N.am           1 S1                 0.0000
     12 ****         1.3403  -0.5869   1.4329 C.3            1 S1                 0.0000
     13 ****         2.4647   0.0778   2.2288 C.3            1 S1                 0.0000
     14 ****         3.7194  -0.2712   1.4482 C.2            1 S1                 0.0000
     15 ****         4.8371   0.0391   1.8580 O.2            1 S1                 0.0000
     16 ****         3.4381  -0.9254   0.3052 N.am           1 S1                 0.0000
     17 ****         4.4100  -1.3778  -0.7252 C.3            1 S1                 0.0000
     18 ****         5.1286  -0.1520  -1.3312 C.3            1 S1                 0.0000
     19 ****         3.7160  -2.1363  -1.8819 C.3            1 S1                 0.0000
     20 ****         5.4482  -2.3347  -0.0963 C.3            1 S1                 0.0000
     21 ****         1.9931  -1.0544   0.1199 C.3            1 S1                 0.0000
     22 ****        -3.7289   2.3608   0.1697 C.ar           1 S1                 0.0000
     23 ****        -6.7946   3.8184  -0.2473 H              1 S1                 0.0000
     24 ****        -5.4540   4.3111  -1.2900 H              1 S1                 0.0000
     25 ****        -5.3457   4.5363   0.4608 H              1 S1                 0.0000
     26 ****        -6.8806   1.4026  -0.7229 H              1 S1                 0.0000
     27 ****        -7.0324  -1.0243  -0.6040 H              1 S1                 0.0000
     28 ****        -5.7683  -1.9163   0.2457 H              1 S1                 0.0000
     29 ****        -5.6399  -1.6464  -1.4974 H              1 S1                 0.0000
     30 ****        -1.3790   1.9409   0.8369 H              1 S1                 0.0000
     31 ****         0.4200   1.3170   1.3257 H              1 S1                 0.0000
     32 ****         0.9834  -1.4536   1.9932 H              1 S1                 0.0000
     33 ****         2.3615   1.1631   2.2707 H              1 S1                 0.0000
     34 ****         2.5217  -0.3034   3.2490 H              1 S1                 0.0000
     35 ****         5.8106  -0.4487  -2.1288 H              1 S1                 0.0000
     36 ****         5.7217   0.3880  -0.5933 H              1 S1                 0.0000
     37 ****         4.4137   0.5524  -1.7583 H              1 S1                 0.0000
     38 ****         2.9812  -1.5165  -2.3968 H              1 S1                 0.0000
     39 ****         3.2139  -3.0389  -1.5322 H              1 S1                 0.0000
     40 ****         4.4408  -2.4520  -2.6332 H              1 S1                 0.0000
     41 ****         6.1206  -2.7383  -0.8539 H              1 S1                 0.0000
     42 ****         4.9605  -3.1802   0.3903 H              1 S1                 0.0000
     43 ****         6.0756  -1.8433   0.6466 H              1 S1                 0.0000
     44 ****         1.7004  -2.0825  -0.0944 H              1 S1                 0.0000
     45 ****         1.6868  -0.4319  -0.7227 H              1 S1                 0.0000
     46 ****        -3.1289   3.2389   0.3612 H              1 S1                 0.0000
     47 ****        -3.4929  -0.9503   0.1236 LP             1 S1                 0.0000
     48 ****        -2.2605  -1.4155   0.3200 LP             1 S1                 0.0000
     49 ****        -0.6654  -1.9367   0.7490 LP             1 S1                 0.0000
     50 ****         4.9335   0.5320   2.7227 LP             1 S1                 0.0000
     51 ****         5.6491  -0.2016   1.3264 LP             1 S1                 0.0000
@<TRIPOS>BOND
    1    1    2 1     
    2    1   23 1     
    3    1   24 1     
    4    1   25 1     
    5    2   22 ar    
    6    2    3 ar    
    7    3    4 ar    
    8    3   26 1     
    9    4    5 1     
   10    4    6 ar    
   11    5   27 1     
   12    5   28 1     
   13    5   29 1     
   14    6    7 ar    
   15    7    8 1     
   16    7   22 ar    
   17    8    9 am    
   18    8   30 1     
   19    9   10 2     
   20    9   11 am    
   21   11   12 1     
   22   11   31 1     
   23   12   21 1     
   24   12   13 1     
   25   12   32 1     
   26   13   14 1     
   27   13   33 1     
   28   13   34 1     
   29   14   15 2     
   30   14   16 am    
   31   16   17 1     
   32   16   21 1     
   33   17   18 1     
   34   17   19 1     
   35   17   20 1     
   36   18   35 1     
   37   18   36 1     
   38   18   37 1     
   39   19   38 1     
   40   19   39 1     
   41   19   40 1     
   42   20   41 1     
   43   20   42 1     
   44   20   43 1     
   45   21   44 1     
   46   21   45 1     
   47   22   46 1     
   48    6   47 1     
   49   10   48 1     
   50   10   49 1     
   51   15   50 1     
   52   15   51 1     
@<TRIPOS>SUBSTRUCTURE
      1 S1             1
@<TRIPOS>SET
LONE_PAIRS      STATIC     ATOMS    <user>   **** ""
5 47 48 49 50 51
DONOR_HYDROGENS      STATIC     ATOMS    <user>   **** ""
2 30 31
ATOM$BLUE        STATIC     ATOMS    COLORGROUP SYSTEM
5 47 48 49 50 51
ATOM$RED        STATIC     ATOMS    COLORGROUP SYSTEM
2 30 31
