AV-unprocessed.smi:2298|AV-procd|sdf|9225|dock10
  -GOLD-   2272012443D 1   1.00000     0.00000
 Structure written by MMmdl.
 37 38  0  0  0  0  0  0  0  0  1 V2000
  151.5460  136.7253  157.4182 C   0  0  0  0  0  0  0  0  0  0  0  0
  151.1009  135.4396  156.7468 C   0  0  0  0  0  0  0  0  0  0  0  0
  151.6037  134.3015  157.2727 N   0  0  0  0  0  0  0  0  0  0  0  0
  151.2459  133.1302  156.7084 C   0  0  0  0  0  0  0  0  0  0  0  0
  150.3744  133.0346  155.6068 C   0  0  0  0  0  0  0  0  0  0  0  0
  149.8332  134.2240  155.0610 C   0  0  0  0  0  0  0  0  0  0  0  0
  148.9547  134.2523  153.9407 N   0  0  0  0  0  0  0  0  0  0  0  0
  148.0530  133.3385  153.5420 C   0  0  0  0  0  0  0  0  0  0  0  0
  147.8285  132.2636  154.0974 O   0  0  0  0  0  0  0  0  0  0  0  0
  147.4006  133.7540  152.4467 N   0  0  0  0  0  0  0  0  0  0  0  0
  146.3496  133.0122  151.7562 C   0  0  1  0  0  0  0  0  0  0  0  0
  145.0083  133.7507  151.9150 C   0  0  0  0  0  0  0  0  0  0  0  0
  143.8756  133.0352  151.1580 C   0  0  0  0  0  0  0  0  0  0  0  0
  144.2150  132.8148  149.6719 C   0  0  1  0  0  0  0  0  0  0  0  0
  144.2110  134.0513  148.9858 O   0  0  0  0  0  0  0  0  0  0  0  0
  145.5779  132.1175  149.4999 C   0  0  0  0  0  0  0  0  0  0  0  0
  146.7028  132.8355  150.2660 C   0  0  0  0  0  0  0  0  0  0  0  0
  150.2178  135.4562  155.6416 C   0  0  0  0  0  0  0  0  0  0  0  0
  149.6172  136.9561  155.0163 Cl  0  0  0  0  0  0  0  0  0  0  0  0
  146.2471  132.0260  152.2137 H   0  0  0  0  0  0  0  0  0  0  0  0
  143.4390  132.1979  149.2174 H   0  0  0  0  0  0  0  0  0  0  0  0
  150.6815  137.2862  157.7746 H   0  0  0  0  0  0  0  0  0  0  0  0
  152.0962  137.3497  156.7137 H   0  0  0  0  0  0  0  0  0  0  0  0
  152.1944  136.5283  158.2733 H   0  0  0  0  0  0  0  0  0  0  0  0
  151.6725  132.2394  157.1449 H   0  0  0  0  0  0  0  0  0  0  0  0
  150.1536  132.0592  155.2033 H   0  0  0  0  0  0  0  0  0  0  0  0
  148.9715  135.1109  153.4101 H   0  0  0  0  0  0  0  0  0  0  0  0
  147.6475  134.6529  152.0596 H   0  0  0  0  0  0  0  0  0  0  0  0
  144.7481  133.8284  152.9712 H   0  0  0  0  0  0  0  0  0  0  0  0
  145.1024  134.7733  151.5463 H   0  0  0  0  0  0  0  0  0  0  0  0
  143.6946  132.0676  151.6278 H   0  0  0  0  0  0  0  0  0  0  0  0
  142.9461  133.5976  151.2548 H   0  0  0  0  0  0  0  0  0  0  0  0
  144.9954  134.1070  148.4616 H   0  0  0  0  0  0  0  0  0  0  0  0
  145.5006  131.0936  149.8678 H   0  0  0  0  0  0  0  0  0  0  0  0
  145.8338  132.0404  148.4425 H   0  0  0  0  0  0  0  0  0  0  0  0
  146.8880  133.8099  149.8116 H   0  0  0  0  0  0  0  0  0  0  0  0
  147.6293  132.2693  150.1641 H   0  0  0  0  0  0  0  0  0  0  0  0
  1  2  1  0  0  0  0
  1 22  1  0  0  0  0
  1 23  1  0  0  0  0
  1 24  1  0  0  0  0
  2 18  1  0  0  0  0
  2  3  2  0  0  0  0
  3  4  1  0  0  0  0
  4  5  2  0  0  0  0
  4 25  1  0  0  0  0
  5  6  1  0  0  0  0
  5 26  1  0  0  0  0
  6  7  1  0  0  0  0
  6 18  2  0  0  0  0
  7  8  1  0  0  0  0
  7 27  1  0  0  0  0
  8  9  2  0  0  0  0
  8 10  1  0  0  0  0
 10 11  1  0  0  0  0
 10 28  1  0  0  0  0
 11 20  1  0  0  0  0
 11 17  1  0  0  0  0
 11 12  1  0  0  0  0
 12 13  1  0  0  0  0
 12 29  1  0  0  0  0
 12 30  1  0  0  0  0
 13 14  1  0  0  0  0
 13 31  1  0  0  0  0
 13 32  1  0  0  0  0
 14 21  1  0  0  0  0
 14 15  1  0  0  0  0
 14 16  1  0  0  0  0
 15 33  1  0  0  0  0
 16 17  1  0  0  0  0
 16 34  1  0  0  0  0
 16 35  1  0  0  0  0
 17 36  1  0  0  0  0
 17 37  1  0  0  0  0
 18 19  1  0  0  0  0
M  END
> <s_m_source_file>
AV-unprocessed.smi

> <i_m_source_file_index>
2298

> <i_lp_mmshare_version>
43012

> <i_f3d_flags>
0

> <s_epik_input>
W0NIM11jMW5bY0hdW2NIXWMoYzFDbClbTkhdQyg9TylbTkhdW0NASF0yW0NIMl1bQ0gyXVtDQEhdKFtPSF0pW0NIMl1bQ0gyXTI=

> <s_epik_cmdline>
J2VwaWtfcHl0aG9uJywgJy1waCcsICc3LjAnLCAnLXRuJywgJzgnLCAnLW1hJywgJzIwMCcsICctbWV0YWxfYmluZGluZycsICctaW1hZScsICc8aW5maWxlLm1hZT4nLCAnLW9tYWUnLCAnPG91dGZpbGUubWFlPic=

> <r_epik_Ionization_Penalty>
0.00999805

> <r_epik_Ionization_Penalty_Charging>
0

> <r_epik_Ionization_Penalty_Neutral>
0.00999805

> <r_epik_State_Penalty>
0.00759022

> <r_epik_Charging_Adjusted_Penalty>
0.00759022

> <i_epik_Tot_Q>
0

> <i_epik_Tot_abs_Q>
0

> <r_epik_Metal_State_Penalty>
0.00746447

> <b_epik_Metal_Only>
0

> <s_lp_Force_Field>
OPLS_2005

> <r_lp_Energy>
16.8241

> <b_lp_Chiralities_Consistent>
1

> <s_lp_Variant>
AV-unprocessed.smi:2298-2

> <Gold.Version>
5.8.1

> <Gold.Id.Protein>
6NUR|6NUR_protein|mol2

> <Gold.PLP.Fitness>
43.5319

> <Gold.PLP.PLP>
-34.8327

> <Gold.PLP.part.hbond>
-4.6155

> <Gold.PLP.part.metal>
0.0000

> <Gold.PLP.part.buried>
-3.6924

> <Gold.PLP.part.nonpolar>
-25.2732

> <Gold.PLP.part.repulsive>
0.0821

> <Gold.PLP.ligand.clash>
0.0000

> <Gold.PLP.ligand.torsion>
0.2277

> <Gold.PLP.Chemscore.Hbond>
3.0505

> <Gold.PLP.Chemscore.CHOScore>
0.0000

> <Gold.PLP.Chemscore.Metal>
0.0000

> <Gold.Chemscore.Hbonds>
donor molecule, donor type, donor heavy atom, donor atom, acceptor molecule, acceptor atom, score
      L1  H     7    27       P1  7948  1.00
      L1  H    10    28       P1  7948  1.00
      L1  H    15    33       P1  7921  1.00
      P1  H  6896  6909       L1     3  0.04

> <Gold.PLP.Chemscore.Internal.Correction>
0.0031

> <Gold.Rescore>
     Score         DG    S(hbond)    S(metal)    S(lipo)     H(rot)  DE(clash)    DE(int)     intcor
     18.12     -18.42       2.28        0.00      76.61       1.42       0.00       0.29       ----

> <Gold.Chemscore.Fitness>
18.1249

> <Gold.Chemscore.DG>
-18.4171

> <Gold.Chemscore.ZeroCoef>
-5.4800

> <Gold.Chemscore.Hbond>
2.2779

> <Gold.Chemscore.Metal>
0.0000

> <Gold.Chemscore.Lipo>
76.6133

> <Gold.Chemscore.Internal_Hbond>
0.0000

> <Gold.Chemscore.DEClash>
0.0000

> <Gold.Chemscore.DEInternal>
0.2922

> <Gold.Chemscore.Rot>
1.4199

> <Gold.Chemscore.Internal.Correction>
   9.000000E+99

> <Gold.Chemscore.Hbonds>
donor molecule, donor type, donor heavy atom, donor atom, acceptor molecule, acceptor atom, score
      L1  H     7    27       P1  7948  0.39
      L1  H    10    28       P1  7948  0.55
      L1  H    15    33       P1  7921  0.95

> <Gold.Chemscore.Hbond.Weighted>
-7.6082

> <Gold.Chemscore.Metal.Weighted>
-0.0000

> <Gold.Chemscore.Lipo.Weighted>
-8.9638

> <Gold.Chemscore.Internal_Hbond.Weighted>
0.0000

> <Gold.Chemscore.DEClash.Weighted>
0.0000

> <Gold.Chemscore.DEInternal.Weighted>
0.2922

> <Gold.Chemscore.Rot.Weighted>
3.6349

> <Gold.Chemscore.Internal.Correction.Weighted>
   9.000000E+99

> <Gold.Protein.RotatedTorsions>
[ 6907 6896 6895 6894 ] final  -54.17 input  -60.11 | X-H torsion
[ 7974 7965 7964 7962 ] final  -90.85 input  175.53 | X-H torsion
[ 8008 7997 7996 7995 ] final   48.23 input   59.86 | X-H torsion
[ 10167 10162 10161 10158 ] final -137.18 input  -65.29 | X-H torsion
[ 10718 10713 10712 10709 ] final  130.26 input   66.30 | X-H torsion
[ 10763 10752 10751 10750 ] final   -4.46 input  -60.55 | X-H torsion
[ 11005 11000 10999 10996 ] final  -76.85 input  -57.11 | X-H torsion

> <Gold.Protein.ActiveResidues>
 VAL166  LYS551  ARG553  GLY616  TRP617  ASP618  TYR619  PRO620  LYS621  CYS622 
 ASP623  PHE694  ASN695  SER759  ASP760  ASP761  ALA762  ILE779  LEU786  VAL792 
 PHE793  MET794  SER795  GLU796  ALA797  LYS798  CYS799  TRP800  GLU811  SER814 

> <Gold.Protein.RotatedAtoms>
  150.8362  134.7635  159.6894 H   0  0  0  0  0  0  0  0  0  0  0  0  # atno 6907 bound_to 6896
  152.4458  134.5494  159.9872 H   0  0  0  0  0  0  0  0  0  0  0  0  # atno 6908 bound_to 6896
  151.5644  133.3361  159.3013 H   0  0  0  0  0  0  0  0  0  0  0  0  # atno 6909 bound_to 6896
  145.4210  140.9551  143.2181 H   0  0  0  0  0  0  0  0  0  0  0  0  # atno 7974 bound_to 7965
  155.3822  140.3429  155.4247 H   0  0  0  0  0  0  0  0  0  0  0  0  # atno 8008 bound_to 7997
  156.1604  140.1599  156.8655 H   0  0  0  0  0  0  0  0  0  0  0  0  # atno 8009 bound_to 7997
  154.5134  140.0784  156.8016 H   0  0  0  0  0  0  0  0  0  0  0  0  # atno 8010 bound_to 7997
  139.8603  143.7085  152.2650 H   0  0  0  0  0  0  0  0  0  0  0  0  # atno 10167 bound_to 10162
  157.5078  131.1096  150.9335 H   0  0  0  0  0  0  0  0  0  0  0  0  # atno 10718 bound_to 10713
  153.3852  135.7000  153.6535 H   0  0  0  0  0  0  0  0  0  0  0  0  # atno 10763 bound_to 10752
  153.5131  135.3628  155.2596 H   0  0  0  0  0  0  0  0  0  0  0  0  # atno 10764 bound_to 10752
  154.8697  135.4139  154.3158 H   0  0  0  0  0  0  0  0  0  0  0  0  # atno 10765 bound_to 10752
  141.1657  133.6999  156.7732 H   0  0  0  0  0  0  0  0  0  0  0  0  # atno 11005 bound_to 11000
  144.8245  139.5734  143.6972 LP  0  0  0  0  0  0  0  0  0  0  0  0  # atno 17320 bound_to 7965
  146.2656  139.6513  142.9331 LP  0  0  0  0  0  0  0  0  0  0  0  0  # atno 17321 bound_to 7965
  139.7380  144.7566  151.0697 LP  0  0  0  0  0  0  0  0  0  0  0  0  # atno 17342 bound_to 10162
  140.7776  143.5007  150.9775 LP  0  0  0  0  0  0  0  0  0  0  0  0  # atno 17343 bound_to 10162
  156.9985  130.5591  149.5309 LP  0  0  0  0  0  0  0  0  0  0  0  0  # atno 17370 bound_to 10713
  156.0270  130.5363  150.8432 LP  0  0  0  0  0  0  0  0  0  0  0  0  # atno 17371 bound_to 10713
  140.2449  134.8585  157.3610 LP  0  0  0  0  0  0  0  0  0  0  0  0  # atno 17394 bound_to 11000
  140.1759  134.4550  155.7802 LP  0  0  0  0  0  0  0  0  0  0  0  0  # atno 17395 bound_to 11000

$$$$
