AV-unprocessed.smi:3348|AV-procd|sdf|12922|dock5
  -GOLD-   2272019343D 1   1.00000     0.00000
 Structure written by MMmdl.
 47 48  0  0  0  0  0  0  0  0  2 V2000
  154.4147  136.4246  159.3703 C   0  0  0  0  0  0  0  0  0  0  0  0
  153.7188  137.4671  158.4796 C   0  0  1  0  0  0  0  0  0  0  0  0
  152.5364  136.8310  157.7195 C   0  0  0  0  0  0  0  0  0  0  0  0
  152.1640  137.5648  156.5206 N   0  0  0  0  0  0  0  0  0  0  0  0
  151.9533  138.9206  156.3794 C   0  0  0  0  0  0  0  0  0  0  0  0
  151.5994  139.1450  155.0800 C   0  0  0  0  0  0  0  0  0  0  0  0
  151.6068  137.8467  154.4983 C   0  0  0  0  0  0  0  0  0  0  0  0
  151.9401  136.9032  155.3641 N   0  0  0  0  0  0  0  0  0  0  0  0
  153.2481  138.6208  159.2797 N   0  3  0  0  0  0  0  0  0  0  0  0
  154.2479  139.2039  160.1982 C   0  0  0  0  0  0  0  0  0  0  0  0
  154.3828  140.7121  159.9695 C   0  0  0  0  0  0  0  0  0  0  0  0
  153.1337  141.3235  160.2560 O   0  0  0  0  0  0  0  0  0  0  0  0
  153.1332  142.7426  160.1580 C   0  0  1  0  0  0  0  0  0  0  0  0
  152.4628  143.1716  158.8352 C   0  0  0  0  0  0  0  0  0  0  0  0
  152.3148  144.6975  158.7461 C   0  0  0  0  0  0  0  0  0  0  0  0
  151.5416  145.2474  159.9523 C   0  0  0  0  0  0  0  0  0  0  0  0
  152.2102  144.8312  161.2709 C   0  0  0  0  0  0  0  0  0  0  0  0
  152.3637  143.3006  161.3767 C   0  0  2  0  0  0  0  0  0  0  0  0
  153.0401  142.9149  162.7024 C   0  0  0  0  0  0  0  0  0  0  0  0
  154.7387  135.5650  158.7827 H   0  0  0  0  0  0  0  0  0  0  0  0
  153.7458  136.0583  160.1499 H   0  0  0  0  0  0  0  0  0  0  0  0
  155.3012  136.8319  159.8557 H   0  0  0  0  0  0  0  0  0  0  0  0
  154.4427  137.8277  157.7473 H   0  0  0  0  0  0  0  0  0  0  0  0
  152.7840  135.8108  157.4231 H   0  0  0  0  0  0  0  0  0  0  0  0
  151.6624  136.7628  158.3692 H   0  0  0  0  0  0  0  0  0  0  0  0
  152.0718  139.6066  157.2054 H   0  0  0  0  0  0  0  0  0  0  0  0
  151.3637  140.0917  154.6167 H   0  0  0  0  0  0  0  0  0  0  0  0
  151.3787  137.5635  153.4813 H   0  0  0  0  0  0  0  0  0  0  0  0
  152.9791  139.3479  158.6320 H   0  0  0  0  0  0  0  0  0  0  0  0
  153.9762  139.0094  161.2356 H   0  0  0  0  0  0  0  0  0  0  0  0
  155.2110  138.7237  160.0211 H   0  0  0  0  0  0  0  0  0  0  0  0
  155.1468  141.1137  160.6367 H   0  0  0  0  0  0  0  0  0  0  0  0
  154.7024  140.9130  158.9468 H   0  0  0  0  0  0  0  0  0  0  0  0
  154.1558  143.1236  160.1921 H   0  0  0  0  0  0  0  0  0  0  0  0
  153.0379  142.8197  157.9793 H   0  0  0  0  0  0  0  0  0  0  0  0
  151.4789  142.7078  158.7569 H   0  0  0  0  0  0  0  0  0  0  0  0
  153.3021  145.1592  158.7021 H   0  0  0  0  0  0  0  0  0  0  0  0
  151.8041  144.9690  157.8218 H   0  0  0  0  0  0  0  0  0  0  0  0
  151.4828  146.3346  159.8924 H   0  0  0  0  0  0  0  0  0  0  0  0
  150.5149  144.8799  159.9293 H   0  0  0  0  0  0  0  0  0  0  0  0
  153.1897  145.3057  161.3449 H   0  0  0  0  0  0  0  0  0  0  0  0
  151.6226  145.2064  162.1094 H   0  0  0  0  0  0  0  0  0  0  0  0
  151.3634  142.8648  161.3759 H   0  0  0  0  0  0  0  0  0  0  0  0
  154.0600  143.2972  162.7531 H   0  0  0  0  0  0  0  0  0  0  0  0
  153.0842  141.8327  162.8268 H   0  0  0  0  0  0  0  0  0  0  0  0
  152.4917  143.3178  163.5542 H   0  0  0  0  0  0  0  0  0  0  0  0
  152.4321  138.3456  159.8079 H   0  0  0  0  0  0  0  0  0  0  0  0
  1  2  1  0  0  0  0
  1 20  1  0  0  0  0
  1 21  1  0  0  0  0
  1 22  1  0  0  0  0
  2  3  1  0  0  0  0
  2  9  1  0  0  0  0
  2 23  1  0  0  0  0
  3  4  1  0  0  0  0
  3 24  1  0  0  0  0
  3 25  1  0  0  0  0
  4  8  1  0  0  0  0
  4  5  1  0  0  0  0
  5  6  2  0  0  0  0
  5 26  1  0  0  0  0
  6  7  1  0  0  0  0
  6 27  1  0  0  0  0
  7  8  2  0  0  0  0
  7 28  1  0  0  0  0
  9 10  1  0  0  0  0
  9 29  1  0  0  0  0
  9 47  1  0  0  0  0
 10 11  1  0  0  0  0
 10 30  1  0  0  0  0
 10 31  1  0  0  0  0
 11 12  1  0  0  0  0
 11 32  1  0  0  0  0
 11 33  1  0  0  0  0
 12 13  1  0  0  0  0
 13 18  1  0  0  0  0
 13 14  1  0  0  0  0
 13 34  1  0  0  0  0
 14 15  1  0  0  0  0
 14 35  1  0  0  0  0
 14 36  1  0  0  0  0
 15 16  1  0  0  0  0
 15 37  1  0  0  0  0
 15 38  1  0  0  0  0
 16 17  1  0  0  0  0
 16 39  1  0  0  0  0
 16 40  1  0  0  0  0
 17 18  1  0  0  0  0
 17 41  1  0  0  0  0
 17 42  1  0  0  0  0
 18 19  1  0  0  0  0
 18 43  1  0  0  0  0
 19 44  1  0  0  0  0
 19 45  1  0  0  0  0
 19 46  1  0  0  0  0
M  CHG  1   9   1
M  END
> <s_m_source_file>
AV-unprocessed.smi

> <i_m_source_file_index>
3348

> <i_lp_mmshare_version>
43012

> <i_f3d_flags>
0

> <s_epik_input>
bjFbY0hdW2NIXVtjSF1uMVtDSDJdW0NAQEhdKFtDSDNdKVtOSF1bQ0gyXVtDSDJdT1tDQEBIXTJbQ0gyXVtDSDJdW0NIMl1bQ0gyXVtDQEhdMltDSDNd

> <s_epik_cmdline>
J2VwaWtfcHl0aG9uJywgJy1waCcsICc3LjAnLCAnLXRuJywgJzgnLCAnLW1hJywgJzIwMCcsICctbWV0YWxfYmluZGluZycsICctaW1hZScsICc8aW5maWxlLm1hZT4nLCAnLW9tYWUnLCAnPG91dGZpbGUubWFlPic=

> <r_lp_tautomer_probability>
1

> <r_epik_Ionization_Penalty>
0.00925088

> <r_epik_Ionization_Penalty_Charging>
0.00924645

> <r_epik_Ionization_Penalty_Neutral>
4.42413e-06

> <r_epik_State_Penalty>
0.0070118

> <r_epik_Charging_Adjusted_Penalty>
0.0162583

> <i_epik_Tot_Q>
1

> <i_epik_Tot_abs_Q>
1

> <r_epik_Metal_State_Penalty>
0.00701222

> <b_epik_Metal_Only>
0

> <s_lp_Force_Field>
OPLS_2005

> <r_lp_Energy>
15.644

> <b_lp_Chiralities_Consistent>
1

> <s_lp_Variant>
AV-unprocessed.smi:3348-8

> <Gold.Version>
5.8.1

> <Gold.Id.Protein>
6NUR|6NUR_protein|mol2

> <Gold.PLP.Fitness>
48.2441

> <Gold.PLP.PLP>
-44.8378

> <Gold.PLP.part.hbond>
-1.0000

> <Gold.PLP.part.metal>
0.0000

> <Gold.PLP.part.buried>
-5.1181

> <Gold.PLP.part.nonpolar>
-39.1187

> <Gold.PLP.part.repulsive>
0.1558

> <Gold.PLP.ligand.clash>
0.0000

> <Gold.PLP.ligand.torsion>
1.3711

> <Gold.PLP.Chemscore.Hbond>
1.0000

> <Gold.PLP.Chemscore.CHOScore>
1.0000

> <Gold.PLP.Chemscore.Metal>
0.0000

> <Gold.Chemscore.Hbonds>
donor molecule, donor type, donor heavy atom, donor atom, acceptor molecule, acceptor atom, score
      P1  H 10752 10763       L1     8  0.99
      L1  C     7    28       P1  7949  0.96

> <Gold.PLP.Chemscore.Internal.Correction>
0.1485

> <Gold.Rescore>
     Score         DG    S(hbond)    S(metal)    S(lipo)     H(rot)  DE(clash)    DE(int)     intcor
     18.26     -19.60       0.90        0.00     134.62       1.82       0.01       1.33       ----

> <Gold.Chemscore.Fitness>
18.2615

> <Gold.Chemscore.DG>
-19.6026

> <Gold.Chemscore.ZeroCoef>
-5.4800

> <Gold.Chemscore.Hbond>
0.9048

> <Gold.Chemscore.Metal>
0.0000

> <Gold.Chemscore.Lipo>
134.6171

> <Gold.Chemscore.Internal_Hbond>
0.0000

> <Gold.Chemscore.DEClash>
0.0128

> <Gold.Chemscore.DEInternal>
1.3283

> <Gold.Chemscore.Rot>
1.8163

> <Gold.Chemscore.Internal.Correction>
   9.000000E+99

> <Gold.Chemscore.Hbonds>
donor molecule, donor type, donor heavy atom, donor atom, acceptor molecule, acceptor atom, score
      P1  H 10752 10763       L1     8  0.73

> <Gold.Chemscore.Hbond.Weighted>
-3.0221

> <Gold.Chemscore.Metal.Weighted>
-0.0000

> <Gold.Chemscore.Lipo.Weighted>
-15.7502

> <Gold.Chemscore.Internal_Hbond.Weighted>
0.0000

> <Gold.Chemscore.DEClash.Weighted>
0.0128

> <Gold.Chemscore.DEInternal.Weighted>
1.3283

> <Gold.Chemscore.Rot.Weighted>
4.6497

> <Gold.Chemscore.Internal.Correction.Weighted>
   9.000000E+99

> <Gold.Protein.RotatedTorsions>
[ 6907 6896 6895 6894 ] final  144.68 input  -60.11 | X-H torsion
[ 7974 7965 7964 7962 ] final   43.95 input  175.53 | X-H torsion
[ 8008 7997 7996 7995 ] final    0.31 input   59.86 | X-H torsion
[ 10167 10162 10161 10158 ] final  169.08 input  -65.29 | X-H torsion
[ 10718 10713 10712 10709 ] final   83.45 input   66.30 | X-H torsion
[ 10763 10752 10751 10750 ] final   57.06 input  -60.55 | X-H torsion
[ 11005 11000 10999 10996 ] final  -85.21 input  -57.11 | X-H torsion

> <Gold.Protein.ActiveResidues>
 VAL166  LYS551  ARG553  GLY616  TRP617  ASP618  TYR619  PRO620  LYS621  CYS622 
 ASP623  PHE694  ASN695  SER759  ASP760  ASP761  ALA762  ILE779  LEU786  VAL792 
 PHE793  MET794  SER795  GLU796  ALA797  LYS798  CYS799  TRP800  GLU811  SER814 

> <Gold.Protein.RotatedAtoms>
  152.1906  133.4770  159.5005 H   0  0  0  0  0  0  0  0  0  0  0  0  # atno 6907 bound_to 6896
  150.6950  134.1718  159.4224 H   0  0  0  0  0  0  0  0  0  0  0  0  # atno 6908 bound_to 6896
  151.9632  135.0113  160.0599 H   0  0  0  0  0  0  0  0  0  0  0  0  # atno 6909 bound_to 6896
  146.0611  139.5129  142.9657 H   0  0  0  0  0  0  0  0  0  0  0  0  # atno 7974 bound_to 7965
  154.6667  140.2602  155.7051 H   0  0  0  0  0  0  0  0  0  0  0  0  # atno 8008 bound_to 7997
  156.2641  140.2837  156.1082 H   0  0  0  0  0  0  0  0  0  0  0  0  # atno 8009 bound_to 7997
  155.1229  140.0377  157.2745 H   0  0  0  0  0  0  0  0  0  0  0  0  # atno 8010 bound_to 7997
  139.4983  144.3744  151.9690 H   0  0  0  0  0  0  0  0  0  0  0  0  # atno 10167 bound_to 10162
  157.6879  131.0091  150.2525 H   0  0  0  0  0  0  0  0  0  0  0  0  # atno 10718 bound_to 10713
  152.9843  135.5655  154.5329 H   0  0  0  0  0  0  0  0  0  0  0  0  # atno 10763 bound_to 10752
  154.4798  135.2788  155.1582 H   0  0  0  0  0  0  0  0  0  0  0  0  # atno 10764 bound_to 10752
  154.3095  135.6291  153.5512 H   0  0  0  0  0  0  0  0  0  0  0  0  # atno 10765 bound_to 10752
  141.1643  133.7387  156.8981 H   0  0  0  0  0  0  0  0  0  0  0  0  # atno 11005 bound_to 11000
  145.6558  141.0252  143.1735 LP  0  0  0  0  0  0  0  0  0  0  0  0  # atno 17320 bound_to 7965
  144.7175  139.8143  143.7393 LP  0  0  0  0  0  0  0  0  0  0  0  0  # atno 17321 bound_to 7965
  140.3180  144.3460  150.6016 LP  0  0  0  0  0  0  0  0  0  0  0  0  # atno 17342 bound_to 10162
  140.5745  143.2177  151.7539 LP  0  0  0  0  0  0  0  0  0  0  0  0  # atno 17343 bound_to 10162
  156.3119  130.3773  149.7653 LP  0  0  0  0  0  0  0  0  0  0  0  0  # atno 17370 bound_to 10713
  156.5251  130.8232  151.3217 LP  0  0  0  0  0  0  0  0  0  0  0  0  # atno 17371 bound_to 10713
  140.1601  134.9171  157.2704 LP  0  0  0  0  0  0  0  0  0  0  0  0  # atno 17394 bound_to 11000
  140.2621  134.3559  155.7403 LP  0  0  0  0  0  0  0  0  0  0  0  0  # atno 17395 bound_to 11000

$$$$
