AV-unprocessed.smi:1289|AV-procd|sdf|5388|dock3
  -GOLD-   22720 4543D 1   1.00000     0.00000
 Structure written by MMmdl.
 38 40  0  0  0  0  0  0  0  0  2 V2000
  155.6963  138.1591  165.1378 N   0  0  0  0  0  0  0  0  0  0  0  0
  155.4342  138.2267  164.0129 C   0  0  0  0  0  0  0  0  0  0  0  0
  155.1053  138.3117  162.5998 C   0  0  0  0  0  0  0  0  0  0  0  0
  155.6564  139.3359  161.8052 C   0  0  0  0  0  0  0  0  0  0  0  0
  155.3313  139.4190  160.4375 C   0  0  0  0  0  0  0  0  0  0  0  0
  154.4563  138.4860  159.8443 C   0  0  0  0  0  0  0  0  0  0  0  0
  154.1876  138.6467  158.5019 O   0  0  0  0  0  0  0  0  0  0  0  0
  152.9269  138.2108  158.0108 C   0  0  0  0  0  0  0  0  0  0  0  0
  152.0831  139.4393  157.6394 C   0  0  1  0  0  0  0  0  0  0  0  0
  150.7731  139.0036  157.3336 O   0  0  0  0  0  0  0  0  0  0  0  0
  152.0455  140.4852  158.7719 C   0  0  0  0  0  0  0  0  0  0  0  0
  151.4856  141.7748  158.3432 N   0  0  0  0  0  0  0  0  0  0  0  0
  150.7981  142.0888  157.2120 C   0  0  0  0  0  0  0  0  0  0  0  0
  150.4958  143.4155  157.2681 N   0  3  0  0  0  0  0  0  0  0  0  0
  150.9958  143.9580  158.4539 C   0  0  0  0  0  0  0  0  0  0  0  0
  150.9405  145.2543  158.9568 C   0  0  0  0  0  0  0  0  0  0  0  0
  151.5522  145.4743  160.2084 C   0  0  0  0  0  0  0  0  0  0  0  0
  152.1852  144.4283  160.9106 C   0  0  0  0  0  0  0  0  0  0  0  0
  152.2360  143.1182  160.3907 C   0  0  0  0  0  0  0  0  0  0  0  0
  151.6314  142.9087  159.1515 C   0  0  0  0  0  0  0  0  0  0  0  0
  153.9108  137.4540  160.6494 C   0  0  0  0  0  0  0  0  0  0  0  0
  154.2330  137.3705  162.0182 C   0  0  0  0  0  0  0  0  0  0  0  0
  156.3280  140.0632  162.2384 H   0  0  0  0  0  0  0  0  0  0  0  0
  155.7573  140.2096  159.8374 H   0  0  0  0  0  0  0  0  0  0  0  0
  153.0825  137.5870  157.1289 H   0  0  0  0  0  0  0  0  0  0  0  0
  152.4011  137.6145  158.7586 H   0  0  0  0  0  0  0  0  0  0  0  0
  152.4929  139.8953  156.7374 H   0  0  0  0  0  0  0  0  0  0  0  0
  150.4472  138.4982  158.0629 H   0  0  0  0  0  0  0  0  0  0  0  0
  151.4870  140.1178  159.6330 H   0  0  0  0  0  0  0  0  0  0  0  0
  153.0570  140.6812  159.1291 H   0  0  0  0  0  0  0  0  0  0  0  0
  150.5401  141.4085  156.4131 H   0  0  0  0  0  0  0  0  0  0  0  0
  150.4544  146.0571  158.4222 H   0  0  0  0  0  0  0  0  0  0  0  0
  151.5337  146.4648  160.6396 H   0  0  0  0  0  0  0  0  0  0  0  0
  152.6401  144.6341  161.8687 H   0  0  0  0  0  0  0  0  0  0  0  0
  152.7183  142.3235  160.9405 H   0  0  0  0  0  0  0  0  0  0  0  0
  153.2401  136.7131  160.2419 H   0  0  0  0  0  0  0  0  0  0  0  0
  153.8049  136.5798  162.6175 H   0  0  0  0  0  0  0  0  0  0  0  0
  149.9853  143.9113  156.5486 H   0  0  0  0  0  0  0  0  0  0  0  0
  1  2  3  0  0  0  0
  2  3  1  0  0  0  0
  3 22  1  0  0  0  0
  3  4  2  0  0  0  0
  4  5  1  0  0  0  0
  4 23  1  0  0  0  0
  5  6  2  0  0  0  0
  5 24  1  0  0  0  0
  6  7  1  0  0  0  0
  6 21  1  0  0  0  0
  7  8  1  0  0  0  0
  8  9  1  0  0  0  0
  8 25  1  0  0  0  0
  8 26  1  0  0  0  0
  9 10  1  0  0  0  0
  9 11  1  0  0  0  0
  9 27  1  0  0  0  0
 10 28  1  0  0  0  0
 11 12  1  0  0  0  0
 11 29  1  0  0  0  0
 11 30  1  0  0  0  0
 12 20  1  0  0  0  0
 12 13  1  0  0  0  0
 13 14  2  0  0  0  0
 13 31  1  0  0  0  0
 14 15  1  0  0  0  0
 14 38  1  0  0  0  0
 15 20  2  0  0  0  0
 15 16  1  0  0  0  0
 16 17  2  0  0  0  0
 16 32  1  0  0  0  0
 17 18  1  0  0  0  0
 17 33  1  0  0  0  0
 18 19  2  0  0  0  0
 18 34  1  0  0  0  0
 19 20  1  0  0  0  0
 19 35  1  0  0  0  0
 21 22  2  0  0  0  0
 21 36  1  0  0  0  0
 22 37  1  0  0  0  0
M  CHG  1  14   1
M  END
> <s_m_source_file>
AV-unprocessed.smi

> <i_m_source_file_index>
1289

> <i_lp_mmshare_version>
43012

> <i_f3d_flags>
0

> <s_epik_input>
TiNDYzFbY0hdW2NIXWMoW2NIXVtjSF0xKU9bQ0gyXVtDQEhdKFtPSF0pW0NIMl1uKFtjSF1uMiljKGMyMylbY0hdW2NIXVtjSF1bY0hdMw==

> <s_epik_cmdline>
J2VwaWtfcHl0aG9uJywgJy1waCcsICc3LjAnLCAnLXRuJywgJzgnLCAnLW1hJywgJzIwMCcsICctbWV0YWxfYmluZGluZycsICctaW1hZScsICc8aW5maWxlLm1hZT4nLCAnLW9tYWUnLCAnPG91dGZpbGUubWFlPic=

> <r_epik_Ionization_Penalty>
1.39523

> <r_epik_Ionization_Penalty_Charging>
1.39523

> <r_epik_Ionization_Penalty_Neutral>
2.3993e-06

> <r_epik_State_Penalty>
1.47691

> <r_epik_Charging_Adjusted_Penalty>
2.87215

> <i_epik_Tot_Q>
1

> <i_epik_Tot_abs_Q>
1

> <r_epik_Metal_State_Penalty>
5.51858

> <b_epik_Metal_Only>
0

> <s_lp_Force_Field>
OPLS_2005

> <r_lp_Energy>
20.386

> <b_lp_Chiralities_Consistent>
1

> <s_lp_Variant>
AV-unprocessed.smi:1289-4

> <Gold.Version>
5.8.1

> <Gold.Id.Protein>
6NUR|6NUR_protein|mol2

> <Gold.PLP.Fitness>
51.2582

> <Gold.PLP.PLP>
-44.2361

> <Gold.PLP.part.hbond>
-2.0000

> <Gold.PLP.part.metal>
0.0000

> <Gold.PLP.part.buried>
-6.6196

> <Gold.PLP.part.nonpolar>
-36.1070

> <Gold.PLP.part.repulsive>
0.0932

> <Gold.PLP.ligand.clash>
0.0000

> <Gold.PLP.ligand.torsion>
0.9844

> <Gold.PLP.Chemscore.Hbond>
2.9840

> <Gold.PLP.Chemscore.CHOScore>
0.0000

> <Gold.PLP.Chemscore.Metal>
0.0000

> <Gold.Chemscore.Hbonds>
donor molecule, donor type, donor heavy atom, donor atom, acceptor molecule, acceptor atom, score
      L1  H    14    38       P1  8028  2.00
      P1  H  7997  8010       L1     7  1.00

> <Gold.PLP.Chemscore.Internal.Correction>
0.0390

> <Gold.Rescore>
     Score         DG    S(hbond)    S(metal)    S(lipo)     H(rot)  DE(clash)    DE(int)     intcor
     17.90     -18.90       1.86        0.00     117.92       2.58       0.02       0.98       ----

> <Gold.Chemscore.Fitness>
17.8960

> <Gold.Chemscore.DG>
-18.9015

> <Gold.Chemscore.ZeroCoef>
-5.4800

> <Gold.Chemscore.Hbond>
1.8650

> <Gold.Chemscore.Metal>
0.0000

> <Gold.Chemscore.Lipo>
117.9211

> <Gold.Chemscore.Internal_Hbond>
0.0000

> <Gold.Chemscore.DEClash>
0.0234

> <Gold.Chemscore.DEInternal>
0.9821

> <Gold.Chemscore.Rot>
2.5798

> <Gold.Chemscore.Internal.Correction>
   9.000000E+99

> <Gold.Chemscore.Hbonds>
donor molecule, donor type, donor heavy atom, donor atom, acceptor molecule, acceptor atom, score
      L1  H    14    38       P1  8028  0.99
      P1  H  7997  8010       L1     7  0.33

> <Gold.Chemscore.Hbond.Weighted>
-6.2291

> <Gold.Chemscore.Metal.Weighted>
-0.0000

> <Gold.Chemscore.Lipo.Weighted>
-13.7968

> <Gold.Chemscore.Internal_Hbond.Weighted>
0.0000

> <Gold.Chemscore.DEClash.Weighted>
0.0234

> <Gold.Chemscore.DEInternal.Weighted>
0.9821

> <Gold.Chemscore.Rot.Weighted>
6.6043

> <Gold.Chemscore.Internal.Correction.Weighted>
   9.000000E+99

> <Gold.Protein.RotatedTorsions>
[ 6907 6896 6895 6894 ] final  -54.00 input  -60.11 | X-H torsion
[ 7974 7965 7964 7962 ] final   42.93 input  175.53 | X-H torsion
[ 8008 7997 7996 7995 ] final   26.28 input   59.86 | X-H torsion
[ 10167 10162 10161 10158 ] final -141.66 input  -65.29 | X-H torsion
[ 10718 10713 10712 10709 ] final  -69.63 input   66.30 | X-H torsion
[ 10763 10752 10751 10750 ] final   31.27 input  -60.55 | X-H torsion
[ 11005 11000 10999 10996 ] final  -44.95 input  -57.11 | X-H torsion

> <Gold.Protein.ActiveResidues>
 VAL166  LYS551  ARG553  GLY616  TRP617  ASP618  TYR619  PRO620  LYS621  CYS622 
 ASP623  PHE694  ASN695  SER759  ASP760  ASP761  ALA762  ILE779  LEU786  VAL792 
 PHE793  MET794  SER795  GLU796  ALA797  LYS798  CYS799  TRP800  GLU811  SER814 

> <Gold.Protein.RotatedAtoms>
  150.8377  134.7656  159.6906 H   0  0  0  0  0  0  0  0  0  0  0  0  # atno 6907 bound_to 6896
  152.4470  134.5470  159.9865 H   0  0  0  0  0  0  0  0  0  0  0  0  # atno 6908 bound_to 6896
  151.5616  133.3364  159.3008 H   0  0  0  0  0  0  0  0  0  0  0  0  # atno 6909 bound_to 6896
  146.0699  139.5244  142.9605 H   0  0  0  0  0  0  0  0  0  0  0  0  # atno 7974 bound_to 7965
  155.0248  140.3152  155.4780 H   0  0  0  0  0  0  0  0  0  0  0  0  # atno 8008 bound_to 7997
  156.2885  140.2191  156.5309 H   0  0  0  0  0  0  0  0  0  0  0  0  # atno 8009 bound_to 7997
  154.7421  140.0473  157.0808 H   0  0  0  0  0  0  0  0  0  0  0  0  # atno 8010 bound_to 7997
  139.8163  143.7634  152.2665 H   0  0  0  0  0  0  0  0  0  0  0  0  # atno 10167 bound_to 10162
  156.0446  130.4316  150.2176 H   0  0  0  0  0  0  0  0  0  0  0  0  # atno 10718 bound_to 10713
  153.0325  135.6443  154.1173 H   0  0  0  0  0  0  0  0  0  0  0  0  # atno 10763 bound_to 10752
  154.0893  135.2867  155.3276 H   0  0  0  0  0  0  0  0  0  0  0  0  # atno 10764 bound_to 10752
  154.6476  135.5437  153.7927 H   0  0  0  0  0  0  0  0  0  0  0  0  # atno 10765 bound_to 10752
  141.0484  133.6752  156.2945 H   0  0  0  0  0  0  0  0  0  0  0  0  # atno 11005 bound_to 11000
  145.6411  141.0284  143.1811 LP  0  0  0  0  0  0  0  0  0  0  0  0  # atno 17320 bound_to 7965
  144.7225  139.7983  143.7377 LP  0  0  0  0  0  0  0  0  0  0  0  0  # atno 17321 bound_to 7965
  139.7798  144.7448  151.0104 LP  0  0  0  0  0  0  0  0  0  0  0  0  # atno 17342 bound_to 10162
  140.7815  143.4554  151.0353 LP  0  0  0  0  0  0  0  0  0  0  0  0  # atno 17343 bound_to 10162
  157.0267  130.9995  151.3324 LP  0  0  0  0  0  0  0  0  0  0  0  0  # atno 17370 bound_to 10713
  157.5306  130.8056  149.7912 LP  0  0  0  0  0  0  0  0  0  0  0  0  # atno 17371 bound_to 10713
  140.6102  134.5466  157.5532 LP  0  0  0  0  0  0  0  0  0  0  0  0  # atno 17394 bound_to 11000
  139.9330  134.7927  156.0878 LP  0  0  0  0  0  0  0  0  0  0  0  0  # atno 17395 bound_to 11000

$$$$
