AV-unprocessed.smi:2684|AV-procd|sdf|10379|dock10
  -GOLD-   2272014413D 1   1.00000     0.00000
 Structure written by MMmdl.
 45 46  0  0  0  0  0  0  0  0  2 V2000
  151.0472  141.0484  158.3786 C   0  0  0  0  0  0  0  0  0  0  0  0
  150.5744  140.7385  156.9878 C   0  0  0  0  0  0  0  0  0  0  0  0
  150.3490  141.6502  155.9176 C   0  0  0  0  0  0  0  0  0  0  0  0
  149.9237  141.0538  154.8155 N   0  0  0  0  0  0  0  0  0  0  0  0
  149.8581  139.7461  155.1431 N   0  0  0  0  0  0  0  0  0  0  0  0
  149.4014  138.7772  154.1628 C   0  0  0  0  0  0  0  0  0  0  0  0
  147.9063  138.9294  153.7992 C   0  0  1  0  0  0  0  0  0  0  0  0
  147.6903  140.1716  152.9246 C   0  0  0  0  0  0  0  0  0  0  0  0
  147.3973  137.7352  153.0852 N   0  3  0  0  0  0  0  0  0  0  0  0
  146.1923  137.9623  152.2584 C   0  0  0  0  0  0  0  0  0  0  0  0
  145.4090  136.6638  152.0258 C   0  0  0  0  0  0  0  0  0  0  0  0
  144.2149  136.6224  152.3158 O   0  0  0  0  0  0  0  0  0  0  0  0
  146.0327  135.5791  151.5316 N   0  0  0  0  0  0  0  0  0  0  0  0
  145.4712  134.2603  151.2404 C   0  0  0  0  0  0  0  0  0  0  0  0
  146.5841  133.3255  150.7431 C   0  0  0  0  0  0  0  0  0  0  0  0
  146.0039  131.9675  150.3148 C   0  0  0  0  0  0  0  0  0  0  0  0
  145.0078  132.1580  149.3163 O   0  0  0  0  0  0  0  0  0  0  0  0
  143.9002  132.9239  149.7769 C   0  0  0  0  0  0  0  0  0  0  0  0
  144.3641  134.3348  150.1727 C   0  0  0  0  0  0  0  0  0  0  0  0
  150.2561  139.5261  156.4450 C   0  0  0  0  0  0  0  0  0  0  0  0
  151.7046  141.9176  158.3974 H   0  0  0  0  0  0  0  0  0  0  0  0
  151.6033  140.2169  158.8120 H   0  0  0  0  0  0  0  0  0  0  0  0
  150.2137  141.2599  159.0477 H   0  0  0  0  0  0  0  0  0  0  0  0
  150.4778  142.7227  155.9107 H   0  0  0  0  0  0  0  0  0  0  0  0
  150.0174  138.8916  153.2694 H   0  0  0  0  0  0  0  0  0  0  0  0
  149.5991  137.7753  154.5468 H   0  0  0  0  0  0  0  0  0  0  0  0
  147.3236  139.0737  154.7106 H   0  0  0  0  0  0  0  0  0  0  0  0
  148.0237  141.0750  153.4366 H   0  0  0  0  0  0  0  0  0  0  0  0
  146.6353  140.3033  152.6821 H   0  0  0  0  0  0  0  0  0  0  0  0
  148.2415  140.0995  151.9862 H   0  0  0  0  0  0  0  0  0  0  0  0
  148.1221  137.4032  152.4648 H   0  0  0  0  0  0  0  0  0  0  0  0
  145.5699  138.7149  152.7312 H   0  0  0  0  0  0  0  0  0  0  0  0
  146.4968  138.3654  151.2922 H   0  0  0  0  0  0  0  0  0  0  0  0
  147.0228  135.6755  151.3552 H   0  0  0  0  0  0  0  0  0  0  0  0
  145.0694  133.8241  152.1549 H   0  0  0  0  0  0  0  0  0  0  0  0
  147.0987  133.7775  149.8939 H   0  0  0  0  0  0  0  0  0  0  0  0
  147.3334  133.1805  151.5223 H   0  0  0  0  0  0  0  0  0  0  0  0
  146.7931  131.3345  149.9086 H   0  0  0  0  0  0  0  0  0  0  0  0
  145.5790  131.4372  151.1681 H   0  0  0  0  0  0  0  0  0  0  0  0
  143.1581  132.9834  148.9806 H   0  0  0  0  0  0  0  0  0  0  0  0
  143.4225  132.4221  150.6202 H   0  0  0  0  0  0  0  0  0  0  0  0
  143.5113  134.9100  150.5322 H   0  0  0  0  0  0  0  0  0  0  0  0
  144.7371  134.8520  149.2875 H   0  0  0  0  0  0  0  0  0  0  0  0
  150.2700  138.5368  156.8781 H   0  0  0  0  0  0  0  0  0  0  0  0
  147.2047  137.0111  153.7620 H   0  0  0  0  0  0  0  0  0  0  0  0
  1  2  1  0  0  0  0
  1 21  1  0  0  0  0
  1 22  1  0  0  0  0
  1 23  1  0  0  0  0
  2 20  2  0  0  0  0
  2  3  1  0  0  0  0
  3  4  2  0  0  0  0
  3 24  1  0  0  0  0
  4  5  1  0  0  0  0
  5  6  1  0  0  0  0
  5 20  1  0  0  0  0
  6  7  1  0  0  0  0
  6 25  1  0  0  0  0
  6 26  1  0  0  0  0
  7  8  1  0  0  0  0
  7  9  1  0  0  0  0
  7 27  1  0  0  0  0
  8 28  1  0  0  0  0
  8 29  1  0  0  0  0
  8 30  1  0  0  0  0
  9 10  1  0  0  0  0
  9 31  1  0  0  0  0
  9 45  1  0  0  0  0
 10 11  1  0  0  0  0
 10 32  1  0  0  0  0
 10 33  1  0  0  0  0
 11 12  2  0  0  0  0
 11 13  1  0  0  0  0
 13 14  1  0  0  0  0
 13 34  1  0  0  0  0
 14 19  1  0  0  0  0
 14 15  1  0  0  0  0
 14 35  1  0  0  0  0
 15 16  1  0  0  0  0
 15 36  1  0  0  0  0
 15 37  1  0  0  0  0
 16 17  1  0  0  0  0
 16 38  1  0  0  0  0
 16 39  1  0  0  0  0
 17 18  1  0  0  0  0
 18 19  1  0  0  0  0
 18 40  1  0  0  0  0
 18 41  1  0  0  0  0
 19 42  1  0  0  0  0
 19 43  1  0  0  0  0
 20 44  1  0  0  0  0
M  CHG  1   9   1
M  END
> <s_m_source_file>
AV-unprocessed.smi

> <i_m_source_file_index>
2684

> <i_lp_mmshare_version>
43012

> <i_f3d_flags>
0

> <s_epik_input>
W0NIM11jMVtjSF1ubihbY0hdMSlbQ0gyXVtDQEhdKFtDSDNdKVtOSF1bQ0gyXUMoPU8pW05IXVtDSF0yW0NIMl1bQ0gyXU9bQ0gyXVtDSDJdMg==

> <s_epik_cmdline>
J2VwaWtfcHl0aG9uJywgJy1waCcsICc3LjAnLCAnLXRuJywgJzgnLCAnLW1hJywgJzIwMCcsICctbWV0YWxfYmluZGluZycsICctaW1hZScsICc8aW5maWxlLm1hZT4nLCAnLW9tYWUnLCAnPG91dGZpbGUubWFlPic=

> <r_lp_tautomer_probability>
1

> <r_epik_Ionization_Penalty>
0.128576

> <r_epik_Ionization_Penalty_Charging>
0.128567

> <r_epik_Ionization_Penalty_Neutral>
8.60003e-06

> <r_epik_State_Penalty>
0.117991

> <r_epik_Charging_Adjusted_Penalty>
0.246558

> <i_epik_Tot_Q>
1

> <i_epik_Tot_abs_Q>
1

> <r_epik_Metal_State_Penalty>
0.118015

> <b_epik_Metal_Only>
0

> <s_lp_Force_Field>
OPLS_2005

> <r_lp_Energy>
10.4868

> <b_lp_Chiralities_Consistent>
1

> <s_lp_Variant>
AV-unprocessed.smi:2684-2

> <Gold.Version>
5.8.1

> <Gold.Id.Protein>
6NUR|6NUR_protein|mol2

> <Gold.PLP.Fitness>
46.4161

> <Gold.PLP.PLP>
-34.2044

> <Gold.PLP.part.hbond>
-2.7723

> <Gold.PLP.part.metal>
0.0000

> <Gold.PLP.part.buried>
0.7104

> <Gold.PLP.part.nonpolar>
-32.0733

> <Gold.PLP.part.repulsive>
0.5701

> <Gold.PLP.ligand.clash>
0.0000

> <Gold.PLP.ligand.torsion>
0.5708

> <Gold.PLP.Chemscore.Hbond>
3.4268

> <Gold.PLP.Chemscore.CHOScore>
1.0000

> <Gold.PLP.Chemscore.Metal>
0.0000

> <Gold.Chemscore.Hbonds>
donor molecule, donor type, donor heavy atom, donor atom, acceptor molecule, acceptor atom, score
      L1  H     9    31       P1  7948  2.00
      L1  H    13    34       P1  7948  1.00
      P1  H  7989  7998       L1     4  0.38
      L1  C     3    24       P1  8028  0.92

> <Gold.PLP.Chemscore.Internal.Correction>
0.0728

> <Gold.Rescore>
     Score         DG    S(hbond)    S(metal)    S(lipo)     H(rot)  DE(clash)    DE(int)     intcor
     15.04     -17.27       1.95        0.00      89.79       2.04       1.59       0.65       ----

> <Gold.Chemscore.Fitness>
15.0386

> <Gold.Chemscore.DG>
-17.2733

> <Gold.Chemscore.ZeroCoef>
-5.4800

> <Gold.Chemscore.Hbond>
1.9518

> <Gold.Chemscore.Metal>
0.0000

> <Gold.Chemscore.Lipo>
89.7943

> <Gold.Chemscore.Internal_Hbond>
0.0000

> <Gold.Chemscore.DEClash>
1.5867

> <Gold.Chemscore.DEInternal>
0.6480

> <Gold.Chemscore.Rot>
2.0437

> <Gold.Chemscore.Internal.Correction>
   9.000000E+99

> <Gold.Chemscore.Hbonds>
donor molecule, donor type, donor heavy atom, donor atom, acceptor molecule, acceptor atom, score
      L1  H     9    31       P1  7948  0.91
      L1  H    13    34       P1  7948  0.90
      P1  H  7989  7998       L1     4  0.04

> <Gold.Chemscore.Hbond.Weighted>
-6.5192

> <Gold.Chemscore.Metal.Weighted>
-0.0000

> <Gold.Chemscore.Lipo.Weighted>
-10.5059

> <Gold.Chemscore.Internal_Hbond.Weighted>
0.0000

> <Gold.Chemscore.DEClash.Weighted>
1.5867

> <Gold.Chemscore.DEInternal.Weighted>
0.6480

> <Gold.Chemscore.Rot.Weighted>
5.2318

> <Gold.Chemscore.Internal.Correction.Weighted>
   9.000000E+99

> <Gold.Protein.RotatedTorsions>
[ 6907 6896 6895 6894 ] final  102.22 input  -60.11 | X-H torsion
[ 7974 7965 7964 7962 ] final   78.50 input  175.53 | X-H torsion
[ 8008 7997 7996 7995 ] final   53.09 input   59.86 | X-H torsion
[ 10167 10162 10161 10158 ] final  -70.76 input  -65.29 | X-H torsion
[ 10718 10713 10712 10709 ] final  134.15 input   66.30 | X-H torsion
[ 10763 10752 10751 10750 ] final -134.51 input  -60.55 | X-H torsion
[ 11005 11000 10999 10996 ] final  -70.52 input  -57.11 | X-H torsion

> <Gold.Protein.ActiveResidues>
 VAL166  LYS551  ARG553  GLY616  TRP617  ASP618  TYR619  PRO620  LYS621  CYS622 
 ASP623  PHE694  ASN695  SER759  ASP760  ASP761  ALA762  ILE779  LEU786  VAL792 
 PHE793  MET794  SER795  GLU796  ALA797  LYS798  CYS799  TRP800  GLU811  SER814 

> <Gold.Protein.RotatedAtoms>
  152.5329  134.0008  159.7893 H   0  0  0  0  0  0  0  0  0  0  0  0  # atno 6907 bound_to 6896
  151.0227  133.5853  159.2676 H   0  0  0  0  0  0  0  0  0  0  0  0  # atno 6908 bound_to 6896
  151.2887  135.0742  159.9249 H   0  0  0  0  0  0  0  0  0  0  0  0  # atno 6909 bound_to 6896
  145.6764  139.2511  143.1839 H   0  0  0  0  0  0  0  0  0  0  0  0  # atno 7974 bound_to 7965
  155.4626  140.3462  155.4315 H   0  0  0  0  0  0  0  0  0  0  0  0  # atno 8008 bound_to 7997
  156.1151  140.1471  156.9313 H   0  0  0  0  0  0  0  0  0  0  0  0  # atno 8009 bound_to 7997
  154.4783  140.0878  156.7295 H   0  0  0  0  0  0  0  0  0  0  0  0  # atno 8010 bound_to 7997
  140.5327  143.2320  151.7233 H   0  0  0  0  0  0  0  0  0  0  0  0  # atno 10167 bound_to 10162
  157.4701  131.1079  150.9813 H   0  0  0  0  0  0  0  0  0  0  0  0  # atno 10718 bound_to 10713
  154.8718  135.3732  154.4747 H   0  0  0  0  0  0  0  0  0  0  0  0  # atno 10763 bound_to 10752
  153.5405  135.7026  153.5644 H   0  0  0  0  0  0  0  0  0  0  0  0  # atno 10764 bound_to 10752
  153.3808  135.3997  155.1820 H   0  0  0  0  0  0  0  0  0  0  0  0  # atno 10765 bound_to 10752
  141.1575  133.6792  156.6765 H   0  0  0  0  0  0  0  0  0  0  0  0  # atno 11005 bound_to 11000
  146.1002  140.7553  142.9553 LP  0  0  0  0  0  0  0  0  0  0  0  0  # atno 17320 bound_to 7965
  144.7040  140.3775  143.7133 LP  0  0  0  0  0  0  0  0  0  0  0  0  # atno 17321 bound_to 7965
  139.4960  144.4089  152.0101 LP  0  0  0  0  0  0  0  0  0  0  0  0  # atno 17342 bound_to 10162
  140.3193  144.3447  150.6013 LP  0  0  0  0  0  0  0  0  0  0  0  0  # atno 17343 bound_to 10162
  157.0580  130.5814  149.5381 LP  0  0  0  0  0  0  0  0  0  0  0  0  # atno 17370 bound_to 10713
  156.0069  130.5157  150.7861 LP  0  0  0  0  0  0  0  0  0  0  0  0  # atno 17371 bound_to 10713
  140.3135  134.8067  157.4195 LP  0  0  0  0  0  0  0  0  0  0  0  0  # atno 17394 bound_to 11000
  140.1158  134.5285  155.8226 LP  0  0  0  0  0  0  0  0  0  0  0  0  # atno 17395 bound_to 11000

$$$$
