#       Name:                AV-unprocessed.smi:3029
#       Creating user name   scv26
#       Creation time:       Fri Mar 27 16:47:14 2020


#       File generated by GOLD software.
#

@<TRIPOS>MOLECULE
AV-unprocessed.smi:3029
    46    47     1
SMALL
NO_CHARGES


@<TRIPOS>ATOM
      1 ****        -2.4176   0.9813  -2.9492 O.2            1 S1                 0.0000
      2 ****        -2.8252   1.7155  -2.0490 C.2            1 S1                 0.0000
      3 ****        -3.4582   3.0095  -2.3238 C.2            1 S1                 0.0000
      4 ****        -3.8831   3.8151  -1.3304 C.2            1 S1                 0.0000
      5 ****        -3.7220   3.4211   0.0561 C.2            1 S1                 0.0000
      6 ****        -4.1575   4.2850   1.1311 N.pl3          1 S1                 1.0000
      7 ****        -3.9672   3.9329   2.2914 O.2            1 S1                 0.0000
      8 ****        -4.7032   5.3465   0.8483 O.2            1 S1                -1.0000
      9 ****        -3.1480   2.2275   0.3054 C.2            1 S1                 0.0000
     10 ****        -2.7119   1.3772  -0.7290 N.am           1 S1                 0.0000
     11 ****        -2.0990   0.1026  -0.3320 C.3            1 S1                 0.0000
     12 ****        -0.5674   0.2130  -0.2626 C.3            1 S1                 0.0000
     13 ****         0.0341  -1.0767   0.1350 N.4            1 S1                 1.0000
     14 ****         1.5151  -1.1054   0.1637 C.3            1 S1                 0.0000
     15 ****         2.0255  -0.4134   1.4487 C.3            1 S1                 0.0000
     16 ****         3.5539  -0.4602   1.5636 C.3            1 S1                 0.0000
     17 ****         4.0576  -1.9053   1.5031 C.3            1 S1                 0.0000
     18 ****         3.5841  -2.5915   0.2153 C.3            1 S1                 0.0000
     19 ****         2.0447  -2.5661   0.0621 C.3            1 S1                 0.0000
     20 ****         1.6319  -3.2794  -1.2512 C.3            1 S1                 0.0000
     21 ****         2.0831  -2.6091  -2.3115 F              1 S1                 0.0000
     22 ****         2.1377  -4.5125  -1.2776 F              1 S1                 0.0000
     23 ****         0.3071  -3.3889  -1.3470 F              1 S1                 0.0000
     24 ****        -3.5871   3.3233  -3.3495 H              1 S1                 0.0000
     25 ****        -4.3445   4.7587  -1.5823 H              1 S1                 0.0000
     26 ****        -2.9785   1.8457   1.3022 H              1 S1                 0.0000
     27 ****        -2.4883  -0.2142   0.6369 H              1 S1                 0.0000
     28 ****        -2.3872  -0.6906  -1.0249 H              1 S1                 0.0000
     29 ****        -0.1682   0.5067  -1.2344 H              1 S1                 0.0000
     30 ****        -0.2879   0.9897   0.4492 H              1 S1                 0.0000
     31 ****        -0.3178  -1.3465   1.0424 H              1 S1                 0.0000
     32 ****         1.8865  -0.5539  -0.7015 H              1 S1                 0.0000
     33 ****         1.7069   0.6284   1.4772 H              1 S1                 0.0000
     34 ****         1.5849  -0.8923   2.3245 H              1 S1                 0.0000
     35 ****         4.0023   0.1217   0.7572 H              1 S1                 0.0000
     36 ****         3.8718   0.0062   2.4965 H              1 S1                 0.0000
     37 ****         5.1468  -1.9220   1.5548 H              1 S1                 0.0000
     38 ****         3.6978  -2.4597   2.3709 H              1 S1                 0.0000
     39 ****         4.0480  -2.1027  -0.6424 H              1 S1                 0.0000
     40 ****         3.9460  -3.6201   0.2116 H              1 S1                 0.0000
     41 ****         1.6248  -3.1354   0.8932 H              1 S1                 0.0000
     42 ****        -0.2690  -1.7636  -0.5412 H              1 S1                 0.0000
     43 ****        -1.9878   0.1067  -2.7250 LP             1 S1                 0.0000
     44 ****        -2.5164   1.2596  -3.9046 LP             1 S1                 0.0000
     45 ****        -3.5172   3.0605   2.4817 LP             1 S1                 0.0000
     46 ****        -4.2622   4.5186   3.0464 LP             1 S1                 0.0000
@<TRIPOS>BOND
    1    1    2 2     
    2    2   10 am    
    3    2    3 1     
    4    3    4 2     
    5    3   24 1     
    6    4    5 1     
    7    4   25 1     
    8    5    6 1     
    9    5    9 2     
   10    6    7 2     
   11    6    8 1     
   12    9   10 1     
   13    9   26 1     
   14   10   11 1     
   15   11   12 1     
   16   11   27 1     
   17   11   28 1     
   18   12   13 1     
   19   12   29 1     
   20   12   30 1     
   21   13   14 1     
   22   13   31 1     
   23   13   42 1     
   24   14   19 1     
   25   14   15 1     
   26   14   32 1     
   27   15   16 1     
   28   15   33 1     
   29   15   34 1     
   30   16   17 1     
   31   16   35 1     
   32   16   36 1     
   33   17   18 1     
   34   17   37 1     
   35   17   38 1     
   36   18   19 1     
   37   18   39 1     
   38   18   40 1     
   39   19   20 1     
   40   19   41 1     
   41   20   21 1     
   42   20   22 1     
   43   20   23 1     
   44    1   43 1     
   45    1   44 1     
   46    7   45 1     
   47    7   46 1     
@<TRIPOS>SUBSTRUCTURE
      1 S1             1
@<TRIPOS>SET
LONE_PAIRS      STATIC     ATOMS    <user>   **** ""
5 43 44 45 46 8
DONOR_HYDROGENS      STATIC     ATOMS    <user>   **** ""
2 31 42
ATOM$BLUE        STATIC     ATOMS    COLORGROUP SYSTEM
5 43 44 45 46 8
ATOM$RED        STATIC     ATOMS    COLORGROUP SYSTEM
2 31 42
