AV-unprocessed.smi:3110|AV-procd|sdf|11829|dock3
  -GOLD-   2272017203D 1   1.00000     0.00000
 Structure written by MMmdl.
 34 35  0  0  0  0  0  0  0  0  2 V2000
  152.5378  140.1972  157.1514 O   0  0  0  0  0  0  0  0  0  0  0  0
  151.4668  140.6797  157.5204 C   0  0  0  0  0  0  0  0  0  0  0  0
  151.3651  141.4023  158.8677 C   0  0  0  0  0  0  0  0  0  0  0  0
  152.4109  142.5241  159.0353 C   0  0  1  0  0  0  0  0  0  0  0  0
  152.1101  143.7198  158.1691 C   0  0  0  0  0  0  0  0  0  0  0  0
  152.1223  144.8644  158.8489 C   0  0  0  0  0  0  0  0  0  0  0  0
  152.4316  144.6643  160.3065 C   0  0  0  0  0  0  0  0  0  0  0  0
  152.4842  143.1287  160.4636 C   0  0  0  0  0  0  0  0  0  0  0  0
  150.3409  140.6077  156.7940 N   0  0  0  0  0  0  0  0  0  0  0  0
  150.2268  139.9467  155.4999 C   0  0  0  0  0  0  0  0  0  0  0  0
  149.7223  140.9145  154.4164 C   0  0  0  0  0  0  0  0  0  0  0  0
  148.2799  141.1386  154.5197 N   0  0  0  0  0  0  0  0  0  0  0  0
  147.6208  141.9154  155.4371 C   0  0  0  0  0  0  0  0  0  0  0  0
  146.2854  141.8226  155.1392 C   0  0  0  0  0  0  0  0  0  0  0  0
  146.1869  140.9951  154.0526 N   0  3  0  0  0  0  0  0  0  0  0  0
  147.4014  140.5800  153.6775 C   0  0  0  0  0  0  0  0  0  0  0  0
  150.3612  141.8205  158.9477 H   0  0  0  0  0  0  0  0  0  0  0  0
  151.4646  140.6814  159.6810 H   0  0  0  0  0  0  0  0  0  0  0  0
  153.3958  142.1608  158.7379 H   0  0  0  0  0  0  0  0  0  0  0  0
  151.9261  143.6300  157.1086 H   0  0  0  0  0  0  0  0  0  0  0  0
  151.9495  145.8428  158.4253 H   0  0  0  0  0  0  0  0  0  0  0  0
  153.3890  145.1278  160.5469 H   0  0  0  0  0  0  0  0  0  0  0  0
  151.6590  145.1116  160.9328 H   0  0  0  0  0  0  0  0  0  0  0  0
  151.6345  142.8025  161.0648 H   0  0  0  0  0  0  0  0  0  0  0  0
  153.3859  142.8090  160.9869 H   0  0  0  0  0  0  0  0  0  0  0  0
  149.5055  141.0349  157.1676 H   0  0  0  0  0  0  0  0  0  0  0  0
  151.2091  139.5606  155.2263 H   0  0  0  0  0  0  0  0  0  0  0  0
  149.5656  139.0821  155.5825 H   0  0  0  0  0  0  0  0  0  0  0  0
  150.2193  141.8830  154.4900 H   0  0  0  0  0  0  0  0  0  0  0  0
  149.9317  140.5219  153.4204 H   0  0  0  0  0  0  0  0  0  0  0  0
  148.1370  142.4623  156.2130 H   0  0  0  0  0  0  0  0  0  0  0  0
  145.4209  142.2723  155.6058 H   0  0  0  0  0  0  0  0  0  0  0  0
  147.6279  139.9238  152.8557 H   0  0  0  0  0  0  0  0  0  0  0  0
  145.3217  140.7331  153.5969 H   0  0  0  0  0  0  0  0  0  0  0  0
  1  2  2  0  0  0  0
  2  3  1  0  0  0  0
  2  9  1  0  0  0  0
  3  4  1  0  0  0  0
  3 17  1  0  0  0  0
  3 18  1  0  0  0  0
  4  8  1  0  0  0  0
  4  5  1  0  0  0  0
  4 19  1  0  0  0  0
  5  6  2  0  0  0  0
  5 20  1  0  0  0  0
  6  7  1  0  0  0  0
  6 21  1  0  0  0  0
  7  8  1  0  0  0  0
  7 22  1  0  0  0  0
  7 23  1  0  0  0  0
  8 24  1  0  0  0  0
  8 25  1  0  0  0  0
  9 10  1  0  0  0  0
  9 26  1  0  0  0  0
 10 11  1  0  0  0  0
 10 27  1  0  0  0  0
 10 28  1  0  0  0  0
 11 12  1  0  0  0  0
 11 29  1  0  0  0  0
 11 30  1  0  0  0  0
 12 16  1  0  0  0  0
 12 13  1  0  0  0  0
 13 14  2  0  0  0  0
 13 31  1  0  0  0  0
 14 15  1  0  0  0  0
 14 32  1  0  0  0  0
 15 16  2  0  0  0  0
 15 34  1  0  0  0  0
 16 33  1  0  0  0  0
M  CHG  1  15   1
M  END
> <s_m_source_file>
AV-unprocessed.smi

> <i_m_source_file_index>
3110

> <i_lp_mmshare_version>
43012

> <i_f3d_flags>
0

> <s_epik_input>
W0NIMl0xW0NIMl1bQ0hdPVtDSF1bQ0BIXTFbQ0gyXUMoPU8pW05IXVtDSDJdW0NIMl1uMltjSF1bY0hdbltjSF0y

> <s_epik_cmdline>
J2VwaWtfcHl0aG9uJywgJy1waCcsICc3LjAnLCAnLXRuJywgJzgnLCAnLW1hJywgJzIwMCcsICctbWV0YWxfYmluZGluZycsICctaW1hZScsICc8aW5maWxlLm1hZT4nLCAnLW9tYWUnLCAnPG91dGZpbGUubWFlPic=

> <r_lp_tautomer_probability>
1

> <r_epik_Ionization_Penalty>
0.271094

> <r_epik_Ionization_Penalty_Charging>
0

> <r_epik_Ionization_Penalty_Neutral>
0.271094

> <r_epik_State_Penalty>
0.263241

> <r_epik_Charging_Adjusted_Penalty>
0.263241

> <i_epik_Tot_Q>
1

> <i_epik_Tot_abs_Q>
1

> <r_epik_Metal_State_Penalty>
0.547832

> <b_epik_Metal_Only>
0

> <s_lp_Force_Field>
OPLS_2005

> <r_lp_Energy>
18.3702

> <b_lp_Chiralities_Consistent>
1

> <s_lp_Variant>
AV-unprocessed.smi:3110-2

> <Gold.Version>
5.8.1

> <Gold.Id.Protein>
6NUR|6NUR_protein|mol2

> <Gold.PLP.Fitness>
49.9820

> <Gold.PLP.PLP>
-36.2727

> <Gold.PLP.part.hbond>
-2.0000

> <Gold.PLP.part.metal>
0.0000

> <Gold.PLP.part.buried>
0.7846

> <Gold.PLP.part.nonpolar>
-34.3919

> <Gold.PLP.part.repulsive>
0.0399

> <Gold.PLP.ligand.clash>
0.0000

> <Gold.PLP.ligand.torsion>
0.3717

> <Gold.PLP.Chemscore.Hbond>
2.9920

> <Gold.PLP.Chemscore.CHOScore>
1.8072

> <Gold.PLP.Chemscore.Metal>
0.0000

> <Gold.Chemscore.Hbonds>
donor molecule, donor type, donor heavy atom, donor atom, acceptor molecule, acceptor atom, score
      L1  H    15    34       P1 10175  2.00
      P1  H  7997  8010       L1     1  1.00
      L1  C    13    31       P1  8028  0.73
      L1  C    16    33       P1  7957  0.83

> <Gold.PLP.Chemscore.Internal.Correction>
0.0551

> <Gold.Rescore>
     Score         DG    S(hbond)    S(metal)    S(lipo)     H(rot)  DE(clash)    DE(int)     intcor
     15.90     -17.14       1.88        0.00      92.02       2.10       0.92       0.32       ----

> <Gold.Chemscore.Fitness>
15.8966

> <Gold.Chemscore.DG>
-17.1432

> <Gold.Chemscore.ZeroCoef>
-5.4800

> <Gold.Chemscore.Hbond>
1.8752

> <Gold.Chemscore.Metal>
0.0000

> <Gold.Chemscore.Lipo>
92.0199

> <Gold.Chemscore.Internal_Hbond>
0.0000

> <Gold.Chemscore.DEClash>
0.9221

> <Gold.Chemscore.DEInternal>
0.3245

> <Gold.Chemscore.Rot>
2.0963

> <Gold.Chemscore.Internal.Correction>
   9.000000E+99

> <Gold.Chemscore.Hbonds>
donor molecule, donor type, donor heavy atom, donor atom, acceptor molecule, acceptor atom, score
      L1  H    15    34       P1 10175  0.90
      P1  H  7997  8010       L1     1  0.96

> <Gold.Chemscore.Hbond.Weighted>
-6.2633

> <Gold.Chemscore.Metal.Weighted>
-0.0000

> <Gold.Chemscore.Lipo.Weighted>
-10.7663

> <Gold.Chemscore.Internal_Hbond.Weighted>
0.0000

> <Gold.Chemscore.DEClash.Weighted>
0.9221

> <Gold.Chemscore.DEInternal.Weighted>
0.3245

> <Gold.Chemscore.Rot.Weighted>
5.3665

> <Gold.Chemscore.Internal.Correction.Weighted>
   9.000000E+99

> <Gold.Protein.RotatedTorsions>
[ 6907 6896 6895 6894 ] final  -54.96 input  -60.11 | X-H torsion
[ 7974 7965 7964 7962 ] final   51.78 input  175.53 | X-H torsion
[ 8008 7997 7996 7995 ] final   64.87 input   59.86 | X-H torsion
[ 10167 10162 10161 10158 ] final -115.63 input  -65.29 | X-H torsion
[ 10718 10713 10712 10709 ] final -104.75 input   66.30 | X-H torsion
[ 10763 10752 10751 10750 ] final  131.21 input  -60.55 | X-H torsion
[ 11005 11000 10999 10996 ] final  157.14 input  -57.11 | X-H torsion

> <Gold.Protein.ActiveResidues>
 VAL166  LYS551  ARG553  GLY616  TRP617  ASP618  TYR619  PRO620  LYS621  CYS622 
 ASP623  PHE694  ASN695  SER759  ASP760  ASP761  ALA762  ILE779  LEU786  VAL792 
 PHE793  MET794  SER795  GLU796  ALA797  LYS798  CYS799  TRP800  GLU811  SER814 

> <Gold.Protein.RotatedAtoms>
  150.8293  134.7538  159.6839 H   0  0  0  0  0  0  0  0  0  0  0  0  # atno 6907 bound_to 6896
  152.4400  134.5607  159.9903 H   0  0  0  0  0  0  0  0  0  0  0  0  # atno 6908 bound_to 6896
  151.5772  133.3344  159.3037 H   0  0  0  0  0  0  0  0  0  0  0  0  # atno 6909 bound_to 6896
  145.9879  139.4309  143.0092 H   0  0  0  0  0  0  0  0  0  0  0  0  # atno 7974 bound_to 7965
  155.6528  140.3497  155.4754 H   0  0  0  0  0  0  0  0  0  0  0  0  # atno 8008 bound_to 7997
  155.9834  140.1179  157.0729 H   0  0  0  0  0  0  0  0  0  0  0  0  # atno 8009 bound_to 7997
  154.4198  140.1134  156.5452 H   0  0  0  0  0  0  0  0  0  0  0  0  # atno 8010 bound_to 7997
  140.0880  143.4726  152.1886 H   0  0  0  0  0  0  0  0  0  0  0  0  # atno 10167 bound_to 10162
  156.0317  130.5530  150.7441 H   0  0  0  0  0  0  0  0  0  0  0  0  # atno 10718 bound_to 10713
  153.7707  135.3182  155.3351 H   0  0  0  0  0  0  0  0  0  0  0  0  # atno 10763 bound_to 10752
  154.8197  135.4612  154.0747 H   0  0  0  0  0  0  0  0  0  0  0  0  # atno 10764 bound_to 10752
  153.2006  135.6922  153.8321 H   0  0  0  0  0  0  0  0  0  0  0  0  # atno 10765 bound_to 10752
  140.1741  134.8522  157.2725 H   0  0  0  0  0  0  0  0  0  0  0  0  # atno 11005 bound_to 11000
  145.7673  140.9911  143.1168 LP  0  0  0  0  0  0  0  0  0  0  0  0  # atno 17320 bound_to 7965
  144.6880  139.9404  143.7475 LP  0  0  0  0  0  0  0  0  0  0  0  0  # atno 17321 bound_to 7965
  139.5741  144.7478  151.3813 LP  0  0  0  0  0  0  0  0  0  0  0  0  # atno 17342 bound_to 10162
  140.7043  143.7553  150.7455 LP  0  0  0  0  0  0  0  0  0  0  0  0  # atno 17343 bound_to 10162
  157.5002  131.0918  151.0323 LP  0  0  0  0  0  0  0  0  0  0  0  0  # atno 17370 bound_to 10713
  157.0706  130.5862  149.5402 LP  0  0  0  0  0  0  0  0  0  0  0  0  # atno 17371 bound_to 10713
  140.2343  134.3872  155.7508 LP  0  0  0  0  0  0  0  0  0  0  0  0  # atno 17394 bound_to 11000
  141.2219  133.7231  156.8689 LP  0  0  0  0  0  0  0  0  0  0  0  0  # atno 17395 bound_to 11000

$$$$
