#       Name:                AV-unprocessed.smi:1601
#       Creating user name   scv26
#       Creation time:       Fri Mar 27 07:08:03 2020


#       File generated by GOLD software.
#

@<TRIPOS>MOLECULE
AV-unprocessed.smi:1601
    47    48     1
SMALL
NO_CHARGES


@<TRIPOS>ATOM
      1 ****        -0.5083   1.8123  -1.2710 C.3            1 S1                 0.0000
      2 ****        -1.0128   1.1127   0.0152 C.3            1 S1                 0.0000
      3 ****        -0.4290  -0.3244   0.1241 C.3            1 S1                 0.0000
      4 ****         1.0292  -0.3658   0.0413 N.am           1 S1                 0.0000
      5 ****         1.7400  -0.8359  -0.9974 C.2            1 S1                 0.0000
      6 ****         1.2196  -1.2591  -2.0302 O.2            1 S1                 0.0000
      7 ****         3.2695  -0.8100  -0.8398 C.3            1 S1                 0.0000
      8 ****         4.0144  -0.8631  -2.1893 C.3            1 S1                 0.0000
      9 ****         3.7080  -1.8645   0.0672 N.pl3          1 S1                 0.0000
     10 ****         4.1151  -1.7401   1.3803 C.2            1 S1                 0.0000
     11 ****         4.4039  -2.9923   1.8416 C.2            1 S1                 0.0000
     12 ****         4.1314  -3.8339   0.7276 C.2            1 S1                 0.0000
     13 ****         3.7101  -3.1589  -0.3290 N.2            1 S1                 0.0000
     14 ****        -2.5135   1.1245   0.0906 N.4            1 S1                 1.0000
     15 ****        -3.0759   0.3551   1.2370 C.3            1 S1                 0.0000
     16 ****        -4.6134   0.4028   1.2529 C.3            1 S1                 0.0000
     17 ****        -5.0527   1.7507   1.2895 O.3            1 S1                 0.0000
     18 ****        -4.6346   2.4563   0.1326 C.3            1 S1                 0.0000
     19 ****        -3.0983   2.4956   0.0773 C.3            1 S1                 0.0000
     20 ****         0.5770   1.7803  -1.3574 H              1 S1                 0.0000
     21 ****        -0.7559   2.8719  -1.2963 H              1 S1                 0.0000
     22 ****        -0.9224   1.3437  -2.1642 H              1 S1                 0.0000
     23 ****        -0.6392   1.6805   0.8690 H              1 S1                 0.0000
     24 ****        -0.6564  -0.7608   1.0955 H              1 S1                 0.0000
     25 ****        -0.8868  -0.9762  -0.6221 H              1 S1                 0.0000
     26 ****         1.5394  -0.0341   0.8473 H              1 S1                 0.0000
     27 ****         3.5249   0.1425  -0.3723 H              1 S1                 0.0000
     28 ****         3.7162  -0.0377  -2.8367 H              1 S1                 0.0000
     29 ****         3.8222  -1.7919  -2.7282 H              1 S1                 0.0000
     30 ****         5.0917  -0.7867  -2.0396 H              1 S1                 0.0000
     31 ****         4.1658  -0.7803   1.8730 H              1 S1                 0.0000
     32 ****         4.7536  -3.2655   2.8260 H              1 S1                 0.0000
     33 ****         4.2230  -4.9077   0.6565 H              1 S1                 0.0000
     34 ****        -2.7950  -0.6951   1.1803 H              1 S1                 0.0000
     35 ****        -2.6794   0.7508   2.1734 H              1 S1                 0.0000
     36 ****        -5.0288  -0.1071   0.3819 H              1 S1                 0.0000
     37 ****        -4.9941  -0.1146   2.1336 H              1 S1                 0.0000
     38 ****        -5.0468   1.9917  -0.7649 H              1 S1                 0.0000
     39 ****        -5.0336   3.4699   0.1760 H              1 S1                 0.0000
     40 ****        -2.7104   3.0666   0.9224 H              1 S1                 0.0000
     41 ****        -2.8254   3.0335  -0.8281 H              1 S1                 0.0000
     42 ****        -2.8436   0.6638  -0.7457 H              1 S1                 0.0000
     43 ****         0.2240  -1.2630  -2.1231 LP             1 S1                 0.0000
     44 ****         1.7927  -1.5989  -2.7759 LP             1 S1                 0.0000
     45 ****         3.4505  -3.5241  -1.2230 LP             1 S1                 0.0000
     46 ****        -4.6714   2.1965   2.0994 LP             1 S1                 0.0000
     47 ****        -6.0513   1.7674   1.3390 LP             1 S1                 0.0000
@<TRIPOS>BOND
    1    1    2 1     
    2    1   20 1     
    3    1   21 1     
    4    1   22 1     
    5    2    3 1     
    6    2   14 1     
    7    2   23 1     
    8    3    4 1     
    9    3   24 1     
   10    3   25 1     
   11    4    5 am    
   12    4   26 1     
   13    5    6 2     
   14    5    7 1     
   15    7    8 1     
   16    7    9 1     
   17    7   27 1     
   18    8   28 1     
   19    8   29 1     
   20    8   30 1     
   21    9   13 1     
   22    9   10 1     
   23   10   11 2     
   24   10   31 1     
   25   11   12 1     
   26   11   32 1     
   27   12   13 2     
   28   12   33 1     
   29   14   19 1     
   30   14   15 1     
   31   14   42 1     
   32   15   16 1     
   33   15   34 1     
   34   15   35 1     
   35   16   17 1     
   36   16   36 1     
   37   16   37 1     
   38   17   18 1     
   39   18   19 1     
   40   18   38 1     
   41   18   39 1     
   42   19   40 1     
   43   19   41 1     
   44    6   43 1     
   45    6   44 1     
   46   13   45 1     
   47   17   46 1     
   48   17   47 1     
@<TRIPOS>SUBSTRUCTURE
      1 S1             1
@<TRIPOS>SET
LONE_PAIRS      STATIC     ATOMS    <user>   **** ""
5 43 44 45 46 47
DONOR_HYDROGENS      STATIC     ATOMS    <user>   **** ""
2 26 42
ATOM$BLUE        STATIC     ATOMS    COLORGROUP SYSTEM
5 43 44 45 46 47
ATOM$RED        STATIC     ATOMS    COLORGROUP SYSTEM
2 26 42
