AV-unprocessed.smi:1978|AV-procd|sdf|7996|dock2
  -GOLD-   2272010183D 1   1.00000     0.00000
 Structure written by MMmdl.
 45 46  0  0  0  0  0  0  0  0  2 V2000
  151.8397  140.5499  155.8990 C   0  0  0  0  0  0  0  0  0  0  0  0
  151.5584  139.1143  155.6150 C   0  0  0  0  0  0  0  0  0  0  0  0
  150.6493  138.4851  154.8117 C   0  0  0  0  0  0  0  0  0  0  0  0
  150.9329  137.1098  155.0244 C   0  0  0  0  0  0  0  0  0  0  0  0
  150.1892  136.1012  154.3605 N   0  0  0  0  0  0  0  0  0  0  0  0
  150.0631  134.8114  154.7161 C   0  0  0  0  0  0  0  0  0  0  0  0
  150.5955  134.2900  155.6964 O   0  0  0  0  0  0  0  0  0  0  0  0
  149.2631  134.1467  153.8688 N   0  0  0  0  0  0  0  0  0  0  0  0
  148.9130  132.7317  153.9713 C   0  0  0  0  0  0  0  0  0  0  0  0
  147.6112  132.3843  153.2064 C   0  0  2  0  0  0  0  0  0  0  0  0
  146.3237  132.7765  153.9648 C   0  0  0  0  0  0  0  0  0  0  0  0
  147.6065  130.9490  152.7709 N   0  3  1  0  0  0  0  0  0  0  0  0
  148.1117  130.0059  153.8130 C   0  0  0  0  0  0  0  0  0  0  0  0
  148.3519  128.6045  153.2351 C   0  0  0  0  0  0  0  0  0  0  0  0
  147.0640  128.0519  152.6221 C   0  0  0  0  0  0  0  0  0  0  0  0
  146.5293  129.0358  151.5769 C   0  0  0  0  0  0  0  0  0  0  0  0
  146.3263  130.4514  152.1627 C   0  0  2  0  0  0  0  0  0  0  0  0
  145.7628  131.3679  151.0570 C   0  0  0  0  0  0  0  0  0  0  0  0
  151.9264  136.9169  155.8783 N   0  0  0  0  0  0  0  0  0  0  0  0
  152.3325  138.2006  156.2609 O   0  0  0  0  0  0  0  0  0  0  0  0
  151.2004  141.1990  155.3005 H   0  0  0  0  0  0  0  0  0  0  0  0
  152.8773  140.7930  155.6700 H   0  0  0  0  0  0  0  0  0  0  0  0
  151.6622  140.7771  156.9503 H   0  0  0  0  0  0  0  0  0  0  0  0
  149.9022  138.9388  154.1776 H   0  0  0  0  0  0  0  0  0  0  0  0
  149.6917  136.3972  153.5338 H   0  0  0  0  0  0  0  0  0  0  0  0
  148.8697  134.6571  153.0916 H   0  0  0  0  0  0  0  0  0  0  0  0
  149.7430  132.1613  153.5529 H   0  0  0  0  0  0  0  0  0  0  0  0
  148.8550  132.4468  155.0211 H   0  0  0  0  0  0  0  0  0  0  0  0
  147.6593  133.0138  152.3214 H   0  0  0  0  0  0  0  0  0  0  0  0
  146.2649  133.8546  154.1123 H   0  0  0  0  0  0  0  0  0  0  0  0
  146.2763  132.3131  154.9503 H   0  0  0  0  0  0  0  0  0  0  0  0
  145.4277  132.4899  153.4152 H   0  0  0  0  0  0  0  0  0  0  0  0
  149.0460  130.3578  154.2457 H   0  0  0  0  0  0  0  0  0  0  0  0
  147.3947  129.9392  154.6322 H   0  0  0  0  0  0  0  0  0  0  0  0
  149.1373  128.6449  152.4789 H   0  0  0  0  0  0  0  0  0  0  0  0
  148.7078  127.9337  154.0176 H   0  0  0  0  0  0  0  0  0  0  0  0
  147.2496  127.0788  152.1664 H   0  0  0  0  0  0  0  0  0  0  0  0
  146.3171  127.8967  153.4018 H   0  0  0  0  0  0  0  0  0  0  0  0
  147.2226  129.0821  150.7356 H   0  0  0  0  0  0  0  0  0  0  0  0
  145.5881  128.6559  151.1776 H   0  0  0  0  0  0  0  0  0  0  0  0
  145.5766  130.3818  152.9521 H   0  0  0  0  0  0  0  0  0  0  0  0
  144.9350  130.8851  150.5369 H   0  0  0  0  0  0  0  0  0  0  0  0
  146.5211  131.6094  150.3115 H   0  0  0  0  0  0  0  0  0  0  0  0
  145.3616  132.2988  151.4567 H   0  0  0  0  0  0  0  0  0  0  0  0
  148.2801  130.9101  152.0194 H   0  0  0  0  0  0  0  0  0  0  0  0
  1  2  1  0  0  0  0
  1 21  1  0  0  0  0
  1 22  1  0  0  0  0
  1 23  1  0  0  0  0
  2 20  1  0  0  0  0
  2  3  2  0  0  0  0
  3  4  1  0  0  0  0
  3 24  1  0  0  0  0
  4  5  1  0  0  0  0
  4 19  2  0  0  0  0
  5  6  1  0  0  0  0
  5 25  1  0  0  0  0
  6  7  2  0  0  0  0
  6  8  1  0  0  0  0
  8  9  1  0  0  0  0
  8 26  1  0  0  0  0
  9 10  1  0  0  0  0
  9 27  1  0  0  0  0
  9 28  1  0  0  0  0
 10 11  1  0  0  0  0
 10 12  1  0  0  0  0
 10 29  1  0  0  0  0
 11 30  1  0  0  0  0
 11 31  1  0  0  0  0
 11 32  1  0  0  0  0
 12 17  1  0  0  0  0
 12 13  1  0  0  0  0
 12 45  1  0  0  0  0
 13 14  1  0  0  0  0
 13 33  1  0  0  0  0
 13 34  1  0  0  0  0
 14 15  1  0  0  0  0
 14 35  1  0  0  0  0
 14 36  1  0  0  0  0
 15 16  1  0  0  0  0
 15 37  1  0  0  0  0
 15 38  1  0  0  0  0
 16 17  1  0  0  0  0
 16 39  1  0  0  0  0
 16 40  1  0  0  0  0
 17 18  1  0  0  0  0
 17 41  1  0  0  0  0
 18 42  1  0  0  0  0
 18 43  1  0  0  0  0
 18 44  1  0  0  0  0
 19 20  1  0  0  0  0
M  CHG  1  12   1
M  END
> <s_m_source_file>
AV-unprocessed.smi

> <i_m_source_file_index>
1978

> <i_lp_mmshare_version>
43012

> <i_f3d_flags>
0

> <s_epik_input>
W0NIM11jMVtjSF1jKG5vMSlbTkhdQyg9TylbTkhdW0NIMl1bQ0BIXShbQ0gzXSlOMltDSDJdW0NIMl1bQ0gyXVtDSDJdW0NASF0yW0NIM10=

> <s_epik_cmdline>
J2VwaWtfcHl0aG9uJywgJy1waCcsICc3LjAnLCAnLXRuJywgJzgnLCAnLW1hJywgJzIwMCcsICctbWV0YWxfYmluZGluZycsICctaW1hZScsICc8aW5maWxlLm1hZT4nLCAnLW9tYWUnLCAnPG91dGZpbGUubWFlPic=

> <r_epik_Ionization_Penalty>
0.00265971

> <r_epik_Ionization_Penalty_Charging>
0.00262393

> <r_epik_Ionization_Penalty_Neutral>
3.57846e-05

> <r_epik_State_Penalty>
0.00182566

> <r_epik_Charging_Adjusted_Penalty>
0.00444959

> <i_epik_Tot_Q>
1

> <i_epik_Tot_abs_Q>
1

> <r_epik_Metal_State_Penalty>
0.0216344

> <b_epik_Metal_Only>
0

> <s_lp_Force_Field>
OPLS_2005

> <r_lp_Energy>
21.464

> <b_lp_Chiralities_Consistent>
1

> <s_lp_Variant>
AV-unprocessed.smi:1978-5

> <Gold.Version>
5.8.1

> <Gold.Id.Protein>
6NUR|6NUR_protein|mol2

> <Gold.PLP.Fitness>
45.7108

> <Gold.PLP.PLP>
-35.7694

> <Gold.PLP.part.hbond>
-5.0000

> <Gold.PLP.part.metal>
0.0000

> <Gold.PLP.part.buried>
-3.7261

> <Gold.PLP.part.nonpolar>
-27.1423

> <Gold.PLP.part.repulsive>
0.1472

> <Gold.PLP.ligand.clash>
0.0000

> <Gold.PLP.ligand.torsion>
0.7813

> <Gold.PLP.Chemscore.Hbond>
3.7888

> <Gold.PLP.Chemscore.CHOScore>
0.0000

> <Gold.PLP.Chemscore.Metal>
0.0000

> <Gold.Chemscore.Hbonds>
donor molecule, donor type, donor heavy atom, donor atom, acceptor molecule, acceptor atom, score
      L1  H     5    25       P1  7948  1.00
      L1  H     8    26       P1  7948  0.78
      L1  H    12    45       P1 10747  1.00
      P1  H 10752 10765       L1    19  0.94

> <Gold.PLP.Chemscore.Internal.Correction>
0.1375

> <Gold.Rescore>
     Score         DG    S(hbond)    S(metal)    S(lipo)     H(rot)  DE(clash)    DE(int)     intcor
     19.84     -20.70       3.04        0.00      77.16       1.55       0.04       0.81       ----

> <Gold.Chemscore.Fitness>
19.8442

> <Gold.Chemscore.DG>
-20.6992

> <Gold.Chemscore.ZeroCoef>
-5.4800

> <Gold.Chemscore.Hbond>
3.0398

> <Gold.Chemscore.Metal>
0.0000

> <Gold.Chemscore.Lipo>
77.1594

> <Gold.Chemscore.Internal_Hbond>
0.0000

> <Gold.Chemscore.DEClash>
0.0411

> <Gold.Chemscore.DEInternal>
0.8139

> <Gold.Chemscore.Rot>
1.5474

> <Gold.Chemscore.Internal.Correction>
   9.000000E+99

> <Gold.Chemscore.Hbonds>
donor molecule, donor type, donor heavy atom, donor atom, acceptor molecule, acceptor atom, score
      L1  H     5    25       P1  7948  0.39
      L1  H     8    26       P1  7948  0.11
      L1  H    12    45       P1 10747  0.99
      P1  H 10752 10765       L1    19  0.19

> <Gold.Chemscore.Hbond.Weighted>
-10.1528

> <Gold.Chemscore.Metal.Weighted>
-0.0000

> <Gold.Chemscore.Lipo.Weighted>
-9.0276

> <Gold.Chemscore.Internal_Hbond.Weighted>
0.0000

> <Gold.Chemscore.DEClash.Weighted>
0.0411

> <Gold.Chemscore.DEInternal.Weighted>
0.8139

> <Gold.Chemscore.Rot.Weighted>
3.9612

> <Gold.Chemscore.Internal.Correction.Weighted>
   9.000000E+99

> <Gold.Protein.RotatedTorsions>
[ 6907 6896 6895 6894 ] final   69.66 input  -60.11 | X-H torsion
[ 7974 7965 7964 7962 ] final  -22.60 input  175.53 | X-H torsion
[ 8008 7997 7996 7995 ] final   66.41 input   59.86 | X-H torsion
[ 10167 10162 10161 10158 ] final -178.37 input  -65.29 | X-H torsion
[ 10718 10713 10712 10709 ] final   10.05 input   66.30 | X-H torsion
[ 10763 10752 10751 10750 ] final -166.96 input  -60.55 | X-H torsion
[ 11005 11000 10999 10996 ] final  157.62 input  -57.11 | X-H torsion

> <Gold.Protein.ActiveResidues>
 VAL166  LYS551  ARG553  GLY616  TRP617  ASP618  TYR619  PRO620  LYS621  CYS622 
 ASP623  PHE694  ASN695  SER759  ASP760  ASP761  ALA762  ILE779  LEU786  VAL792 
 PHE793  MET794  SER795  GLU796  ALA797  LYS798  CYS799  TRP800  GLU811  SER814 

> <Gold.Protein.RotatedAtoms>
  152.4700  134.4983  159.9716 H   0  0  0  0  0  0  0  0  0  0  0  0  # atno 6907 bound_to 6896
  151.5012  133.3498  159.2877 H   0  0  0  0  0  0  0  0  0  0  0  0  # atno 6908 bound_to 6896
  150.8705  134.8106  159.7213 H   0  0  0  0  0  0  0  0  0  0  0  0  # atno 6909 bound_to 6896
  146.1666  140.4502  142.8549 H   0  0  0  0  0  0  0  0  0  0  0  0  # atno 7974 bound_to 7965
  155.6769  140.3497  155.4840 H   0  0  0  0  0  0  0  0  0  0  0  0  # atno 8008 bound_to 7997
  155.9640  140.1143  157.0893 H   0  0  0  0  0  0  0  0  0  0  0  0  # atno 8009 bound_to 7997
  154.4150  140.1170  156.5203 H   0  0  0  0  0  0  0  0  0  0  0  0  # atno 8010 bound_to 7997
  139.5435  144.2297  152.0943 H   0  0  0  0  0  0  0  0  0  0  0  0  # atno 10167 bound_to 10162
  156.9753  130.5985  149.5672 H   0  0  0  0  0  0  0  0  0  0  0  0  # atno 10718 bound_to 10713
  154.6780  135.2950  154.9652 H   0  0  0  0  0  0  0  0  0  0  0  0  # atno 10763 bound_to 10752
  154.0656  135.6625  153.4821 H   0  0  0  0  0  0  0  0  0  0  0  0  # atno 10764 bound_to 10752
  153.0529  135.5163  154.7809 H   0  0  0  0  0  0  0  0  0  0  0  0  # atno 10765 bound_to 10752
  140.1787  134.8491  157.2777 H   0  0  0  0  0  0  0  0  0  0  0  0  # atno 11005 bound_to 11000
  144.8101  140.6370  143.6421 LP  0  0  0  0  0  0  0  0  0  0  0  0  # atno 17320 bound_to 7965
  145.4452  139.1530  143.3949 LP  0  0  0  0  0  0  0  0  0  0  0  0  # atno 17321 bound_to 7965
  140.1780  144.4872  150.6544 LP  0  0  0  0  0  0  0  0  0  0  0  0  # atno 17342 bound_to 10162
  140.6675  143.2273  151.5707 LP  0  0  0  0  0  0  0  0  0  0  0  0  # atno 17343 bound_to 10162
  156.0266  130.5360  150.8423 LP  0  0  0  0  0  0  0  0  0  0  0  0  # atno 17370 bound_to 10713
  157.5564  131.0945  150.9622 LP  0  0  0  0  0  0  0  0  0  0  0  0  # atno 17371 bound_to 10713
  140.2293  134.3929  155.7529 LP  0  0  0  0  0  0  0  0  0  0  0  0  # atno 17394 bound_to 11000
  141.2222  133.7206  156.8615 LP  0  0  0  0  0  0  0  0  0  0  0  0  # atno 17395 bound_to 11000

$$$$
