#       Name:                AV-unprocessed.smi:1664
#       Creating user name   scv26
#       Creation time:       Fri Mar 27 07:37:58 2020


#       File generated by GOLD software.
#

@<TRIPOS>MOLECULE
AV-unprocessed.smi:1664
    42    43     1
SMALL
NO_CHARGES


@<TRIPOS>ATOM
      1 ****        -2.6841   1.2294  -1.5197 C.3            1 S1                 0.0000
      2 ****        -1.8547   1.1560  -0.2222 C.3            1 S1                 0.0000
      3 ****        -1.9874   2.4323   0.5110 C.1            1 S1                 0.0000
      4 ****        -2.0912   3.4324   1.0847 N.1            1 S1                 0.0000
      5 ****        -0.4534   0.8981  -0.5575 N.am           1 S1                 0.0000
      6 ****         0.4133   1.7231  -1.1739 C.2            1 S1                 0.0000
      7 ****         0.1080   2.8515  -1.5558 O.2            1 S1                 0.0000
      8 ****         1.8503   1.2243  -1.4054 C.3            1 S1                 0.0000
      9 ****         2.1058  -0.1622  -0.9729 N.am           1 S1                 0.0000
     10 ****         2.6040  -0.3410   0.3328 C.2            1 S1                 0.0000
     11 ****         2.8691  -1.5619   0.8375 C.2            1 S1                 0.0000
     12 ****         3.3684  -1.7274   2.1848 N.pl3          1 S1                 1.0000
     13 ****         3.5993  -2.8616   2.5913 O.2            1 S1                 0.0000
     14 ****         3.5448  -0.7320   2.8809 O.2            1 S1                -1.0000
     15 ****         2.6287  -2.7101  -0.0151 C.2            1 S1                 0.0000
     16 ****         2.1461  -2.5462  -1.2627 C.2            1 S1                 0.0000
     17 ****         1.8481  -1.2170  -1.8056 C.2            1 S1                 0.0000
     18 ****         1.3877  -1.0615  -2.9364 O.2            1 S1                 0.0000
     19 ****        -2.3975   0.0147   0.6351 C.3            1 S1                 0.0000
     20 ****        -3.6125   0.1684   1.5228 C.3            1 S1                 0.0000
     21 ****        -2.2438  -0.0229   2.1391 C.3            1 S1                 0.0000
     22 ****        -3.7439   1.3603  -1.2991 H              1 S1                 0.0000
     23 ****        -2.5813   0.3180  -2.1102 H              1 S1                 0.0000
     24 ****        -2.3836   2.0672  -2.1491 H              1 S1                 0.0000
     25 ****        -0.1004  -0.0064  -0.2813 H              1 S1                 0.0000
     26 ****         2.0902   1.3437  -2.4634 H              1 S1                 0.0000
     27 ****         2.5286   1.9053  -0.8890 H              1 S1                 0.0000
     28 ****         2.7422   0.5759   0.8881 H              1 S1                 0.0000
     29 ****         2.8339  -3.7093   0.3401 H              1 S1                 0.0000
     30 ****         1.9741  -3.4155  -1.8804 H              1 S1                 0.0000
     31 ****        -2.3128  -0.9529   0.1427 H              1 S1                 0.0000
     32 ****        -4.0693   1.1520   1.6086 H              1 S1                 0.0000
     33 ****        -4.3058  -0.6689   1.5713 H              1 S1                 0.0000
     34 ****        -2.0297  -0.9872   2.5952 H              1 S1                 0.0000
     35 ****        -1.7902   0.8329   2.6346 H              1 S1                 0.0000
     36 ****        -2.1809   4.2963   1.5803 LP             1 S1                 0.0000
     37 ****        -0.8208   3.1935  -1.4129 LP             1 S1                 0.0000
     38 ****         0.7885   3.4270  -2.0093 LP             1 S1                 0.0000
     39 ****         3.4418  -3.6484   1.9945 LP             1 S1                 0.0000
     40 ****         3.9450  -2.9994   3.5194 LP             1 S1                 0.0000
     41 ****         1.1897  -0.1411  -3.2734 LP             1 S1                 0.0000
     42 ****         1.2116  -1.8556  -3.5182 LP             1 S1                 0.0000
@<TRIPOS>BOND
    1    1    2 1     
    2    1   22 1     
    3    1   23 1     
    4    1   24 1     
    5    2    3 1     
    6    2    5 1     
    7    2   19 1     
    8    3    4 3     
    9    5    6 am    
   10    5   25 1     
   11    6    7 2     
   12    6    8 1     
   13    8    9 1     
   14    8   26 1     
   15    8   27 1     
   16    9   17 am    
   17    9   10 1     
   18   10   11 2     
   19   10   28 1     
   20   11   12 1     
   21   11   15 1     
   22   12   13 2     
   23   12   14 1     
   24   15   16 2     
   25   15   29 1     
   26   16   17 1     
   27   16   30 1     
   28   17   18 2     
   29   19   21 1     
   30   19   20 1     
   31   19   31 1     
   32   20   21 1     
   33   20   32 1     
   34   20   33 1     
   35   21   34 1     
   36   21   35 1     
   37    4   36 1     
   38    7   37 1     
   39    7   38 1     
   40   13   39 1     
   41   13   40 1     
   42   18   41 1     
   43   18   42 1     
@<TRIPOS>SUBSTRUCTURE
      1 S1             1
@<TRIPOS>SET
LONE_PAIRS      STATIC     ATOMS    <user>   **** ""
8 36 37 38 39 40 14 41 42
DONOR_HYDROGENS      STATIC     ATOMS    <user>   **** ""
1 25
ATOM$BLUE        STATIC     ATOMS    COLORGROUP SYSTEM
8 36 37 38 39 40 14 41 42
ATOM$RED        STATIC     ATOMS    COLORGROUP SYSTEM
1 25
