AV-unprocessed.smi:1047|AV-procd|sdf|4560|dock5
  -GOLD-   22720 3 03D 1   1.00000     0.00000
 Structure written by MMmdl.
 57 59  0  0  0  0  0  0  0  0  3 V2000
  145.1696  135.7327  150.4740 C   0  0  0  0  0  0  0  0  0  0  0  0
  144.4727  134.7268  151.4015 C   0  0  0  0  0  0  0  0  0  0  0  0
  145.4245  134.0202  152.2951 N   0  3  1  0  0  0  0  0  0  0  0  0
  146.3521  133.1398  151.5453 C   0  0  0  0  0  0  0  0  0  0  0  0
  147.2751  132.3793  152.5120 C   0  0  0  0  0  0  0  0  0  0  0  0
  147.9914  133.3055  153.3199 O   0  0  0  0  0  0  0  0  0  0  0  0
  147.1268  134.1159  154.1088 C   0  0  1  0  0  0  0  0  0  0  0  0
  147.9819  134.9926  155.0404 C   0  0  0  0  0  0  0  0  0  0  0  0
  149.2879  135.3334  154.4387 N   0  3  0  0  0  0  0  0  0  0  0  0
  150.2210  136.0136  155.3587 C   0  0  0  0  0  0  0  0  0  0  0  0
  150.7609  137.3119  154.7374 C   0  0  2  0  0  0  0  0  0  0  0  0
  151.7092  136.9769  153.7422 O   0  0  0  0  0  0  0  0  0  0  0  0
  151.4229  138.2264  155.7861 C   0  0  0  0  0  0  0  0  0  0  0  0
  150.9775  139.6041  155.6762 N   0  0  0  0  0  0  0  0  0  0  0  0
  150.2282  140.1423  154.6945 C   0  0  0  0  0  0  0  0  0  0  0  0
  149.9265  141.4334  154.7979 N   0  0  0  0  0  0  0  0  0  0  0  0
  150.5603  141.7750  155.9803 C   0  0  0  0  0  0  0  0  0  0  0  0
  150.6288  143.0102  156.6610 C   0  0  0  0  0  0  0  0  0  0  0  0
  151.3454  143.1311  157.8729 C   0  0  0  0  0  0  0  0  0  0  0  0
  151.3924  144.4784  158.5717 C   0  0  0  0  0  0  0  0  0  0  0  0
  152.0094  142.0044  158.4216 C   0  0  0  0  0  0  0  0  0  0  0  0
  152.7894  142.1121  159.7200 C   0  0  0  0  0  0  0  0  0  0  0  0
  151.9486  140.7622  157.7560 C   0  0  0  0  0  0  0  0  0  0  0  0
  151.2310  140.6544  156.5517 C   0  0  0  0  0  0  0  0  0  0  0  0
  146.1860  134.9263  153.1914 C   0  0  0  0  0  0  0  0  0  0  0  0
  144.4336  136.2997  149.9034 H   0  0  0  0  0  0  0  0  0  0  0  0
  145.8244  135.2418  149.7547 H   0  0  0  0  0  0  0  0  0  0  0  0
  145.7659  136.4469  151.0426 H   0  0  0  0  0  0  0  0  0  0  0  0
  143.7554  135.2776  152.0119 H   0  0  0  0  0  0  0  0  0  0  0  0
  143.8950  134.0056  150.8212 H   0  0  0  0  0  0  0  0  0  0  0  0
  145.7845  132.4267  150.9460 H   0  0  0  0  0  0  0  0  0  0  0  0
  146.9468  133.7381  150.8530 H   0  0  0  0  0  0  0  0  0  0  0  0
  146.7039  131.6939  153.1403 H   0  0  0  0  0  0  0  0  0  0  0  0
  147.9892  131.7758  151.9515 H   0  0  0  0  0  0  0  0  0  0  0  0
  146.5215  133.4611  154.7387 H   0  0  0  0  0  0  0  0  0  0  0  0
  147.4451  135.9106  155.2831 H   0  0  0  0  0  0  0  0  0  0  0  0
  148.1527  134.4668  155.9809 H   0  0  0  0  0  0  0  0  0  0  0  0
  149.7284  134.4800  154.1240 H   0  0  0  0  0  0  0  0  0  0  0  0
  149.6888  136.2397  156.2837 H   0  0  0  0  0  0  0  0  0  0  0  0
  151.0426  135.3440  155.6181 H   0  0  0  0  0  0  0  0  0  0  0  0
  149.9419  137.8523  154.2606 H   0  0  0  0  0  0  0  0  0  0  0  0
  151.2462  136.7661  152.9449 H   0  0  0  0  0  0  0  0  0  0  0  0
  151.1937  137.8758  156.7932 H   0  0  0  0  0  0  0  0  0  0  0  0
  152.5093  138.2000  155.6856 H   0  0  0  0  0  0  0  0  0  0  0  0
  149.8784  139.5518  153.8601 H   0  0  0  0  0  0  0  0  0  0  0  0
  150.1240  143.8685  156.2421 H   0  0  0  0  0  0  0  0  0  0  0  0
  152.4210  144.8308  158.6519 H   0  0  0  0  0  0  0  0  0  0  0  0
  150.9719  144.4038  159.5747 H   0  0  0  0  0  0  0  0  0  0  0  0
  150.8225  145.2312  158.0261 H   0  0  0  0  0  0  0  0  0  0  0  0
  153.2502  141.1610  159.9882 H   0  0  0  0  0  0  0  0  0  0  0  0
  152.1312  142.4080  160.5375 H   0  0  0  0  0  0  0  0  0  0  0  0
  153.5834  142.8537  159.6290 H   0  0  0  0  0  0  0  0  0  0  0  0
  152.4492  139.8966  158.1636 H   0  0  0  0  0  0  0  0  0  0  0  0
  146.7562  135.6318  152.5852 H   0  0  0  0  0  0  0  0  0  0  0  0
  145.5030  135.5117  153.8063 H   0  0  0  0  0  0  0  0  0  0  0  0
  149.1355  135.9309  153.6391 H   0  0  0  0  0  0  0  0  0  0  0  0
  144.8706  133.4134  152.8833 H   0  0  0  0  0  0  0  0  0  0  0  0
  1  2  1  0  0  0  0
  1 26  1  0  0  0  0
  1 27  1  0  0  0  0
  1 28  1  0  0  0  0
  2  3  1  0  0  0  0
  2 29  1  0  0  0  0
  2 30  1  0  0  0  0
  3 25  1  0  0  0  0
  3  4  1  0  0  0  0
  3 57  1  0  0  0  0
  4  5  1  0  0  0  0
  4 31  1  0  0  0  0
  4 32  1  0  0  0  0
  5  6  1  0  0  0  0
  5 33  1  0  0  0  0
  5 34  1  0  0  0  0
  6  7  1  0  0  0  0
  7  8  1  0  0  0  0
  7 25  1  0  0  0  0
  7 35  1  0  0  0  0
  8  9  1  0  0  0  0
  8 36  1  0  0  0  0
  8 37  1  0  0  0  0
  9 10  1  0  0  0  0
  9 38  1  0  0  0  0
  9 56  1  0  0  0  0
 10 11  1  0  0  0  0
 10 39  1  0  0  0  0
 10 40  1  0  0  0  0
 11 12  1  0  0  0  0
 11 13  1  0  0  0  0
 11 41  1  0  0  0  0
 12 42  1  0  0  0  0
 13 14  1  0  0  0  0
 13 43  1  0  0  0  0
 13 44  1  0  0  0  0
 14 24  1  0  0  0  0
 14 15  1  0  0  0  0
 15 16  2  0  0  0  0
 15 45  1  0  0  0  0
 16 17  1  0  0  0  0
 17 24  2  0  0  0  0
 17 18  1  0  0  0  0
 18 19  2  0  0  0  0
 18 46  1  0  0  0  0
 19 20  1  0  0  0  0
 19 21  1  0  0  0  0
 20 47  1  0  0  0  0
 20 48  1  0  0  0  0
 20 49  1  0  0  0  0
 21 22  1  0  0  0  0
 21 23  2  0  0  0  0
 22 50  1  0  0  0  0
 22 51  1  0  0  0  0
 22 52  1  0  0  0  0
 23 24  1  0  0  0  0
 23 53  1  0  0  0  0
 25 54  1  0  0  0  0
 25 55  1  0  0  0  0
M  CHG  1   3   1
M  CHG  1   9   1
M  END
> <s_m_source_file>
AV-unprocessed.smi

> <i_m_source_file_index>
1047

> <i_lp_mmshare_version>
43012

> <i_f3d_flags>
0

> <s_epik_input>
W0NIM11bQ0gyXU4xW0NIMl1bQ0gyXU9bQ0BIXShbQ0gyXTEpW0NIMl1bTkhdW0NIMl1bQ0BIXShbT0hdKVtDSDJdbihbY0hdbjIpYyhjMjMpW2NIXWMoW0NIM10pYyhbY0hdMylbQ0gzXQ==

> <s_epik_cmdline>
J2VwaWtfcHl0aG9uJywgJy1waCcsICc3LjAnLCAnLXRuJywgJzgnLCAnLW1hJywgJzIwMCcsICctbWV0YWxfYmluZGluZycsICctaW1hZScsICc8aW5maWxlLm1hZT4nLCAnLW9tYWUnLCAnPG91dGZpbGUubWFlPic=

> <r_epik_Ionization_Penalty>
0.528991

> <r_epik_Ionization_Penalty_Charging>
0.438567

> <r_epik_Ionization_Penalty_Neutral>
0.0904237

> <r_epik_State_Penalty>
0.533036

> <r_epik_Charging_Adjusted_Penalty>
0.971603

> <i_epik_Tot_Q>
2

> <i_epik_Tot_abs_Q>
2

> <r_epik_Metal_State_Penalty>
0.448985

> <b_epik_Metal_Only>
0

> <s_lp_Force_Field>
OPLS_2005

> <r_lp_Energy>
32.0872

> <b_lp_Chiralities_Consistent>
1

> <s_lp_Variant>
AV-unprocessed.smi:1047-1

> <Gold.Version>
5.8.1

> <Gold.Id.Protein>
6NUR|6NUR_protein|mol2

> <Gold.PLP.Fitness>
54.1980

> <Gold.PLP.PLP>
-44.1574

> <Gold.PLP.part.hbond>
-3.7902

> <Gold.PLP.part.metal>
0.0000

> <Gold.PLP.part.buried>
1.2535

> <Gold.PLP.part.nonpolar>
-40.7729

> <Gold.PLP.part.repulsive>
0.3366

> <Gold.PLP.ligand.clash>
0.0000

> <Gold.PLP.ligand.torsion>
1.6172

> <Gold.PLP.Chemscore.Hbond>
4.0000

> <Gold.PLP.Chemscore.CHOScore>
0.3679

> <Gold.PLP.Chemscore.Metal>
0.0000

> <Gold.Chemscore.Hbonds>
donor molecule, donor type, donor heavy atom, donor atom, acceptor molecule, acceptor atom, score
      L1  H     9    56       P1  7948  2.00
      L1  H    12    42       P1  7949  1.00
      P1  H 10752 10765       L1    12  1.00
      L1  C    15    45       P1  7957  0.44

> <Gold.PLP.Chemscore.Internal.Correction>
0.1714

> <Gold.Rescore>
     Score         DG    S(hbond)    S(metal)    S(lipo)     H(rot)  DE(clash)    DE(int)     intcor
     18.28     -20.52       2.34        0.00     120.77       2.70       0.55       1.69       ----

> <Gold.Chemscore.Fitness>
18.2817

> <Gold.Chemscore.DG>
-20.5195

> <Gold.Chemscore.ZeroCoef>
-5.4800

> <Gold.Chemscore.Hbond>
2.3406

> <Gold.Chemscore.Metal>
0.0000

> <Gold.Chemscore.Lipo>
120.7692

> <Gold.Chemscore.Internal_Hbond>
0.0000

> <Gold.Chemscore.DEClash>
0.5468

> <Gold.Chemscore.DEInternal>
1.6910

> <Gold.Chemscore.Rot>
2.6985

> <Gold.Chemscore.Internal.Correction>
   9.000000E+99

> <Gold.Chemscore.Hbonds>
donor molecule, donor type, donor heavy atom, donor atom, acceptor molecule, acceptor atom, score
      L1  H     9    56       P1  7948  0.82
      L1  H    12    42       P1  7949  0.62
      P1  H 10752 10765       L1    12  0.69

> <Gold.Chemscore.Hbond.Weighted>
-7.8177

> <Gold.Chemscore.Metal.Weighted>
-0.0000

> <Gold.Chemscore.Lipo.Weighted>
-14.1300

> <Gold.Chemscore.Internal_Hbond.Weighted>
0.0000

> <Gold.Chemscore.DEClash.Weighted>
0.5468

> <Gold.Chemscore.DEInternal.Weighted>
1.6910

> <Gold.Chemscore.Rot.Weighted>
6.9081

> <Gold.Chemscore.Internal.Correction.Weighted>
   9.000000E+99

> <Gold.Protein.RotatedTorsions>
[ 6907 6896 6895 6894 ] final  105.52 input  -60.11 | X-H torsion
[ 7974 7965 7964 7962 ] final -162.33 input  175.53 | X-H torsion
[ 8008 7997 7996 7995 ] final -123.18 input   59.86 | X-H torsion
[ 10167 10162 10161 10158 ] final   22.43 input  -65.29 | X-H torsion
[ 10718 10713 10712 10709 ] final  149.43 input   66.30 | X-H torsion
[ 10763 10752 10751 10750 ] final  146.66 input  -60.55 | X-H torsion
[ 11005 11000 10999 10996 ] final  -47.59 input  -57.11 | X-H torsion

> <Gold.Protein.ActiveResidues>
 VAL166  LYS551  ARG553  GLY616  TRP617  ASP618  TYR619  PRO620  LYS621  CYS622 
 ASP623  PHE694  ASN695  SER759  ASP760  ASP761  ALA762  ILE779  LEU786  VAL792 
 PHE793  MET794  SER795  GLU796  ALA797  LYS798  CYS799  TRP800  GLU811  SER814 

> <Gold.Protein.RotatedAtoms>
  152.5227  133.9516  159.7674 H   0  0  0  0  0  0  0  0  0  0  0  0  # atno 6907 bound_to 6896
  150.9825  133.6223  159.2727 H   0  0  0  0  0  0  0  0  0  0  0  0  # atno 6908 bound_to 6896
  151.3396  135.0866  159.9419 H   0  0  0  0  0  0  0  0  0  0  0  0  # atno 6909 bound_to 6896
  144.7361  140.3268  143.6160 H   0  0  0  0  0  0  0  0  0  0  0  0  # atno 7974 bound_to 7965
  155.1764  140.0409  157.2873 H   0  0  0  0  0  0  0  0  0  0  0  0  # atno 8008 bound_to 7997
  154.6234  140.2506  155.7494 H   0  0  0  0  0  0  0  0  0  0  0  0  # atno 8009 bound_to 7997
  156.2446  140.2890  156.0552 H   0  0  0  0  0  0  0  0  0  0  0  0  # atno 8010 bound_to 7997
  140.5349  143.9778  150.6486 H   0  0  0  0  0  0  0  0  0  0  0  0  # atno 10167 bound_to 10162
  157.2962  131.0862  151.1425 H   0  0  0  0  0  0  0  0  0  0  0  0  # atno 10718 bound_to 10713
  154.0256  135.2902  155.3375 H   0  0  0  0  0  0  0  0  0  0  0  0  # atno 10763 bound_to 10752
  154.7020  135.5185  153.8543 H   0  0  0  0  0  0  0  0  0  0  0  0  # atno 10764 bound_to 10752
  153.0662  135.6632  154.0473 H   0  0  0  0  0  0  0  0  0  0  0  0  # atno 10765 bound_to 10752
  141.0650  133.6697  156.3319 H   0  0  0  0  0  0  0  0  0  0  0  0  # atno 11005 bound_to 11000
  145.7513  139.1794  143.2320 LP  0  0  0  0  0  0  0  0  0  0  0  0  # atno 17320 bound_to 7965
  146.1059  140.7488  142.9527 LP  0  0  0  0  0  0  0  0  0  0  0  0  # atno 17321 bound_to 7965
  140.3163  143.3166  152.0829 LP  0  0  0  0  0  0  0  0  0  0  0  0  # atno 17342 bound_to 10162
  139.4967  144.6603  151.6479 LP  0  0  0  0  0  0  0  0  0  0  0  0  # atno 17343 bound_to 10162
  157.2802  130.6746  149.6062 LP  0  0  0  0  0  0  0  0  0  0  0  0  # atno 17370 bound_to 10713
  155.9669  130.4452  150.5492 LP  0  0  0  0  0  0  0  0  0  0  0  0  # atno 17371 bound_to 10713
  140.5792  134.5762  157.5476 LP  0  0  0  0  0  0  0  0  0  0  0  0  # atno 17394 bound_to 11000
  139.9467  134.7689  156.0544 LP  0  0  0  0  0  0  0  0  0  0  0  0  # atno 17395 bound_to 11000

$$$$
