AV-unprocessed.smi:655|AV-procd|sdf|3214|dock3
  -GOLD-   22720 0153D 1   1.00000     0.00000
 Structure written by MMmdl.
 35 36  0  0  0  0  0  0  0  0  1 V2000
  152.0559  143.5255  160.7555 C   0  0  0  0  0  0  0  0  0  0  0  0
  152.1246  142.8834  159.3627 C   0  0  2  0  0  0  0  0  0  0  0  0
  150.8241  143.1113  158.5729 C   0  0  0  0  0  0  0  0  0  0  0  0
  150.8853  142.4748  157.1730 C   0  0  0  0  0  0  0  0  0  0  0  0
  151.2355  140.9654  157.2042 C   0  0  1  0  0  0  0  0  0  0  0  0
  150.1846  140.2583  157.8378 O   0  0  0  0  0  0  0  0  0  0  0  0
  151.4399  140.3421  155.7926 C   0  0  0  0  0  0  0  0  0  0  0  0
  150.2389  140.1666  155.0047 N   0  0  0  0  0  0  0  0  0  0  0  0
  149.2673  141.1517  154.9017 C   0  0  0  0  0  0  0  0  0  0  0  0
  148.1284  141.0020  154.1834 C   0  0  0  0  0  0  0  0  0  0  0  0
  146.9628  142.2748  154.1126 Cl  0  0  0  0  0  0  0  0  0  0  0  0
  147.8768  139.7548  153.4632 C   0  0  0  0  0  0  0  0  0  0  0  0
  146.8809  139.5131  152.7839 O   0  0  0  0  0  0  0  0  0  0  0  0
  148.8830  138.7927  153.5902 N   0  0  0  0  0  0  0  0  0  0  0  0
  150.0582  138.9377  154.3282 C   0  0  0  0  0  0  0  0  0  0  0  0
  150.8750  138.0174  154.3618 O   0  0  0  0  0  0  0  0  0  0  0  0
  152.5057  140.7304  158.0571 C   0  0  0  0  0  0  0  0  0  0  0  0
  152.4320  141.3784  159.4515 C   0  0  0  0  0  0  0  0  0  0  0  0
  148.7487  137.9174  153.1048 H   0  0  0  0  0  0  0  0  0  0  0  0
  151.2501  143.0952  161.3510 H   0  0  0  0  0  0  0  0  0  0  0  0
  151.8805  144.5993  160.6845 H   0  0  0  0  0  0  0  0  0  0  0  0
  152.9882  143.3797  161.3018 H   0  0  0  0  0  0  0  0  0  0  0  0
  152.9392  143.3632  158.8180 H   0  0  0  0  0  0  0  0  0  0  0  0
  149.9787  142.6994  159.1256 H   0  0  0  0  0  0  0  0  0  0  0  0
  150.6318  144.1802  158.4748 H   0  0  0  0  0  0  0  0  0  0  0  0
  149.9309  142.6364  156.6701 H   0  0  0  0  0  0  0  0  0  0  0  0
  151.6344  143.0043  156.5835 H   0  0  0  0  0  0  0  0  0  0  0  0
  149.4976  140.1087  157.2065 H   0  0  0  0  0  0  0  0  0  0  0  0
  152.0647  140.9998  155.1860 H   0  0  0  0  0  0  0  0  0  0  0  0
  151.9780  139.3915  155.8160 H   0  0  0  0  0  0  0  0  0  0  0  0
  149.4189  142.0851  155.4254 H   0  0  0  0  0  0  0  0  0  0  0  0
  152.7006  139.6618  158.1598 H   0  0  0  0  0  0  0  0  0  0  0  0
  153.3708  141.1427  157.5356 H   0  0  0  0  0  0  0  0  0  0  0  0
  153.3779  141.2238  159.9717 H   0  0  0  0  0  0  0  0  0  0  0  0
  151.6698  140.8796  160.0514 H   0  0  0  0  0  0  0  0  0  0  0  0
  1  2  1  0  0  0  0
  1 20  1  0  0  0  0
  1 21  1  0  0  0  0
  1 22  1  0  0  0  0
  2 18  1  0  0  0  0
  2  3  1  0  0  0  0
  2 23  1  0  0  0  0
  3  4  1  0  0  0  0
  3 24  1  0  0  0  0
  3 25  1  0  0  0  0
  4  5  1  0  0  0  0
  4 26  1  0  0  0  0
  4 27  1  0  0  0  0
  5  6  1  0  0  0  0
  5  7  1  0  0  0  0
  5 17  1  0  0  0  0
  6 28  1  0  0  0  0
  7  8  1  0  0  0  0
  7 29  1  0  0  0  0
  7 30  1  0  0  0  0
  8 15  1  0  0  0  0
  8  9  1  0  0  0  0
  9 10  2  0  0  0  0
  9 31  1  0  0  0  0
 10 11  1  0  0  0  0
 10 12  1  0  0  0  0
 12 13  2  0  0  0  0
 12 14  1  0  0  0  0
 14 19  1  0  0  0  0
 14 15  1  0  0  0  0
 15 16  2  0  0  0  0
 17 18  1  0  0  0  0
 17 32  1  0  0  0  0
 17 33  1  0  0  0  0
 18 34  1  0  0  0  0
 18 35  1  0  0  0  0
M  END
> <s_m_source_file>
AV-unprocessed.smi

> <i_m_source_file_index>
655

> <i_lp_mmshare_version>
43012

> <i_f3d_flags>
0

> <s_epik_input>
W0NIMl0xW0NIMl1bQ0BIXShbQ0gzXSlbQ0gyXVtDSDJdW0NAQF0xKFtPSF0pW0NIMl1uMltjSF1jKENsKWMoPU8pW25IXWMyPU8=

> <s_epik_cmdline>
J2VwaWtfcHl0aG9uJywgJy1waCcsICc3LjAnLCAnLXRuJywgJzgnLCAnLW1hJywgJzIwMCcsICctbWV0YWxfYmluZGluZycsICctaW1hZScsICc8aW5maWxlLm1hZT4nLCAnLW9tYWUnLCAnPG91dGZpbGUubWFlPic=

> <r_lp_tautomer_probability>
0.999537

> <r_epik_Ionization_Penalty>
0.0114762

> <r_epik_Ionization_Penalty_Charging>
0.0114753

> <r_epik_Ionization_Penalty_Neutral>
8.25878e-07

> <r_epik_State_Penalty>
0.00883314

> <r_epik_Charging_Adjusted_Penalty>
0.0203085

> <i_epik_Tot_Q>
0

> <i_epik_Tot_abs_Q>
0

> <r_epik_Metal_State_Penalty>
1.64347

> <b_epik_Metal_Only>
0

> <s_lp_Force_Field>
OPLS_2005

> <r_lp_Energy>
18.0938

> <b_lp_Chiralities_Consistent>
1

> <s_lp_Variant>
AV-unprocessed.smi:655-1

> <Gold.Version>
5.8.1

> <Gold.Id.Protein>
6NUR|6NUR_protein|mol2

> <Gold.PLP.Fitness>
41.4934

> <Gold.PLP.PLP>
-37.6790

> <Gold.PLP.part.hbond>
-1.8413

> <Gold.PLP.part.metal>
0.0000

> <Gold.PLP.part.buried>
-1.7086

> <Gold.PLP.part.nonpolar>
-34.1402

> <Gold.PLP.part.repulsive>
0.5434

> <Gold.PLP.ligand.clash>
0.0000

> <Gold.PLP.ligand.torsion>
0.3174

> <Gold.PLP.Chemscore.Hbond>
0.8450

> <Gold.PLP.Chemscore.CHOScore>
0.6360

> <Gold.PLP.Chemscore.Metal>
0.0000

> <Gold.Chemscore.Hbonds>
donor molecule, donor type, donor heavy atom, donor atom, acceptor molecule, acceptor atom, score
      L1  H    14    19       P1  7948  0.86
      L1  C     9    31       P1  8028  0.59

> <Gold.PLP.Chemscore.Internal.Correction>
0.0062

> <Gold.Rescore>
     Score         DG    S(hbond)    S(metal)    S(lipo)     H(rot)  DE(clash)    DE(int)     intcor
     13.82     -14.39       0.99        0.00      88.30       1.84       0.20       0.36       ----

> <Gold.Chemscore.Fitness>
13.8196

> <Gold.Chemscore.DG>
-14.3880

> <Gold.Chemscore.ZeroCoef>
-5.4800

> <Gold.Chemscore.Hbond>
0.9862

> <Gold.Chemscore.Metal>
0.0000

> <Gold.Chemscore.Lipo>
88.2957

> <Gold.Chemscore.Internal_Hbond>
0.0000

> <Gold.Chemscore.DEClash>
0.2041

> <Gold.Chemscore.DEInternal>
0.3643

> <Gold.Chemscore.Rot>
1.8424

> <Gold.Chemscore.Internal.Correction>
   9.000000E+99

> <Gold.Chemscore.Hbonds>
donor molecule, donor type, donor heavy atom, donor atom, acceptor molecule, acceptor atom, score
      L1  H    14    19       P1  7948  0.84

> <Gold.Chemscore.Hbond.Weighted>
-3.2939

> <Gold.Chemscore.Metal.Weighted>
-0.0000

> <Gold.Chemscore.Lipo.Weighted>
-10.3306

> <Gold.Chemscore.Internal_Hbond.Weighted>
0.0000

> <Gold.Chemscore.DEClash.Weighted>
0.2041

> <Gold.Chemscore.DEInternal.Weighted>
0.3643

> <Gold.Chemscore.Rot.Weighted>
4.7164

> <Gold.Chemscore.Internal.Correction.Weighted>
   9.000000E+99

> <Gold.Protein.RotatedTorsions>
[ 6907 6896 6895 6894 ] final -126.61 input  -60.11 | X-H torsion
[ 7974 7965 7964 7962 ] final   57.85 input  175.53 | X-H torsion
[ 8008 7997 7996 7995 ] final -139.29 input   59.86 | X-H torsion
[ 10167 10162 10161 10158 ] final   14.06 input  -65.29 | X-H torsion
[ 10718 10713 10712 10709 ] final  139.02 input   66.30 | X-H torsion
[ 10763 10752 10751 10750 ] final  128.48 input  -60.55 | X-H torsion
[ 11005 11000 10999 10996 ] final   14.57 input  -57.11 | X-H torsion

> <Gold.Protein.ActiveResidues>
 VAL166  LYS551  ARG553  GLY616  TRP617  ASP618  TYR619  PRO620  LYS621  CYS622 
 ASP623  PHE694  ASN695  SER759  ASP760  ASP761  ALA762  ILE779  LEU786  VAL792 
 PHE793  MET794  SER795  GLU796  ALA797  LYS798  CYS799  TRP800  GLU811  SER814 

> <Gold.Protein.RotatedAtoms>
  150.8987  133.7147  159.2884 H   0  0  0  0  0  0  0  0  0  0  0  0  # atno 6907 bound_to 6896
  151.4673  135.1042  159.9751 H   0  0  0  0  0  0  0  0  0  0  0  0  # atno 6908 bound_to 6896
  152.4864  133.8335  159.7171 H   0  0  0  0  0  0  0  0  0  0  0  0  # atno 6909 bound_to 6896
  145.9246  139.3757  143.0457 H   0  0  0  0  0  0  0  0  0  0  0  0  # atno 7974 bound_to 7965
  155.4425  140.0533  157.3009 H   0  0  0  0  0  0  0  0  0  0  0  0  # atno 8008 bound_to 7997
  154.4812  140.2082  155.9716 H   0  0  0  0  0  0  0  0  0  0  0  0  # atno 8009 bound_to 7997
  156.1208  140.3188  155.8210 H   0  0  0  0  0  0  0  0  0  0  0  0  # atno 8010 bound_to 7997
  140.5961  143.8699  150.6919 H   0  0  0  0  0  0  0  0  0  0  0  0  # atno 10167 bound_to 10162
  157.4190  131.1036  151.0374 H   0  0  0  0  0  0  0  0  0  0  0  0  # atno 10718 bound_to 10713
  153.7262  135.3245  155.3277 H   0  0  0  0  0  0  0  0  0  0  0  0  # atno 10763 bound_to 10752
  154.8340  135.4511  154.1167 H   0  0  0  0  0  0  0  0  0  0  0  0  # atno 10764 bound_to 10752
  153.2302  135.6959  153.7979 H   0  0  0  0  0  0  0  0  0  0  0  0  # atno 10765 bound_to 10752
  140.4681  134.1059  155.7728 H   0  0  0  0  0  0  0  0  0  0  0  0  # atno 11005 bound_to 11000
  145.8505  140.9531  143.0752 LP  0  0  0  0  0  0  0  0  0  0  0  0  # atno 17320 bound_to 7965
  144.6757  140.0401  143.7481 LP  0  0  0  0  0  0  0  0  0  0  0  0  # atno 17321 bound_to 7965
  140.2234  143.3791  152.1625 LP  0  0  0  0  0  0  0  0  0  0  0  0  # atno 17342 bound_to 10162
  139.5259  144.7101  151.5232 LP  0  0  0  0  0  0  0  0  0  0  0  0  # atno 17343 bound_to 10162
  157.1311  130.6102  149.5530 LP  0  0  0  0  0  0  0  0  0  0  0  0  # atno 17370 bound_to 10713
  155.9874  130.4913  150.7125 LP  0  0  0  0  0  0  0  0  0  0  0  0  # atno 17371 bound_to 10713
  141.1590  133.8829  157.1900 LP  0  0  0  0  0  0  0  0  0  0  0  0  # atno 17394 bound_to 11000
  139.9903  135.0067  156.9958 LP  0  0  0  0  0  0  0  0  0  0  0  0  # atno 17395 bound_to 11000

$$$$
