AV-unprocessed.smi:1041|AV-procd|sdf|4534|dock9
  -GOLD-   22720 2563D 1   1.00000     0.00000
 Structure written by MMmdl.
 52 53  0  0  0  0  0  0  0  0  3 V2000
  151.8877  145.8779  160.1022 C   0  0  0  0  0  0  0  0  0  0  0  0
  152.1677  144.7156  159.3417 O   0  0  0  0  0  0  0  0  0  0  0  0
  151.2284  144.5094  158.2998 C   0  0  0  0  0  0  0  0  0  0  0  0
  151.6286  143.2537  157.5089 C   0  0  0  0  0  0  0  0  0  0  0  0
  150.4624  142.5738  156.8896 N   0  3  2  0  0  0  0  0  0  0  0  0
  149.4696  142.0783  157.8803 C   0  0  0  0  0  0  0  0  0  0  0  0
  148.2276  141.4926  157.1829 C   0  0  0  0  0  0  0  0  0  0  0  0
  148.5897  140.3843  156.1778 C   0  0  2  0  0  0  0  0  0  0  0  0
  148.9850  139.0632  156.8806 C   0  0  0  0  0  0  0  0  0  0  0  0
  149.5277  138.0840  155.9483 N   0  0  0  0  0  0  0  0  0  0  0  0
  149.6302  136.7638  156.1706 C   0  0  0  0  0  0  0  0  0  0  0  0
  149.3458  136.2406  157.2474 O   0  0  0  0  0  0  0  0  0  0  0  0
  150.0942  135.8868  155.0016 C   0  0  0  0  0  0  0  0  0  0  0  0
  150.3721  134.4135  155.3094 C   0  0  0  0  0  0  0  0  0  0  0  0
  149.6509  133.3868  154.7758 C   0  0  0  0  0  0  0  0  0  0  0  0
  148.5024  133.6017  153.8060 C   0  0  0  0  0  0  0  0  0  0  0  0
  149.9340  132.0511  155.1074 N   0  0  0  0  0  0  0  0  0  0  0  0
  150.8764  131.7932  155.9319 C   0  0  0  0  0  0  0  0  0  0  0  0
  151.1753  130.3512  156.2825 C   0  0  0  0  0  0  0  0  0  0  0  0
  151.6503  132.7565  156.5401 N   0  5  0  0  0  0  0  0  0  0  0  0
  151.4448  134.0749  156.2617 C   0  0  0  0  0  0  0  0  0  0  0  0
  152.1079  134.9665  156.7902 O   0  0  0  0  0  0  0  0  0  0  0  0
  149.6579  140.9247  155.2037 C   0  0  0  0  0  0  0  0  0  0  0  0
  150.8741  141.5046  155.9443 C   0  0  0  0  0  0  0  0  0  0  0  0
  152.6300  145.9873  160.8926 H   0  0  0  0  0  0  0  0  0  0  0  0
  150.9043  145.8166  160.5698 H   0  0  0  0  0  0  0  0  0  0  0  0
  151.9247  146.7727  159.4795 H   0  0  0  0  0  0  0  0  0  0  0  0
  150.2371  144.3632  158.7314 H   0  0  0  0  0  0  0  0  0  0  0  0
  151.1662  145.3869  157.6560 H   0  0  0  0  0  0  0  0  0  0  0  0
  152.3323  143.5563  156.7322 H   0  0  0  0  0  0  0  0  0  0  0  0
  152.1635  142.5521  158.1506 H   0  0  0  0  0  0  0  0  0  0  0  0
  149.9354  141.3318  158.5247 H   0  0  0  0  0  0  0  0  0  0  0  0
  149.1470  142.8897  158.5308 H   0  0  0  0  0  0  0  0  0  0  0  0
  147.5241  141.1141  157.9252 H   0  0  0  0  0  0  0  0  0  0  0  0
  147.7077  142.2946  156.6571 H   0  0  0  0  0  0  0  0  0  0  0  0
  147.6932  140.1752  155.5928 H   0  0  0  0  0  0  0  0  0  0  0  0
  149.7425  139.2409  157.6431 H   0  0  0  0  0  0  0  0  0  0  0  0
  148.1253  138.6367  157.4002 H   0  0  0  0  0  0  0  0  0  0  0  0
  149.7920  138.4241  155.0344 H   0  0  0  0  0  0  0  0  0  0  0  0
  149.3354  135.9513  154.2221 H   0  0  0  0  0  0  0  0  0  0  0  0
  150.9803  136.3443  154.5604 H   0  0  0  0  0  0  0  0  0  0  0  0
  148.8696  134.0168  152.8671 H   0  0  0  0  0  0  0  0  0  0  0  0
  147.7674  134.2882  154.2267 H   0  0  0  0  0  0  0  0  0  0  0  0
  147.9936  132.6631  153.5824 H   0  0  0  0  0  0  0  0  0  0  0  0
  152.2514  130.1852  156.3447 H   0  0  0  0  0  0  0  0  0  0  0  0
  150.7723  129.6744  155.5278 H   0  0  0  0  0  0  0  0  0  0  0  0
  150.7294  130.0988  157.2448 H   0  0  0  0  0  0  0  0  0  0  0  0
  149.9791  140.1533  154.5034 H   0  0  0  0  0  0  0  0  0  0  0  0
  149.2132  141.7096  154.5902 H   0  0  0  0  0  0  0  0  0  0  0  0
  151.5708  141.9122  155.2105 H   0  0  0  0  0  0  0  0  0  0  0  0
  151.4080  140.7193  156.4813 H   0  0  0  0  0  0  0  0  0  0  0  0
  149.9949  143.2725  156.3295 H   0  0  0  0  0  0  0  0  0  0  0  0
  1  2  1  0  0  0  0
  1 25  1  0  0  0  0
  1 26  1  0  0  0  0
  1 27  1  0  0  0  0
  2  3  1  0  0  0  0
  3  4  1  0  0  0  0
  3 28  1  0  0  0  0
  3 29  1  0  0  0  0
  4  5  1  0  0  0  0
  4 30  1  0  0  0  0
  4 31  1  0  0  0  0
  5 24  1  0  0  0  0
  5  6  1  0  0  0  0
  5 52  1  0  0  0  0
  6  7  1  0  0  0  0
  6 32  1  0  0  0  0
  6 33  1  0  0  0  0
  7  8  1  0  0  0  0
  7 34  1  0  0  0  0
  7 35  1  0  0  0  0
  8  9  1  0  0  0  0
  8 23  1  0  0  0  0
  8 36  1  0  0  0  0
  9 10  1  0  0  0  0
  9 37  1  0  0  0  0
  9 38  1  0  0  0  0
 10 11  1  0  0  0  0
 10 39  1  0  0  0  0
 11 12  2  0  0  0  0
 11 13  1  0  0  0  0
 13 14  1  0  0  0  0
 13 40  1  0  0  0  0
 13 41  1  0  0  0  0
 14 21  1  0  0  0  0
 14 15  2  0  0  0  0
 15 16  1  0  0  0  0
 15 17  1  0  0  0  0
 16 42  1  0  0  0  0
 16 43  1  0  0  0  0
 16 44  1  0  0  0  0
 17 18  2  0  0  0  0
 18 19  1  0  0  0  0
 18 20  1  0  0  0  0
 19 45  1  0  0  0  0
 19 46  1  0  0  0  0
 19 47  1  0  0  0  0
 20 21  1  0  0  0  0
 21 22  2  0  0  0  0
 23 24  1  0  0  0  0
 23 48  1  0  0  0  0
 23 49  1  0  0  0  0
 24 50  1  0  0  0  0
 24 51  1  0  0  0  0
M  CHG  1   5   1
M  CHG  1  20  -1
M  END
> <s_m_source_file>
AV-unprocessed.smi

> <i_m_source_file_index>
1041

> <i_lp_mmshare_version>
43012

> <i_f3d_flags>
0

> <s_epik_input>
W0NIM11PW0NIMl1bQ0gyXU4xW0NIMl1bQ0gyXVtDSF0oW0NIMl1bQ0gyXTEpW0NIMl1bTkhdQyg9TylbQ0gyXWMyYyhbQ0gzXSluYyhbQ0gzXSlbbkhdYzI9Tw==

> <s_epik_cmdline>
J2VwaWtfcHl0aG9uJywgJy1waCcsICc3LjAnLCAnLXRuJywgJzgnLCAnLW1hJywgJzIwMCcsICctbWV0YWxfYmluZGluZycsICctaW1hZScsICc8aW5maWxlLm1hZT4nLCAnLW9tYWUnLCAnPG91dGZpbGUubWFlPic=

> <r_lp_tautomer_probability>
0.839158

> <r_epik_Ionization_Penalty>
6.54961

> <r_epik_Ionization_Penalty_Charging>
0.00968647

> <r_epik_Ionization_Penalty_Neutral>
6.53992

> <r_epik_State_Penalty>
4.43892

> <r_epik_Charging_Adjusted_Penalty>
4.44861

> <i_epik_Tot_Q>
0

> <i_epik_Tot_abs_Q>
2

> <r_epik_Metal_State_Penalty>
0.818645

> <b_epik_Metal_Only>
1

> <s_lp_Force_Field>
OPLS_2005

> <r_lp_Energy>
22.1122

> <b_lp_Chiralities_Consistent>
1

> <s_lp_Variant>
AV-unprocessed.smi:1041-7

> <Gold.Version>
5.8.1

> <Gold.Id.Protein>
6NUR|6NUR_protein|mol2

> <Gold.PLP.Fitness>
44.4461

> <Gold.PLP.PLP>
-36.3242

> <Gold.PLP.part.hbond>
-2.1957

> <Gold.PLP.part.metal>
0.0000

> <Gold.PLP.part.buried>
-5.5375

> <Gold.PLP.part.nonpolar>
-26.3243

> <Gold.PLP.part.repulsive>
0.0563

> <Gold.PLP.ligand.clash>
0.0000

> <Gold.PLP.ligand.torsion>
0.4645

> <Gold.PLP.Chemscore.Hbond>
3.0000

> <Gold.PLP.Chemscore.CHOScore>
0.0000

> <Gold.PLP.Chemscore.Metal>
0.0000

> <Gold.Chemscore.Hbonds>
donor molecule, donor type, donor heavy atom, donor atom, acceptor molecule, acceptor atom, score
      L1  H     5    52       P1  8028  2.00
      P1  H 10752 10764       L1    22  1.00

> <Gold.PLP.Chemscore.Internal.Correction>
0.0510

> <Gold.Rescore>
     Score         DG    S(hbond)    S(metal)    S(lipo)     H(rot)  DE(clash)    DE(int)     intcor
     14.48     -15.05       1.82        0.00      81.29       2.35       0.05       0.52       ----

> <Gold.Chemscore.Fitness>
14.4812

> <Gold.Chemscore.DG>
-15.0517

> <Gold.Chemscore.ZeroCoef>
-5.4800

> <Gold.Chemscore.Hbond>
1.8208

> <Gold.Chemscore.Metal>
0.0000

> <Gold.Chemscore.Lipo>
81.2928

> <Gold.Chemscore.Internal_Hbond>
0.0000

> <Gold.Chemscore.DEClash>
0.0506

> <Gold.Chemscore.DEInternal>
0.5200

> <Gold.Chemscore.Rot>
2.3520

> <Gold.Chemscore.Internal.Correction>
   9.000000E+99

> <Gold.Chemscore.Hbonds>
donor molecule, donor type, donor heavy atom, donor atom, acceptor molecule, acceptor atom, score
      L1  H     5    52       P1  8028  0.99
      P1  H 10752 10764       L1    22  0.23

> <Gold.Chemscore.Hbond.Weighted>
-6.0816

> <Gold.Chemscore.Metal.Weighted>
-0.0000

> <Gold.Chemscore.Lipo.Weighted>
-9.5113

> <Gold.Chemscore.Internal_Hbond.Weighted>
0.0000

> <Gold.Chemscore.DEClash.Weighted>
0.0506

> <Gold.Chemscore.DEInternal.Weighted>
0.5200

> <Gold.Chemscore.Rot.Weighted>
6.0211

> <Gold.Chemscore.Internal.Correction.Weighted>
   9.000000E+99

> <Gold.Protein.RotatedTorsions>
[ 6907 6896 6895 6894 ] final  -53.20 input  -60.11 | X-H torsion
[ 7974 7965 7964 7962 ] final  154.62 input  175.53 | X-H torsion
[ 8008 7997 7996 7995 ] final -170.98 input   59.86 | X-H torsion
[ 10167 10162 10161 10158 ] final  148.35 input  -65.29 | X-H torsion
[ 10718 10713 10712 10709 ] final  -76.54 input   66.30 | X-H torsion
[ 10763 10752 10751 10750 ] final   -8.91 input  -60.55 | X-H torsion
[ 11005 11000 10999 10996 ] final   57.89 input  -57.11 | X-H torsion

> <Gold.Protein.ActiveResidues>
 VAL166  LYS551  ARG553  GLY616  TRP617  ASP618  TYR619  PRO620  LYS621  CYS622 
 ASP623  PHE694  ASN695  SER759  ASP760  ASP761  ALA762  ILE779  LEU786  VAL792 
 PHE793  MET794  SER795  GLU796  ALA797  LYS798  CYS799  TRP800  GLU811  SER814 

> <Gold.Protein.RotatedAtoms>
  150.8448  134.7753  159.6961 H   0  0  0  0  0  0  0  0  0  0  0  0  # atno 6907 bound_to 6896
  152.4527  134.5355  159.9833 H   0  0  0  0  0  0  0  0  0  0  0  0  # atno 6908 bound_to 6896
  151.5488  133.3383  159.2985 H   0  0  0  0  0  0  0  0  0  0  0  0  # atno 6909 bound_to 6896
  144.8077  139.6958  143.6155 H   0  0  0  0  0  0  0  0  0  0  0  0  # atno 7974 bound_to 7965
  155.9256  140.1082  157.1173 H   0  0  0  0  0  0  0  0  0  0  0  0  # atno 8008 bound_to 7997
  154.4061  140.1247  156.4801 H   0  0  0  0  0  0  0  0  0  0  0  0  # atno 8009 bound_to 7997
  155.7143  140.3470  155.4990 H   0  0  0  0  0  0  0  0  0  0  0  0  # atno 8010 bound_to 7997
  139.4876  144.5686  151.7097 H   0  0  0  0  0  0  0  0  0  0  0  0  # atno 10167 bound_to 10162
  156.0172  130.4468  150.3208 H   0  0  0  0  0  0  0  0  0  0  0  0  # atno 10718 bound_to 10713
  153.4472  135.7014  153.6132 H   0  0  0  0  0  0  0  0  0  0  0  0  # atno 10763 bound_to 10752
  153.4482  135.3764  155.2268 H   0  0  0  0  0  0  0  0  0  0  0  0  # atno 10764 bound_to 10752
  154.8728  135.3990  154.3879 H   0  0  0  0  0  0  0  0  0  0  0  0  # atno 10765 bound_to 10752
  140.0418  134.5862  155.9372 H   0  0  0  0  0  0  0  0  0  0  0  0  # atno 11005 bound_to 11000
  146.2371  139.5927  142.9516 LP  0  0  0  0  0  0  0  0  0  0  0  0  # atno 17320 bound_to 7965
  145.5399  141.0421  143.2336 LP  0  0  0  0  0  0  0  0  0  0  0  0  # atno 17321 bound_to 7965
  140.5269  144.0791  150.6040 LP  0  0  0  0  0  0  0  0  0  0  0  0  # atno 17342 bound_to 10162
  140.3768  143.2824  152.0215 LP  0  0  0  0  0  0  0  0  0  0  0  0  # atno 17343 bound_to 10162
  157.1309  131.0271  151.2970 LP  0  0  0  0  0  0  0  0  0  0  0  0  # atno 17370 bound_to 10713
  157.4552  130.7621  149.7186 LP  0  0  0  0  0  0  0  0  0  0  0  0  # atno 17371 bound_to 10713
  141.1887  133.6563  156.5335 LP  0  0  0  0  0  0  0  0  0  0  0  0  # atno 17394 bound_to 11000
  140.4057  134.7317  157.4806 LP  0  0  0  0  0  0  0  0  0  0  0  0  # atno 17395 bound_to 11000

$$$$
