AV-unprocessed.smi:2408|AV-procd|sdf|9521|dock4
  -GOLD-   2272013153D 1   1.00000     0.00000
 Structure written by MMmdl.
 48 50  0  0  0  0  0  0  0  0  2 V2000
  144.7763  135.6804  151.3713 C   0  0  0  0  0  0  0  0  0  0  0  0
  144.9200  134.2030  151.0546 C   0  0  0  0  0  0  0  0  0  0  0  0
  143.9540  133.6294  150.3013 N   0  3  0  0  0  0  0  0  0  0  0  0
  143.9661  132.3254  149.9518 C   0  0  0  0  0  0  0  0  0  0  0  0
  145.0187  131.4958  150.3833 C   0  0  0  0  0  0  0  0  0  0  0  0
  146.0503  132.0477  151.1696 C   0  0  0  0  0  0  0  0  0  0  0  0
  146.0158  133.4255  151.5043 C   0  0  0  0  0  0  0  0  0  0  0  0
  147.0125  134.0458  152.3073 N   0  0  0  0  0  0  0  0  0  0  0  0
  147.6801  133.5139  153.3448 C   0  0  0  0  0  0  0  0  0  0  0  0
  147.5159  132.3740  153.7790 O   0  0  0  0  0  0  0  0  0  0  0  0
  148.5871  134.3775  153.8348 N   0  0  0  0  0  0  0  0  0  0  0  0
  149.5350  134.1608  154.9441 C   0  0  0  0  0  0  0  0  0  0  0  0
  150.4866  135.3698  155.1767 C   0  0  0  0  0  0  0  0  0  0  0  0
  151.3342  135.3235  156.0694 O   0  0  0  0  0  0  0  0  0  0  0  0
  150.3375  136.4524  154.3955 N   0  0  0  0  0  0  0  0  0  0  0  0
  151.1410  137.6616  154.4812 C   0  0  0  0  0  0  0  0  0  0  0  0
  151.0006  138.3947  155.7984 C   0  0  0  0  0  0  0  0  0  0  0  0
  151.6656  139.7351  156.0051 C   0  0  0  0  0  0  0  0  0  0  0  0
  152.1678  138.5204  156.7489 C   0  0  0  0  0  0  0  0  0  0  0  0
  148.7201  133.9197  156.2376 C   0  0  0  0  0  0  0  0  0  0  0  0
  149.4921  132.8782  157.0449 C   0  0  0  0  0  0  0  0  0  0  0  0
  150.0642  131.9463  155.9850 C   0  0  0  0  0  0  0  0  0  0  0  0
  150.3259  132.8278  154.7566 C   0  0  0  0  0  0  0  0  0  0  0  0
  145.6392  136.2339  150.9994 H   0  0  0  0  0  0  0  0  0  0  0  0
  144.7076  135.8325  152.4487 H   0  0  0  0  0  0  0  0  0  0  0  0
  143.8811  136.1018  150.9120 H   0  0  0  0  0  0  0  0  0  0  0  0
  143.1365  131.9873  149.3481 H   0  0  0  0  0  0  0  0  0  0  0  0
  145.0341  130.4482  150.1194 H   0  0  0  0  0  0  0  0  0  0  0  0
  146.8441  131.4021  151.5142 H   0  0  0  0  0  0  0  0  0  0  0  0
  147.3200  134.9563  151.9982 H   0  0  0  0  0  0  0  0  0  0  0  0
  148.6380  135.2849  153.3954 H   0  0  0  0  0  0  0  0  0  0  0  0
  149.6197  136.4293  153.6861 H   0  0  0  0  0  0  0  0  0  0  0  0
  152.1891  137.4067  154.3168 H   0  0  0  0  0  0  0  0  0  0  0  0
  150.8509  138.3443  153.6812 H   0  0  0  0  0  0  0  0  0  0  0  0
  150.0191  138.2844  156.2565 H   0  0  0  0  0  0  0  0  0  0  0  0
  152.2882  140.1230  155.2011 H   0  0  0  0  0  0  0  0  0  0  0  0
  151.1194  140.4840  156.5749 H   0  0  0  0  0  0  0  0  0  0  0  0
  151.9557  138.4589  157.8143 H   0  0  0  0  0  0  0  0  0  0  0  0
  153.1225  138.1002  156.4382 H   0  0  0  0  0  0  0  0  0  0  0  0
  148.5467  134.8282  156.8174 H   0  0  0  0  0  0  0  0  0  0  0  0
  147.7358  133.5134  155.9979 H   0  0  0  0  0  0  0  0  0  0  0  0
  150.3028  133.3579  157.5944 H   0  0  0  0  0  0  0  0  0  0  0  0
  148.8643  132.3562  157.7676 H   0  0  0  0  0  0  0  0  0  0  0  0
  150.9619  131.4305  156.3273 H   0  0  0  0  0  0  0  0  0  0  0  0
  149.3235  131.1857  155.7345 H   0  0  0  0  0  0  0  0  0  0  0  0
  150.0277  132.2825  153.8606 H   0  0  0  0  0  0  0  0  0  0  0  0
  151.3976  133.0013  154.6491 H   0  0  0  0  0  0  0  0  0  0  0  0
  143.1784  134.2099  149.9817 H   0  0  0  0  0  0  0  0  0  0  0  0
  1  2  1  0  0  0  0
  1 24  1  0  0  0  0
  1 25  1  0  0  0  0
  1 26  1  0  0  0  0
  2  7  1  0  0  0  0
  2  3  2  0  0  0  0
  3  4  1  0  0  0  0
  3 48  1  0  0  0  0
  4  5  2  0  0  0  0
  4 27  1  0  0  0  0
  5  6  1  0  0  0  0
  5 28  1  0  0  0  0
  6  7  2  0  0  0  0
  6 29  1  0  0  0  0
  7  8  1  0  0  0  0
  8  9  1  0  0  0  0
  8 30  1  0  0  0  0
  9 10  2  0  0  0  0
  9 11  1  0  0  0  0
 11 12  1  0  0  0  0
 11 31  1  0  0  0  0
 12 23  1  0  0  0  0
 12 13  1  0  0  0  0
 12 20  1  0  0  0  0
 13 14  2  0  0  0  0
 13 15  1  0  0  0  0
 15 16  1  0  0  0  0
 15 32  1  0  0  0  0
 16 17  1  0  0  0  0
 16 33  1  0  0  0  0
 16 34  1  0  0  0  0
 17 19  1  0  0  0  0
 17 18  1  0  0  0  0
 17 35  1  0  0  0  0
 18 19  1  0  0  0  0
 18 36  1  0  0  0  0
 18 37  1  0  0  0  0
 19 38  1  0  0  0  0
 19 39  1  0  0  0  0
 20 21  1  0  0  0  0
 20 40  1  0  0  0  0
 20 41  1  0  0  0  0
 21 22  1  0  0  0  0
 21 42  1  0  0  0  0
 21 43  1  0  0  0  0
 22 23  1  0  0  0  0
 22 44  1  0  0  0  0
 22 45  1  0  0  0  0
 23 46  1  0  0  0  0
 23 47  1  0  0  0  0
M  CHG  1   3   1
M  END
> <s_m_source_file>
AV-unprocessed.smi

> <i_m_source_file_index>
2408

> <i_lp_mmshare_version>
43012

> <i_f3d_flags>
0

> <s_epik_input>
W0NIM11jMW5bY0hdW2NIXVtjSF1jMVtOSF1DKD1PKVtOSF1DMihbQ0gyXVtDSDJdW0NIMl1bQ0gyXTIpQyg9TylbTkhdW0NIMl1bQ0hdM1tDSDJdW0NIMl0z

> <s_epik_cmdline>
J2VwaWtfcHl0aG9uJywgJy1waCcsICc3LjAnLCAnLXRuJywgJzgnLCAnLW1hJywgJzIwMCcsICctbWV0YWxfYmluZGluZycsICctaW1hZScsICc8aW5maWxlLm1hZT4nLCAnLW9tYWUnLCAnPG91dGZpbGUubWFlPic=

> <r_epik_Ionization_Penalty>
2.1018

> <r_epik_Ionization_Penalty_Charging>
2.10178

> <r_epik_Ionization_Penalty_Neutral>
1.99712e-05

> <r_epik_State_Penalty>
2.23801

> <r_epik_Charging_Adjusted_Penalty>
4.33979

> <i_epik_Tot_Q>
1

> <i_epik_Tot_abs_Q>
1

> <r_epik_Metal_State_Penalty>
2.25493

> <b_epik_Metal_Only>
0

> <s_lp_Force_Field>
OPLS_2005

> <r_lp_Energy>
38.4503

> <b_lp_Chiralities_Consistent>
1

> <s_lp_Variant>
AV-unprocessed.smi:2408-2

> <Gold.Version>
5.8.1

> <Gold.Id.Protein>
6NUR|6NUR_protein|mol2

> <Gold.PLP.Fitness>
55.5556

> <Gold.PLP.PLP>
-39.7638

> <Gold.PLP.part.hbond>
-6.0000

> <Gold.PLP.part.metal>
0.0000

> <Gold.PLP.part.buried>
-4.3054

> <Gold.PLP.part.nonpolar>
-30.1712

> <Gold.PLP.part.repulsive>
0.1917

> <Gold.PLP.ligand.clash>
0.0000

> <Gold.PLP.ligand.torsion>
0.7439

> <Gold.PLP.Chemscore.Hbond>
5.5444

> <Gold.PLP.Chemscore.CHOScore>
0.0000

> <Gold.PLP.Chemscore.Metal>
0.0000

> <Gold.Chemscore.Hbonds>
donor molecule, donor type, donor heavy atom, donor atom, acceptor molecule, acceptor atom, score
      L1  H     3    48       P1 10186  1.03
      L1  H     8    30       P1  7948  0.87
      L1  H    11    31       P1  7948  0.91
      L1  H    15    32       P1  7948  1.00
      P1  H 10752 10764       L1    14  0.93

> <Gold.PLP.Chemscore.Internal.Correction>
0.6464

> <Gold.Rescore>
     Score         DG    S(hbond)    S(metal)    S(lipo)     H(rot)  DE(clash)    DE(int)     intcor
     21.90     -25.34       3.82        0.00      96.24       1.63       0.14       3.30       ----

> <Gold.Chemscore.Fitness>
21.9022

> <Gold.Chemscore.DG>
-25.3442

> <Gold.Chemscore.ZeroCoef>
-5.4800

> <Gold.Chemscore.Hbond>
3.8244

> <Gold.Chemscore.Metal>
0.0000

> <Gold.Chemscore.Lipo>
96.2396

> <Gold.Chemscore.Internal_Hbond>
0.0000

> <Gold.Chemscore.DEClash>
0.1395

> <Gold.Chemscore.DEInternal>
3.3025

> <Gold.Chemscore.Rot>
1.6286

> <Gold.Chemscore.Internal.Correction>
   9.000000E+99

> <Gold.Chemscore.Hbonds>
donor molecule, donor type, donor heavy atom, donor atom, acceptor molecule, acceptor atom, score
      L1  H     3    48       P1 10186  0.48
      L1  H     8    30       P1  7948  0.74
      L1  H    11    31       P1  7948  0.79
      L1  H    15    32       P1  7948  0.58
      P1  H 10752 10764       L1    14  0.26

> <Gold.Chemscore.Hbond.Weighted>
-12.7734

> <Gold.Chemscore.Metal.Weighted>
-0.0000

> <Gold.Chemscore.Lipo.Weighted>
-11.2600

> <Gold.Chemscore.Internal_Hbond.Weighted>
0.0000

> <Gold.Chemscore.DEClash.Weighted>
0.1395

> <Gold.Chemscore.DEInternal.Weighted>
3.3025

> <Gold.Chemscore.Rot.Weighted>
4.1692

> <Gold.Chemscore.Internal.Correction.Weighted>
   9.000000E+99

> <Gold.Protein.RotatedTorsions>
[ 6907 6896 6895 6894 ] final  179.31 input  -60.11 | X-H torsion
[ 7974 7965 7964 7962 ] final  -75.87 input  175.53 | X-H torsion
[ 8008 7997 7996 7995 ] final -124.55 input   59.86 | X-H torsion
[ 10167 10162 10161 10158 ] final   29.02 input  -65.29 | X-H torsion
[ 10718 10713 10712 10709 ] final   38.44 input   66.30 | X-H torsion
[ 10763 10752 10751 10750 ] final  -36.80 input  -60.55 | X-H torsion
[ 11005 11000 10999 10996 ] final -121.32 input  -57.11 | X-H torsion

> <Gold.Protein.ActiveResidues>
 VAL166  LYS551  ARG553  GLY616  TRP617  ASP618  TYR619  PRO620  LYS621  CYS622 
 ASP623  PHE694  ASN695  SER759  ASP760  ASP761  ALA762  ILE779  LEU786  VAL792 
 PHE793  MET794  SER795  GLU796  ALA797  LYS798  CYS799  TRP800  GLU811  SER814 

> <Gold.Protein.RotatedAtoms>
  151.6737  133.3313  159.3202 H   0  0  0  0  0  0  0  0  0  0  0  0  # atno 6907 bound_to 6896
  150.7855  134.6840  159.6469 H   0  0  0  0  0  0  0  0  0  0  0  0  # atno 6908 bound_to 6896
  152.3924  134.6423  160.0154 H   0  0  0  0  0  0  0  0  0  0  0  0  # atno 6909 bound_to 6896
  145.6204  140.9364  143.1141 H   0  0  0  0  0  0  0  0  0  0  0  0  # atno 7974 bound_to 7965
  155.1987  140.0415  157.2913 H   0  0  0  0  0  0  0  0  0  0  0  0  # atno 8008 bound_to 7997
  154.6089  140.2471  155.7666 H   0  0  0  0  0  0  0  0  0  0  0  0  # atno 8009 bound_to 7997
  156.2367  140.2919  156.0342 H   0  0  0  0  0  0  0  0  0  0  0  0  # atno 8010 bound_to 7997
  140.4802  144.0627  150.6263 H   0  0  0  0  0  0  0  0  0  0  0  0  # atno 10167 bound_to 10162
  157.3588  130.7638  149.7032 H   0  0  0  0  0  0  0  0  0  0  0  0  # atno 10718 bound_to 10713
  153.8858  135.6817  153.4764 H   0  0  0  0  0  0  0  0  0  0  0  0  # atno 10763 bound_to 10752
  153.1208  135.4740  154.9190 H   0  0  0  0  0  0  0  0  0  0  0  0  # atno 10764 bound_to 10752
  154.7646  135.3220  154.8263 H   0  0  0  0  0  0  0  0  0  0  0  0  # atno 10765 bound_to 10752
  141.0079  134.0308  157.3453 H   0  0  0  0  0  0  0  0  0  0  0  0  # atno 11005 bound_to 11000
  144.7233  139.7956  143.7374 LP  0  0  0  0  0  0  0  0  0  0  0  0  # atno 17320 bound_to 7965
  146.1436  139.4499  143.0093 LP  0  0  0  0  0  0  0  0  0  0  0  0  # atno 17321 bound_to 7965
  140.3867  143.2774  152.0108 LP  0  0  0  0  0  0  0  0  0  0  0  0  # atno 17342 bound_to 10162
  139.4832  144.6111  151.7432 LP  0  0  0  0  0  0  0  0  0  0  0  0  # atno 17343 bound_to 10162
  155.9734  130.4119  150.4007 LP  0  0  0  0  0  0  0  0  0  0  0  0  # atno 17370 bound_to 10713
  157.2081  131.0454  151.2614 LP  0  0  0  0  0  0  0  0  0  0  0  0  # atno 17371 bound_to 10713
  139.9073  135.0182  156.7542 LP  0  0  0  0  0  0  0  0  0  0  0  0  # atno 17394 bound_to 11000
  140.6783  133.9497  155.7895 LP  0  0  0  0  0  0  0  0  0  0  0  0  # atno 17395 bound_to 11000

$$$$
