#       Name:                AV-unprocessed.smi:542
#       Creating user name   scv26
#       Creation time:       Thu Mar 26 23:36:39 2020


#       File generated by GOLD software.
#

@<TRIPOS>MOLECULE
AV-unprocessed.smi:542
    53    55     1
SMALL
NO_CHARGES


@<TRIPOS>ATOM
      1 ****        -3.7965   3.0005  -1.3110 C.3            1 S1                 0.0000
      2 ****        -3.3201   1.7010  -1.0083 O.3            1 S1                 0.0000
      3 ****        -1.9385   1.5520  -1.2865 C.3            1 S1                 0.0000
      4 ****        -1.5172   0.1151  -0.9374 C.3            1 S1                 0.0000
      5 ****        -0.0829  -0.0994  -1.1038 N.pl3          1 S1                 0.0000
      6 ****         0.9005  -0.1958  -0.1602 C.2            1 S1                 0.0000
      7 ****         0.6733  -0.0707   1.2180 N.pl3          1 S1                 0.0000
      8 ****        -0.1739   0.9070   1.9064 C.3            1 S1                 0.0000
      9 ****        -1.1434   0.2374   2.8980 C.3            1 S1                 0.0000
     10 ****        -0.3725  -0.5796   3.9473 C.3            1 S1                 0.0000
     11 ****        -1.3160  -1.3272   4.8998 C.3            1 S1                 0.0000
     12 ****         0.5934  -1.5342   3.2273 C.3            1 S1                 0.0000
     13 ****         1.4757  -0.7703   2.2245 C.3            1 S1                 0.0000
     14 ****         2.1128  -0.4572  -0.6618 N.2            1 S1                 0.0000
     15 ****         1.8924  -0.5179  -2.0267 C.2            1 S1                 0.0000
     16 ****         0.5833  -0.3156  -2.3129 C.2            1 S1                 0.0000
     17 ****         0.0671  -0.3589  -3.6884 C.2            1 S1                 0.0000
     18 ****        -1.1179  -0.2039  -3.9749 O.2            1 S1                 0.0000
     19 ****         1.0321  -0.5898  -4.6115 N.am           1 S1                 0.0000
     20 ****         2.3673  -0.7891  -4.3890 C.2            1 S1                 0.0000
     21 ****         3.1224  -0.9791  -5.3420 O.2            1 S1                 0.0000
     22 ****         2.8056  -0.7666  -3.0884 N.am           1 S1                 0.0000
     23 ****         4.2124  -0.9785  -2.7417 C.3            1 S1                 0.0000
     24 ****         0.7310  -0.6202  -5.5747 H              1 S1                 0.0000
     25 ****        -4.8605   3.0629  -1.0828 H              1 S1                 0.0000
     26 ****        -3.6649   3.2326  -2.3687 H              1 S1                 0.0000
     27 ****        -3.2803   3.7576  -0.7190 H              1 S1                 0.0000
     28 ****        -1.7495   1.7615  -2.3395 H              1 S1                 0.0000
     29 ****        -1.3631   2.2785  -0.7129 H              1 S1                 0.0000
     30 ****        -1.8124  -0.1412   0.0767 H              1 S1                 0.0000
     31 ****        -2.0503  -0.5942  -1.5701 H              1 S1                 0.0000
     32 ****         0.4692   1.6064   2.4424 H              1 S1                 0.0000
     33 ****        -0.7257   1.5144   1.1958 H              1 S1                 0.0000
     34 ****        -1.7499   0.9984   3.3897 H              1 S1                 0.0000
     35 ****        -1.8371  -0.4103   2.3612 H              1 S1                 0.0000
     36 ****         0.2224   0.1137   4.5440 H              1 S1                 0.0000
     37 ****        -1.9405  -2.0404   4.3608 H              1 S1                 0.0000
     38 ****        -1.9764  -0.6341   5.4217 H              1 S1                 0.0000
     39 ****        -0.7547  -1.8793   5.6541 H              1 S1                 0.0000
     40 ****         1.2231  -2.0482   3.9544 H              1 S1                 0.0000
     41 ****         0.0318  -2.3076   2.7008 H              1 S1                 0.0000
     42 ****         2.1503  -1.4767   1.7401 H              1 S1                 0.0000
     43 ****         2.1089  -0.0514   2.7463 H              1 S1                 0.0000
     44 ****         4.8347  -1.2849  -3.5832 H              1 S1                 0.0000
     45 ****         4.2979  -1.7547  -1.9802 H              1 S1                 0.0000
     46 ****         4.6359  -0.0605  -2.3332 H              1 S1                 0.0000
     47 ****        -3.8308   1.0368  -1.5542 LP             1 S1                 0.0000
     48 ****        -3.4729   1.5215  -0.0365 LP             1 S1                 0.0000
     49 ****         2.9737  -0.5797  -0.1679 LP             1 S1                 0.0000
     50 ****        -1.7893  -0.0377  -3.2527 LP             1 S1                 0.0000
     51 ****        -1.4107  -0.2440  -4.9302 LP             1 S1                 0.0000
     52 ****         2.7593  -0.9874  -6.2737 LP             1 S1                 0.0000
     53 ****         4.0991  -1.1253  -5.1847 LP             1 S1                 0.0000
@<TRIPOS>BOND
    1    1    2 1     
    2    1   25 1     
    3    1   26 1     
    4    1   27 1     
    5    2    3 1     
    6    3    4 1     
    7    3   28 1     
    8    3   29 1     
    9    4    5 1     
   10    4   30 1     
   11    4   31 1     
   12    5   16 1     
   13    5    6 1     
   14    6    7 1     
   15    6   14 2     
   16    7   13 1     
   17    7    8 1     
   18    8    9 1     
   19    8   32 1     
   20    8   33 1     
   21    9   10 1     
   22    9   34 1     
   23    9   35 1     
   24   10   11 1     
   25   10   12 1     
   26   10   36 1     
   27   11   37 1     
   28   11   38 1     
   29   11   39 1     
   30   12   13 1     
   31   12   40 1     
   32   12   41 1     
   33   13   42 1     
   34   13   43 1     
   35   14   15 1     
   36   15   22 1     
   37   15   16 2     
   38   16   17 1     
   39   17   18 2     
   40   17   19 1     
   41   19   24 1     
   42   19   20 1     
   43   20   21 2     
   44   20   22 1     
   45   22   23 1     
   46   23   44 1     
   47   23   45 1     
   48   23   46 1     
   49    2   47 1     
   50    2   48 1     
   51   14   49 1     
   52   18   50 1     
   53   18   51 1     
   54   21   52 1     
   55   21   53 1     
@<TRIPOS>SUBSTRUCTURE
      1 S1             1
@<TRIPOS>SET
LONE_PAIRS      STATIC     ATOMS    <user>   **** ""
7 47 48 49 50 51 52 53
DONOR_HYDROGENS      STATIC     ATOMS    <user>   **** ""
1 24
ATOM$BLUE        STATIC     ATOMS    COLORGROUP SYSTEM
7 47 48 49 50 51 52 53
ATOM$RED        STATIC     ATOMS    COLORGROUP SYSTEM
1 24
