#       Name:                AV-unprocessed.smi:550
#       Creating user name   scv26
#       Creation time:       Thu Mar 26 23:39:00 2020


#       File generated by GOLD software.
#

@<TRIPOS>MOLECULE
AV-unprocessed.smi:550
    48    50     1
SMALL
NO_CHARGES


@<TRIPOS>ATOM
      1 ****         1.9033   0.1799   0.5416 O.2            1 S1                 0.0000
      2 ****         1.4026  -0.9196   0.7759 C.2            1 S1                 0.0000
      3 ****         2.1183  -2.0450   0.9125 N.am           1 S1                 0.0000
      4 ****         3.5701  -2.1465   0.7951 C.3            1 S1                 0.0000
      5 ****         4.0030  -2.6396  -0.5992 C.3            1 S1                 0.0000
      6 ****         5.5248  -2.8658  -0.6913 C.3            1 S1                 0.0000
      7 ****         5.8975  -3.1011  -2.1583 C.3            1 S1                 0.0000
      8 ****         4.7536  -2.0530  -3.1304 S.o2           1 S1                 0.0000
      9 ****         5.4367  -0.8091  -3.5166 O.2            1 S1                 0.0000
     10 ****         4.0758  -2.8879  -4.1337 O.2            1 S1                 0.0000
     11 ****         3.6033  -1.6966  -1.7482 C.3            1 S1                 0.0000
     12 ****         0.0904  -1.1558   0.9447 N.am           1 S1                 0.0000
     13 ****        -0.9923  -0.2417   0.8380 C.ar           1 S1                 0.0000
     14 ****        -2.2121  -0.5840   1.4528 C.ar           1 S1                 0.0000
     15 ****        -3.3077   0.2933   1.3459 C.ar           1 S1                 0.0000
     16 ****        -3.1561   1.4961   0.6166 C.ar           1 S1                 0.0000
     17 ****        -4.2277   2.4007   0.4802 N.pl3          1 S1                 0.0000
     18 ****        -4.0534   3.7077  -0.1346 C.3            1 S1                 0.0000
     19 ****        -5.3999   4.4048   0.0526 C.3            1 S1                 0.0000
     20 ****        -5.9006   3.8384   1.3812 C.3            1 S1                 0.0000
     21 ****        -5.3473   2.4088   1.4115 C.3            1 S1                 0.0000
     22 ****        -1.9897   1.8162   0.0078 N.ar           1 S1                 0.0000
     23 ****        -0.9410   0.9732   0.1144 C.ar           1 S1                 0.0000
     24 ****         1.6202  -2.9005   1.1106 H              1 S1                 0.0000
     25 ****         4.0493  -1.1948   1.0314 H              1 S1                 0.0000
     26 ****         3.9117  -2.8521   1.5528 H              1 S1                 0.0000
     27 ****         3.5257  -3.6029  -0.7859 H              1 S1                 0.0000
     28 ****         6.0423  -1.9738  -0.3353 H              1 S1                 0.0000
     29 ****         5.8496  -3.6948  -0.0616 H              1 S1                 0.0000
     30 ****         6.9323  -2.8443  -2.3850 H              1 S1                 0.0000
     31 ****         5.7246  -4.1400  -2.4398 H              1 S1                 0.0000
     32 ****         2.5718  -1.8327  -2.0738 H              1 S1                 0.0000
     33 ****         3.7410  -0.6527  -1.4649 H              1 S1                 0.0000
     34 ****        -0.1607  -2.0932   1.2221 H              1 S1                 0.0000
     35 ****        -2.3114  -1.5081   2.0033 H              1 S1                 0.0000
     36 ****        -4.2442   0.0297   1.8140 H              1 S1                 0.0000
     37 ****        -3.2630   4.2519   0.3843 H              1 S1                 0.0000
     38 ****        -3.7843   3.6259  -1.1882 H              1 S1                 0.0000
     39 ****        -5.3180   5.4918   0.0540 H              1 S1                 0.0000
     40 ****        -6.0803   4.1170  -0.7501 H              1 S1                 0.0000
     41 ****        -5.4725   4.4124   2.2041 H              1 S1                 0.0000
     42 ****        -6.9860   3.8741   1.4773 H              1 S1                 0.0000
     43 ****        -6.0974   1.6967   1.0664 H              1 S1                 0.0000
     44 ****        -5.0464   2.1292   2.4219 H              1 S1                 0.0000
     45 ****        -0.0566   1.2867  -0.4176 H              1 S1                 0.0000
     46 ****         2.8946   0.2671   0.4431 LP             1 S1                 0.0000
     47 ****         1.3189   0.9861   0.4498 LP             1 S1                 0.0000
     48 ****        -1.9064   2.6655  -0.5136 LP             1 S1                 0.0000
@<TRIPOS>BOND
    1    1    2 2     
    2    2    3 am    
    3    2   12 am    
    4    3    4 1     
    5    3   24 1     
    6    4    5 1     
    7    4   25 1     
    8    4   26 1     
    9    5   11 1     
   10    5    6 1     
   11    5   27 1     
   12    6    7 1     
   13    6   28 1     
   14    6   29 1     
   15    7    8 1     
   16    7   30 1     
   17    7   31 1     
   18    8    9 2     
   19    8   10 2     
   20    8   11 1     
   21   11   32 1     
   22   11   33 1     
   23   12   13 1     
   24   12   34 1     
   25   13   23 ar    
   26   13   14 ar    
   27   14   15 ar    
   28   14   35 1     
   29   15   16 ar    
   30   15   36 1     
   31   16   17 1     
   32   16   22 ar    
   33   17   21 1     
   34   17   18 1     
   35   18   19 1     
   36   18   37 1     
   37   18   38 1     
   38   19   20 1     
   39   19   39 1     
   40   19   40 1     
   41   20   21 1     
   42   20   41 1     
   43   20   42 1     
   44   21   43 1     
   45   21   44 1     
   46   22   23 ar    
   47   23   45 1     
   48    1   46 1     
   49    1   47 1     
   50   22   48 1     
@<TRIPOS>SUBSTRUCTURE
      1 S1             1
@<TRIPOS>SET
LONE_PAIRS      STATIC     ATOMS    <user>   **** ""
5 46 47 9 10 48
DONOR_HYDROGENS      STATIC     ATOMS    <user>   **** ""
2 24 34
ATOM$BLUE        STATIC     ATOMS    COLORGROUP SYSTEM
5 46 47 9 10 48
ATOM$RED        STATIC     ATOMS    COLORGROUP SYSTEM
2 24 34
