#       Name:                AV-unprocessed.smi:101
#       Creating user name   scv26
#       Creation time:       Thu Mar 26 17:43:32 2020


#       File generated by GOLD software.
#

@<TRIPOS>MOLECULE
AV-unprocessed.smi:101
    56    58     1
SMALL
NO_CHARGES


@<TRIPOS>ATOM
      1 ****        -2.6557   1.6132  -2.2351 C.3            1 S1                 0.0000
      2 ****        -2.9716   1.4425  -0.7583 C.2            1 S1                 0.0000
      3 ****        -2.1231   0.8188   0.0987 C.2            1 S1                 0.0000
      4 ****        -2.3820   0.6506   1.4539 N.am           1 S1                 0.0000
      5 ****        -1.4096  -0.0430   2.3914 C.3            1 S1                 0.0000
      6 ****        -0.1373  -0.0641   1.8119 O.3            1 S1                 0.0000
      7 ****         0.1813  -1.3870   1.3931 C.3            1 S1                 0.0000
      8 ****         1.7014  -1.5352   1.2779 C.3            1 S1                 0.0000
      9 ****         2.1204  -0.8812   0.0918 O.3            1 S1                 0.0000
     10 ****         3.4300  -0.7604  -0.1927 C.2            1 S1                 0.0000
     11 ****         4.3287  -1.2019   0.5261 O.2            1 S1                 0.0000
     12 ****         3.6771  -0.0316  -1.4705 C.ar           1 S1                 0.0000
     13 ****         5.0075   0.1934  -1.8946 C.ar           1 S1                 0.0000
     14 ****         5.2707   0.8818  -3.0950 C.ar           1 S1                 0.0000
     15 ****         4.2069   1.3524  -3.8864 C.ar           1 S1                 0.0000
     16 ****         2.8788   1.1339  -3.4761 C.ar           1 S1                 0.0000
     17 ****         2.6134   0.4465  -2.2758 C.ar           1 S1                 0.0000
     18 ****        -0.4559  -2.2211   2.4998 C.3            1 S1                 0.0000
     19 ****        -0.5811  -3.5923   2.1697 O.3            1 S1                 0.0000
     20 ****        -1.7936  -1.5128   2.6982 C.3            1 S1                 0.0000
     21 ****        -2.7988  -2.0269   1.8361 O.3            1 S1                 0.0000
     22 ****        -3.5879   1.1453   1.9910 C.2            1 S1                 0.0000
     23 ****        -3.8861   1.0223   3.1784 O.2            1 S1                 0.0000
     24 ****        -4.4587   1.7860   1.1121 N.am           1 S1                 0.0000
     25 ****        -4.2391   1.9777  -0.2538 C.2            1 S1                 0.0000
     26 ****        -5.0861   2.5601  -0.9291 O.2            1 S1                 0.0000
     27 ****        -5.3228   2.1416   1.4943 H              1 S1                 0.0000
     28 ****        -1.6900   1.1787  -2.4960 H              1 S1                 0.0000
     29 ****        -2.6273   2.6711  -2.4983 H              1 S1                 0.0000
     30 ****        -3.4164   1.1275  -2.8470 H              1 S1                 0.0000
     31 ****        -1.2004   0.4398  -0.3124 H              1 S1                 0.0000
     32 ****        -1.3520   0.5863   3.2816 H              1 S1                 0.0000
     33 ****        -0.3022  -1.6077   0.4396 H              1 S1                 0.0000
     34 ****         2.1967  -1.1142   2.1541 H              1 S1                 0.0000
     35 ****         1.9732  -2.5896   1.2160 H              1 S1                 0.0000
     36 ****         5.8407  -0.1580  -1.3033 H              1 S1                 0.0000
     37 ****         6.2910   1.0492  -3.4078 H              1 S1                 0.0000
     38 ****         4.4090   1.8806  -4.8065 H              1 S1                 0.0000
     39 ****         2.0609   1.4946  -4.0824 H              1 S1                 0.0000
     40 ****         1.5822   0.2967  -1.9907 H              1 S1                 0.0000
     41 ****         0.1380  -2.1301   3.4106 H              1 S1                 0.0000
     42 ****         0.2823  -3.9501   2.0317 H              1 S1                 0.0000
     43 ****        -2.1437  -1.5953   3.7276 H              1 S1                 0.0000
     44 ****        -3.5708  -1.4890   1.9243 H              1 S1                 0.0000
     45 ****         0.5379   0.2433   2.4825 LP             1 S1                 0.0000
     46 ****        -0.1230   0.5470   1.0205 LP             1 S1                 0.0000
     47 ****         4.1011  -1.6809   1.3739 LP             1 S1                 0.0000
     48 ****         5.2855  -1.0811   0.2615 LP             1 S1                 0.0000
     49 ****        -1.1231  -3.6895   1.3350 LP             1 S1                 0.0000
     50 ****        -1.0315  -4.0790   2.9182 LP             1 S1                 0.0000
     51 ****        -3.0130  -2.9697   2.0916 LP             1 S1                 0.0000
     52 ****        -2.4767  -2.0029   0.8897 LP             1 S1                 0.0000
     53 ****        -3.2618   0.5558   3.8050 LP             1 S1                 0.0000
     54 ****        -4.7527   1.3889   3.5169 LP             1 S1                 0.0000
     55 ****        -4.9354   2.7004  -1.9076 LP             1 S1                 0.0000
     56 ****        -5.9254   2.8933  -0.4996 LP             1 S1                 0.0000
@<TRIPOS>BOND
    1    1    2 1     
    2    1   28 1     
    3    1   29 1     
    4    1   30 1     
    5    2   25 1     
    6    2    3 2     
    7    3    4 1     
    8    3   31 1     
    9    4    5 1     
   10    4   22 1     
   11    5   20 1     
   12    5    6 1     
   13    5   32 1     
   14    6    7 1     
   15    7    8 1     
   16    7   18 1     
   17    7   33 1     
   18    8    9 1     
   19    8   34 1     
   20    8   35 1     
   21    9   10 1     
   22   10   11 2     
   23   10   12 1     
   24   12   17 ar    
   25   12   13 ar    
   26   13   14 ar    
   27   13   36 1     
   28   14   15 ar    
   29   14   37 1     
   30   15   16 ar    
   31   15   38 1     
   32   16   17 ar    
   33   16   39 1     
   34   17   40 1     
   35   18   19 1     
   36   18   20 1     
   37   18   41 1     
   38   19   42 1     
   39   20   21 1     
   40   20   43 1     
   41   21   44 1     
   42   22   23 2     
   43   22   24 1     
   44   24   27 1     
   45   24   25 1     
   46   25   26 2     
   47    6   45 1     
   48    6   46 1     
   49   11   47 1     
   50   11   48 1     
   51   19   49 1     
   52   19   50 1     
   53   21   51 1     
   54   21   52 1     
   55   23   53 1     
   56   23   54 1     
   57   26   55 1     
   58   26   56 1     
@<TRIPOS>SUBSTRUCTURE
      1 S1             1
@<TRIPOS>SET
LONE_PAIRS      STATIC     ATOMS    <user>   **** ""
12 45 46 47 48 49 50 51 52 53 54 55 56
DONOR_HYDROGENS      STATIC     ATOMS    <user>   **** ""
3 42 44 27
ATOM$BLUE        STATIC     ATOMS    COLORGROUP SYSTEM
12 45 46 47 48 49 50 51 52 53 54 55 56
ATOM$RED        STATIC     ATOMS    COLORGROUP SYSTEM
3 42 44 27
