AV-unprocessed.smi:2224|AV-procd|sdf|8993|dock7
  -GOLD-   2272012203D 1   1.00000     0.00000
 Structure written by MMmdl.
 44 46  0  0  0  0  0  0  0  0  1 V2000
  152.1805  145.9123  160.2082 C   0  0  0  0  0  0  0  0  0  0  0  0
  152.1321  144.5332  159.5846 C   0  0  0  0  0  0  0  0  0  0  0  0
  152.9745  143.5021  160.0425 C   0  0  0  0  0  0  0  0  0  0  0  0
  152.8797  142.2415  159.4207 C   0  0  0  0  0  0  0  0  0  0  0  0
  153.7549  141.0876  159.8627 C   0  0  0  0  0  0  0  0  0  0  0  0
  152.0205  141.9794  158.4127 N   0  0  0  0  0  0  0  0  0  0  0  0
  151.2042  142.9651  157.9640 C   0  0  0  0  0  0  0  0  0  0  0  0
  150.2698  142.7951  156.9085 N   0  0  0  0  0  0  0  0  0  0  0  0
  150.0769  141.7131  156.1342 C   0  0  0  0  0  0  0  0  0  0  0  0
  150.6885  140.6487  156.2290 O   0  0  0  0  0  0  0  0  0  0  0  0
  149.1082  141.9313  155.2350 N   0  0  0  0  0  0  0  0  0  0  0  0
  148.6220  140.9442  154.2693 C   0  0  2  0  0  0  0  0  0  0  0  0
  147.3119  141.3785  153.5743 C   0  0  2  0  0  0  0  0  0  0  0  0
  146.7507  142.7754  153.6814 C   0  0  0  0  0  0  0  0  0  0  0  0
  145.7138  142.6393  154.8003 C   0  0  0  0  0  0  0  0  0  0  0  0
  146.1033  141.4705  155.5189 O   0  0  0  0  0  0  0  0  0  0  0  0
  146.5656  140.5089  154.5727 C   0  0  2  0  0  0  0  0  0  0  0  0
  147.8668  139.7609  154.9323 C   0  0  0  0  0  0  0  0  0  0  0  0
  148.0417  138.4235  154.2067 C   0  0  0  0  0  0  0  0  0  0  0  0
  148.0977  139.4745  156.4225 C   0  0  0  0  0  0  0  0  0  0  0  0
  151.2369  144.2588  158.5312 C   0  0  0  0  0  0  0  0  0  0  0  0
  152.9874  145.9904  160.9375 H   0  0  0  0  0  0  0  0  0  0  0  0
  151.2399  146.1299  160.7147 H   0  0  0  0  0  0  0  0  0  0  0  0
  152.3413  146.6696  159.4406 H   0  0  0  0  0  0  0  0  0  0  0  0
  153.6737  143.6719  160.8483 H   0  0  0  0  0  0  0  0  0  0  0  0
  154.5150  141.4171  160.5716 H   0  0  0  0  0  0  0  0  0  0  0  0
  154.2614  140.6421  159.0059 H   0  0  0  0  0  0  0  0  0  0  0  0
  153.1500  140.3185  160.3433 H   0  0  0  0  0  0  0  0  0  0  0  0
  149.6758  143.5895  156.7233 H   0  0  0  0  0  0  0  0  0  0  0  0
  148.6516  142.8314  155.2314 H   0  0  0  0  0  0  0  0  0  0  0  0
  149.3777  140.6228  153.5500 H   0  0  0  0  0  0  0  0  0  0  0  0
  147.2505  140.9583  152.5692 H   0  0  0  0  0  0  0  0  0  0  0  0
  147.5161  143.5083  153.9356 H   0  0  0  0  0  0  0  0  0  0  0  0
  146.2835  143.1045  152.7528 H   0  0  0  0  0  0  0  0  0  0  0  0
  145.6779  143.5150  155.4488 H   0  0  0  0  0  0  0  0  0  0  0  0
  144.7185  142.4823  154.3821 H   0  0  0  0  0  0  0  0  0  0  0  0
  145.7678  139.9082  154.1331 H   0  0  0  0  0  0  0  0  0  0  0  0
  147.3276  137.6787  154.5591 H   0  0  0  0  0  0  0  0  0  0  0  0
  149.0428  138.0172  154.3540 H   0  0  0  0  0  0  0  0  0  0  0  0
  147.8927  138.5265  153.1315 H   0  0  0  0  0  0  0  0  0  0  0  0
  147.4372  138.6870  156.7864 H   0  0  0  0  0  0  0  0  0  0  0  0
  147.9120  140.3504  157.0445 H   0  0  0  0  0  0  0  0  0  0  0  0
  149.1234  139.1570  156.6119 H   0  0  0  0  0  0  0  0  0  0  0  0
  150.5809  145.0355  158.1652 H   0  0  0  0  0  0  0  0  0  0  0  0
  1  2  1  0  0  0  0
  1 22  1  0  0  0  0
  1 23  1  0  0  0  0
  1 24  1  0  0  0  0
  2 21  1  0  0  0  0
  2  3  2  0  0  0  0
  3  4  1  0  0  0  0
  3 25  1  0  0  0  0
  4  5  1  0  0  0  0
  4  6  2  0  0  0  0
  5 26  1  0  0  0  0
  5 27  1  0  0  0  0
  5 28  1  0  0  0  0
  6  7  1  0  0  0  0
  7  8  1  0  0  0  0
  7 21  2  0  0  0  0
  8  9  1  0  0  0  0
  8 29  1  0  0  0  0
  9 10  2  0  0  0  0
  9 11  1  0  0  0  0
 11 12  1  0  0  0  0
 11 30  1  0  0  0  0
 12 18  1  0  0  0  0
 12 13  1  0  0  0  0
 12 31  1  0  0  0  0
 13 17  1  0  0  0  0
 13 14  1  0  0  0  0
 13 32  1  0  0  0  0
 14 15  1  0  0  0  0
 14 33  1  0  0  0  0
 14 34  1  0  0  0  0
 15 16  1  0  0  0  0
 15 35  1  0  0  0  0
 15 36  1  0  0  0  0
 16 17  1  0  0  0  0
 17 18  1  0  0  0  0
 17 37  1  0  0  0  0
 18 19  1  0  0  0  0
 18 20  1  0  0  0  0
 19 38  1  0  0  0  0
 19 39  1  0  0  0  0
 19 40  1  0  0  0  0
 20 41  1  0  0  0  0
 20 42  1  0  0  0  0
 20 43  1  0  0  0  0
 21 44  1  0  0  0  0
M  END
> <s_m_source_file>
AV-unprocessed.smi

> <i_m_source_file_index>
2224

> <i_lp_mmshare_version>
43012

> <i_f3d_flags>
0

> <s_epik_input>
W0NIM11jMVtjSF1jKFtDSDNdKW5jKFtjSF0xKVtOSF1DKD1PKVtOSF1bQ0BIXTJDKFtDSDNdKShbQ0gzXSlbQ0BIXShbQ0BASF0yMylPW0NIMl1bQ0gyXTM=

> <s_epik_cmdline>
J2VwaWtfcHl0aG9uJywgJy1waCcsICc3LjAnLCAnLXRuJywgJzgnLCAnLW1hJywgJzIwMCcsICctbWV0YWxfYmluZGluZycsICctaW1hZScsICc8aW5maWxlLm1hZT4nLCAnLW9tYWUnLCAnPG91dGZpbGUubWFlPic=

> <r_lp_tautomer_probability>
1

> <r_epik_Ionization_Penalty>
0.000276544

> <r_epik_Ionization_Penalty_Charging>
0

> <r_epik_Ionization_Penalty_Neutral>
0.000276544

> <r_epik_State_Penalty>
-0

> <r_epik_Charging_Adjusted_Penalty>
0

> <i_epik_Tot_Q>
0

> <i_epik_Tot_abs_Q>
0

> <r_epik_Metal_State_Penalty>
-0

> <b_epik_Metal_Only>
0

> <s_lp_Force_Field>
OPLS_2005

> <r_lp_Energy>
39.8946

> <b_lp_Chiralities_Consistent>
1

> <s_lp_Variant>
AV-unprocessed.smi:2224-3

> <Gold.Version>
5.8.1

> <Gold.Id.Protein>
6NUR|6NUR_protein|mol2

> <Gold.PLP.Fitness>
48.1547

> <Gold.PLP.PLP>
-42.5768

> <Gold.PLP.part.hbond>
-2.0000

> <Gold.PLP.part.metal>
0.0000

> <Gold.PLP.part.buried>
-7.6265

> <Gold.PLP.part.nonpolar>
-33.7917

> <Gold.PLP.part.repulsive>
0.3090

> <Gold.PLP.ligand.clash>
0.0000

> <Gold.PLP.ligand.torsion>
0.1009

> <Gold.PLP.Chemscore.Hbond>
1.8640

> <Gold.PLP.Chemscore.CHOScore>
0.0000

> <Gold.PLP.Chemscore.Metal>
0.0000

> <Gold.Chemscore.Hbonds>
donor molecule, donor type, donor heavy atom, donor atom, acceptor molecule, acceptor atom, score
      L1  H     8    29       P1  8028  1.00
      L1  H    11    30       P1  8028  0.90

> <Gold.PLP.Chemscore.Internal.Correction>
0.1877

> <Gold.Rescore>
     Score         DG    S(hbond)    S(metal)    S(lipo)     H(rot)  DE(clash)    DE(int)     intcor
     17.15     -21.14       1.72        0.00     106.64       1.00       0.18       3.81       ----

> <Gold.Chemscore.Fitness>
17.1532

> <Gold.Chemscore.DG>
-21.1424

> <Gold.Chemscore.ZeroCoef>
-5.4800

> <Gold.Chemscore.Hbond>
1.7201

> <Gold.Chemscore.Metal>
0.0000

> <Gold.Chemscore.Lipo>
106.6449

> <Gold.Chemscore.Internal_Hbond>
0.0000

> <Gold.Chemscore.DEClash>
0.1808

> <Gold.Chemscore.DEInternal>
3.8085

> <Gold.Chemscore.Rot>
1.0000

> <Gold.Chemscore.Internal.Correction>
   9.000000E+99

> <Gold.Chemscore.Hbonds>
donor molecule, donor type, donor heavy atom, donor atom, acceptor molecule, acceptor atom, score
      L1  H     8    29       P1  8028  0.97
      L1  H    11    30       P1  8028  0.88

> <Gold.Chemscore.Hbond.Weighted>
-5.7450

> <Gold.Chemscore.Metal.Weighted>
-0.0000

> <Gold.Chemscore.Lipo.Weighted>
-12.4775

> <Gold.Chemscore.Internal_Hbond.Weighted>
0.0000

> <Gold.Chemscore.DEClash.Weighted>
0.1808

> <Gold.Chemscore.DEInternal.Weighted>
3.8085

> <Gold.Chemscore.Rot.Weighted>
2.5600

> <Gold.Chemscore.Internal.Correction.Weighted>
   9.000000E+99

> <Gold.Protein.RotatedTorsions>
[ 6907 6896 6895 6894 ] final -169.53 input  -60.11 | X-H torsion
[ 7974 7965 7964 7962 ] final -156.19 input  175.53 | X-H torsion
[ 8008 7997 7996 7995 ] final  -34.16 input   59.86 | X-H torsion
[ 10167 10162 10161 10158 ] final  147.49 input  -65.29 | X-H torsion
[ 10718 10713 10712 10709 ] final  -95.82 input   66.30 | X-H torsion
[ 10763 10752 10751 10750 ] final  135.22 input  -60.55 | X-H torsion
[ 11005 11000 10999 10996 ] final  121.51 input  -57.11 | X-H torsion

> <Gold.Protein.ActiveResidues>
 VAL166  LYS551  ARG553  GLY616  TRP617  ASP618  TYR619  PRO620  LYS621  CYS622 
 ASP623  PHE694  ASN695  SER759  ASP760  ASP761  ALA762  ILE779  LEU786  VAL792 
 PHE793  MET794  SER795  GLU796  ALA797  LYS798  CYS799  TRP800  GLU811  SER814 

> <Gold.Protein.RotatedAtoms>
  151.4931  133.3520  159.2856 H   0  0  0  0  0  0  0  0  0  0  0  0  # atno 6907 bound_to 6896
  150.8821  134.8216  159.7244 H   0  0  0  0  0  0  0  0  0  0  0  0  # atno 6908 bound_to 6896
  152.4769  134.4830  159.9723 H   0  0  0  0  0  0  0  0  0  0  0  0  # atno 6909 bound_to 6896
  144.7605  140.4144  143.5980 H   0  0  0  0  0  0  0  0  0  0  0  0  # atno 7974 bound_to 7965
  154.4128  140.1691  156.2005 H   0  0  0  0  0  0  0  0  0  0  0  0  # atno 8008 bound_to 7997
  155.9528  140.3399  155.6399 H   0  0  0  0  0  0  0  0  0  0  0  0  # atno 8009 bound_to 7997
  155.6848  140.0727  157.2461 H   0  0  0  0  0  0  0  0  0  0  0  0  # atno 8010 bound_to 7997
  139.4889  144.5751  151.6980 H   0  0  0  0  0  0  0  0  0  0  0  0  # atno 10167 bound_to 10162
  156.0050  130.5125  150.6134 H   0  0  0  0  0  0  0  0  0  0  0  0  # atno 10718 bound_to 10713
  153.8365  135.3097  155.3423 H   0  0  0  0  0  0  0  0  0  0  0  0  # atno 10763 bound_to 10752
  154.7951  135.4760  154.0145 H   0  0  0  0  0  0  0  0  0  0  0  0  # atno 10764 bound_to 10752
  153.1602  135.6859  153.8845 H   0  0  0  0  0  0  0  0  0  0  0  0  # atno 10765 bound_to 10752
  139.9229  134.9639  156.7969 H   0  0  0  0  0  0  0  0  0  0  0  0  # atno 11005 bound_to 11000
  145.6637  139.1586  143.2794 LP  0  0  0  0  0  0  0  0  0  0  0  0  # atno 17320 bound_to 7965
  146.1662  140.6715  142.9254 LP  0  0  0  0  0  0  0  0  0  0  0  0  # atno 17321 bound_to 7965
  140.5346  144.0676  150.6066 LP  0  0  0  0  0  0  0  0  0  0  0  0  # atno 17342 bound_to 10162
  140.3678  143.2872  152.0312 LP  0  0  0  0  0  0  0  0  0  0  0  0  # atno 17343 bound_to 10162
  157.3962  131.0803  151.1349 LP  0  0  0  0  0  0  0  0  0  0  0  0  # atno 17370 bound_to 10713
  157.2025  130.6401  149.5744 LP  0  0  0  0  0  0  0  0  0  0  0  0  # atno 17371 bound_to 10713
  140.6422  133.9808  155.7713 LP  0  0  0  0  0  0  0  0  0  0  0  0  # atno 17394 bound_to 11000
  141.0764  134.0129  157.3452 LP  0  0  0  0  0  0  0  0  0  0  0  0  # atno 17395 bound_to 11000

$$$$
