#       Name:                AV-unprocessed.smi:214
#       Creating user name   scv26
#       Creation time:       Thu Mar 26 20:02:57 2020


#       File generated by GOLD software.
#

@<TRIPOS>MOLECULE
AV-unprocessed.smi:214
    56    59     1
SMALL
NO_CHARGES


@<TRIPOS>ATOM
      1 ****        -1.8957  -2.0106   1.7983 C.3            1 S1                 0.0000
      2 ****        -1.5493  -0.6078   1.5949 N.pl3          1 S1                 0.0000
      3 ****        -2.4669   0.2495   0.8363 C.3            1 S1                 0.0000
      4 ****        -3.6834   0.6913   1.6593 C.2            1 S1                 0.0000
      5 ****        -3.7035   0.5558   2.8838 O.2            1 S1                 0.0000
      6 ****        -4.6903   1.2381   0.9627 N.am           1 S1                 0.0000
      7 ****        -5.9130   1.7244   1.5159 C.3            1 S1                 0.0000
      8 ****        -7.1584   1.6248   0.6616 C.3            1 S1                 0.0000
      9 ****        -6.5207   2.9657   0.8992 C.3            1 S1                 0.0000
     10 ****        -0.2205  -0.3916   1.4575 C.ar           1 S1                 0.0000
     11 ****         0.5433  -0.4890   2.5746 N.ar           1 S1                 0.0000
     12 ****         1.8616  -0.2837   2.5065 C.ar           1 S1                 0.0000
     13 ****         2.6055   0.0136   1.4396 N.ar           1 S1                 0.0000
     14 ****         1.8463   0.0900   0.3096 C.ar           1 S1                 0.0000
     15 ****         0.4366  -0.0952   0.2284 C.ar           1 S1                 0.0000
     16 ****         0.0174   0.0510  -1.0891 N.2            1 S1                 0.0000
     17 ****         1.1132   0.3186  -1.7453 C.2            1 S1                 0.0000
     18 ****         2.2604   0.3529  -0.9848 N.pl3          1 S1                 0.0000
     19 ****         3.6081   0.6249  -1.4623 C.3            1 S1                 0.0000
     20 ****         4.4908  -0.6302  -1.6298 C.3            1 S1                 0.0000
     21 ****         3.7664  -1.7073  -2.4568 C.3            1 S1                 0.0000
     22 ****         3.4415  -1.2355  -3.7490 O.3            1 S1                 0.0000
     23 ****         5.9448  -0.3700  -2.0476 C.3            1 S1                 0.0000
     24 ****         6.4567  -1.1988  -0.9830 O.3            1 S1                 0.0000
     25 ****         5.1597  -1.1590  -0.3523 C.3            1 S1                 0.0000
     26 ****        -1.4940  -2.3776   2.7434 H              1 S1                 0.0000
     27 ****        -1.4988  -2.6288   0.9915 H              1 S1                 0.0000
     28 ****        -2.9769  -2.1493   1.8254 H              1 S1                 0.0000
     29 ****        -1.9655   1.1584   0.5000 H              1 S1                 0.0000
     30 ****        -2.8015  -0.2816  -0.0563 H              1 S1                 0.0000
     31 ****        -4.5839   1.3147  -0.0384 H              1 S1                 0.0000
     32 ****        -6.0613   1.6011   2.5878 H              1 S1                 0.0000
     33 ****        -7.0625   1.1937  -0.3332 H              1 S1                 0.0000
     34 ****        -8.0984   1.4182   1.1693 H              1 S1                 0.0000
     35 ****        -7.0347   3.6555   1.5655 H              1 S1                 0.0000
     36 ****        -5.9981   3.4282   0.0640 H              1 S1                 0.0000
     37 ****         2.3969  -0.3700   3.4407 H              1 S1                 0.0000
     38 ****         1.1164   0.4909  -2.8119 H              1 S1                 0.0000
     39 ****         3.5302   1.1615  -2.4085 H              1 S1                 0.0000
     40 ****         4.0701   1.3282  -0.7683 H              1 S1                 0.0000
     41 ****         4.3990  -2.5878  -2.5744 H              1 S1                 0.0000
     42 ****         2.8592  -2.0548  -1.9620 H              1 S1                 0.0000
     43 ****         3.0354  -1.9393  -4.2319 H              1 S1                 0.0000
     44 ****         6.2009  -0.7500  -3.0372 H              1 S1                 0.0000
     45 ****         6.2580   0.6695  -1.9370 H              1 S1                 0.0000
     46 ****         5.1472  -0.4588   0.4842 H              1 S1                 0.0000
     47 ****         4.8098  -2.1438  -0.0409 H              1 S1                 0.0000
     48 ****        -2.9190   0.1527   3.3552 LP             1 S1                 0.0000
     49 ****        -4.5042   0.8489   3.4062 LP             1 S1                 0.0000
     50 ****         0.1184  -0.7150   3.4512 LP             1 S1                 0.0000
     51 ****         3.5942   0.1616   1.4654 LP             1 S1                 0.0000
     52 ****        -0.9112  -0.0303  -1.4510 LP             1 S1                 0.0000
     53 ****         4.2731  -0.9397  -4.2191 LP             1 S1                 0.0000
     54 ****         2.8074  -0.4656  -3.6774 LP             1 S1                 0.0000
     55 ****         7.1871  -0.7749  -0.4474 LP             1 S1                 0.0000
     56 ****         6.7438  -2.1112  -1.2746 LP             1 S1                 0.0000
@<TRIPOS>BOND
    1    1    2 1     
    2    1   26 1     
    3    1   27 1     
    4    1   28 1     
    5    2    3 1     
    6    2   10 1     
    7    3    4 1     
    8    3   29 1     
    9    3   30 1     
   10    4    5 2     
   11    4    6 am    
   12    6    7 1     
   13    6   31 1     
   14    7    9 1     
   15    7    8 1     
   16    7   32 1     
   17    8    9 1     
   18    8   33 1     
   19    8   34 1     
   20    9   35 1     
   21    9   36 1     
   22   10   15 ar    
   23   10   11 ar    
   24   11   12 ar    
   25   12   13 ar    
   26   12   37 1     
   27   13   14 ar    
   28   14   18 1     
   29   14   15 ar    
   30   15   16 1     
   31   16   17 2     
   32   17   18 1     
   33   17   38 1     
   34   18   19 1     
   35   19   20 1     
   36   19   39 1     
   37   19   40 1     
   38   20   25 1     
   39   20   21 1     
   40   20   23 1     
   41   21   22 1     
   42   21   41 1     
   43   21   42 1     
   44   22   43 1     
   45   23   24 1     
   46   23   44 1     
   47   23   45 1     
   48   24   25 1     
   49   25   46 1     
   50   25   47 1     
   51    5   48 1     
   52    5   49 1     
   53   11   50 1     
   54   13   51 1     
   55   16   52 1     
   56   22   53 1     
   57   22   54 1     
   58   24   55 1     
   59   24   56 1     
@<TRIPOS>SUBSTRUCTURE
      1 S1             1
@<TRIPOS>SET
LONE_PAIRS      STATIC     ATOMS    <user>   **** ""
9 48 49 50 51 52 53 54 55 56
DONOR_HYDROGENS      STATIC     ATOMS    <user>   **** ""
2 31 43
ATOM$BLUE        STATIC     ATOMS    COLORGROUP SYSTEM
9 48 49 50 51 52 53 54 55 56
ATOM$RED        STATIC     ATOMS    COLORGROUP SYSTEM
2 31 43
