AV-unprocessed.smi:2855|AV-procd|sdf|10982|dock3
  -GOLD-   2272015433D 1   1.00000     0.00000
 Structure written by MMmdl.
 47 48  0  0  0  0  0  0  0  0  1 V2000
  145.6973  137.1007  161.9258 C   0  0  0  0  0  0  0  0  0  0  0  0
  147.1987  136.7958  162.0716 C   0  0  1  0  0  0  0  0  0  0  0  0
  147.4808  135.6495  163.0595 C   0  0  0  0  0  0  0  0  0  0  0  0
  147.1046  134.2737  162.4857 C   0  0  0  0  0  0  0  0  0  0  0  0
  147.8136  133.9913  161.1397 C   0  0  1  0  0  0  0  0  0  0  0  0
  147.5265  132.5643  160.5812 C   0  0  0  0  0  0  0  0  0  0  0  0
  146.0492  132.3127  160.2272 C   0  0  0  0  0  0  0  0  0  0  0  0
  148.0595  131.4539  161.5036 C   0  0  0  0  0  0  0  0  0  0  0  0
  147.5186  135.1376  160.1315 C   0  0  2  0  0  0  0  0  0  0  0  0
  148.2731  134.9515  158.8930 N   0  0  0  0  0  0  0  0  0  0  0  0
  148.1973  135.7249  157.7988 C   0  0  0  0  0  0  0  0  0  0  0  0
  147.4923  136.7321  157.7247 O   0  0  0  0  0  0  0  0  0  0  0  0
  149.0649  135.2961  156.6080 C   0  0  0  0  0  0  0  0  0  0  0  0
  149.9387  136.3774  156.1318 N   0  0  0  0  0  0  0  0  0  0  0  0
  149.9132  136.7662  154.8000 C   0  0  0  0  0  0  0  0  0  0  0  0
  150.7028  137.7429  154.2936 C   0  0  0  0  0  0  0  0  0  0  0  0
  151.6446  138.4519  155.1534 C   0  0  0  0  0  0  0  0  0  0  0  0
  152.3998  139.3503  154.7887 O   0  0  0  0  0  0  0  0  0  0  0  0
  151.6415  138.0309  156.4858 N   0  0  0  0  0  0  0  0  0  0  0  0
  150.8324  137.0237  157.0138 C   0  0  0  0  0  0  0  0  0  0  0  0
  150.9133  136.7262  158.2053 O   0  0  0  0  0  0  0  0  0  0  0  0
  147.8828  136.5166  160.7203 C   0  0  0  0  0  0  0  0  0  0  0  0
  152.2795  138.4915  157.1183 H   0  0  0  0  0  0  0  0  0  0  0  0
  145.1429  136.2573  161.5151 H   0  0  0  0  0  0  0  0  0  0  0  0
  145.5352  137.9532  161.2658 H   0  0  0  0  0  0  0  0  0  0  0  0
  145.2540  137.3466  162.8910 H   0  0  0  0  0  0  0  0  0  0  0  0
  147.6534  137.6974  162.4845 H   0  0  0  0  0  0  0  0  0  0  0  0
  148.5421  135.6485  163.3108 H   0  0  0  0  0  0  0  0  0  0  0  0
  146.9501  135.8207  163.9967 H   0  0  0  0  0  0  0  0  0  0  0  0
  147.3651  133.5135  163.2211 H   0  0  0  0  0  0  0  0  0  0  0  0
  146.0233  134.2185  162.3624 H   0  0  0  0  0  0  0  0  0  0  0  0
  148.8859  134.0291  161.3403 H   0  0  0  0  0  0  0  0  0  0  0  0
  148.0892  132.4540  159.6542 H   0  0  0  0  0  0  0  0  0  0  0  0
  145.4103  132.3427  161.1096 H   0  0  0  0  0  0  0  0  0  0  0  0
  145.9241  131.3308  159.7700 H   0  0  0  0  0  0  0  0  0  0  0  0
  145.6718  133.0447  159.5142 H   0  0  0  0  0  0  0  0  0  0  0  0
  147.5027  131.3980  162.4387 H   0  0  0  0  0  0  0  0  0  0  0  0
  149.1105  131.6116  161.7469 H   0  0  0  0  0  0  0  0  0  0  0  0
  147.9805  130.4787  161.0221 H   0  0  0  0  0  0  0  0  0  0  0  0
  146.4497  135.1440  159.9177 H   0  0  0  0  0  0  0  0  0  0  0  0
  148.8879  134.1515  158.8580 H   0  0  0  0  0  0  0  0  0  0  0  0
  149.6567  134.4328  156.9151 H   0  0  0  0  0  0  0  0  0  0  0  0
  148.4354  134.9387  155.7902 H   0  0  0  0  0  0  0  0  0  0  0  0
  149.2345  136.2653  154.1244 H   0  0  0  0  0  0  0  0  0  0  0  0
  150.6378  138.0000  153.2462 H   0  0  0  0  0  0  0  0  0  0  0  0
  147.6328  137.3056  160.0095 H   0  0  0  0  0  0  0  0  0  0  0  0
  148.9639  136.5705  160.8593 H   0  0  0  0  0  0  0  0  0  0  0  0
  1  2  1  0  0  0  0
  1 24  1  0  0  0  0
  1 25  1  0  0  0  0
  1 26  1  0  0  0  0
  2 22  1  0  0  0  0
  2  3  1  0  0  0  0
  2 27  1  0  0  0  0
  3  4  1  0  0  0  0
  3 28  1  0  0  0  0
  3 29  1  0  0  0  0
  4  5  1  0  0  0  0
  4 30  1  0  0  0  0
  4 31  1  0  0  0  0
  5  6  1  0  0  0  0
  5  9  1  0  0  0  0
  5 32  1  0  0  0  0
  6  7  1  0  0  0  0
  6  8  1  0  0  0  0
  6 33  1  0  0  0  0
  7 34  1  0  0  0  0
  7 35  1  0  0  0  0
  7 36  1  0  0  0  0
  8 37  1  0  0  0  0
  8 38  1  0  0  0  0
  8 39  1  0  0  0  0
  9 10  1  0  0  0  0
  9 22  1  0  0  0  0
  9 40  1  0  0  0  0
 10 11  1  0  0  0  0
 10 41  1  0  0  0  0
 11 12  2  0  0  0  0
 11 13  1  0  0  0  0
 13 14  1  0  0  0  0
 13 42  1  0  0  0  0
 13 43  1  0  0  0  0
 14 20  1  0  0  0  0
 14 15  1  0  0  0  0
 15 16  2  0  0  0  0
 15 44  1  0  0  0  0
 16 17  1  0  0  0  0
 16 45  1  0  0  0  0
 17 18  2  0  0  0  0
 17 19  1  0  0  0  0
 19 23  1  0  0  0  0
 19 20  1  0  0  0  0
 20 21  2  0  0  0  0
 22 46  1  0  0  0  0
 22 47  1  0  0  0  0
M  END
> <s_m_source_file>
AV-unprocessed.smi

> <i_m_source_file_index>
2855

> <i_lp_mmshare_version>
43012

> <i_f3d_flags>
0

> <s_epik_input>
W0NIM11bQ0BASF0xW0NIMl1bQ0gyXVtDQEBIXShbQ0hdKFtDSDNdKVtDSDNdKVtDQEhdKFtDSDJdMSlbTkhdQyg9TylbQ0gyXW4yW2NIXVtjSF1jKD1PKVtuSF1jMj1P

> <s_epik_cmdline>
J2VwaWtfcHl0aG9uJywgJy1waCcsICc3LjAnLCAnLXRuJywgJzgnLCAnLW1hJywgJzIwMCcsICctbWV0YWxfYmluZGluZycsICctaW1hZScsICc8aW5maWxlLm1hZT4nLCAnLW9tYWUnLCAnPG91dGZpbGUubWFlPic=

> <r_lp_tautomer_probability>
0.999537

> <r_epik_Ionization_Penalty>
0.00306256

> <r_epik_Ionization_Penalty_Charging>
0.00306254

> <r_epik_Ionization_Penalty_Neutral>
2.0223e-08

> <r_epik_State_Penalty>
0.0021533

> <r_epik_Charging_Adjusted_Penalty>
0.00521583

> <i_epik_Tot_Q>
0

> <i_epik_Tot_abs_Q>
0

> <r_epik_Metal_State_Penalty>
0.362116

> <b_epik_Metal_Only>
0

> <s_lp_Force_Field>
OPLS_2005

> <r_lp_Energy>
15.8562

> <b_lp_Chiralities_Consistent>
1

> <s_lp_Variant>
AV-unprocessed.smi:2855-6

> <Gold.Version>
5.8.1

> <Gold.Id.Protein>
6NUR|6NUR_protein|mol2

> <Gold.PLP.Fitness>
43.5355

> <Gold.PLP.PLP>
-35.3308

> <Gold.PLP.part.hbond>
-2.0000

> <Gold.PLP.part.metal>
0.0000

> <Gold.PLP.part.buried>
-5.2528

> <Gold.PLP.part.nonpolar>
-29.2284

> <Gold.PLP.part.repulsive>
0.1848

> <Gold.PLP.ligand.clash>
0.0000

> <Gold.PLP.ligand.torsion>
0.1050

> <Gold.PLP.Chemscore.Hbond>
1.7840

> <Gold.PLP.Chemscore.CHOScore>
1.0000

> <Gold.PLP.Chemscore.Metal>
0.0000

> <Gold.Chemscore.Hbonds>
donor molecule, donor type, donor heavy atom, donor atom, acceptor molecule, acceptor atom, score
      P1  H  6896  6908       L1    21  0.20
      P1  H  7989  7998       L1    18  0.57
      L1  C    15    44       P1  7948  1.00

> <Gold.PLP.Chemscore.Internal.Correction>
0.0628

> <Gold.Rescore>
     Score         DG    S(hbond)    S(metal)    S(lipo)     H(rot)  DE(clash)    DE(int)     intcor
     14.54     -15.78       1.62        0.00      82.39       1.85       0.01       1.23       ----

> <Gold.Chemscore.Fitness>
14.5436

> <Gold.Chemscore.DG>
-15.7833

> <Gold.Chemscore.ZeroCoef>
-5.4800

> <Gold.Chemscore.Hbond>
1.6197

> <Gold.Chemscore.Metal>
0.0000

> <Gold.Chemscore.Lipo>
82.3899

> <Gold.Chemscore.Internal_Hbond>
0.0000

> <Gold.Chemscore.DEClash>
0.0069

> <Gold.Chemscore.DEInternal>
1.2328

> <Gold.Chemscore.Rot>
1.8539

> <Gold.Chemscore.Internal.Correction>
   9.000000E+99

> <Gold.Chemscore.Hbonds>
donor molecule, donor type, donor heavy atom, donor atom, acceptor molecule, acceptor atom, score
      P1  H  6896  6908       L1    21  0.19
      P1  H  7989  7998       L1    18  0.55
      P1  H  7997  8010       L1    18  0.03

> <Gold.Chemscore.Hbond.Weighted>
-5.4097

> <Gold.Chemscore.Metal.Weighted>
-0.0000

> <Gold.Chemscore.Lipo.Weighted>
-9.6396

> <Gold.Chemscore.Internal_Hbond.Weighted>
0.0000

> <Gold.Chemscore.DEClash.Weighted>
0.0069

> <Gold.Chemscore.DEInternal.Weighted>
1.2328

> <Gold.Chemscore.Rot.Weighted>
4.7460

> <Gold.Chemscore.Internal.Correction.Weighted>
   9.000000E+99

> <Gold.Protein.RotatedTorsions>
[ 6907 6896 6895 6894 ] final -142.76 input  -60.11 | X-H torsion
[ 7974 7965 7964 7962 ] final   85.05 input  175.53 | X-H torsion
[ 8008 7997 7996 7995 ] final  107.14 input   59.86 | X-H torsion
[ 10167 10162 10161 10158 ] final  101.76 input  -65.29 | X-H torsion
[ 10718 10713 10712 10709 ] final  145.93 input   66.30 | X-H torsion
[ 10763 10752 10751 10750 ] final -154.86 input  -60.55 | X-H torsion
[ 11005 11000 10999 10996 ] final  -42.05 input  -57.11 | X-H torsion

> <Gold.Protein.ActiveResidues>
 VAL166  LYS551  ARG553  GLY616  TRP617  ASP618  TYR619  PRO620  LYS621  CYS622 
 ASP623  PHE694  ASN695  SER759  ASP760  ASP761  ALA762  ILE779  LEU786  VAL792 
 PHE793  MET794  SER795  GLU796  ALA797  LYS798  CYS799  TRP800  GLU811  SER814 

> <Gold.Protein.RotatedAtoms>
  151.0913  133.5314  159.2614 H   0  0  0  0  0  0  0  0  0  0  0  0  # atno 6907 bound_to 6896
  151.2180  135.0507  159.8948 H   0  0  0  0  0  0  0  0  0  0  0  0  # atno 6908 bound_to 6896
  152.5434  134.0719  159.8251 H   0  0  0  0  0  0  0  0  0  0  0  0  # atno 6909 bound_to 6896
  145.5906  139.2337  143.2301 H   0  0  0  0  0  0  0  0  0  0  0  0  # atno 7974 bound_to 7965
  156.1800  140.3100  155.9132 H   0  0  0  0  0  0  0  0  0  0  0  0  # atno 8008 bound_to 7997
  155.3403  140.0465  157.3062 H   0  0  0  0  0  0  0  0  0  0  0  0  # atno 8009 bound_to 7997
  154.5333  140.2237  155.8777 H   0  0  0  0  0  0  0  0  0  0  0  0  # atno 8010 bound_to 7997
  139.7410  144.7011  151.0576 H   0  0  0  0  0  0  0  0  0  0  0  0  # atno 10167 bound_to 10162
  157.3394  131.0933  151.1095 H   0  0  0  0  0  0  0  0  0  0  0  0  # atno 10718 bound_to 10713
  154.7829  135.3180  154.7950 H   0  0  0  0  0  0  0  0  0  0  0  0  # atno 10763 bound_to 10752
  153.8657  135.6849  153.4783 H   0  0  0  0  0  0  0  0  0  0  0  0  # atno 10764 bound_to 10752
  153.1471  135.4715  154.9520 H   0  0  0  0  0  0  0  0  0  0  0  0  # atno 10765 bound_to 10752
  141.0289  133.6829  156.2541 H   0  0  0  0  0  0  0  0  0  0  0  0  # atno 11005 bound_to 11000
  146.1649  140.6733  142.9260 LP  0  0  0  0  0  0  0  0  0  0  0  0  # atno 17320 bound_to 7965
  144.7353  140.4790  143.6908 LP  0  0  0  0  0  0  0  0  0  0  0  0  # atno 17321 bound_to 7965
  140.7786  143.4925  150.9875 LP  0  0  0  0  0  0  0  0  0  0  0  0  # atno 17342 bound_to 10162
  139.8613  143.7311  152.3173 LP  0  0  0  0  0  0  0  0  0  0  0  0  # atno 17343 bound_to 10162
  157.2313  130.6526  149.5851 LP  0  0  0  0  0  0  0  0  0  0  0  0  # atno 17370 bound_to 10713
  155.9705  130.4598  150.6048 LP  0  0  0  0  0  0  0  0  0  0  0  0  # atno 17371 bound_to 10713
  140.6443  134.5134  157.5572 LP  0  0  0  0  0  0  0  0  0  0  0  0  # atno 17394 bound_to 11000
  139.9194  134.8179  156.1260 LP  0  0  0  0  0  0  0  0  0  0  0  0  # atno 17395 bound_to 11000

$$$$
