AV-unprocessed.smi:1413|AV-procd|sdf|5756|dock1
  -GOLD-   22720 5393D 1   1.00000     0.00000
 Structure written by MMmdl.
 53 55  0  0  0  0  0  0  0  0  1 V2000
  151.8401  144.3518  157.0191 C   0  0  0  0  0  0  0  0  0  0  0  0
  151.0676  143.5880  158.1092 C   0  0  1  0  0  0  0  0  0  0  0  0
  150.4020  142.2946  157.5987 C   0  0  0  0  0  0  0  0  0  0  0  0
  151.3881  141.2343  157.4110 N   0  0  0  0  0  0  0  0  0  0  0  0
  150.9357  140.1115  156.6857 C   0  0  0  0  0  0  0  0  0  0  0  0
  150.6265  138.9086  157.3614 C   0  0  0  0  0  0  0  0  0  0  0  0
  150.1829  137.7992  156.6175 C   0  0  0  0  0  0  0  0  0  0  0  0
  150.0537  137.9095  155.2194 C   0  0  0  0  0  0  0  0  0  0  0  0
  149.6125  136.7592  154.5076 N   0  0  0  0  0  0  0  0  0  0  0  0
  149.4364  135.4991  154.9425 C   0  0  0  0  0  0  0  0  0  0  0  0
  149.6529  135.0973  156.0846 O   0  0  0  0  0  0  0  0  0  0  0  0
  148.9925  134.7085  153.9550 N   0  0  0  0  0  0  0  0  0  0  0  0
  148.6862  133.2850  154.0824 C   0  0  2  0  0  0  0  0  0  0  0  0
  149.9479  132.5141  154.5051 C   0  0  0  0  0  0  0  0  0  0  0  0
  148.1053  132.7533  152.7579 C   0  0  2  0  0  0  0  0  0  0  0  0
  146.9492  133.5822  152.1907 C   0  0  0  0  0  0  0  0  0  0  0  0
  146.2029  132.5540  151.3730 C   0  0  0  0  0  0  0  0  0  0  0  0
  146.3185  131.3193  152.2595 C   0  0  0  0  0  0  0  0  0  0  0  0
  147.5652  131.4449  152.9381 O   0  0  0  0  0  0  0  0  0  0  0  0
  150.3851  139.1539  154.6306 C   0  0  0  0  0  0  0  0  0  0  0  0
  150.8085  140.2208  155.3410 N   0  0  0  0  0  0  0  0  0  0  0  0
  152.2112  141.0017  158.5946 C   0  0  0  0  0  0  0  0  0  0  0  0
  152.8784  142.3126  159.0479 C   0  0  2  0  0  0  0  0  0  0  0  0
  153.6500  142.1382  160.3601 C   0  0  0  0  0  0  0  0  0  0  0  0
  151.8797  143.3112  159.2524 O   0  0  0  0  0  0  0  0  0  0  0  0
  151.1684  144.6675  156.2208 H   0  0  0  0  0  0  0  0  0  0  0  0
  152.6211  143.7448  156.5618 H   0  0  0  0  0  0  0  0  0  0  0  0
  152.3072  145.2468  157.4299 H   0  0  0  0  0  0  0  0  0  0  0  0
  150.2749  144.2521  158.4545 H   0  0  0  0  0  0  0  0  0  0  0  0
  149.6693  141.9497  158.3293 H   0  0  0  0  0  0  0  0  0  0  0  0
  149.8510  142.5073  156.6835 H   0  0  0  0  0  0  0  0  0  0  0  0
  150.7125  138.8301  158.4350 H   0  0  0  0  0  0  0  0  0  0  0  0
  149.9430  136.8737  157.1207 H   0  0  0  0  0  0  0  0  0  0  0  0
  149.4155  136.9139  153.5298 H   0  0  0  0  0  0  0  0  0  0  0  0
  148.8465  135.1219  153.0458 H   0  0  0  0  0  0  0  0  0  0  0  0
  147.9261  133.1541  154.8550 H   0  0  0  0  0  0  0  0  0  0  0  0
  149.7372  131.4513  154.6254 H   0  0  0  0  0  0  0  0  0  0  0  0
  150.3330  132.8782  155.4580 H   0  0  0  0  0  0  0  0  0  0  0  0
  150.7416  132.6138  153.7642 H   0  0  0  0  0  0  0  0  0  0  0  0
  148.8911  132.6830  152.0036 H   0  0  0  0  0  0  0  0  0  0  0  0
  146.3100  133.9525  152.9936 H   0  0  0  0  0  0  0  0  0  0  0  0
  147.2847  134.4351  151.6003 H   0  0  0  0  0  0  0  0  0  0  0  0
  145.1706  132.8357  151.1644 H   0  0  0  0  0  0  0  0  0  0  0  0
  146.7130  132.3871  150.4234 H   0  0  0  0  0  0  0  0  0  0  0  0
  145.5205  131.3090  153.0029 H   0  0  0  0  0  0  0  0  0  0  0  0
  146.2648  130.3907  151.6909 H   0  0  0  0  0  0  0  0  0  0  0  0
  150.3301  139.3283  153.5685 H   0  0  0  0  0  0  0  0  0  0  0  0
  151.5857  140.6001  159.3932 H   0  0  0  0  0  0  0  0  0  0  0  0
  152.9814  140.2601  158.3788 H   0  0  0  0  0  0  0  0  0  0  0  0
  153.5824  142.6469  158.2857 H   0  0  0  0  0  0  0  0  0  0  0  0
  154.4328  141.3861  160.2581 H   0  0  0  0  0  0  0  0  0  0  0  0
  152.9885  141.8259  161.1686 H   0  0  0  0  0  0  0  0  0  0  0  0
  154.1244  143.0730  160.6597 H   0  0  0  0  0  0  0  0  0  0  0  0
  1  2  1  0  0  0  0
  1 26  1  0  0  0  0
  1 27  1  0  0  0  0
  1 28  1  0  0  0  0
  2 25  1  0  0  0  0
  2  3  1  0  0  0  0
  2 29  1  0  0  0  0
  3  4  1  0  0  0  0
  3 30  1  0  0  0  0
  3 31  1  0  0  0  0
  4  5  1  0  0  0  0
  4 22  1  0  0  0  0
  5 21  1  0  0  0  0
  5  6  2  0  0  0  0
  6  7  1  0  0  0  0
  6 32  1  0  0  0  0
  7  8  2  0  0  0  0
  7 33  1  0  0  0  0
  8  9  1  0  0  0  0
  8 20  1  0  0  0  0
  9 10  1  0  0  0  0
  9 34  1  0  0  0  0
 10 11  2  0  0  0  0
 10 12  1  0  0  0  0
 12 13  1  0  0  0  0
 12 35  1  0  0  0  0
 13 14  1  0  0  0  0
 13 15  1  0  0  0  0
 13 36  1  0  0  0  0
 14 37  1  0  0  0  0
 14 38  1  0  0  0  0
 14 39  1  0  0  0  0
 15 19  1  0  0  0  0
 15 16  1  0  0  0  0
 15 40  1  0  0  0  0
 16 17  1  0  0  0  0
 16 41  1  0  0  0  0
 16 42  1  0  0  0  0
 17 18  1  0  0  0  0
 17 43  1  0  0  0  0
 17 44  1  0  0  0  0
 18 19  1  0  0  0  0
 18 45  1  0  0  0  0
 18 46  1  0  0  0  0
 20 21  2  0  0  0  0
 20 47  1  0  0  0  0
 22 23  1  0  0  0  0
 22 48  1  0  0  0  0
 22 49  1  0  0  0  0
 23 24  1  0  0  0  0
 23 25  1  0  0  0  0
 23 50  1  0  0  0  0
 24 51  1  0  0  0  0
 24 52  1  0  0  0  0
 24 53  1  0  0  0  0
M  END
> <s_m_source_file>
AV-unprocessed.smi

> <i_m_source_file_index>
1413

> <i_lp_mmshare_version>
43012

> <i_f3d_flags>
0

> <s_epik_input>
W0NIM11bQ0BASF0xW0NIMl1OKFtDSDJdW0NASF0oTzEpW0NIM10pYzJbY0hdW2NIXWMoW2NIXW4yKVtOSF1DKD1PKVtOSF1bQ0BIXShbQ0gzXSlbQ0BASF0zW0NIMl1bQ0gyXVtDSDJdTzM=

> <s_epik_cmdline>
J2VwaWtfcHl0aG9uJywgJy1waCcsICc3LjAnLCAnLXRuJywgJzgnLCAnLW1hJywgJzIwMCcsICctbWV0YWxfYmluZGluZycsICctaW1hZScsICc8aW5maWxlLm1hZT4nLCAnLW9tYWUnLCAnPG91dGZpbGUubWFlPic=

> <r_lp_tautomer_probability>
1

> <r_epik_Ionization_Penalty>
0.00271172

> <r_epik_Ionization_Penalty_Charging>
0

> <r_epik_Ionization_Penalty_Neutral>
0.00271172

> <r_epik_State_Penalty>
0.00186503

> <r_epik_Charging_Adjusted_Penalty>
0.00186503

> <i_epik_Tot_Q>
0

> <i_epik_Tot_abs_Q>
0

> <r_epik_Metal_State_Penalty>
-0

> <b_epik_Metal_Only>
0

> <s_lp_Force_Field>
OPLS_2005

> <r_lp_Energy>
36.1099

> <b_lp_Chiralities_Consistent>
1

> <s_lp_Variant>
AV-unprocessed.smi:1413-9

> <Gold.Version>
5.8.1

> <Gold.Id.Protein>
6NUR|6NUR_protein|mol2

> <Gold.PLP.Fitness>
49.4509

> <Gold.PLP.PLP>
-41.5375

> <Gold.PLP.part.hbond>
-2.8748

> <Gold.PLP.part.metal>
0.0000

> <Gold.PLP.part.buried>
-5.8281

> <Gold.PLP.part.nonpolar>
-33.4022

> <Gold.PLP.part.repulsive>
0.2043

> <Gold.PLP.ligand.clash>
0.0000

> <Gold.PLP.ligand.torsion>
0.6740

> <Gold.PLP.Chemscore.Hbond>
2.2340

> <Gold.PLP.Chemscore.CHOScore>
0.7429

> <Gold.PLP.Chemscore.Metal>
0.0000

> <Gold.Chemscore.Hbonds>
donor molecule, donor type, donor heavy atom, donor atom, acceptor molecule, acceptor atom, score
      L1  H     9    34       P1  7948  0.99
      L1  H    12    35       P1  7948  1.00
      P1  H  7989  7998       L1    21  0.20
      L1  C    20    47       P1  7957  0.82

> <Gold.PLP.Chemscore.Internal.Correction>
0.3307

> <Gold.Rescore>
     Score         DG    S(hbond)    S(metal)    S(lipo)     H(rot)  DE(clash)    DE(int)     intcor
     17.57     -20.59       1.73        0.00     109.25       1.35       0.17       2.86       ----

> <Gold.Chemscore.Fitness>
17.5658

> <Gold.Chemscore.DG>
-20.5908

> <Gold.Chemscore.ZeroCoef>
-5.4800

> <Gold.Chemscore.Hbond>
1.7295

> <Gold.Chemscore.Metal>
0.0000

> <Gold.Chemscore.Lipo>
109.2538

> <Gold.Chemscore.Internal_Hbond>
0.0000

> <Gold.Chemscore.DEClash>
0.1665

> <Gold.Chemscore.DEInternal>
2.8585

> <Gold.Chemscore.Rot>
1.3471

> <Gold.Chemscore.Internal.Correction>
   9.000000E+99

> <Gold.Chemscore.Hbonds>
donor molecule, donor type, donor heavy atom, donor atom, acceptor molecule, acceptor atom, score
      L1  H     9    34       P1  7948  0.88
      L1  H    12    35       P1  7948  0.34

> <Gold.Chemscore.Hbond.Weighted>
-5.7766

> <Gold.Chemscore.Metal.Weighted>
-0.0000

> <Gold.Chemscore.Lipo.Weighted>
-12.7827

> <Gold.Chemscore.Internal_Hbond.Weighted>
0.0000

> <Gold.Chemscore.DEClash.Weighted>
0.1665

> <Gold.Chemscore.DEInternal.Weighted>
2.8585

> <Gold.Chemscore.Rot.Weighted>
3.4485

> <Gold.Chemscore.Internal.Correction.Weighted>
   9.000000E+99

> <Gold.Protein.RotatedTorsions>
[ 6907 6896 6895 6894 ] final  -48.82 input  -60.11 | X-H torsion
[ 7974 7965 7964 7962 ] final -157.34 input  175.53 | X-H torsion
[ 8008 7997 7996 7995 ] final  115.50 input   59.86 | X-H torsion
[ 10167 10162 10161 10158 ] final   -5.06 input  -65.29 | X-H torsion
[ 10718 10713 10712 10709 ] final  -37.16 input   66.30 | X-H torsion
[ 10763 10752 10751 10750 ] final    3.03 input  -60.55 | X-H torsion
[ 11005 11000 10999 10996 ] final   95.37 input  -57.11 | X-H torsion

> <Gold.Protein.ActiveResidues>
 VAL166  LYS551  ARG553  GLY616  TRP617  ASP618  TYR619  PRO620  LYS621  CYS622 
 ASP623  PHE694  ASN695  SER759  ASP760  ASP761  ALA762  ILE779  LEU786  VAL792 
 PHE793  MET794  SER795  GLU796  ALA797  LYS798  CYS799  TRP800  GLU811  SER814 

> <Gold.Protein.RotatedAtoms>
  150.8866  134.8265  159.7263 H   0  0  0  0  0  0  0  0  0  0  0  0  # atno 6907 bound_to 6896
  152.4811  134.4712  159.9646 H   0  0  0  0  0  0  0  0  0  0  0  0  # atno 6908 bound_to 6896
  151.4780  133.3514  159.2869 H   0  0  0  0  0  0  0  0  0  0  0  0  # atno 6909 bound_to 6896
  144.7552  140.3983  143.6017 H   0  0  0  0  0  0  0  0  0  0  0  0  # atno 7974 bound_to 7965
  156.2385  140.2937  156.0379 H   0  0  0  0  0  0  0  0  0  0  0  0  # atno 8008 bound_to 7997
  155.2021  140.0410  157.2936 H   0  0  0  0  0  0  0  0  0  0  0  0  # atno 8009 bound_to 7997
  154.6123  140.2455  155.7660 H   0  0  0  0  0  0  0  0  0  0  0  0  # atno 8010 bound_to 7997
  140.6950  143.6351  150.8487 H   0  0  0  0  0  0  0  0  0  0  0  0  # atno 10167 bound_to 10162
  156.3184  130.4262  149.7983 H   0  0  0  0  0  0  0  0  0  0  0  0  # atno 10718 bound_to 10713
  153.2883  135.6946  153.7318 H   0  0  0  0  0  0  0  0  0  0  0  0  # atno 10763 bound_to 10752
  153.6279  135.3415  155.3033 H   0  0  0  0  0  0  0  0  0  0  0  0  # atno 10764 bound_to 10752
  154.8516  135.4402  154.1958 H   0  0  0  0  0  0  0  0  0  0  0  0  # atno 10765 bound_to 10752
  139.8790  134.8895  156.4001 H   0  0  0  0  0  0  0  0  0  0  0  0  # atno 11005 bound_to 11000
  145.6803  139.1617  143.2705 LP  0  0  0  0  0  0  0  0  0  0  0  0  # atno 17320 bound_to 7965
  146.1554  140.6865  142.9302 LP  0  0  0  0  0  0  0  0  0  0  0  0  # atno 17321 bound_to 7965
  140.0068  143.5685  152.2854 LP  0  0  0  0  0  0  0  0  0  0  0  0  # atno 17342 bound_to 10162
  139.6394  144.7653  151.2370 LP  0  0  0  0  0  0  0  0  0  0  0  0  # atno 17343 bound_to 10162
  156.5300  130.8253  151.3233 LP  0  0  0  0  0  0  0  0  0  0  0  0  # atno 17370 bound_to 10713
  157.7406  130.9854  150.2392 LP  0  0  0  0  0  0  0  0  0  0  0  0  # atno 17371 bound_to 10713
  140.9273  133.7604  155.9980 LP  0  0  0  0  0  0  0  0  0  0  0  0  # atno 17394 bound_to 11000
  140.8371  134.3110  157.5327 LP  0  0  0  0  0  0  0  0  0  0  0  0  # atno 17395 bound_to 11000

$$$$
