AV-unprocessed.smi:317|AV-procd|sdf|2328|dock3
  -GOLD-   2262022233D 1   1.00000     0.00000
 Structure written by MMmdl.
 40 41  0  0  0  0  0  0  0  0  2 V2000
  152.9311  138.9810  154.6401 C   0  0  0  0  0  0  0  0  0  0  0  0
  151.5930  138.7256  155.3504 C   0  0  2  0  0  0  0  0  0  0  0  0
  150.3841  139.0956  154.4682 C   0  0  0  0  0  0  0  0  0  0  0  0
  150.3725  140.4825  154.2048 O   0  0  0  0  0  0  0  0  0  0  0  0
  151.5639  139.4839  156.5984 N   0  0  0  0  0  0  0  0  0  0  0  0
  152.5268  139.4835  157.5313 C   0  0  0  0  0  0  0  0  0  0  0  0
  153.5566  138.8147  157.4483 O   0  0  0  0  0  0  0  0  0  0  0  0
  152.2052  140.2846  158.5609 N   0  0  0  0  0  0  0  0  0  0  0  0
  152.9504  140.5433  159.7470 C   0  0  0  0  0  0  0  0  0  0  0  0
  153.7635  139.5436  160.3415 C   0  0  0  0  0  0  0  0  0  0  0  0
  154.4715  139.8238  161.5253 C   0  0  0  0  0  0  0  0  0  0  0  0
  154.3608  141.1024  162.0972 C   0  0  0  0  0  0  0  0  0  0  0  0
  153.5970  142.0382  161.4973 N   0  3  0  0  0  0  0  0  0  0  0  0
  152.9035  141.8351  160.3492 C   0  0  0  0  0  0  0  0  0  0  0  0
  152.1577  142.9190  159.8317 N   0  0  0  0  0  0  0  0  0  0  0  0
  151.9589  144.1250  160.6275 C   0  0  0  0  0  0  0  0  0  0  0  0
  151.4330  145.1663  159.6434 C   0  0  0  0  0  0  0  0  0  0  0  0
  152.1789  144.8109  158.3608 C   0  0  0  0  0  0  0  0  0  0  0  0
  152.3126  143.2855  158.4275 C   0  0  0  0  0  0  0  0  0  0  0  0
  153.0097  138.3961  153.7233 H   0  0  0  0  0  0  0  0  0  0  0  0
  153.7728  138.7048  155.2760 H   0  0  0  0  0  0  0  0  0  0  0  0
  153.0458  140.0323  154.3734 H   0  0  0  0  0  0  0  0  0  0  0  0
  151.5393  137.6627  155.5955 H   0  0  0  0  0  0  0  0  0  0  0  0
  150.4319  138.5790  153.5089 H   0  0  0  0  0  0  0  0  0  0  0  0
  149.4467  138.8048  154.9436 H   0  0  0  0  0  0  0  0  0  0  0  0
  150.0174  140.9293  154.9582 H   0  0  0  0  0  0  0  0  0  0  0  0
  150.7497  140.0599  156.7549 H   0  0  0  0  0  0  0  0  0  0  0  0
  151.2809  140.6887  158.5323 H   0  0  0  0  0  0  0  0  0  0  0  0
  153.8628  138.5619  159.9041 H   0  0  0  0  0  0  0  0  0  0  0  0
  155.0890  139.0672  161.9874 H   0  0  0  0  0  0  0  0  0  0  0  0
  154.8632  141.4072  163.0039 H   0  0  0  0  0  0  0  0  0  0  0  0
  151.2598  143.9527  161.4463 H   0  0  0  0  0  0  0  0  0  0  0  0
  152.9063  144.4651  161.0476 H   0  0  0  0  0  0  0  0  0  0  0  0
  150.3597  145.0359  159.4985 H   0  0  0  0  0  0  0  0  0  0  0  0
  151.6101  146.1905  159.9722 H   0  0  0  0  0  0  0  0  0  0  0  0
  151.6662  145.1525  157.4614 H   0  0  0  0  0  0  0  0  0  0  0  0
  153.1694  145.2673  158.3760 H   0  0  0  0  0  0  0  0  0  0  0  0
  153.2677  142.9534  158.0183 H   0  0  0  0  0  0  0  0  0  0  0  0
  151.5131  142.8172  157.8529 H   0  0  0  0  0  0  0  0  0  0  0  0
  153.5458  142.9602  161.9310 H   0  0  0  0  0  0  0  0  0  0  0  0
  1  2  1  0  0  0  0
  1 20  1  0  0  0  0
  1 21  1  0  0  0  0
  1 22  1  0  0  0  0
  2  3  1  0  0  0  0
  2  5  1  0  0  0  0
  2 23  1  0  0  0  0
  3  4  1  0  0  0  0
  3 24  1  0  0  0  0
  3 25  1  0  0  0  0
  4 26  1  0  0  0  0
  5  6  1  0  0  0  0
  5 27  1  0  0  0  0
  6  7  2  0  0  0  0
  6  8  1  0  0  0  0
  8  9  1  0  0  0  0
  8 28  1  0  0  0  0
  9 14  1  0  0  0  0
  9 10  2  0  0  0  0
 10 11  1  0  0  0  0
 10 29  1  0  0  0  0
 11 12  2  0  0  0  0
 11 30  1  0  0  0  0
 12 13  1  0  0  0  0
 12 31  1  0  0  0  0
 13 14  2  0  0  0  0
 13 40  1  0  0  0  0
 14 15  1  0  0  0  0
 15 19  1  0  0  0  0
 15 16  1  0  0  0  0
 16 17  1  0  0  0  0
 16 32  1  0  0  0  0
 16 33  1  0  0  0  0
 17 18  1  0  0  0  0
 17 34  1  0  0  0  0
 17 35  1  0  0  0  0
 18 19  1  0  0  0  0
 18 36  1  0  0  0  0
 18 37  1  0  0  0  0
 19 38  1  0  0  0  0
 19 39  1  0  0  0  0
M  CHG  1  13   1
M  END
> <s_m_source_file>
AV-unprocessed.smi

> <i_m_source_file_index>
317

> <i_lp_mmshare_version>
43012

> <i_f3d_flags>
0

> <s_epik_input>
W09IXVtDSDJdW0NAQEhdKFtDSDNdKVtOSF1DKD1PKVtOSF1jMVtjSF1bY0hdW2NIXW5jMU4yW0NIMl1bQ0gyXVtDSDJdW0NIMl0y

> <s_epik_cmdline>
J2VwaWtfcHl0aG9uJywgJy1waCcsICc3LjAnLCAnLXRuJywgJzgnLCAnLW1hJywgJzIwMCcsICctbWV0YWxfYmluZGluZycsICctaW1hZScsICc8aW5maWxlLm1hZT4nLCAnLW9tYWUnLCAnPG91dGZpbGUubWFlPic=

> <r_lp_tautomer_probability>
0.999994

> <r_epik_Ionization_Penalty>
1.11558

> <r_epik_Ionization_Penalty_Charging>
1.11556

> <r_epik_Ionization_Penalty_Neutral>
2.02999e-05

> <r_epik_State_Penalty>
1.17393

> <r_epik_Charging_Adjusted_Penalty>
2.28949

> <i_epik_Tot_Q>
1

> <i_epik_Tot_abs_Q>
1

> <r_epik_Metal_State_Penalty>
1.25924

> <b_epik_Metal_Only>
0

> <s_lp_Force_Field>
OPLS_2005

> <r_lp_Energy>
37.9657

> <b_lp_Chiralities_Consistent>
1

> <s_lp_Variant>
AV-unprocessed.smi:317-3

> <Gold.Version>
5.8.1

> <Gold.Id.Protein>
6NUR|6NUR_protein|mol2

> <Gold.PLP.Fitness>
48.0605

> <Gold.PLP.PLP>
-42.8064

> <Gold.PLP.part.hbond>
-2.4896

> <Gold.PLP.part.metal>
0.0000

> <Gold.PLP.part.buried>
-5.7229

> <Gold.PLP.part.nonpolar>
-35.1419

> <Gold.PLP.part.repulsive>
0.2236

> <Gold.PLP.ligand.clash>
0.0000

> <Gold.PLP.ligand.torsion>
0.4960

> <Gold.PLP.Chemscore.Hbond>
1.9440

> <Gold.PLP.Chemscore.CHOScore>
0.0000

> <Gold.PLP.Chemscore.Metal>
0.0000

> <Gold.Chemscore.Hbonds>
donor molecule, donor type, donor heavy atom, donor atom, acceptor molecule, acceptor atom, score
      P1  H  7989  7998       L1     4  0.82
      P1  H  7997  8010       L1     7  0.99

> <Gold.PLP.Chemscore.Internal.Correction>
0.4142

> <Gold.Rescore>
     Score         DG    S(hbond)    S(metal)    S(lipo)     H(rot)  DE(clash)    DE(int)     intcor
     14.98     -17.81       1.68        0.00     103.65       2.11       0.04       2.80       ----

> <Gold.Chemscore.Fitness>
14.9764

> <Gold.Chemscore.DG>
-17.8135

> <Gold.Chemscore.ZeroCoef>
-5.4800

> <Gold.Chemscore.Hbond>
1.6791

> <Gold.Chemscore.Metal>
0.0000

> <Gold.Chemscore.Lipo>
103.6482

> <Gold.Chemscore.Internal_Hbond>
0.0000

> <Gold.Chemscore.DEClash>
0.0407

> <Gold.Chemscore.DEInternal>
2.7965

> <Gold.Chemscore.Rot>
2.1099

> <Gold.Chemscore.Internal.Correction>
   9.000000E+99

> <Gold.Chemscore.Hbonds>
donor molecule, donor type, donor heavy atom, donor atom, acceptor molecule, acceptor atom, score
      P1  H  7989  7998       L1     4  0.60
      P1  H  7997  8010       L1     7  0.33

> <Gold.Chemscore.Hbond.Weighted>
-5.6081

> <Gold.Chemscore.Metal.Weighted>
-0.0000

> <Gold.Chemscore.Lipo.Weighted>
-12.1268

> <Gold.Chemscore.Internal_Hbond.Weighted>
0.0000

> <Gold.Chemscore.DEClash.Weighted>
0.0407

> <Gold.Chemscore.DEInternal.Weighted>
2.7965

> <Gold.Chemscore.Rot.Weighted>
5.4015

> <Gold.Chemscore.Internal.Correction.Weighted>
   9.000000E+99

> <Gold.Protein.RotatedTorsions>
[ 6907 6896 6895 6894 ] final  -67.64 input  -60.11 | X-H torsion
[ 7974 7965 7964 7962 ] final   39.92 input  175.53 | X-H torsion
[ 8008 7997 7996 7995 ] final   25.50 input   59.86 | X-H torsion
[ 10167 10162 10161 10158 ] final  100.68 input  -65.29 | X-H torsion
[ 10718 10713 10712 10709 ] final   65.47 input   66.30 | X-H torsion
[ 10763 10752 10751 10750 ] final   70.23 input  -60.55 | X-H torsion
[ 11005 11000 10999 10996 ] final  -78.61 input  -57.11 | X-H torsion

> <Gold.Protein.ActiveResidues>
 VAL166  LYS551  ARG553  GLY616  TRP617  ASP618  TYR619  PRO620  LYS621  CYS622 
 ASP623  PHE694  ASN695  SER759  ASP760  ASP761  ALA762  ILE779  LEU786  VAL792 
 PHE793  MET794  SER795  GLU796  ALA797  LYS798  CYS799  TRP800  GLU811  SER814 

> <Gold.Protein.RotatedAtoms>
  150.7399  134.5852  159.5958 H   0  0  0  0  0  0  0  0  0  0  0  0  # atno 6907 bound_to 6896
  152.3255  134.7323  160.0312 H   0  0  0  0  0  0  0  0  0  0  0  0  # atno 6908 bound_to 6896
  151.7824  133.3315  159.3512 H   0  0  0  0  0  0  0  0  0  0  0  0  # atno 6909 bound_to 6896
  146.0946  139.5594  142.9454 H   0  0  0  0  0  0  0  0  0  0  0  0  # atno 7974 bound_to 7965
  155.0127  140.3138  155.4823 H   0  0  0  0  0  0  0  0  0  0  0  0  # atno 8008 bound_to 7997
  156.2906  140.2212  156.5183 H   0  0  0  0  0  0  0  0  0  0  0  0  # atno 8009 bound_to 7997
  154.7521  140.0465  157.0890 H   0  0  0  0  0  0  0  0  0  0  0  0  # atno 8010 bound_to 7997
  139.7506  144.6985  151.0439 H   0  0  0  0  0  0  0  0  0  0  0  0  # atno 10167 bound_to 10162
  157.6108  130.9216  149.9981 H   0  0  0  0  0  0  0  0  0  0  0  0  # atno 10718 bound_to 10713
  153.0330  135.5181  154.7410 H   0  0  0  0  0  0  0  0  0  0  0  0  # atno 10763 bound_to 10752
  154.6409  135.2912  155.0106 H   0  0  0  0  0  0  0  0  0  0  0  0  # atno 10764 bound_to 10752
  154.1024  135.6634  153.4923 H   0  0  0  0  0  0  0  0  0  0  0  0  # atno 10765 bound_to 10752
  141.1665  133.7070  156.7998 H   0  0  0  0  0  0  0  0  0  0  0  0  # atno 11005 bound_to 11000
  145.5973  141.0360  143.2037 LP  0  0  0  0  0  0  0  0  0  0  0  0  # atno 17320 bound_to 7965
  144.7385  139.7515  143.7320 LP  0  0  0  0  0  0  0  0  0  0  0  0  # atno 17321 bound_to 7965
  140.7797  143.4814  151.0013 LP  0  0  0  0  0  0  0  0  0  0  0  0  # atno 17342 bound_to 10162
  139.8502  143.7449  152.3178 LP  0  0  0  0  0  0  0  0  0  0  0  0  # atno 17343 bound_to 10162
  156.1210  130.3646  149.9888 LP  0  0  0  0  0  0  0  0  0  0  0  0  # atno 17370 bound_to 10713
  156.7968  130.9276  151.3646 LP  0  0  0  0  0  0  0  0  0  0  0  0  # atno 17371 bound_to 10713
  140.2264  134.8718  157.3431 LP  0  0  0  0  0  0  0  0  0  0  0  0  # atno 17394 bound_to 11000
  140.1935  134.4342  155.7702 LP  0  0  0  0  0  0  0  0  0  0  0  0  # atno 17395 bound_to 11000

$$$$
