AV-unprocessed.smi:758|AV-procd|sdf|3618|dock8
  -GOLD-   22720 1 13D 1   1.00000     0.00000
 Structure written by MMmdl.
 47 48  0  0  0  0  0  0  0  0  1 V2000
  150.2093  142.1581  157.6842 C   0  0  0  0  0  0  0  0  0  0  0  0
  150.2633  140.8687  156.8356 C   0  0  0  0  0  0  0  0  0  0  0  0
  151.7346  140.6042  156.4452 C   0  0  0  0  0  0  0  0  0  0  0  0
  149.8172  139.6834  157.7209 C   0  0  0  0  0  0  0  0  0  0  0  0
  149.3629  140.9602  155.5540 C   0  0  2  0  0  0  0  0  0  0  0  0
  147.8391  140.9826  155.8447 C   0  0  0  0  0  0  0  0  0  0  0  0
  146.9971  141.1319  154.5635 C   0  0  0  0  0  0  0  0  0  0  0  0
  147.3120  140.0505  153.5078 C   0  0  2  0  0  0  0  0  0  0  0  0
  146.6328  140.4379  152.3280 O   0  0  0  0  0  0  0  0  0  0  0  0
  146.7368  138.6679  153.9147 C   0  0  0  0  0  0  0  0  0  0  0  0
  146.7610  137.7021  152.8177 N   0  0  0  0  0  0  0  0  0  0  0  0
  145.6887  137.1385  152.2385 C   0  0  0  0  0  0  0  0  0  0  0  0
  144.5275  137.3847  152.5635 O   0  0  0  0  0  0  0  0  0  0  0  0
  145.9695  136.1314  151.1225 C   0  0  0  0  0  0  0  0  0  0  0  0
  145.1810  134.9246  151.2922 N   0  0  0  0  0  0  0  0  0  0  0  0
  145.1392  133.8050  150.5671 C   0  0  0  0  0  0  0  0  0  0  0  0
  144.2824  132.9026  151.0238 N   0  0  0  0  0  0  0  0  0  0  0  0
  143.7969  133.5776  152.1081 C   0  0  0  0  0  0  0  0  0  0  0  0
  144.3023  134.7938  152.3140 N   0  0  0  0  0  0  0  0  0  0  0  0
  148.8287  140.0629  153.2142 C   0  0  0  0  0  0  0  0  0  0  0  0
  149.6670  139.8745  154.4890 C   0  0  0  0  0  0  0  0  0  0  0  0
  150.8542  142.0758  158.5597 H   0  0  0  0  0  0  0  0  0  0  0  0
  149.2047  142.3647  158.0523 H   0  0  0  0  0  0  0  0  0  0  0  0
  150.5438  143.0312  157.1248 H   0  0  0  0  0  0  0  0  0  0  0  0
  152.1872  141.4590  155.9431 H   0  0  0  0  0  0  0  0  0  0  0  0
  151.8232  139.7418  155.7835 H   0  0  0  0  0  0  0  0  0  0  0  0
  152.3489  140.4042  157.3239 H   0  0  0  0  0  0  0  0  0  0  0  0
  150.5031  139.5315  158.5551 H   0  0  0  0  0  0  0  0  0  0  0  0
  149.7848  138.7521  157.1543 H   0  0  0  0  0  0  0  0  0  0  0  0
  148.8324  139.8413  158.1591 H   0  0  0  0  0  0  0  0  0  0  0  0
  149.5941  141.9189  155.0865 H   0  0  0  0  0  0  0  0  0  0  0  0
  147.5388  140.0810  156.3764 H   0  0  0  0  0  0  0  0  0  0  0  0
  147.5856  141.8155  156.4988 H   0  0  0  0  0  0  0  0  0  0  0  0
  145.9362  141.1173  154.8168 H   0  0  0  0  0  0  0  0  0  0  0  0
  147.1913  142.1198  154.1419 H   0  0  0  0  0  0  0  0  0  0  0  0
  145.7453  140.1161  152.3734 H   0  0  0  0  0  0  0  0  0  0  0  0
  147.2813  138.2698  154.7706 H   0  0  0  0  0  0  0  0  0  0  0  0
  145.7051  138.7726  154.2529 H   0  0  0  0  0  0  0  0  0  0  0  0
  147.6739  137.4265  152.4859 H   0  0  0  0  0  0  0  0  0  0  0  0
  145.7374  136.5727  150.1523 H   0  0  0  0  0  0  0  0  0  0  0  0
  147.0293  135.8713  151.1112 H   0  0  0  0  0  0  0  0  0  0  0  0
  145.7455  133.6480  149.6870 H   0  0  0  0  0  0  0  0  0  0  0  0
  143.0483  133.1603  152.7655 H   0  0  0  0  0  0  0  0  0  0  0  0
  149.0952  139.3054  152.4771 H   0  0  0  0  0  0  0  0  0  0  0  0
  149.1019  141.0173  152.7616 H   0  0  0  0  0  0  0  0  0  0  0  0
  150.7166  139.8963  154.2009 H   0  0  0  0  0  0  0  0  0  0  0  0
  149.4817  138.8808  154.8942 H   0  0  0  0  0  0  0  0  0  0  0  0
  1  2  1  0  0  0  0
  1 22  1  0  0  0  0
  1 23  1  0  0  0  0
  1 24  1  0  0  0  0
  2  3  1  0  0  0  0
  2  4  1  0  0  0  0
  2  5  1  0  0  0  0
  3 25  1  0  0  0  0
  3 26  1  0  0  0  0
  3 27  1  0  0  0  0
  4 28  1  0  0  0  0
  4 29  1  0  0  0  0
  4 30  1  0  0  0  0
  5 21  1  0  0  0  0
  5  6  1  0  0  0  0
  5 31  1  0  0  0  0
  6  7  1  0  0  0  0
  6 32  1  0  0  0  0
  6 33  1  0  0  0  0
  7  8  1  0  0  0  0
  7 34  1  0  0  0  0
  7 35  1  0  0  0  0
  8  9  1  0  0  0  0
  8 10  1  0  0  0  0
  8 20  1  0  0  0  0
  9 36  1  0  0  0  0
 10 11  1  0  0  0  0
 10 37  1  0  0  0  0
 10 38  1  0  0  0  0
 11 12  1  0  0  0  0
 11 39  1  0  0  0  0
 12 13  2  0  0  0  0
 12 14  1  0  0  0  0
 14 15  1  0  0  0  0
 14 40  1  0  0  0  0
 14 41  1  0  0  0  0
 15 19  1  0  0  0  0
 15 16  1  0  0  0  0
 16 17  2  0  0  0  0
 16 42  1  0  0  0  0
 17 18  1  0  0  0  0
 18 19  2  0  0  0  0
 18 43  1  0  0  0  0
 20 21  1  0  0  0  0
 20 44  1  0  0  0  0
 20 45  1  0  0  0  0
 21 46  1  0  0  0  0
 21 47  1  0  0  0  0
M  END
> <s_m_source_file>
AV-unprocessed.smi

> <i_m_source_file_index>
758

> <i_lp_mmshare_version>
43012

> <i_f3d_flags>
0

> <s_epik_input>
W0NIM11DKFtDSDNdKShbQ0gzXSlbQ0BASF0oW0NIMl1bQ0gyXTEpW0NIMl1bQ0gyXVtDQEBdMShbT0hdKVtDSDJdW05IXUMoPU8pW0NIMl1uMltjSF1uW2NIXW4y

> <s_epik_cmdline>
J2VwaWtfcHl0aG9uJywgJy1waCcsICc3LjAnLCAnLXRuJywgJzgnLCAnLW1hJywgJzIwMCcsICctbWV0YWxfYmluZGluZycsICctaW1hZScsICc8aW5maWxlLm1hZT4nLCAnLW9tYWUnLCAnPG91dGZpbGUubWFlPic=

> <r_lp_tautomer_probability>
1

> <r_epik_Ionization_Penalty>
1.04836e-05

> <r_epik_Ionization_Penalty_Charging>
0

> <r_epik_Ionization_Penalty_Neutral>
1.04836e-05

> <r_epik_State_Penalty>
-0

> <r_epik_Charging_Adjusted_Penalty>
0

> <i_epik_Tot_Q>
0

> <i_epik_Tot_abs_Q>
0

> <r_epik_Metal_State_Penalty>
-0

> <b_epik_Metal_Only>
0

> <s_lp_Force_Field>
OPLS_2005

> <r_lp_Energy>
24.1988

> <b_lp_Chiralities_Consistent>
1

> <s_lp_Variant>
AV-unprocessed.smi:758-2

> <Gold.Version>
5.8.1

> <Gold.Id.Protein>
6NUR|6NUR_protein|mol2

> <Gold.PLP.Fitness>
39.3210

> <Gold.PLP.PLP>
-28.1935

> <Gold.PLP.part.hbond>
-2.2469

> <Gold.PLP.part.metal>
0.0000

> <Gold.PLP.part.buried>
1.3727

> <Gold.PLP.part.nonpolar>
-27.8277

> <Gold.PLP.part.repulsive>
1.4238

> <Gold.PLP.ligand.clash>
0.0000

> <Gold.PLP.ligand.torsion>
0.4714

> <Gold.PLP.Chemscore.Hbond>
2.0000

> <Gold.PLP.Chemscore.CHOScore>
2.0000

> <Gold.PLP.Chemscore.Metal>
0.0000

> <Gold.Chemscore.Hbonds>
donor molecule, donor type, donor heavy atom, donor atom, acceptor molecule, acceptor atom, score
      L1  H     9    36       P1 10175  0.85
      L1  H    11    39       P1  7948  1.00
      L1  C    16    42       P1  7921  1.00
      L1  C    18    43       P1 10957  1.00

> <Gold.PLP.Chemscore.Internal.Correction>
0.0704

> <Gold.Rescore>
     Score         DG    S(hbond)    S(metal)    S(lipo)     H(rot)  DE(clash)    DE(int)     intcor
      7.19     -11.55       1.75        0.00      71.08       3.17       2.03       2.33       ----

> <Gold.Chemscore.Fitness>
7.1918

> <Gold.Chemscore.DG>
-11.5524

> <Gold.Chemscore.ZeroCoef>
-5.4800

> <Gold.Chemscore.Hbond>
1.7548

> <Gold.Chemscore.Metal>
0.0000

> <Gold.Chemscore.Lipo>
71.0841

> <Gold.Chemscore.Internal_Hbond>
0.0000

> <Gold.Chemscore.DEClash>
2.0317

> <Gold.Chemscore.DEInternal>
2.3289

> <Gold.Chemscore.Rot>
3.1663

> <Gold.Chemscore.Internal.Correction>
   9.000000E+99

> <Gold.Chemscore.Hbonds>
donor molecule, donor type, donor heavy atom, donor atom, acceptor molecule, acceptor atom, score
      L1  H     9    36       P1 10175  0.62
      L1  H    11    39       P1  7948  0.98

> <Gold.Chemscore.Hbond.Weighted>
-5.8612

> <Gold.Chemscore.Metal.Weighted>
-0.0000

> <Gold.Chemscore.Lipo.Weighted>
-8.3168

> <Gold.Chemscore.Internal_Hbond.Weighted>
0.0000

> <Gold.Chemscore.DEClash.Weighted>
2.0317

> <Gold.Chemscore.DEInternal.Weighted>
2.3289

> <Gold.Chemscore.Rot.Weighted>
8.1056

> <Gold.Chemscore.Internal.Correction.Weighted>
   9.000000E+99

> <Gold.Protein.RotatedTorsions>
[ 6907 6896 6895 6894 ] final  -32.84 input  -60.11 | X-H torsion
[ 7974 7965 7964 7962 ] final   36.63 input  175.53 | X-H torsion
[ 8008 7997 7996 7995 ] final   84.90 input   59.86 | X-H torsion
[ 10167 10162 10161 10158 ] final   34.68 input  -65.29 | X-H torsion
[ 10718 10713 10712 10709 ] final  154.07 input   66.30 | X-H torsion
[ 10763 10752 10751 10750 ] final  152.04 input  -60.55 | X-H torsion
[ 11005 11000 10999 10996 ] final  -45.48 input  -57.11 | X-H torsion

> <Gold.Protein.ActiveResidues>
 VAL166  LYS551  ARG553  GLY616  TRP617  ASP618  TYR619  PRO620  LYS621  CYS622 
 ASP623  PHE694  ASN695  SER759  ASP760  ASP761  ALA762  ILE779  LEU786  VAL792 
 PHE793  MET794  SER795  GLU796  ALA797  LYS798  CYS799  TRP800  GLU811  SER814 

> <Gold.Protein.RotatedAtoms>
  151.0734  134.9813  159.8319 H   0  0  0  0  0  0  0  0  0  0  0  0  # atno 6907 bound_to 6896
  152.5411  134.2270  159.8820 H   0  0  0  0  0  0  0  0  0  0  0  0  # atno 6908 bound_to 6896
  151.2296  133.4414  159.2637 H   0  0  0  0  0  0  0  0  0  0  0  0  # atno 6909 bound_to 6896
  146.1197  139.5993  142.9298 H   0  0  0  0  0  0  0  0  0  0  0  0  # atno 7974 bound_to 7965
  155.9431  140.3406  155.6344 H   0  0  0  0  0  0  0  0  0  0  0  0  # atno 8008 bound_to 7997
  155.7015  140.0761  157.2427 H   0  0  0  0  0  0  0  0  0  0  0  0  # atno 8009 bound_to 7997
  154.4106  140.1639  156.2183 H   0  0  0  0  0  0  0  0  0  0  0  0  # atno 8010 bound_to 7997
  140.4293  144.1348  150.6157 H   0  0  0  0  0  0  0  0  0  0  0  0  # atno 10167 bound_to 10162
  157.2364  131.0750  151.1820 H   0  0  0  0  0  0  0  0  0  0  0  0  # atno 10718 bound_to 10713
  154.1136  135.2837  155.3225 H   0  0  0  0  0  0  0  0  0  0  0  0  # atno 10763 bound_to 10752
  154.6472  135.5381  153.7862 H   0  0  0  0  0  0  0  0  0  0  0  0  # atno 10764 bound_to 10752
  153.0337  135.6501  154.1294 H   0  0  0  0  0  0  0  0  0  0  0  0  # atno 10765 bound_to 10752
  141.0518  133.6740  156.3018 H   0  0  0  0  0  0  0  0  0  0  0  0  # atno 11005 bound_to 11000
  145.5492  141.0414  143.2287 LP  0  0  0  0  0  0  0  0  0  0  0  0  # atno 17320 bound_to 7965
  144.7585  139.7014  143.7244 LP  0  0  0  0  0  0  0  0  0  0  0  0  # atno 17321 bound_to 7965
  140.4445  143.2512  151.9429 LP  0  0  0  0  0  0  0  0  0  0  0  0  # atno 17342 bound_to 10162
  139.4784  144.5622  151.8221 LP  0  0  0  0  0  0  0  0  0  0  0  0  # atno 17343 bound_to 10162
  157.3424  130.7040  149.6390 LP  0  0  0  0  0  0  0  0  0  0  0  0  # atno 17370 bound_to 10713
  155.9672  130.4276  150.4751 LP  0  0  0  0  0  0  0  0  0  0  0  0  # atno 17371 bound_to 10713
  140.6041  134.5525  157.5522 LP  0  0  0  0  0  0  0  0  0  0  0  0  # atno 17394 bound_to 11000
  139.9356  134.7881  156.0811 LP  0  0  0  0  0  0  0  0  0  0  0  0  # atno 17395 bound_to 11000

$$$$
