AV-unprocessed.smi:72|AV-procd|sdf|707|dock2
  -GOLD-   2262017 23D 1   1.00000     0.00000
 Structure written by MMmdl.
 30 31  0  0  0  0  0  0  0  0  2 V2000
  146.0348  138.4262  151.4376 N   0  0  0  0  0  0  0  0  0  0  0  0
  146.8033  139.1353  152.3370 C   0  0  0  0  0  0  0  0  0  0  0  0
  147.8915  138.4924  152.8995 N   0  3  0  0  0  0  0  0  0  0  0  0
  148.7332  139.0400  153.7860 C   0  0  0  0  0  0  0  0  0  0  0  0
  148.5372  140.2817  154.1737 N   0  0  0  0  0  0  0  0  0  0  0  0
  149.4733  140.9080  155.1725 C   0  0  2  0  0  0  0  0  0  0  0  0
  150.7228  140.3162  155.0031 O   0  0  0  0  0  0  0  0  0  0  0  0
  151.3470  140.2113  156.2757 C   0  0  2  0  0  0  0  0  0  0  0  0
  152.5473  139.2486  156.2374 C   0  0  0  0  0  0  0  0  0  0  0  0
  153.2149  139.2554  157.4810 O   0  0  0  0  0  0  0  0  0  0  0  0
  150.1837  139.8474  157.2109 C   0  0  2  0  0  0  0  0  0  0  0  0
  149.9264  138.4532  157.1896 O   0  0  0  0  0  0  0  0  0  0  0  0
  149.0309  140.6683  156.6316 C   0  0  2  0  0  0  0  0  0  0  0  0
  147.7630  140.0521  156.7907 O   0  0  0  0  0  0  0  0  0  0  0  0
  147.4455  141.0240  153.6545 C   0  0  0  0  0  0  0  0  0  0  0  0
  147.2406  142.1814  154.0172 O   0  0  0  0  0  0  0  0  0  0  0  0
  146.6223  140.3666  152.7283 N   0  0  0  0  0  0  0  0  0  0  0  0
  149.5631  141.9677  154.9321 H   0  0  0  0  0  0  0  0  0  0  0  0
  151.7050  141.2098  156.5350 H   0  0  0  0  0  0  0  0  0  0  0  0
  150.3973  140.1313  158.2420 H   0  0  0  0  0  0  0  0  0  0  0  0
  149.0026  141.6428  157.1214 H   0  0  0  0  0  0  0  0  0  0  0  0
  145.2230  138.8144  150.9781 H   0  0  0  0  0  0  0  0  0  0  0  0
  146.2162  137.4695  151.1698 H   0  0  0  0  0  0  0  0  0  0  0  0
  149.5623  138.4630  154.1744 H   0  0  0  0  0  0  0  0  0  0  0  0
  152.2454  138.2320  155.9850 H   0  0  0  0  0  0  0  0  0  0  0  0
  153.2533  139.5676  155.4702 H   0  0  0  0  0  0  0  0  0  0  0  0
  152.5755  139.3787  158.1663 H   0  0  0  0  0  0  0  0  0  0  0  0
  150.7513  137.9944  157.1844 H   0  0  0  0  0  0  0  0  0  0  0  0
  147.8251  139.1584  156.4876 H   0  0  0  0  0  0  0  0  0  0  0  0
  148.0606  137.5374  152.6176 H   0  0  0  0  0  0  0  0  0  0  0  0
  1  2  1  0  0  0  0
  1 22  1  0  0  0  0
  1 23  1  0  0  0  0
  2 17  2  0  0  0  0
  2  3  1  0  0  0  0
  3  4  2  0  0  0  0
  3 30  1  0  0  0  0
  4  5  1  0  0  0  0
  4 24  1  0  0  0  0
  5  6  1  0  0  0  0
  5 15  1  0  0  0  0
  6 18  1  0  0  0  0
  6 13  1  0  0  0  0
  6  7  1  0  0  0  0
  7  8  1  0  0  0  0
  8 19  1  0  0  0  0
  8  9  1  0  0  0  0
  8 11  1  0  0  0  0
  9 10  1  0  0  0  0
  9 25  1  0  0  0  0
  9 26  1  0  0  0  0
 10 27  1  0  0  0  0
 11 20  1  0  0  0  0
 11 12  1  0  0  0  0
 11 13  1  0  0  0  0
 12 28  1  0  0  0  0
 13 21  1  0  0  0  0
 13 14  1  0  0  0  0
 14 29  1  0  0  0  0
 15 16  2  0  0  0  0
 15 17  1  0  0  0  0
M  CHG  1   3   1
M  END
> <s_m_source_file>
AV-unprocessed.smi

> <i_m_source_file_index>
72

> <i_lp_mmshare_version>
43012

> <i_f3d_flags>
0

> <s_epik_input>
W05IMl1jMW5bY0hdbihjKD1PKW4xKVtDQEBIXTJPW0NASF0oW0NIMl1bT0hdKVtDQEBIXShbT0hdKVtDQEhdMltPSF0=

> <s_epik_cmdline>
J2VwaWtfcHl0aG9uJywgJy1waCcsICc3LjAnLCAnLXRuJywgJzgnLCAnLW1hJywgJzIwMCcsICctbWV0YWxfYmluZGluZycsICctaW1hZScsICc8aW5maWxlLm1hZT4nLCAnLW9tYWUnLCAnPG91dGZpbGUubWFlPic=

> <r_lp_tautomer_probability>
4.77166e-05

> <r_epik_Ionization_Penalty>
0.104979

> <r_epik_Ionization_Penalty_Charging>
0.0999619

> <r_epik_Ionization_Penalty_Neutral>
0.00501745

> <r_epik_State_Penalty>
2.51541

> <r_epik_Charging_Adjusted_Penalty>
2.61537

> <i_epik_Tot_Q>
1

> <i_epik_Tot_abs_Q>
1

> <r_epik_Metal_State_Penalty>
3.53763

> <b_epik_Metal_Only>
0

> <s_epik_Chemistry_Notes>
This compound contains an acetal/aminal-like group ( X-CH(R)-Y where X, Y are N, S, or O) that may be acid/base labile, releasing an aldehyde.

> <s_lp_Force_Field>
OPLS_2005

> <r_lp_Energy>
39.1051

> <b_lp_Chiralities_Consistent>
1

> <s_lp_Variant>
AV-unprocessed.smi:72-45

> <Gold.Version>
5.8.1

> <Gold.Id.Protein>
6NUR|6NUR_protein|mol2

> <Gold.PLP.Fitness>
36.9887

> <Gold.PLP.PLP>
-23.3883

> <Gold.PLP.part.hbond>
-5.2423

> <Gold.PLP.part.metal>
0.0000

> <Gold.PLP.part.buried>
-0.4126

> <Gold.PLP.part.nonpolar>
-19.0455

> <Gold.PLP.part.repulsive>
1.5863

> <Gold.PLP.ligand.clash>
0.0000

> <Gold.PLP.ligand.torsion>
0.7660

> <Gold.PLP.Chemscore.Hbond>
4.9920

> <Gold.PLP.Chemscore.CHOScore>
0.0000

> <Gold.PLP.Chemscore.Metal>
0.0000

> <Gold.Chemscore.Hbonds>
donor molecule, donor type, donor heavy atom, donor atom, acceptor molecule, acceptor atom, score
      L1  H     1    22       P1 10171  0.99
      L1  H     3    30       P1  7948  2.00
      P1  H  7989  7998       L1     7  1.00
      P1  H  7997  8009       L1    10  1.00

> <Gold.PLP.Chemscore.Internal.Correction>
0.1563

> <Gold.Rescore>
     Score         DG    S(hbond)    S(metal)    S(lipo)     H(rot)  DE(clash)    DE(int)     intcor
      5.73      -8.46       3.34        0.00      19.33       4.08       1.97       0.76       ----

> <Gold.Chemscore.Fitness>
5.7282

> <Gold.Chemscore.DG>
-8.4633

> <Gold.Chemscore.ZeroCoef>
-5.4800

> <Gold.Chemscore.Hbond>
3.3419

> <Gold.Chemscore.Metal>
0.0000

> <Gold.Chemscore.Lipo>
19.3300

> <Gold.Chemscore.Internal_Hbond>
0.0000

> <Gold.Chemscore.DEClash>
1.9740

> <Gold.Chemscore.DEInternal>
0.7610

> <Gold.Chemscore.Rot>
4.0783

> <Gold.Chemscore.Internal.Correction>
   9.000000E+99

> <Gold.Chemscore.Hbonds>
donor molecule, donor type, donor heavy atom, donor atom, acceptor molecule, acceptor atom, score
      L1  H     1    22       P1 10171  0.93
      L1  H     3    30       P1  7948  0.98
      P1  H  7989  7998       L1     7  0.86
      P1  H  7997  8009       L1    10  0.29

> <Gold.Chemscore.Hbond.Weighted>
-11.1621

> <Gold.Chemscore.Metal.Weighted>
-0.0000

> <Gold.Chemscore.Lipo.Weighted>
-2.2616

> <Gold.Chemscore.Internal_Hbond.Weighted>
0.0000

> <Gold.Chemscore.DEClash.Weighted>
1.9740

> <Gold.Chemscore.DEInternal.Weighted>
0.7610

> <Gold.Chemscore.Rot.Weighted>
10.4404

> <Gold.Chemscore.Internal.Correction.Weighted>
   9.000000E+99

> <Gold.Protein.RotatedTorsions>
[ 6907 6896 6895 6894 ] final  -74.17 input  -60.11 | X-H torsion
[ 7974 7965 7964 7962 ] final  163.84 input  175.53 | X-H torsion
[ 8008 7997 7996 7995 ] final  148.07 input   59.86 | X-H torsion
[ 10167 10162 10161 10158 ] final -104.40 input  -65.29 | X-H torsion
[ 10718 10713 10712 10709 ] final  -22.18 input   66.30 | X-H torsion
[ 10763 10752 10751 10750 ] final -107.20 input  -60.55 | X-H torsion
[ 11005 11000 10999 10996 ] final -135.71 input  -57.11 | X-H torsion

> <Gold.Protein.ActiveResidues>
 VAL166  LYS551  ARG553  GLY616  TRP617  ASP618  TYR619  PRO620  LYS621  CYS622 
 ASP623  PHE694  ASN695  SER759  ASP760  ASP761  ALA762  ILE779  LEU786  VAL792 
 PHE793  MET794  SER795  GLU796  ALA797  LYS798  CYS799  TRP800  GLU811  SER814 

> <Gold.Protein.RotatedAtoms>
  150.7103  134.4909  159.5514 H   0  0  0  0  0  0  0  0  0  0  0  0  # atno 6907 bound_to 6896
  152.2527  134.8113  160.0452 H   0  0  0  0  0  0  0  0  0  0  0  0  # atno 6908 bound_to 6896
  151.8855  133.3469  159.3817 H   0  0  0  0  0  0  0  0  0  0  0  0  # atno 6909 bound_to 6896
  144.7571  139.8241  143.6346 H   0  0  0  0  0  0  0  0  0  0  0  0  # atno 7974 bound_to 7965
  156.2804  140.2138  156.5639 H   0  0  0  0  0  0  0  0  0  0  0  0  # atno 8008 bound_to 7997
  154.7191  140.0505  157.0645 H   0  0  0  0  0  0  0  0  0  0  0  0  # atno 8009 bound_to 7997
  155.0503  140.3155  155.4697 H   0  0  0  0  0  0  0  0  0  0  0  0  # atno 8010 bound_to 7997
  140.2097  143.3756  152.1061 H   0  0  0  0  0  0  0  0  0  0  0  0  # atno 10167 bound_to 10162
  156.5080  130.4603  149.6664 H   0  0  0  0  0  0  0  0  0  0  0  0  # atno 10718 bound_to 10713
  154.8060  135.4683  154.0395 H   0  0  0  0  0  0  0  0  0  0  0  0  # atno 10763 bound_to 10752
  153.1863  135.6848  153.8418 H   0  0  0  0  0  0  0  0  0  0  0  0  # atno 10764 bound_to 10752
  153.7951  135.3238  155.3361 H   0  0  0  0  0  0  0  0  0  0  0  0  # atno 10765 bound_to 10752
  140.8873  134.1856  157.4551 H   0  0  0  0  0  0  0  0  0  0  0  0  # atno 11005 bound_to 11000
  146.1594  139.4703  142.9998 LP  0  0  0  0  0  0  0  0  0  0  0  0  # atno 17320 bound_to 7965
  145.6741  141.0208  143.1641 LP  0  0  0  0  0  0  0  0  0  0  0  0  # atno 17321 bound_to 7965
  139.5185  144.7006  151.5504 LP  0  0  0  0  0  0  0  0  0  0  0  0  # atno 17342 bound_to 10162
  140.6332  143.9035  150.6624 LP  0  0  0  0  0  0  0  0  0  0  0  0  # atno 17343 bound_to 10162
  156.3268  130.7310  151.2232 LP  0  0  0  0  0  0  0  0  0  0  0  0  # atno 17370 bound_to 10713
  157.7454  131.0441  150.4775 LP  0  0  0  0  0  0  0  0  0  0  0  0  # atno 17371 bound_to 10713
  139.8726  134.9843  156.5235 LP  0  0  0  0  0  0  0  0  0  0  0  0  # atno 17394 bound_to 11000
  140.8389  133.8220  155.9056 LP  0  0  0  0  0  0  0  0  0  0  0  0  # atno 17395 bound_to 11000

$$$$
