AV-unprocessed.smi:45|AV-procd|sdf|416|dock3
  -GOLD-   2262016293D 1   1.00000     0.00000
 Structure written by MMmdl.
 60 63  0  0  0  0  0  0  0  0  3 V2000
  153.0500  139.9241  158.8909 C   0  0  0  0  0  0  0  0  0  0  0  0
  153.1126  139.5116  157.5335 O   0  0  0  0  0  0  0  0  0  0  0  0
  152.0103  138.8852  156.9897 C   0  0  0  0  0  0  0  0  0  0  0  0
  150.7985  138.6694  157.6942 C   0  0  0  0  0  0  0  0  0  0  0  0
  149.7140  138.0222  157.0716 C   0  0  0  0  0  0  0  0  0  0  0  0
  149.8202  137.5798  155.7382 C   0  0  0  0  0  0  0  0  0  0  0  0
  148.6516  136.8843  155.0690 C   0  0  0  0  0  0  0  0  0  0  0  0
  148.5532  135.4737  155.4136 N   0  0  0  0  0  0  0  0  0  0  0  0
  147.3665  134.7470  155.2151 C   0  0  0  0  0  0  0  0  0  0  0  0
  146.9925  134.4827  153.9420 N   0  0  0  0  0  0  0  0  0  0  0  0
  145.8773  133.7833  153.6921 C   0  0  0  0  0  0  0  0  0  0  0  0
  145.5346  133.5295  152.3650 N   0  0  0  0  0  0  0  0  0  0  0  0
  146.5228  133.0722  151.3937 C   0  0  0  0  0  0  0  0  0  0  0  0
  145.7703  132.1639  150.4199 C   0  0  0  0  0  0  0  0  0  0  0  0
  144.3576  132.7353  150.4352 C   0  0  0  0  0  0  0  0  0  0  0  0
  144.1905  133.2000  151.8897 C   0  0  2  0  0  0  0  0  0  0  0  0
  143.1504  134.3269  152.0853 C   0  0  0  0  0  0  0  0  0  0  0  0
  142.5626  134.2800  153.3695 O   0  0  0  0  0  0  0  0  0  0  0  0
  145.0983  133.3137  154.6784 N   0  3  0  0  0  0  0  0  0  0  0  0
  145.4275  133.5496  155.9711 C   0  0  0  0  0  0  0  0  0  0  0  0
  146.5888  134.2811  156.3041 C   0  0  0  0  0  0  0  0  0  0  0  0
  146.9314  134.5637  157.7453 C   0  0  0  0  0  0  0  0  0  0  0  0
  146.2687  135.4104  158.3554 O   0  0  0  0  0  0  0  0  0  0  0  0
  147.9900  133.8185  158.1650 N   0  5  0  0  0  0  0  0  0  0  0  0
  148.0328  133.1097  159.4431 C   0  0  0  0  0  0  0  0  0  0  0  0
  147.8352  134.0587  160.6166 C   0  0  0  0  0  0  0  0  0  0  0  0
  147.9300  135.3690  160.3579 N   0  0  0  0  0  0  0  0  0  0  0  0
  147.7328  136.2142  161.3928 C   0  0  0  0  0  0  0  0  0  0  0  0
  147.4411  135.7447  162.6892 C   0  0  0  0  0  0  0  0  0  0  0  0
  147.3678  134.3460  162.8434 C   0  0  0  0  0  0  0  0  0  0  0  0
  147.5658  133.5047  161.8053 N   0  0  0  0  0  0  0  0  0  0  0  0
  151.0201  137.7908  155.0316 C   0  0  0  0  0  0  0  0  0  0  0  0
  152.1066  138.4376  155.6528 C   0  0  0  0  0  0  0  0  0  0  0  0
  153.5645  138.6789  154.7582 Cl  0  0  0  0  0  0  0  0  0  0  0  0
  143.8658  132.3383  152.4746 H   0  0  0  0  0  0  0  0  0  0  0  0
  153.9897  140.4036  159.1647 H   0  0  0  0  0  0  0  0  0  0  0  0
  152.9069  139.0744  159.5598 H   0  0  0  0  0  0  0  0  0  0  0  0
  152.2514  140.6494  159.0508 H   0  0  0  0  0  0  0  0  0  0  0  0
  150.6746  138.9913  158.7169 H   0  0  0  0  0  0  0  0  0  0  0  0
  148.7981  137.8654  157.6224 H   0  0  0  0  0  0  0  0  0  0  0  0
  147.7334  137.3930  155.3654 H   0  0  0  0  0  0  0  0  0  0  0  0
  148.7386  136.9833  153.9861 H   0  0  0  0  0  0  0  0  0  0  0  0
  149.3623  135.0063  155.7983 H   0  0  0  0  0  0  0  0  0  0  0  0
  146.9288  133.9412  150.8747 H   0  0  0  0  0  0  0  0  0  0  0  0
  147.3516  132.5397  151.8618 H   0  0  0  0  0  0  0  0  0  0  0  0
  146.2156  132.1461  149.4247 H   0  0  0  0  0  0  0  0  0  0  0  0
  145.7568  131.1423  150.8024 H   0  0  0  0  0  0  0  0  0  0  0  0
  144.3071  133.5752  149.7413 H   0  0  0  0  0  0  0  0  0  0  0  0
  143.6019  132.0091  150.1349 H   0  0  0  0  0  0  0  0  0  0  0  0
  143.6389  135.2953  151.9742 H   0  0  0  0  0  0  0  0  0  0  0  0
  142.3624  134.2930  151.3347 H   0  0  0  0  0  0  0  0  0  0  0  0
  142.4257  133.3747  153.6050 H   0  0  0  0  0  0  0  0  0  0  0  0
  144.7428  133.1446  156.7024 H   0  0  0  0  0  0  0  0  0  0  0  0
  147.2705  132.3304  159.4973 H   0  0  0  0  0  0  0  0  0  0  0  0
  148.9824  132.5896  159.5800 H   0  0  0  0  0  0  0  0  0  0  0  0
  147.8081  137.2712  161.1853 H   0  0  0  0  0  0  0  0  0  0  0  0
  147.2830  136.4188  163.5177 H   0  0  0  0  0  0  0  0  0  0  0  0
  147.1499  133.9003  163.8025 H   0  0  0  0  0  0  0  0  0  0  0  0
  151.1125  137.4544  154.0092 H   0  0  0  0  0  0  0  0  0  0  0  0
  144.2558  132.7790  154.4689 H   0  0  0  0  0  0  0  0  0  0  0  0
  1  2  1  0  0  0  0
  1 36  1  0  0  0  0
  1 37  1  0  0  0  0
  1 38  1  0  0  0  0
  2  3  1  0  0  0  0
  3 33  1  0  0  0  0
  3  4  2  0  0  0  0
  4  5  1  0  0  0  0
  4 39  1  0  0  0  0
  5  6  2  0  0  0  0
  5 40  1  0  0  0  0
  6  7  1  0  0  0  0
  6 32  1  0  0  0  0
  7  8  1  0  0  0  0
  7 41  1  0  0  0  0
  7 42  1  0  0  0  0
  8  9  1  0  0  0  0
  8 43  1  0  0  0  0
  9 21  1  0  0  0  0
  9 10  2  0  0  0  0
 10 11  1  0  0  0  0
 11 12  1  0  0  0  0
 11 19  2  0  0  0  0
 12 16  1  0  0  0  0
 12 13  1  0  0  0  0
 13 14  1  0  0  0  0
 13 44  1  0  0  0  0
 13 45  1  0  0  0  0
 14 15  1  0  0  0  0
 14 46  1  0  0  0  0
 14 47  1  0  0  0  0
 15 16  1  0  0  0  0
 15 48  1  0  0  0  0
 15 49  1  0  0  0  0
 16 35  1  0  0  0  0
 16 17  1  0  0  0  0
 17 18  1  0  0  0  0
 17 50  1  0  0  0  0
 17 51  1  0  0  0  0
 18 52  1  0  0  0  0
 19 20  1  0  0  0  0
 19 60  1  0  0  0  0
 20 21  2  0  0  0  0
 20 53  1  0  0  0  0
 21 22  1  0  0  0  0
 22 23  2  0  0  0  0
 22 24  1  0  0  0  0
 24 25  1  0  0  0  0
 25 26  1  0  0  0  0
 25 54  1  0  0  0  0
 25 55  1  0  0  0  0
 26 31  1  0  0  0  0
 26 27  2  0  0  0  0
 27 28  1  0  0  0  0
 28 29  2  0  0  0  0
 28 56  1  0  0  0  0
 29 30  1  0  0  0  0
 29 57  1  0  0  0  0
 30 31  2  0  0  0  0
 30 58  1  0  0  0  0
 32 33  2  0  0  0  0
 32 59  1  0  0  0  0
 33 34  1  0  0  0  0
M  CHG  1  19   1
M  CHG  1  24  -1
M  END
> <s_m_source_file>
AV-unprocessed.smi

> <i_m_source_file_index>
45

> <i_lp_mmshare_version>
43012

> <i_f3d_flags>
0

> <s_epik_input>
W0NIM11PYzFbY0hdW2NIXWMoW2NIXWMxQ2wpW0NIMl1bTkhdYzJuYyhOM1tDSDJdW0NIMl1bQ0gyXVtDQEhdM1tDSDJdW09IXSluW2NIXWMyQyg9TylbTkhdW0NIMl1jNG5bY0hdW2NIXVtjSF1uNA==

> <s_epik_cmdline>
J2VwaWtfcHl0aG9uJywgJy1waCcsICc3LjAnLCAnLXRuJywgJzgnLCAnLW1hJywgJzIwMCcsICctbWV0YWxfYmluZGluZycsICctaW1hZScsICc8aW5maWxlLm1hZT4nLCAnLW9tYWUnLCAnPG91dGZpbGUubWFlPic=

> <r_lp_tautomer_probability>
0.575011

> <r_epik_Ionization_Penalty>
6.73124

> <r_epik_Ionization_Penalty_Charging>
6.73106

> <r_epik_Ionization_Penalty_Neutral>
0.000179426

> <r_epik_State_Penalty>
8.26145

> <r_epik_Charging_Adjusted_Penalty>
14.9925

> <i_epik_Tot_Q>
0

> <i_epik_Tot_abs_Q>
2

> <r_epik_Metal_State_Penalty>
4.22532

> <b_epik_Metal_Only>
1

> <s_epik_Chemistry_Notes>
This compound contains an electron-poor aromatic ring that is susceptible to covalent hydrolysis at low pH, typically resulting in measured values for nitrogen ring protonation that are around two units higher than predicted values.

> <s_lp_Force_Field>
OPLS_2005

> <r_lp_Energy>
47.4245

> <b_lp_Chiralities_Consistent>
1

> <s_lp_Variant>
AV-unprocessed.smi:45-10

> <Gold.Version>
5.8.1

> <Gold.Id.Protein>
6NUR|6NUR_protein|mol2

> <Gold.PLP.Fitness>
51.2097

> <Gold.PLP.PLP>
-45.5479

> <Gold.PLP.part.hbond>
-3.0000

> <Gold.PLP.part.metal>
0.0000

> <Gold.PLP.part.buried>
-5.3200

> <Gold.PLP.part.nonpolar>
-36.8214

> <Gold.PLP.part.repulsive>
0.0904

> <Gold.PLP.ligand.clash>
0.0000

> <Gold.PLP.ligand.torsion>
3.8257

> <Gold.PLP.Chemscore.Hbond>
4.0000

> <Gold.PLP.Chemscore.CHOScore>
0.0000

> <Gold.PLP.Chemscore.Metal>
0.0000

> <Gold.Chemscore.Hbonds>
donor molecule, donor type, donor heavy atom, donor atom, acceptor molecule, acceptor atom, score
      L1  H    18    52       P1 10957  1.00
      L1  H    19    60       P1 10957  2.00
      P1  H  7997  8009       L1     2  1.00

> <Gold.PLP.Chemscore.Internal.Correction>
1.3133

> <Gold.Rescore>
     Score         DG    S(hbond)    S(metal)    S(lipo)     H(rot)  DE(clash)    DE(int)     intcor
     16.12     -21.23       2.91        0.00     115.06       2.90       0.15       4.96       ----

> <Gold.Chemscore.Fitness>
16.1172

> <Gold.Chemscore.DG>
-21.2320

> <Gold.Chemscore.ZeroCoef>
-5.4800

> <Gold.Chemscore.Hbond>
2.9075

> <Gold.Chemscore.Metal>
0.0000

> <Gold.Chemscore.Lipo>
115.0581

> <Gold.Chemscore.Internal_Hbond>
0.0000

> <Gold.Chemscore.DEClash>
0.1536

> <Gold.Chemscore.DEInternal>
4.9613

> <Gold.Chemscore.Rot>
2.8988

> <Gold.Chemscore.Internal.Correction>
   9.000000E+99

> <Gold.Chemscore.Hbonds>
donor molecule, donor type, donor heavy atom, donor atom, acceptor molecule, acceptor atom, score
      L1  H    18    52       P1 10957  0.94
      L1  H    19    60       P1 10957  0.97
      P1  H  7997  8009       L1     2  0.78

> <Gold.Chemscore.Hbond.Weighted>
-9.7111

> <Gold.Chemscore.Metal.Weighted>
-0.0000

> <Gold.Chemscore.Lipo.Weighted>
-13.4618

> <Gold.Chemscore.Internal_Hbond.Weighted>
0.0000

> <Gold.Chemscore.DEClash.Weighted>
0.1536

> <Gold.Chemscore.DEInternal.Weighted>
4.9613

> <Gold.Chemscore.Rot.Weighted>
7.4209

> <Gold.Chemscore.Internal.Correction.Weighted>
   9.000000E+99

> <Gold.Protein.RotatedTorsions>
[ 6907 6896 6895 6894 ] final -127.33 input  -60.11 | X-H torsion
[ 7974 7965 7964 7962 ] final  -37.08 input  175.53 | X-H torsion
[ 8008 7997 7996 7995 ] final  167.79 input   59.86 | X-H torsion
[ 10167 10162 10161 10158 ] final   38.09 input  -65.29 | X-H torsion
[ 10718 10713 10712 10709 ] final   28.18 input   66.30 | X-H torsion
[ 10763 10752 10751 10750 ] final   44.79 input  -60.55 | X-H torsion
[ 11005 11000 10999 10996 ] final   35.55 input  -57.11 | X-H torsion

> <Gold.Protein.ActiveResidues>
 VAL166  LYS551  ARG553  GLY616  TRP617  ASP618  TYR619  PRO620  LYS621  CYS622 
 ASP623  PHE694  ASN695  SER759  ASP760  ASP761  ALA762  ILE779  LEU786  VAL792 
 PHE793  MET794  SER795  GLU796  ALA797  LYS798  CYS799  TRP800  GLU811  SER814 

> <Gold.Protein.RotatedAtoms>
  150.9062  133.7055  159.2866 H   0  0  0  0  0  0  0  0  0  0  0  0  # atno 6907 bound_to 6896
  151.4557  135.1032  159.9720 H   0  0  0  0  0  0  0  0  0  0  0  0  # atno 6908 bound_to 6896
  152.4904  133.8437  159.7221 H   0  0  0  0  0  0  0  0  0  0  0  0  # atno 6909 bound_to 6896
  146.0606  140.6354  142.8999 H   0  0  0  0  0  0  0  0  0  0  0  0  # atno 7974 bound_to 7965
  156.1603  140.1607  156.8623 H   0  0  0  0  0  0  0  0  0  0  0  0  # atno 8008 bound_to 7997
  154.5154  140.0791  156.8107 H   0  0  0  0  0  0  0  0  0  0  0  0  # atno 8009 bound_to 7997
  155.3721  140.3401  155.4246 H   0  0  0  0  0  0  0  0  0  0  0  0  # atno 8010 bound_to 7997
  140.3970  144.1775  150.6132 H   0  0  0  0  0  0  0  0  0  0  0  0  # atno 10167 bound_to 10162
  157.2300  130.7019  149.6309 H   0  0  0  0  0  0  0  0  0  0  0  0  # atno 10718 bound_to 10713
  152.9835  135.6059  154.3332 H   0  0  0  0  0  0  0  0  0  0  0  0  # atno 10763 bound_to 10752
  154.3034  135.2772  155.2602 H   0  0  0  0  0  0  0  0  0  0  0  0  # atno 10764 bound_to 10752
  154.4844  135.5908  153.6469 H   0  0  0  0  0  0  0  0  0  0  0  0  # atno 10765 bound_to 10752
  140.2416  134.3408  155.7924 H   0  0  0  0  0  0  0  0  0  0  0  0  # atno 11005 bound_to 11000
  144.7173  140.4252  143.7035 LP  0  0  0  0  0  0  0  0  0  0  0  0  # atno 17320 bound_to 7965
  145.6567  139.1574  143.2831 LP  0  0  0  0  0  0  0  0  0  0  0  0  # atno 17321 bound_to 7965
  140.4780  143.2389  151.8995 LP  0  0  0  0  0  0  0  0  0  0  0  0  # atno 17342 bound_to 10162
  139.4786  144.5300  151.8681 LP  0  0  0  0  0  0  0  0  0  0  0  0  # atno 17343 bound_to 10162
  155.9676  130.4492  150.5648 LP  0  0  0  0  0  0  0  0  0  0  0  0  # atno 17370 bound_to 10713
  157.3488  131.0730  151.1730 LP  0  0  0  0  0  0  0  0  0  0  0  0  # atno 17371 bound_to 10713
  141.2210  133.7302  156.8894 LP  0  0  0  0  0  0  0  0  0  0  0  0  # atno 17394 bound_to 11000
  140.1648  134.9141  157.2760 LP  0  0  0  0  0  0  0  0  0  0  0  0  # atno 17395 bound_to 11000

$$$$
