AV-unprocessed.smi:2272|AV-procd|sdf|9162|dock5
  -GOLD-   2272012373D 1   1.00000     0.00000
 Structure written by MMmdl.
 41 42  0  0  0  0  0  0  0  0  1 V2000
  149.1966  131.8581  154.5407 C   0  0  0  0  0  0  0  0  0  0  0  0
  149.8277  133.1683  154.9775 C   0  0  0  0  0  0  0  0  0  0  0  0
  149.1767  134.3264  154.5439 N   0  0  0  0  0  0  0  0  0  0  0  0
  149.6346  135.4872  154.8811 C   0  0  0  0  0  0  0  0  0  0  0  0
  150.7793  135.6270  155.6840 N   0  0  0  0  0  0  0  0  0  0  0  0
  151.1740  137.0095  156.0102 C   0  0  0  0  0  0  0  0  0  0  0  0
  151.4889  137.8492  154.7512 C   0  0  2  0  0  0  0  0  0  0  0  0
  152.0936  137.0414  153.7637 O   0  0  0  0  0  0  0  0  0  0  0  0
  152.3611  139.0943  154.9868 C   0  0  0  0  0  0  0  0  0  0  0  0
  152.3149  139.4768  156.3548 O   0  0  0  0  0  0  0  0  0  0  0  0
  151.1704  140.2447  156.7020 C   0  0  0  0  0  0  0  0  0  0  0  0
  151.4662  141.3330  157.7212 C   0  0  0  0  0  0  0  0  0  0  0  0
  151.1117  142.6715  157.4493 C   0  0  0  0  0  0  0  0  0  0  0  0
  151.3801  143.6827  158.3920 C   0  0  0  0  0  0  0  0  0  0  0  0
  152.0114  143.3614  159.6086 C   0  0  0  0  0  0  0  0  0  0  0  0
  152.3727  142.0282  159.8821 C   0  0  0  0  0  0  0  0  0  0  0  0
  152.1019  141.0151  158.9418 C   0  0  0  0  0  0  0  0  0  0  0  0
  152.4519  139.7361  159.2193 F   0  0  0  0  0  0  0  0  0  0  0  0
  151.4883  134.5486  156.1280 C   0  0  0  0  0  0  0  0  0  0  0  0
  152.5072  134.6773  156.8075 O   0  0  0  0  0  0  0  0  0  0  0  0
  150.9518  133.2334  155.7417 C   0  0  0  0  0  0  0  0  0  0  0  0
  151.6979  132.0049  156.2464 C   0  0  0  0  0  0  0  0  0  0  0  0
  148.9399  131.2486  155.4076 H   0  0  0  0  0  0  0  0  0  0  0  0
  149.8846  131.2952  153.9093 H   0  0  0  0  0  0  0  0  0  0  0  0
  148.2826  132.0281  153.9699 H   0  0  0  0  0  0  0  0  0  0  0  0
  149.1640  136.4222  154.5708 H   0  0  0  0  0  0  0  0  0  0  0  0
  150.4185  137.5139  156.6149 H   0  0  0  0  0  0  0  0  0  0  0  0
  152.0563  136.9809  156.6530 H   0  0  0  0  0  0  0  0  0  0  0  0
  150.5495  138.1832  154.3095 H   0  0  0  0  0  0  0  0  0  0  0  0
  151.8605  137.3857  152.9147 H   0  0  0  0  0  0  0  0  0  0  0  0
  153.3888  138.8983  154.6762 H   0  0  0  0  0  0  0  0  0  0  0  0
  151.9916  139.9109  154.3664 H   0  0  0  0  0  0  0  0  0  0  0  0
  150.7975  140.7146  155.7918 H   0  0  0  0  0  0  0  0  0  0  0  0
  150.3629  139.6011  157.0551 H   0  0  0  0  0  0  0  0  0  0  0  0
  150.6269  142.9249  156.5177 H   0  0  0  0  0  0  0  0  0  0  0  0
  151.1018  144.7050  158.1815 H   0  0  0  0  0  0  0  0  0  0  0  0
  152.2170  144.1359  160.3327 H   0  0  0  0  0  0  0  0  0  0  0  0
  152.8549  141.7809  160.8163 H   0  0  0  0  0  0  0  0  0  0  0  0
  151.6289  131.9483  157.3322 H   0  0  0  0  0  0  0  0  0  0  0  0
  152.7528  132.0617  155.9753 H   0  0  0  0  0  0  0  0  0  0  0  0
  151.3102  131.0712  155.8425 H   0  0  0  0  0  0  0  0  0  0  0  0
  1  2  1  0  0  0  0
  1 23  1  0  0  0  0
  1 24  1  0  0  0  0
  1 25  1  0  0  0  0
  2 21  2  0  0  0  0
  2  3  1  0  0  0  0
  3  4  2  0  0  0  0
  4  5  1  0  0  0  0
  4 26  1  0  0  0  0
  5  6  1  0  0  0  0
  5 19  1  0  0  0  0
  6  7  1  0  0  0  0
  6 27  1  0  0  0  0
  6 28  1  0  0  0  0
  7  8  1  0  0  0  0
  7  9  1  0  0  0  0
  7 29  1  0  0  0  0
  8 30  1  0  0  0  0
  9 10  1  0  0  0  0
  9 31  1  0  0  0  0
  9 32  1  0  0  0  0
 10 11  1  0  0  0  0
 11 12  1  0  0  0  0
 11 33  1  0  0  0  0
 11 34  1  0  0  0  0
 12 17  1  0  0  0  0
 12 13  2  0  0  0  0
 13 14  1  0  0  0  0
 13 35  1  0  0  0  0
 14 15  2  0  0  0  0
 14 36  1  0  0  0  0
 15 16  1  0  0  0  0
 15 37  1  0  0  0  0
 16 17  2  0  0  0  0
 16 38  1  0  0  0  0
 17 18  1  0  0  0  0
 19 20  2  0  0  0  0
 19 21  1  0  0  0  0
 21 22  1  0  0  0  0
 22 39  1  0  0  0  0
 22 40  1  0  0  0  0
 22 41  1  0  0  0  0
M  END
> <s_m_source_file>
AV-unprocessed.smi

> <i_m_source_file_index>
2272

> <i_lp_mmshare_version>
43012

> <i_f3d_flags>
0

> <s_epik_input>
W0NIM11jMW5bY0hdbihjKD1PKWMxW0NIM10pW0NIMl1bQ0BIXShbT0hdKVtDSDJdT1tDSDJdYzJbY0hdW2NIXVtjSF1bY0hdYzJG

> <s_epik_cmdline>
J2VwaWtfcHl0aG9uJywgJy1waCcsICc3LjAnLCAnLXRuJywgJzgnLCAnLW1hJywgJzIwMCcsICctbWV0YWxfYmluZGluZycsICctaW1hZScsICc8aW5maWxlLm1hZT4nLCAnLW9tYWUnLCAnPG91dGZpbGUubWFlPic=

> <r_lp_tautomer_probability>
1

> <r_epik_Ionization_Penalty>
5.35985e-05

> <r_epik_Ionization_Penalty_Charging>
1.17753e-07

> <r_epik_Ionization_Penalty_Neutral>
5.34808e-05

> <r_epik_State_Penalty>
-0

> <r_epik_Charging_Adjusted_Penalty>
1.17753e-07

> <i_epik_Tot_Q>
0

> <i_epik_Tot_abs_Q>
0

> <r_epik_Metal_State_Penalty>
-0

> <b_epik_Metal_Only>
0

> <s_lp_Force_Field>
OPLS_2005

> <r_lp_Energy>
20.6286

> <b_lp_Chiralities_Consistent>
1

> <s_lp_Variant>
AV-unprocessed.smi:2272-1

> <Gold.Version>
5.8.1

> <Gold.Id.Protein>
6NUR|6NUR_protein|mol2

> <Gold.PLP.Fitness>
51.1397

> <Gold.PLP.PLP>
-44.2976

> <Gold.PLP.part.hbond>
-4.5220

> <Gold.PLP.part.metal>
0.0000

> <Gold.PLP.part.buried>
-3.8003

> <Gold.PLP.part.nonpolar>
-35.4311

> <Gold.PLP.part.repulsive>
0.1419

> <Gold.PLP.ligand.clash>
0.0000

> <Gold.PLP.ligand.torsion>
1.1554

> <Gold.PLP.Chemscore.Hbond>
2.7473

> <Gold.PLP.Chemscore.CHOScore>
0.2546

> <Gold.PLP.Chemscore.Metal>
0.0000

> <Gold.Chemscore.Hbonds>
donor molecule, donor type, donor heavy atom, donor atom, acceptor molecule, acceptor atom, score
      L1  H     8    30       P1  7949  0.27
      P1  H  7997  8010       L1    10  0.61
      P1  H 10752 10763       L1    20  0.52
      P1  H 10752 10765       L1     8  0.66
      L1  C     4    26       P1  7948  0.27

> <Gold.PLP.Chemscore.Internal.Correction>
0.1474

> <Gold.Rescore>
     Score         DG    S(hbond)    S(metal)    S(lipo)     H(rot)  DE(clash)    DE(int)     intcor
     14.07     -17.00       1.82        0.00     105.19       2.69       0.66       2.26       ----

> <Gold.Chemscore.Fitness>
14.0744

> <Gold.Chemscore.DG>
-16.9964

> <Gold.Chemscore.ZeroCoef>
-5.4800

> <Gold.Chemscore.Hbond>
1.8216

> <Gold.Chemscore.Metal>
0.0000

> <Gold.Chemscore.Lipo>
105.1943

> <Gold.Chemscore.Internal_Hbond>
0.0000

> <Gold.Chemscore.DEClash>
0.6611

> <Gold.Chemscore.DEInternal>
2.2609

> <Gold.Chemscore.Rot>
2.6857

> <Gold.Chemscore.Internal.Correction>
   9.000000E+99

> <Gold.Chemscore.Hbonds>
donor molecule, donor type, donor heavy atom, donor atom, acceptor molecule, acceptor atom, score
      L1  H     8    30       P1  7949  0.27
      P1  H  7997  8010       L1    10  0.09
      P1  H 10752 10763       L1    20  0.03
      P1  H 10752 10765       L1     8  0.54

> <Gold.Chemscore.Hbond.Weighted>
-6.0842

> <Gold.Chemscore.Metal.Weighted>
-0.0000

> <Gold.Chemscore.Lipo.Weighted>
-12.3077

> <Gold.Chemscore.Internal_Hbond.Weighted>
0.0000

> <Gold.Chemscore.DEClash.Weighted>
0.6611

> <Gold.Chemscore.DEInternal.Weighted>
2.2609

> <Gold.Chemscore.Rot.Weighted>
6.8755

> <Gold.Chemscore.Internal.Correction.Weighted>
   9.000000E+99

> <Gold.Protein.RotatedTorsions>
[ 6907 6896 6895 6894 ] final  177.46 input  -60.11 | X-H torsion
[ 7974 7965 7964 7962 ] final   30.39 input  175.53 | X-H torsion
[ 8008 7997 7996 7995 ] final   67.84 input   59.86 | X-H torsion
[ 10167 10162 10161 10158 ] final  -44.17 input  -65.29 | X-H torsion
[ 10718 10713 10712 10709 ] final -123.76 input   66.30 | X-H torsion
[ 10763 10752 10751 10750 ] final  114.42 input  -60.55 | X-H torsion
[ 11005 11000 10999 10996 ] final  -33.01 input  -57.11 | X-H torsion

> <Gold.Protein.ActiveResidues>
 VAL166  LYS551  ARG553  GLY616  TRP617  ASP618  TYR619  PRO620  LYS621  CYS622 
 ASP623  PHE694  ASN695  SER759  ASP760  ASP761  ALA762  ILE779  LEU786  VAL792 
 PHE793  MET794  SER795  GLU796  ALA797  LYS798  CYS799  TRP800  GLU811  SER814 

> <Gold.Protein.RotatedAtoms>
  151.7037  133.3311  159.3272 H   0  0  0  0  0  0  0  0  0  0  0  0  # atno 6907 bound_to 6896
  150.7724  134.6593  159.6340 H   0  0  0  0  0  0  0  0  0  0  0  0  # atno 6908 bound_to 6896
  152.3754  134.6674  160.0213 H   0  0  0  0  0  0  0  0  0  0  0  0  # atno 6909 bound_to 6896
  146.1615  139.6795  142.9030 H   0  0  0  0  0  0  0  0  0  0  0  0  # atno 7974 bound_to 7965
  155.6991  140.3495  155.4925 H   0  0  0  0  0  0  0  0  0  0  0  0  # atno 8008 bound_to 7997
  155.9456  140.1109  157.1041 H   0  0  0  0  0  0  0  0  0  0  0  0  # atno 8009 bound_to 7997
  154.4111  140.1204  156.4971 H   0  0  0  0  0  0  0  0  0  0  0  0  # atno 8010 bound_to 7997
  140.6907  143.2944  151.3457 H   0  0  0  0  0  0  0  0  0  0  0  0  # atno 10167 bound_to 10162
  156.1530  130.6548  150.9940 H   0  0  0  0  0  0  0  0  0  0  0  0  # atno 10718 bound_to 10713
  153.5070  135.3626  155.2568 H   0  0  0  0  0  0  0  0  0  0  0  0  # atno 10763 bound_to 10752
  154.8744  135.4013  154.3413 H   0  0  0  0  0  0  0  0  0  0  0  0  # atno 10764 bound_to 10752
  153.4059  135.7076  153.6460 H   0  0  0  0  0  0  0  0  0  0  0  0  # atno 10765 bound_to 10752
  140.9600  133.7170  156.1354 H   0  0  0  0  0  0  0  0  0  0  0  0  # atno 11005 bound_to 11000
  145.4577  141.0431  143.2769 LP  0  0  0  0  0  0  0  0  0  0  0  0  # atno 17320 bound_to 7965
  144.8033  139.6099  143.7062 LP  0  0  0  0  0  0  0  0  0  0  0  0  # atno 17321 bound_to 7965
  139.6307  144.0727  152.2473 LP  0  0  0  0  0  0  0  0  0  0  0  0  # atno 17342 bound_to 10162
  140.0200  144.6160  150.7574 LP  0  0  0  0  0  0  0  0  0  0  0  0  # atno 17343 bound_to 10162
  157.6672  131.0869  150.7700 LP  0  0  0  0  0  0  0  0  0  0  0  0  # atno 17370 bound_to 10713
  156.7767  130.4846  149.5408 LP  0  0  0  0  0  0  0  0  0  0  0  0  # atno 17371 bound_to 10713
  140.7481  134.4075  157.5545 LP  0  0  0  0  0  0  0  0  0  0  0  0  # atno 17394 bound_to 11000
  139.8875  134.8882  156.2526 LP  0  0  0  0  0  0  0  0  0  0  0  0  # atno 17395 bound_to 11000

$$$$
