AV-unprocessed.smi:1702|AV-procd|sdf|6848|dock2
  -GOLD-   22720 8 23D 1   1.00000     0.00000
 Structure written by MMmdl.
 44 46  0  0  0  0  0  0  0  0  2 V2000
  143.6364  141.8549  155.5814 C   0  0  0  0  0  0  0  0  0  0  0  0
  144.8665  142.7537  155.7997 C   0  0  2  0  0  0  0  0  0  0  0  0
  145.5115  143.2141  154.4797 C   0  0  0  0  0  0  0  0  0  0  0  0
  146.2894  142.0820  153.7849 C   0  0  0  0  0  0  0  0  0  0  0  0
  147.3152  141.5002  154.6910 N   0  3  2  0  0  0  0  0  0  0  0  0
  148.1798  140.4893  154.0286 C   0  0  0  0  0  0  0  0  0  0  0  0
  149.4955  140.2426  154.7933 C   0  0  1  0  0  0  0  0  0  0  0  0
  150.5191  139.9597  153.8579 O   0  0  0  0  0  0  0  0  0  0  0  0
  149.9006  141.4619  155.6442 C   0  0  0  0  0  0  0  0  0  0  0  0
  150.8187  141.1129  156.7139 N   0  0  0  0  0  0  0  0  0  0  0  0
  151.6682  140.0680  156.7411 C   0  0  0  0  0  0  0  0  0  0  0  0
  152.4299  139.9294  157.8220 N   0  0  0  0  0  0  0  0  0  0  0  0
  152.0277  141.0098  158.5884 C   0  0  0  0  0  0  0  0  0  0  0  0
  152.4554  141.4381  159.8653 C   0  0  0  0  0  0  0  0  0  0  0  0
  151.8952  142.5888  160.4581 C   0  0  0  0  0  0  0  0  0  0  0  0
  152.3173  142.9858  161.6821 F   0  0  0  0  0  0  0  0  0  0  0  0
  150.9000  143.3273  159.7838 C   0  0  0  0  0  0  0  0  0  0  0  0
  150.3685  144.4318  160.3592 F   0  0  0  0  0  0  0  0  0  0  0  0
  150.4571  142.9192  158.5110 C   0  0  0  0  0  0  0  0  0  0  0  0
  151.0190  141.7707  157.9233 C   0  0  0  0  0  0  0  0  0  0  0  0
  146.7074  140.9864  155.9457 C   0  0  0  0  0  0  0  0  0  0  0  0
  145.9367  142.0933  156.6874 C   0  0  0  0  0  0  0  0  0  0  0  0
  143.8871  140.9311  155.0606 H   0  0  0  0  0  0  0  0  0  0  0  0
  142.8773  142.3695  154.9915 H   0  0  0  0  0  0  0  0  0  0  0  0
  143.1792  141.5817  156.5329 H   0  0  0  0  0  0  0  0  0  0  0  0
  144.5095  143.6433  156.3205 H   0  0  0  0  0  0  0  0  0  0  0  0
  144.7522  143.6155  153.8074 H   0  0  0  0  0  0  0  0  0  0  0  0
  146.1970  144.0374  154.6854 H   0  0  0  0  0  0  0  0  0  0  0  0
  145.6070  141.2989  153.4517 H   0  0  0  0  0  0  0  0  0  0  0  0
  146.7599  142.4832  152.8881 H   0  0  0  0  0  0  0  0  0  0  0  0
  147.6469  139.5403  153.9476 H   0  0  0  0  0  0  0  0  0  0  0  0
  148.3836  140.8085  153.0054 H   0  0  0  0  0  0  0  0  0  0  0  0
  149.3954  139.3816  155.4534 H   0  0  0  0  0  0  0  0  0  0  0  0
  150.1320  139.8724  152.9998 H   0  0  0  0  0  0  0  0  0  0  0  0
  150.3625  142.2301  155.0227 H   0  0  0  0  0  0  0  0  0  0  0  0
  149.0163  141.9166  156.0928 H   0  0  0  0  0  0  0  0  0  0  0  0
  151.7325  139.3706  155.9184 H   0  0  0  0  0  0  0  0  0  0  0  0
  153.2168  140.8812  160.3910 H   0  0  0  0  0  0  0  0  0  0  0  0
  149.6959  143.4841  157.9945 H   0  0  0  0  0  0  0  0  0  0  0  0
  146.0495  140.1466  155.7181 H   0  0  0  0  0  0  0  0  0  0  0  0
  147.4897  140.6030  156.6018 H   0  0  0  0  0  0  0  0  0  0  0  0
  146.6442  142.8544  157.0194 H   0  0  0  0  0  0  0  0  0  0  0  0
  145.4808  141.6907  157.5927 H   0  0  0  0  0  0  0  0  0  0  0  0
  147.9278  142.2554  154.9658 H   0  0  0  0  0  0  0  0  0  0  0  0
  1  2  1  0  0  0  0
  1 23  1  0  0  0  0
  1 24  1  0  0  0  0
  1 25  1  0  0  0  0
  2 22  1  0  0  0  0
  2  3  1  0  0  0  0
  2 26  1  0  0  0  0
  3  4  1  0  0  0  0
  3 27  1  0  0  0  0
  3 28  1  0  0  0  0
  4  5  1  0  0  0  0
  4 29  1  0  0  0  0
  4 30  1  0  0  0  0
  5  6  1  0  0  0  0
  5 21  1  0  0  0  0
  5 44  1  0  0  0  0
  6  7  1  0  0  0  0
  6 31  1  0  0  0  0
  6 32  1  0  0  0  0
  7  8  1  0  0  0  0
  7  9  1  0  0  0  0
  7 33  1  0  0  0  0
  8 34  1  0  0  0  0
  9 10  1  0  0  0  0
  9 35  1  0  0  0  0
  9 36  1  0  0  0  0
 10 20  1  0  0  0  0
 10 11  1  0  0  0  0
 11 12  2  0  0  0  0
 11 37  1  0  0  0  0
 12 13  1  0  0  0  0
 13 20  2  0  0  0  0
 13 14  1  0  0  0  0
 14 15  2  0  0  0  0
 14 38  1  0  0  0  0
 15 16  1  0  0  0  0
 15 17  1  0  0  0  0
 17 18  1  0  0  0  0
 17 19  2  0  0  0  0
 19 20  1  0  0  0  0
 19 39  1  0  0  0  0
 21 22  1  0  0  0  0
 21 40  1  0  0  0  0
 21 41  1  0  0  0  0
 22 42  1  0  0  0  0
 22 43  1  0  0  0  0
M  CHG  1   5   1
M  END
> <s_m_source_file>
AV-unprocessed.smi

> <i_m_source_file_index>
1702

> <i_lp_mmshare_version>
43012

> <i_f3d_flags>
0

> <s_epik_input>
W0NIM11bQ0hdMVtDSDJdW0NIMl1OKFtDSDJdW0NIMl0xKVtDSDJdW0NASF0oW09IXSlbQ0gyXW4oW2NIXW4yKWMoYzIzKVtjSF1jKEYpYyhGKVtjSF0z

> <s_epik_cmdline>
J2VwaWtfcHl0aG9uJywgJy1waCcsICc3LjAnLCAnLXRuJywgJzgnLCAnLW1hJywgJzIwMCcsICctbWV0YWxfYmluZGluZycsICctaW1hZScsICc8aW5maWxlLm1hZT4nLCAnLW9tYWUnLCAnPG91dGZpbGUubWFlPic=

> <r_epik_Ionization_Penalty>
0.0135195

> <r_epik_Ionization_Penalty_Charging>
0.00181365

> <r_epik_Ionization_Penalty_Neutral>
0.0117059

> <r_epik_State_Penalty>
0.00902283

> <r_epik_Charging_Adjusted_Penalty>
0.0108365

> <i_epik_Tot_Q>
1

> <i_epik_Tot_abs_Q>
1

> <r_epik_Metal_State_Penalty>
9.09181e-06

> <b_epik_Metal_Only>
0

> <s_lp_Force_Field>
OPLS_2005

> <r_lp_Energy>
23.8265

> <b_lp_Chiralities_Consistent>
1

> <s_lp_Variant>
AV-unprocessed.smi:1702-4

> <Gold.Version>
5.8.1

> <Gold.Id.Protein>
6NUR|6NUR_protein|mol2

> <Gold.PLP.Fitness>
52.6268

> <Gold.PLP.PLP>
-45.9437

> <Gold.PLP.part.hbond>
-2.9650

> <Gold.PLP.part.metal>
0.0000

> <Gold.PLP.part.buried>
-5.2235

> <Gold.PLP.part.nonpolar>
-36.8625

> <Gold.PLP.part.repulsive>
0.0823

> <Gold.PLP.ligand.clash>
0.0000

> <Gold.PLP.ligand.torsion>
1.1281

> <Gold.PLP.Chemscore.Hbond>
2.9672

> <Gold.PLP.Chemscore.CHOScore>
0.0000

> <Gold.PLP.Chemscore.Metal>
0.0000

> <Gold.Chemscore.Hbonds>
donor molecule, donor type, donor heavy atom, donor atom, acceptor molecule, acceptor atom, score
      L1  H     8    34       P1  7957  1.00
      P1  H  7989  7998       L1     8  0.72
      P1  H  7997  8010       L1    12  0.32

> <Gold.PLP.Chemscore.Internal.Correction>
0.0376

> <Gold.Rescore>
     Score         DG    S(hbond)    S(metal)    S(lipo)     H(rot)  DE(clash)    DE(int)     intcor
     16.74     -18.19       2.32        0.00      92.02       2.26       0.05       1.40       ----

> <Gold.Chemscore.Fitness>
16.7398

> <Gold.Chemscore.DG>
-18.1896

> <Gold.Chemscore.ZeroCoef>
-5.4800

> <Gold.Chemscore.Hbond>
2.3155

> <Gold.Chemscore.Metal>
0.0000

> <Gold.Chemscore.Lipo>
92.0185

> <Gold.Chemscore.Internal_Hbond>
0.0000

> <Gold.Chemscore.DEClash>
0.0484

> <Gold.Chemscore.DEInternal>
1.4013

> <Gold.Chemscore.Rot>
2.2619

> <Gold.Chemscore.Internal.Correction>
   9.000000E+99

> <Gold.Chemscore.Hbonds>
donor molecule, donor type, donor heavy atom, donor atom, acceptor molecule, acceptor atom, score
      L1  H     8    34       P1  7957  1.00
      P1  H  7989  7998       L1     8  0.12
      P1  H  7997  8010       L1    12  0.13

> <Gold.Chemscore.Hbond.Weighted>
-7.7338

> <Gold.Chemscore.Metal.Weighted>
-0.0000

> <Gold.Chemscore.Lipo.Weighted>
-10.7662

> <Gold.Chemscore.Internal_Hbond.Weighted>
0.0000

> <Gold.Chemscore.DEClash.Weighted>
0.0484

> <Gold.Chemscore.DEInternal.Weighted>
1.4013

> <Gold.Chemscore.Rot.Weighted>
5.7904

> <Gold.Chemscore.Internal.Correction.Weighted>
   9.000000E+99

> <Gold.Protein.RotatedTorsions>
[ 6907 6896 6895 6894 ] final  145.45 input  -60.11 | X-H torsion
[ 7974 7965 7964 7962 ] final -118.61 input  175.53 | X-H torsion
[ 8008 7997 7996 7995 ] final   34.70 input   59.86 | X-H torsion
[ 10167 10162 10161 10158 ] final  -67.39 input  -65.29 | X-H torsion
[ 10718 10713 10712 10709 ] final   82.41 input   66.30 | X-H torsion
[ 10763 10752 10751 10750 ] final -104.48 input  -60.55 | X-H torsion
[ 11005 11000 10999 10996 ] final -177.27 input  -57.11 | X-H torsion

> <Gold.Protein.ActiveResidues>
 VAL166  LYS551  ARG553  GLY616  TRP617  ASP618  TYR619  PRO620  LYS621  CYS622 
 ASP623  PHE694  ASN695  SER759  ASP760  ASP761  ALA762  ILE779  LEU786  VAL792 
 PHE793  MET794  SER795  GLU796  ALA797  LYS798  CYS799  TRP800  GLU811  SER814 

> <Gold.Protein.RotatedAtoms>
  152.1807  133.4705  159.4956 H   0  0  0  0  0  0  0  0  0  0  0  0  # atno 6907 bound_to 6896
  150.6934  134.1837  159.4267 H   0  0  0  0  0  0  0  0  0  0  0  0  # atno 6908 bound_to 6896
  151.9748  135.0058  160.0605 H   0  0  0  0  0  0  0  0  0  0  0  0  # atno 6909 bound_to 6896
  145.0718  140.8364  143.4091 H   0  0  0  0  0  0  0  0  0  0  0  0  # atno 7974 bound_to 7965
  155.1591  140.3282  155.4415 H   0  0  0  0  0  0  0  0  0  0  0  0  # atno 8008 bound_to 7997
  156.2549  140.1963  156.6650 H   0  0  0  0  0  0  0  0  0  0  0  0  # atno 8009 bound_to 7997
  154.6418  140.0569  156.9840 H   0  0  0  0  0  0  0  0  0  0  0  0  # atno 8010 bound_to 7997
  140.5586  143.2312  151.6771 H   0  0  0  0  0  0  0  0  0  0  0  0  # atno 10167 bound_to 10162
  157.6856  131.0046  150.2370 H   0  0  0  0  0  0  0  0  0  0  0  0  # atno 10718 bound_to 10713
  154.7881  135.4784  153.9991 H   0  0  0  0  0  0  0  0  0  0  0  0  # atno 10763 bound_to 10752
  153.1590  135.6805  153.8777 H   0  0  0  0  0  0  0  0  0  0  0  0  # atno 10764 bound_to 10752
  153.8397  135.3181  155.3403 H   0  0  0  0  0  0  0  0  0  0  0  0  # atno 10765 bound_to 10752
  140.4428  134.6415  157.4765 H   0  0  0  0  0  0  0  0  0  0  0  0  # atno 11005 bound_to 11000
  145.1283  139.2648  143.5552 LP  0  0  0  0  0  0  0  0  0  0  0  0  # atno 17320 bound_to 7965
  146.3529  140.0927  142.8612 LP  0  0  0  0  0  0  0  0  0  0  0  0  # atno 17321 bound_to 7965
  139.5060  144.3699  152.0481 LP  0  0  0  0  0  0  0  0  0  0  0  0  # atno 17342 bound_to 10162
  140.2823  144.3846  150.6115 LP  0  0  0  0  0  0  0  0  0  0  0  0  # atno 17343 bound_to 10162
  156.2992  130.3756  149.7767 LP  0  0  0  0  0  0  0  0  0  0  0  0  # atno 17370 bound_to 10713
  156.5402  130.8296  151.3266 LP  0  0  0  0  0  0  0  0  0  0  0  0  # atno 17371 bound_to 10713
  140.0058  134.6766  155.9457 LP  0  0  0  0  0  0  0  0  0  0  0  0  # atno 17394 bound_to 11000
  141.1698  133.6537  156.4610 LP  0  0  0  0  0  0  0  0  0  0  0  0  # atno 17395 bound_to 11000

$$$$
