AV-unprocessed.smi:1417|AV-procd|sdf|5765|dock3
  -GOLD-   22720 5403D 1   1.00000     0.00000
 Structure written by MMmdl.
 39 40  0  0  0  0  0  0  0  0  1 V2000
  152.9980  143.6209  161.8645 C   0  0  0  0  0  0  0  0  0  0  0  0
  152.4092  143.1188  160.5906 C   0  0  0  0  0  0  0  0  0  0  0  0
  151.4343  143.6000  159.7628 C   0  0  0  0  0  0  0  0  0  0  0  0
  151.3770  142.6175  158.7316 C   0  0  0  0  0  0  0  0  0  0  0  0
  150.5115  142.6271  157.6072 N   0  0  0  0  0  0  0  0  0  0  0  0
  150.3526  141.6806  156.6668 C   0  0  0  0  0  0  0  0  0  0  0  0
  150.9350  140.5965  156.6396 O   0  0  0  0  0  0  0  0  0  0  0  0
  149.4629  142.0648  155.7400 N   0  0  0  0  0  0  0  0  0  0  0  0
  149.0634  141.2783  154.5767 C   0  0  0  0  0  0  0  0  0  0  0  0
  147.7791  141.8424  153.9457 C   0  0  0  0  0  0  0  0  0  0  0  0
  147.2632  140.9351  152.8152 C   0  0  0  0  0  0  0  0  0  0  0  0
  147.0177  139.5752  153.3172 N   0  0  0  0  0  0  0  0  0  0  0  0
  146.4445  138.6854  152.2809 C   0  0  0  0  0  0  0  0  0  0  0  0
  145.7536  137.4291  152.8249 C   0  0  0  0  0  0  0  0  0  0  0  0
  146.3237  136.2533  152.5484 N   0  0  0  0  0  0  0  0  0  0  0  0
  144.7164  137.5203  153.4774 O   0  0  0  0  0  0  0  0  0  0  0  0
  148.2650  138.9917  153.8215 C   0  0  0  0  0  0  0  0  0  0  0  0
  148.8149  139.8219  154.9945 C   0  0  0  0  0  0  0  0  0  0  0  0
  152.2365  141.6330  158.9195 N   0  0  0  0  0  0  0  0  0  0  0  0
  152.9047  141.9478  160.1085 O   0  0  0  0  0  0  0  0  0  0  0  0
  152.4022  144.4364  162.2746 H   0  0  0  0  0  0  0  0  0  0  0  0
  154.0108  143.9896  161.7024 H   0  0  0  0  0  0  0  0  0  0  0  0
  153.0416  142.8269  162.6103 H   0  0  0  0  0  0  0  0  0  0  0  0
  150.8635  144.5072  159.8916 H   0  0  0  0  0  0  0  0  0  0  0  0
  149.9489  143.4586  157.5048 H   0  0  0  0  0  0  0  0  0  0  0  0
  149.0315  142.9716  155.8429 H   0  0  0  0  0  0  0  0  0  0  0  0
  149.8658  141.2944  153.8362 H   0  0  0  0  0  0  0  0  0  0  0  0
  147.0043  141.9458  154.7073 H   0  0  0  0  0  0  0  0  0  0  0  0
  147.9610  142.8436  153.5537 H   0  0  0  0  0  0  0  0  0  0  0  0
  146.3486  141.3772  152.4208 H   0  0  0  0  0  0  0  0  0  0  0  0
  147.9803  140.9097  151.9927 H   0  0  0  0  0  0  0  0  0  0  0  0
  145.7359  139.2444  151.6666 H   0  0  0  0  0  0  0  0  0  0  0  0
  147.2372  138.3498  151.6107 H   0  0  0  0  0  0  0  0  0  0  0  0
  145.8983  135.3999  152.8801 H   0  0  0  0  0  0  0  0  0  0  0  0
  147.1726  136.2219  152.0027 H   0  0  0  0  0  0  0  0  0  0  0  0
  148.0828  137.9736  154.1685 H   0  0  0  0  0  0  0  0  0  0  0  0
  149.0062  138.9264  153.0228 H   0  0  0  0  0  0  0  0  0  0  0  0
  149.7403  139.3755  155.3601 H   0  0  0  0  0  0  0  0  0  0  0  0
  148.1062  139.7866  155.8237 H   0  0  0  0  0  0  0  0  0  0  0  0
  1  2  1  0  0  0  0
  1 21  1  0  0  0  0
  1 22  1  0  0  0  0
  1 23  1  0  0  0  0
  2 20  1  0  0  0  0
  2  3  2  0  0  0  0
  3  4  1  0  0  0  0
  3 24  1  0  0  0  0
  4  5  1  0  0  0  0
  4 19  2  0  0  0  0
  5  6  1  0  0  0  0
  5 25  1  0  0  0  0
  6  7  2  0  0  0  0
  6  8  1  0  0  0  0
  8  9  1  0  0  0  0
  8 26  1  0  0  0  0
  9 18  1  0  0  0  0
  9 10  1  0  0  0  0
  9 27  1  0  0  0  0
 10 11  1  0  0  0  0
 10 28  1  0  0  0  0
 10 29  1  0  0  0  0
 11 12  1  0  0  0  0
 11 30  1  0  0  0  0
 11 31  1  0  0  0  0
 12 13  1  0  0  0  0
 12 17  1  0  0  0  0
 13 14  1  0  0  0  0
 13 32  1  0  0  0  0
 13 33  1  0  0  0  0
 14 15  1  0  0  0  0
 14 16  2  0  0  0  0
 15 34  1  0  0  0  0
 15 35  1  0  0  0  0
 17 18  1  0  0  0  0
 17 36  1  0  0  0  0
 17 37  1  0  0  0  0
 18 38  1  0  0  0  0
 18 39  1  0  0  0  0
 19 20  1  0  0  0  0
M  END
> <s_m_source_file>
AV-unprocessed.smi

> <i_m_source_file_index>
1417

> <i_lp_mmshare_version>
43012

> <i_f3d_flags>
0

> <s_epik_input>
W0NIM11jMVtjSF1jKG5vMSlbTkhdQyg9TylbTkhdW0NIXTJbQ0gyXVtDSDJdTihbQ0gyXVtDSDJdMilbQ0gyXUMoPU8pW05IMl0=

> <s_epik_cmdline>
J2VwaWtfcHl0aG9uJywgJy1waCcsICc3LjAnLCAnLXRuJywgJzgnLCAnLW1hJywgJzIwMCcsICctbWV0YWxfYmluZGluZycsICctaW1hZScsICc8aW5maWxlLm1hZT4nLCAnLW9tYWUnLCAnPG91dGZpbGUubWFlPic=

> <r_epik_Ionization_Penalty>
0.155825

> <r_epik_Ionization_Penalty_Charging>
0

> <r_epik_Ionization_Penalty_Neutral>
0.155825

> <r_epik_State_Penalty>
0.145092

> <r_epik_Charging_Adjusted_Penalty>
0.145092

> <i_epik_Tot_Q>
0

> <i_epik_Tot_abs_Q>
0

> <r_epik_Metal_State_Penalty>
0.171119

> <b_epik_Metal_Only>
0

> <s_lp_Force_Field>
OPLS_2005

> <r_lp_Energy>
11.4398

> <b_lp_Chiralities_Consistent>
1

> <s_lp_Variant>
AV-unprocessed.smi:1417-1

> <Gold.Version>
5.8.1

> <Gold.Id.Protein>
6NUR|6NUR_protein|mol2

> <Gold.PLP.Fitness>
37.5633

> <Gold.PLP.PLP>
-32.3389

> <Gold.PLP.part.hbond>
-2.0000

> <Gold.PLP.part.metal>
0.0000

> <Gold.PLP.part.buried>
-5.6844

> <Gold.PLP.part.nonpolar>
-25.4582

> <Gold.PLP.part.repulsive>
0.5843

> <Gold.PLP.ligand.clash>
0.0000

> <Gold.PLP.ligand.torsion>
0.3946

> <Gold.PLP.Chemscore.Hbond>
2.0000

> <Gold.PLP.Chemscore.CHOScore>
0.0000

> <Gold.PLP.Chemscore.Metal>
0.0000

> <Gold.Chemscore.Hbonds>
donor molecule, donor type, donor heavy atom, donor atom, acceptor molecule, acceptor atom, score
      L1  H     8    26       P1  8028  1.00
      L1  H    15    35       P1  7948  1.00

> <Gold.PLP.Chemscore.Internal.Correction>
0.0136

> <Gold.Rescore>
     Score         DG    S(hbond)    S(metal)    S(lipo)     H(rot)  DE(clash)    DE(int)     intcor
     12.01     -15.45       1.94        0.00      74.13       2.02       0.17       3.27       ----

> <Gold.Chemscore.Fitness>
12.0079

> <Gold.Chemscore.DG>
-15.4473

> <Gold.Chemscore.ZeroCoef>
-5.4800

> <Gold.Chemscore.Hbond>
1.9371

> <Gold.Chemscore.Metal>
0.0000

> <Gold.Chemscore.Lipo>
74.1283

> <Gold.Chemscore.Internal_Hbond>
0.0000

> <Gold.Chemscore.DEClash>
0.1717

> <Gold.Chemscore.DEInternal>
3.2677

> <Gold.Chemscore.Rot>
2.0217

> <Gold.Chemscore.Internal.Correction>
   9.000000E+99

> <Gold.Chemscore.Hbonds>
donor molecule, donor type, donor heavy atom, donor atom, acceptor molecule, acceptor atom, score
      L1  H     5    25       P1  8028  0.03
      L1  H     8    26       P1  8028  0.99
      L1  H    15    35       P1  7948  0.97

> <Gold.Chemscore.Hbond.Weighted>
-6.4698

> <Gold.Chemscore.Metal.Weighted>
-0.0000

> <Gold.Chemscore.Lipo.Weighted>
-8.6730

> <Gold.Chemscore.Internal_Hbond.Weighted>
0.0000

> <Gold.Chemscore.DEClash.Weighted>
0.1717

> <Gold.Chemscore.DEInternal.Weighted>
3.2677

> <Gold.Chemscore.Rot.Weighted>
5.1755

> <Gold.Chemscore.Internal.Correction.Weighted>
   9.000000E+99

> <Gold.Protein.RotatedTorsions>
[ 6907 6896 6895 6894 ] final  -88.85 input  -60.11 | X-H torsion
[ 7974 7965 7964 7962 ] final -165.99 input  175.53 | X-H torsion
[ 8008 7997 7996 7995 ] final -127.13 input   59.86 | X-H torsion
[ 10167 10162 10161 10158 ] final  -44.33 input  -65.29 | X-H torsion
[ 10718 10713 10712 10709 ] final  -97.43 input   66.30 | X-H torsion
[ 10763 10752 10751 10750 ] final  130.94 input  -60.55 | X-H torsion
[ 11005 11000 10999 10996 ] final   26.19 input  -57.11 | X-H torsion

> <Gold.Protein.ActiveResidues>
 VAL166  LYS551  ARG553  GLY616  TRP617  ASP618  TYR619  PRO620  LYS621  CYS622 
 ASP623  PHE694  ASN695  SER759  ASP760  ASP761  ALA762  ILE779  LEU786  VAL792 
 PHE793  MET794  SER795  GLU796  ALA797  LYS798  CYS799  TRP800  GLU811  SER814 

> <Gold.Protein.RotatedAtoms>
  150.6870  134.2677  159.4575 H   0  0  0  0  0  0  0  0  0  0  0  0  # atno 6907 bound_to 6896
  152.0602  134.9596  160.0584 H   0  0  0  0  0  0  0  0  0  0  0  0  # atno 6908 bound_to 6896
  152.1026  133.4223  159.4631 H   0  0  0  0  0  0  0  0  0  0  0  0  # atno 6909 bound_to 6896
  144.7256  140.2732  143.6247 H   0  0  0  0  0  0  0  0  0  0  0  0  # atno 7974 bound_to 7965
  155.2411  140.0428  157.2975 H   0  0  0  0  0  0  0  0  0  0  0  0  # atno 8008 bound_to 7997
  154.5827  140.2405  155.8000 H   0  0  0  0  0  0  0  0  0  0  0  0  # atno 8009 bound_to 7997
  156.2205  140.2971  155.9948 H   0  0  0  0  0  0  0  0  0  0  0  0  # atno 8010 bound_to 7997
  140.6901  143.2935  151.3480 H   0  0  0  0  0  0  0  0  0  0  0  0  # atno 10167 bound_to 10162
  156.0083  130.5194  150.6373 H   0  0  0  0  0  0  0  0  0  0  0  0  # atno 10718 bound_to 10713
  153.7663  135.3188  155.3345 H   0  0  0  0  0  0  0  0  0  0  0  0  # atno 10763 bound_to 10752
  154.8212  135.4602  154.0788 H   0  0  0  0  0  0  0  0  0  0  0  0  # atno 10764 bound_to 10752
  153.2034  135.6926  153.8286 H   0  0  0  0  0  0  0  0  0  0  0  0  # atno 10765 bound_to 10752
  140.3397  134.2347  155.7691 H   0  0  0  0  0  0  0  0  0  0  0  0  # atno 11005 bound_to 11000
  145.8022  139.1969  143.2041 LP  0  0  0  0  0  0  0  0  0  0  0  0  # atno 17320 bound_to 7965
  146.0667  140.7913  142.9708 LP  0  0  0  0  0  0  0  0  0  0  0  0  # atno 17321 bound_to 7965
  139.6295  144.0749  152.2463 LP  0  0  0  0  0  0  0  0  0  0  0  0  # atno 17342 bound_to 10162
  140.0219  144.6146  150.7559 LP  0  0  0  0  0  0  0  0  0  0  0  0  # atno 17343 bound_to 10162
  157.4160  131.0830  151.1176 LP  0  0  0  0  0  0  0  0  0  0  0  0  # atno 17370 bound_to 10713
  157.1793  130.6302  149.5666 LP  0  0  0  0  0  0  0  0  0  0  0  0  # atno 17371 bound_to 10713
  141.2042  133.7893  157.0301 LP  0  0  0  0  0  0  0  0  0  0  0  0  # atno 17394 bound_to 11000
  140.0791  134.9658  157.1595 LP  0  0  0  0  0  0  0  0  0  0  0  0  # atno 17395 bound_to 11000

$$$$
