AV-unprocessed.smi:2945|AV-procd|sdf|11277|dock5
  -GOLD-   2272016173D 1   1.00000     0.00000
 Structure written by MMmdl.
 36 37  0  0  0  0  0  0  0  0  1 V2000
  146.6497  133.9415  162.4515 C   0  0  0  0  0  0  0  0  0  0  0  0
  147.2358  135.0806  161.6898 C   0  0  0  0  0  0  0  0  0  0  0  0
  147.7235  135.1968  160.4186 C   0  0  0  0  0  0  0  0  0  0  0  0
  148.1245  136.5577  160.3531 C   0  0  0  0  0  0  0  0  0  0  0  0
  148.6997  137.0893  159.1711 N   0  0  0  0  0  0  0  0  0  0  0  0
  150.0026  137.1534  158.8490 C   0  0  0  0  0  0  0  0  0  0  0  0
  150.9287  136.7627  159.5602 O   0  0  0  0  0  0  0  0  0  0  0  0
  150.1723  137.7079  157.6395 N   0  0  0  0  0  0  0  0  0  0  0  0
  151.4504  137.9292  156.9594 C   0  0  1  0  0  0  0  0  0  0  0  0
  151.4554  137.1889  155.6066 C   0  0  0  0  0  0  0  0  0  0  0  0
  150.4987  137.8326  154.5880 C   0  0  0  0  0  0  0  0  0  0  0  0
  150.8078  139.3255  154.4016 C   0  0  0  0  0  0  0  0  0  0  0  0
  150.7829  140.0749  155.7436 C   0  0  0  0  0  0  0  0  0  0  0  0
  151.7463  139.4388  156.7673 C   0  0  1  0  0  0  0  0  0  0  0  0
  151.7643  140.2225  158.0907 C   0  0  0  0  0  0  0  0  0  0  0  0
  147.9002  137.2136  161.4811 N   0  0  0  0  0  0  0  0  0  0  0  0
  147.3289  136.2704  162.3436 O   0  0  0  0  0  0  0  0  0  0  0  0
  146.7058  133.0174  161.8759 H   0  0  0  0  0  0  0  0  0  0  0  0
  145.6019  134.1317  162.6849 H   0  0  0  0  0  0  0  0  0  0  0  0
  147.1835  133.7874  163.3894 H   0  0  0  0  0  0  0  0  0  0  0  0
  147.7843  134.4297  159.6611 H   0  0  0  0  0  0  0  0  0  0  0  0
  148.0472  137.4523  158.4924 H   0  0  0  0  0  0  0  0  0  0  0  0
  149.3463  137.9995  157.1382 H   0  0  0  0  0  0  0  0  0  0  0  0
  152.2557  137.5031  157.5604 H   0  0  0  0  0  0  0  0  0  0  0  0
  152.4667  137.1983  155.1983 H   0  0  0  0  0  0  0  0  0  0  0  0
  151.1976  136.1388  155.7499 H   0  0  0  0  0  0  0  0  0  0  0  0
  150.5749  137.3161  153.6310 H   0  0  0  0  0  0  0  0  0  0  0  0
  149.4671  137.7111  154.9201 H   0  0  0  0  0  0  0  0  0  0  0  0
  151.7885  139.4396  153.9380 H   0  0  0  0  0  0  0  0  0  0  0  0
  150.0880  139.7704  153.7139 H   0  0  0  0  0  0  0  0  0  0  0  0
  151.0517  141.1189  155.5795 H   0  0  0  0  0  0  0  0  0  0  0  0
  149.7668  140.0804  156.1400 H   0  0  0  0  0  0  0  0  0  0  0  0
  152.7516  139.5135  156.3497 H   0  0  0  0  0  0  0  0  0  0  0  0
  150.7784  140.2564  158.5548 H   0  0  0  0  0  0  0  0  0  0  0  0
  152.0864  141.2516  157.9302 H   0  0  0  0  0  0  0  0  0  0  0  0
  152.4533  139.7698  158.8041 H   0  0  0  0  0  0  0  0  0  0  0  0
  1  2  1  0  0  0  0
  1 18  1  0  0  0  0
  1 19  1  0  0  0  0
  1 20  1  0  0  0  0
  2 17  1  0  0  0  0
  2  3  2  0  0  0  0
  3  4  1  0  0  0  0
  3 21  1  0  0  0  0
  4  5  1  0  0  0  0
  4 16  2  0  0  0  0
  5  6  1  0  0  0  0
  5 22  1  0  0  0  0
  6  7  2  0  0  0  0
  6  8  1  0  0  0  0
  8  9  1  0  0  0  0
  8 23  1  0  0  0  0
  9 14  1  0  0  0  0
  9 10  1  0  0  0  0
  9 24  1  0  0  0  0
 10 11  1  0  0  0  0
 10 25  1  0  0  0  0
 10 26  1  0  0  0  0
 11 12  1  0  0  0  0
 11 27  1  0  0  0  0
 11 28  1  0  0  0  0
 12 13  1  0  0  0  0
 12 29  1  0  0  0  0
 12 30  1  0  0  0  0
 13 14  1  0  0  0  0
 13 31  1  0  0  0  0
 13 32  1  0  0  0  0
 14 15  1  0  0  0  0
 14 33  1  0  0  0  0
 15 34  1  0  0  0  0
 15 35  1  0  0  0  0
 15 36  1  0  0  0  0
 16 17  1  0  0  0  0
M  END
> <s_m_source_file>
AV-unprocessed.smi

> <i_m_source_file_index>
2945

> <i_lp_mmshare_version>
43012

> <i_f3d_flags>
0

> <s_epik_input>
W0NIM11jMVtjSF1jKG5vMSlbTkhdQyg9TylbTkhdW0NAQEhdMltDSDJdW0NIMl1bQ0gyXVtDSDJdW0NASF0yW0NIM10=

> <s_epik_cmdline>
J2VwaWtfcHl0aG9uJywgJy1waCcsICc3LjAnLCAnLXRuJywgJzgnLCAnLW1hJywgJzIwMCcsICctbWV0YWxfYmluZGluZycsICctaW1hZScsICc8aW5maWxlLm1hZT4nLCAnLW9tYWUnLCAnPG91dGZpbGUubWFlPic=

> <r_lp_tautomer_probability>
1

> <r_epik_Ionization_Penalty>
2.357e-05

> <r_epik_Ionization_Penalty_Charging>
0

> <r_epik_Ionization_Penalty_Neutral>
2.357e-05

> <r_epik_State_Penalty>
-0

> <r_epik_Charging_Adjusted_Penalty>
0

> <i_epik_Tot_Q>
0

> <i_epik_Tot_abs_Q>
0

> <r_epik_Metal_State_Penalty>
-0

> <b_epik_Metal_Only>
0

> <s_lp_Force_Field>
OPLS_2005

> <r_lp_Energy>
7.46694

> <b_lp_Chiralities_Consistent>
1

> <s_lp_Variant>
AV-unprocessed.smi:2945-2

> <Gold.Version>
5.8.1

> <Gold.Id.Protein>
6NUR|6NUR_protein|mol2

> <Gold.PLP.Fitness>
35.2734

> <Gold.PLP.PLP>
-28.6292

> <Gold.PLP.part.hbond>
-3.0000

> <Gold.PLP.part.metal>
0.0000

> <Gold.PLP.part.buried>
-2.6587

> <Gold.PLP.part.nonpolar>
-23.0597

> <Gold.PLP.part.repulsive>
0.2396

> <Gold.PLP.ligand.clash>
0.0000

> <Gold.PLP.ligand.torsion>
0.7613

> <Gold.PLP.Chemscore.Hbond>
2.7200

> <Gold.PLP.Chemscore.CHOScore>
0.0000

> <Gold.PLP.Chemscore.Metal>
0.0000

> <Gold.Chemscore.Hbonds>
donor molecule, donor type, donor heavy atom, donor atom, acceptor molecule, acceptor atom, score
      P1  H  6896  6907       L1     7  1.00
      P1  H  6931  6943       L1    16  1.00
      P1  H  6934  6947       L1    16  0.69

> <Gold.PLP.Chemscore.Internal.Correction>
0.0068

> <Gold.Rescore>
     Score         DG    S(hbond)    S(metal)    S(lipo)     H(rot)  DE(clash)    DE(int)     intcor
     17.05     -17.97       2.41        0.00      59.92       1.00       0.18       0.73       ----

> <Gold.Chemscore.Fitness>
17.0539

> <Gold.Chemscore.DG>
-17.9728

> <Gold.Chemscore.ZeroCoef>
-5.4800

> <Gold.Chemscore.Hbond>
2.4077

> <Gold.Chemscore.Metal>
0.0000

> <Gold.Chemscore.Lipo>
59.9238

> <Gold.Chemscore.Internal_Hbond>
0.0000

> <Gold.Chemscore.DEClash>
0.1844

> <Gold.Chemscore.DEInternal>
0.7346

> <Gold.Chemscore.Rot>
1.0000

> <Gold.Chemscore.Internal.Correction>
   9.000000E+99

> <Gold.Chemscore.Hbonds>
donor molecule, donor type, donor heavy atom, donor atom, acceptor molecule, acceptor atom, score
      P1  H  6896  6907       L1     7  0.90
      P1  H  6931  6943       L1    16  0.88
      P1  H  6934  6947       L1    16  0.35

> <Gold.Chemscore.Hbond.Weighted>
-8.0417

> <Gold.Chemscore.Metal.Weighted>
-0.0000

> <Gold.Chemscore.Lipo.Weighted>
-7.0111

> <Gold.Chemscore.Internal_Hbond.Weighted>
0.0000

> <Gold.Chemscore.DEClash.Weighted>
0.1844

> <Gold.Chemscore.DEInternal.Weighted>
0.7346

> <Gold.Chemscore.Rot.Weighted>
2.5600

> <Gold.Chemscore.Internal.Correction.Weighted>
   9.000000E+99

> <Gold.Protein.RotatedTorsions>
[ 6907 6896 6895 6894 ] final  -35.91 input  -60.11 | X-H torsion
[ 7974 7965 7964 7962 ] final   71.18 input  175.53 | X-H torsion
[ 8008 7997 7996 7995 ] final  -41.84 input   59.86 | X-H torsion
[ 10167 10162 10161 10158 ] final   92.64 input  -65.29 | X-H torsion
[ 10718 10713 10712 10709 ] final   58.44 input   66.30 | X-H torsion
[ 10763 10752 10751 10750 ] final   -4.99 input  -60.55 | X-H torsion
[ 11005 11000 10999 10996 ] final  -78.24 input  -57.11 | X-H torsion

> <Gold.Protein.ActiveResidues>
 VAL166  LYS551  ARG553  GLY616  TRP617  ASP618  TYR619  PRO620  LYS621  CYS622 
 ASP623  PHE694  ASN695  SER759  ASP760  ASP761  ALA762  ILE779  LEU786  VAL792 
 PHE793  MET794  SER795  GLU796  ALA797  LYS798  CYS799  TRP800  GLU811  SER814 

> <Gold.Protein.RotatedAtoms>
  151.0338  134.9558  159.8124 H   0  0  0  0  0  0  0  0  0  0  0  0  # atno 6907 bound_to 6896
  152.5351  134.2746  159.8994 H   0  0  0  0  0  0  0  0  0  0  0  0  # atno 6908 bound_to 6896
  151.2756  133.4191  159.2658 H   0  0  0  0  0  0  0  0  0  0  0  0  # atno 6909 bound_to 6896
  145.7690  139.2835  143.1332 H   0  0  0  0  0  0  0  0  0  0  0  0  # atno 7974 bound_to 7965
  154.4002  140.1489  156.3257 H   0  0  0  0  0  0  0  0  0  0  0  0  # atno 8008 bound_to 7997
  155.8489  140.3458  155.5659 H   0  0  0  0  0  0  0  0  0  0  0  0  # atno 8009 bound_to 7997
  155.8006  140.0869  157.1950 H   0  0  0  0  0  0  0  0  0  0  0  0  # atno 8010 bound_to 7997
  139.8257  144.6710  150.9462 H   0  0  0  0  0  0  0  0  0  0  0  0  # atno 10167 bound_to 10162
  157.5596  130.8826  149.9090 H   0  0  0  0  0  0  0  0  0  0  0  0  # atno 10718 bound_to 10713
  153.3924  135.7002  153.6485 H   0  0  0  0  0  0  0  0  0  0  0  0  # atno 10763 bound_to 10752
  153.5052  135.3643  155.2560 H   0  0  0  0  0  0  0  0  0  0  0  0  # atno 10764 bound_to 10752
  154.8703  135.4121  154.3243 H   0  0  0  0  0  0  0  0  0  0  0  0  # atno 10765 bound_to 10752
  141.1664  133.7055  156.7942 H   0  0  0  0  0  0  0  0  0  0  0  0  # atno 11005 bound_to 11000
  146.0188  140.8367  142.9933 LP  0  0  0  0  0  0  0  0  0  0  0  0  # atno 17320 bound_to 7965
  144.6816  140.2598  143.7320 LP  0  0  0  0  0  0  0  0  0  0  0  0  # atno 17321 bound_to 7965
  140.7810  143.4049  151.1088 LP  0  0  0  0  0  0  0  0  0  0  0  0  # atno 17342 bound_to 10162
  139.7706  143.8500  152.3119 LP  0  0  0  0  0  0  0  0  0  0  0  0  # atno 17343 bound_to 10162
  156.0650  130.3693  150.0898 LP  0  0  0  0  0  0  0  0  0  0  0  0  # atno 17370 bound_to 10713
  156.9063  130.9637  151.3569 LP  0  0  0  0  0  0  0  0  0  0  0  0  # atno 17371 bound_to 10713
  140.2303  134.8691  157.3469 LP  0  0  0  0  0  0  0  0  0  0  0  0  # atno 17394 bound_to 11000
  140.1898  134.4386  155.7722 LP  0  0  0  0  0  0  0  0  0  0  0  0  # atno 17395 bound_to 11000

$$$$
