#       Name:                AV-unprocessed.smi:2456
#       Creating user name   scv26
#       Creation time:       Fri Mar 27 13:34:03 2020


#       File generated by GOLD software.
#

@<TRIPOS>MOLECULE
AV-unprocessed.smi:2456
    39    40     1
SMALL
NO_CHARGES


@<TRIPOS>ATOM
      1 ****        -0.8811  -0.7911   2.6893 C.3            1 S1                 0.0000
      2 ****        -0.4434  -0.5385   1.2366 C.3            1 S1                 0.0000
      3 ****         1.0114  -0.6813   1.1759 N.am           1 S1                 0.0000
      4 ****         1.7197  -0.8963   0.0569 C.2            1 S1                 0.0000
      5 ****         1.2071  -1.0201  -1.0560 O.2            1 S1                 0.0000
      6 ****         3.0374  -0.9521   0.3176 N.am           1 S1                 0.0000
      7 ****         4.1045  -1.1586  -0.5953 C.2            1 S1                 0.0000
      8 ****         3.9473  -1.3453  -1.9111 N.2            1 S1                 0.0000
      9 ****         5.1691  -1.5219  -2.5654 C.2            1 S1                 0.0000
     10 ****         6.2540  -1.4685  -1.7260 C.2            1 S1                 0.0000
     11 ****         5.7816  -1.1898  -0.0710 S.3            1 S1                 0.0000
     12 ****        -0.8662   0.8970   0.8520 C.2            1 S1                 0.0000
     13 ****        -0.1400   1.8425   1.1666 O.2            1 S1                 0.0000
     14 ****        -2.0312   1.0846   0.1951 N.am           1 S1                 0.0000
     15 ****        -2.5125   2.4008  -0.2215 C.3            1 S1                 0.0000
     16 ****        -3.7106   2.1368  -1.1335 C.3            1 S1                 0.0000
     17 ****        -4.2309   0.7814  -0.6776 C.3            1 S1                 0.0000
     18 ****        -2.9803   0.0436  -0.1996 C.3            1 S1                 0.0000
     19 ****        -1.9637  -0.7148   2.7976 H              1 S1                 0.0000
     20 ****        -0.4275  -0.0789   3.3805 H              1 S1                 0.0000
     21 ****        -0.5940  -1.7918   3.0135 H              1 S1                 0.0000
     22 ****        -0.8952  -1.2843   0.5818 H              1 S1                 0.0000
     23 ****         1.5127  -0.5854   2.0467 H              1 S1                 0.0000
     24 ****         3.3099  -0.8283   1.2816 H              1 S1                 0.0000
     25 ****         5.1743  -1.6806  -3.6336 H              1 S1                 0.0000
     26 ****         7.2981  -1.5748  -1.9801 H              1 S1                 0.0000
     27 ****        -2.8200   2.9621   0.6621 H              1 S1                 0.0000
     28 ****        -1.7417   2.9758  -0.7371 H              1 S1                 0.0000
     29 ****        -4.4659   2.9211  -1.0780 H              1 S1                 0.0000
     30 ****        -3.3745   2.0682  -2.1690 H              1 S1                 0.0000
     31 ****        -4.9171   0.9175   0.1594 H              1 S1                 0.0000
     32 ****        -4.7641   0.2460  -1.4636 H              1 S1                 0.0000
     33 ****        -2.5496  -0.5398  -1.0146 H              1 S1                 0.0000
     34 ****        -3.2182  -0.6352   0.6203 H              1 S1                 0.0000
     35 ****         0.2141  -0.9615  -1.1584 LP             1 S1                 0.0000
     36 ****         1.7839  -1.1792  -1.8573 LP             1 S1                 0.0000
     37 ****         3.0598  -1.3570  -2.3718 LP             1 S1                 0.0000
     38 ****         0.7109   1.6753   1.6646 LP             1 S1                 0.0000
     39 ****        -0.4019   2.7765   0.9238 LP             1 S1                 0.0000
@<TRIPOS>BOND
    1    1    2 1     
    2    1   19 1     
    3    1   20 1     
    4    1   21 1     
    5    2    3 1     
    6    2   12 1     
    7    2   22 1     
    8    3    4 am    
    9    3   23 1     
   10    4    5 2     
   11    4    6 am    
   12    6    7 1     
   13    6   24 1     
   14    7   11 1     
   15    7    8 2     
   16    8    9 1     
   17    9   10 2     
   18    9   25 1     
   19   10   11 1     
   20   10   26 1     
   21   12   13 2     
   22   12   14 am    
   23   14   18 1     
   24   14   15 1     
   25   15   16 1     
   26   15   27 1     
   27   15   28 1     
   28   16   17 1     
   29   16   29 1     
   30   16   30 1     
   31   17   18 1     
   32   17   31 1     
   33   17   32 1     
   34   18   33 1     
   35   18   34 1     
   36    5   35 1     
   37    5   36 1     
   38    8   37 1     
   39   13   38 1     
   40   13   39 1     
@<TRIPOS>SUBSTRUCTURE
      1 S1             1
@<TRIPOS>SET
LONE_PAIRS      STATIC     ATOMS    <user>   **** ""
5 35 36 37 38 39
DONOR_HYDROGENS      STATIC     ATOMS    <user>   **** ""
2 23 24
ATOM$BLUE        STATIC     ATOMS    COLORGROUP SYSTEM
5 35 36 37 38 39
ATOM$RED        STATIC     ATOMS    COLORGROUP SYSTEM
2 23 24
