AV-unprocessed.smi:3202|AV-procd|sdf|12246|dock10
  -GOLD-   2272018 83D 1   1.00000     0.00000
 Structure written by MMmdl.
 43 44  0  0  0  0  0  0  0  0  2 V2000
  146.2790  138.6776  152.6954 C   0  0  0  0  0  0  0  0  0  0  0  0
  147.3874  139.2212  153.5479 C   0  0  0  0  0  0  0  0  0  0  0  0
  147.7827  140.5802  153.7176 C   0  0  0  0  0  0  0  0  0  0  0  0
  148.8294  140.5231  154.5967 C   0  0  0  0  0  0  0  0  0  0  0  0
  149.7077  141.5867  155.1781 C   0  0  0  0  0  0  0  0  0  0  0  0
  149.7540  141.6175  156.7218 C   0  0  1  0  0  0  0  0  0  0  0  0
  150.5780  140.4513  157.2920 C   0  0  0  0  0  0  0  0  0  0  0  0
  150.3346  142.8924  157.2043 N   0  3  0  0  0  0  0  0  0  0  0  0
  150.3792  143.0738  158.6752 C   0  0  2  0  0  0  0  0  0  0  0  0
  149.4663  144.1913  159.1953 C   0  0  0  0  0  0  0  0  0  0  0  0
  150.0791  144.6266  160.5322 C   0  0  0  0  0  0  0  0  0  0  0  0
  151.4525  143.9435  160.6220 C   0  0  0  0  0  0  0  0  0  0  0  0
  151.7834  143.4321  159.2074 C   0  0  0  0  0  0  0  0  0  0  0  0
  152.7056  142.1996  159.2630 C   0  0  0  0  0  0  0  0  0  0  0  0
  152.4687  144.5534  158.3920 C   0  0  0  0  0  0  0  0  0  0  0  0
  149.0104  139.1896  154.8852 N   0  0  0  0  0  0  0  0  0  0  0  0
  148.1322  138.3867  154.2568 N   0  0  0  0  0  0  0  0  0  0  0  0
  149.7165  138.8169  155.5041 H   0  0  0  0  0  0  0  0  0  0  0  0
  145.8439  139.4579  152.0705 H   0  0  0  0  0  0  0  0  0  0  0  0
  145.4805  138.2607  153.3094 H   0  0  0  0  0  0  0  0  0  0  0  0
  146.6397  137.8886  152.0347 H   0  0  0  0  0  0  0  0  0  0  0  0
  147.3583  141.4619  153.2604 H   0  0  0  0  0  0  0  0  0  0  0  0
  149.3612  142.5465  154.7978 H   0  0  0  0  0  0  0  0  0  0  0  0
  150.7211  141.4673  154.7920 H   0  0  0  0  0  0  0  0  0  0  0  0
  148.7396  141.5248  157.1122 H   0  0  0  0  0  0  0  0  0  0  0  0
  150.1511  139.4854  157.0217 H   0  0  0  0  0  0  0  0  0  0  0  0
  150.6134  140.4935  158.3812 H   0  0  0  0  0  0  0  0  0  0  0  0
  151.6050  140.4734  156.9255 H   0  0  0  0  0  0  0  0  0  0  0  0
  151.2941  142.9105  156.8895 H   0  0  0  0  0  0  0  0  0  0  0  0
  150.0724  142.1378  159.1463 H   0  0  0  0  0  0  0  0  0  0  0  0
  149.4677  145.0379  158.5075 H   0  0  0  0  0  0  0  0  0  0  0  0
  148.4334  143.8591  159.3068 H   0  0  0  0  0  0  0  0  0  0  0  0
  150.1811  145.7120  160.5644 H   0  0  0  0  0  0  0  0  0  0  0  0
  149.4489  144.3344  161.3728 H   0  0  0  0  0  0  0  0  0  0  0  0
  152.2187  144.6091  161.0214 H   0  0  0  0  0  0  0  0  0  0  0  0
  151.3765  143.1026  161.3132 H   0  0  0  0  0  0  0  0  0  0  0  0
  153.6623  142.4444  159.7257 H   0  0  0  0  0  0  0  0  0  0  0  0
  152.9122  141.8140  158.2641 H   0  0  0  0  0  0  0  0  0  0  0  0
  152.2613  141.3891  159.8416 H   0  0  0  0  0  0  0  0  0  0  0  0
  153.4138  144.8468  158.8503 H   0  0  0  0  0  0  0  0  0  0  0  0
  151.8522  145.4500  158.3257 H   0  0  0  0  0  0  0  0  0  0  0  0
  152.6942  144.2328  157.3748 H   0  0  0  0  0  0  0  0  0  0  0  0
  149.8498  143.6691  156.7781 H   0  0  0  0  0  0  0  0  0  0  0  0
  1 19  1  0  0  0  0
  1 20  1  0  0  0  0
  1 21  1  0  0  0  0
  1  2  1  0  0  0  0
  2 17  2  0  0  0  0
  2  3  1  0  0  0  0
  3  4  2  0  0  0  0
  3 22  1  0  0  0  0
  4 16  1  0  0  0  0
  4  5  1  0  0  0  0
  5  6  1  0  0  0  0
  5 23  1  0  0  0  0
  5 24  1  0  0  0  0
  6  7  1  0  0  0  0
  6  8  1  0  0  0  0
  6 25  1  0  0  0  0
  7 26  1  0  0  0  0
  7 27  1  0  0  0  0
  7 28  1  0  0  0  0
  8  9  1  0  0  0  0
  8 29  1  0  0  0  0
  8 43  1  0  0  0  0
  9 13  1  0  0  0  0
  9 10  1  0  0  0  0
  9 30  1  0  0  0  0
 10 11  1  0  0  0  0
 10 31  1  0  0  0  0
 10 32  1  0  0  0  0
 11 12  1  0  0  0  0
 11 33  1  0  0  0  0
 11 34  1  0  0  0  0
 12 13  1  0  0  0  0
 12 35  1  0  0  0  0
 12 36  1  0  0  0  0
 13 14  1  0  0  0  0
 13 15  1  0  0  0  0
 14 37  1  0  0  0  0
 14 38  1  0  0  0  0
 14 39  1  0  0  0  0
 15 40  1  0  0  0  0
 15 41  1  0  0  0  0
 15 42  1  0  0  0  0
 16 17  1  0  0  0  0
 16 18  1  0  0  0  0
M  CHG  1   8   1
M  END
> <s_m_source_file>
AV-unprocessed.smi

> <i_m_source_file_index>
3202

> <i_lp_mmshare_version>
43012

> <i_f3d_flags>
0

> <s_epik_input>
W0NIM11jMVtjSF1jKG5bbkhdMSlbQ0gyXVtDQEhdKFtDSDNdKVtOSF1bQ0BASF0oQzIoW0NIM10pW0NIM10pW0NIMl1bQ0gyXVtDSDJdMg==

> <s_epik_cmdline>
J2VwaWtfcHl0aG9uJywgJy1waCcsICc3LjAnLCAnLXRuJywgJzgnLCAnLW1hJywgJzIwMCcsICctbWV0YWxfYmluZGluZycsICctaW1hZScsICc8aW5maWxlLm1hZT4nLCAnLW9tYWUnLCAnPG91dGZpbGUubWFlPic=

> <r_lp_tautomer_probability>
0.5

> <r_epik_Ionization_Penalty>
0.000449684

> <r_epik_Ionization_Penalty_Charging>
0.000404963

> <r_epik_Ionization_Penalty_Neutral>
4.47208e-05

> <r_epik_State_Penalty>
0.41068

> <r_epik_Charging_Adjusted_Penalty>
0.411085

> <i_epik_Tot_Q>
1

> <i_epik_Tot_abs_Q>
1

> <r_epik_Metal_State_Penalty>
0.410687

> <b_epik_Metal_Only>
0

> <s_lp_Force_Field>
OPLS_2005

> <r_lp_Energy>
31.7221

> <b_lp_Chiralities_Consistent>
1

> <s_lp_Variant>
AV-unprocessed.smi:3202-6

> <Gold.Version>
5.8.1

> <Gold.Id.Protein>
6NUR|6NUR_protein|mol2

> <Gold.PLP.Fitness>
40.8451

> <Gold.PLP.PLP>
-36.5303

> <Gold.PLP.part.hbond>
-1.0000

> <Gold.PLP.part.metal>
0.0000

> <Gold.PLP.part.buried>
-2.5085

> <Gold.PLP.part.nonpolar>
-32.6771

> <Gold.PLP.part.repulsive>
0.2309

> <Gold.PLP.ligand.clash>
0.0000

> <Gold.PLP.ligand.torsion>
0.8475

> <Gold.PLP.Chemscore.Hbond>
2.0000

> <Gold.PLP.Chemscore.CHOScore>
0.0000

> <Gold.PLP.Chemscore.Metal>
0.0000

> <Gold.Chemscore.Hbonds>
donor molecule, donor type, donor heavy atom, donor atom, acceptor molecule, acceptor atom, score
      L1  H     8    43       P1  8028  2.00

> <Gold.PLP.Chemscore.Internal.Correction>
0.0098

> <Gold.Rescore>
     Score         DG    S(hbond)    S(metal)    S(lipo)     H(rot)  DE(clash)    DE(int)     intcor
     18.30     -19.14       0.97        0.00     121.04       1.46       0.01       0.83       ----

> <Gold.Chemscore.Fitness>
18.3020

> <Gold.Chemscore.DG>
-19.1448

> <Gold.Chemscore.ZeroCoef>
-5.4800

> <Gold.Chemscore.Hbond>
0.9698

> <Gold.Chemscore.Metal>
0.0000

> <Gold.Chemscore.Lipo>
121.0448

> <Gold.Chemscore.Internal_Hbond>
0.0000

> <Gold.Chemscore.DEClash>
0.0081

> <Gold.Chemscore.DEInternal>
0.8346

> <Gold.Chemscore.Rot>
1.4596

> <Gold.Chemscore.Internal.Correction>
   9.000000E+99

> <Gold.Chemscore.Hbonds>
donor molecule, donor type, donor heavy atom, donor atom, acceptor molecule, acceptor atom, score
      L1  H     8    43       P1  8028  1.00

> <Gold.Chemscore.Hbond.Weighted>
-3.2390

> <Gold.Chemscore.Metal.Weighted>
-0.0000

> <Gold.Chemscore.Lipo.Weighted>
-14.1622

> <Gold.Chemscore.Internal_Hbond.Weighted>
0.0000

> <Gold.Chemscore.DEClash.Weighted>
0.0081

> <Gold.Chemscore.DEInternal.Weighted>
0.8346

> <Gold.Chemscore.Rot.Weighted>
3.7365

> <Gold.Chemscore.Internal.Correction.Weighted>
   9.000000E+99

> <Gold.Protein.RotatedTorsions>
[ 6907 6896 6895 6894 ] final  -45.40 input  -60.11 | X-H torsion
[ 7974 7965 7964 7962 ] final  164.76 input  175.53 | X-H torsion
[ 8008 7997 7996 7995 ] final  -13.99 input   59.86 | X-H torsion
[ 10167 10162 10161 10158 ] final  146.83 input  -65.29 | X-H torsion
[ 10718 10713 10712 10709 ] final  179.07 input   66.30 | X-H torsion
[ 10763 10752 10751 10750 ] final   18.15 input  -60.55 | X-H torsion
[ 11005 11000 10999 10996 ] final  110.25 input  -57.11 | X-H torsion

> <Gold.Protein.ActiveResidues>
 VAL166  LYS551  ARG553  GLY616  TRP617  ASP618  TYR619  PRO620  LYS621  CYS622 
 ASP623  PHE694  ASN695  SER759  ASP760  ASP761  ALA762  ILE779  LEU786  VAL792 
 PHE793  MET794  SER795  GLU796  ALA797  LYS798  CYS799  TRP800  GLU811  SER814 

> <Gold.Protein.RotatedAtoms>
  150.9224  134.8641  159.7497 H   0  0  0  0  0  0  0  0  0  0  0  0  # atno 6907 bound_to 6896
  152.4999  134.4199  159.9487 H   0  0  0  0  0  0  0  0  0  0  0  0  # atno 6908 bound_to 6896
  151.4232  133.3652  159.2794 H   0  0  0  0  0  0  0  0  0  0  0  0  # atno 6909 bound_to 6896
  144.7531  139.8372  143.6359 H   0  0  0  0  0  0  0  0  0  0  0  0  # atno 7974 bound_to 7965
  154.5246  140.2235  155.8913 H   0  0  0  0  0  0  0  0  0  0  0  0  # atno 8008 bound_to 7997
  156.1699  140.3124  155.8920 H   0  0  0  0  0  0  0  0  0  0  0  0  # atno 8009 bound_to 7997
  155.3579  140.0459  157.3037 H   0  0  0  0  0  0  0  0  0  0  0  0  # atno 8010 bound_to 7997
  139.4900  144.5800  151.6890 H   0  0  0  0  0  0  0  0  0  0  0  0  # atno 10167 bound_to 10162
  156.8811  130.9816  151.3062 H   0  0  0  0  0  0  0  0  0  0  0  0  # atno 10718 bound_to 10713
  153.1275  135.6733  153.9233 H   0  0  0  0  0  0  0  0  0  0  0  0  # atno 10763 bound_to 10752
  153.8729  135.3067  155.3444 H   0  0  0  0  0  0  0  0  0  0  0  0  # atno 10764 bound_to 10752
  154.7678  135.4955  153.9669 H   0  0  0  0  0  0  0  0  0  0  0  0  # atno 10765 bound_to 10752
  139.8878  134.9479  156.6249 H   0  0  0  0  0  0  0  0  0  0  0  0  # atno 11005 bound_to 11000
  146.1508  139.4590  143.0050 LP  0  0  0  0  0  0  0  0  0  0  0  0  # atno 17320 bound_to 7965
  145.6873  141.0174  143.1574 LP  0  0  0  0  0  0  0  0  0  0  0  0  # atno 17321 bound_to 7965
  140.5404  144.0588  150.6086 LP  0  0  0  0  0  0  0  0  0  0  0  0  # atno 17342 bound_to 10162
  140.3608  143.2909  152.0386 LP  0  0  0  0  0  0  0  0  0  0  0  0  # atno 17343 bound_to 10162
  157.6139  130.8604  149.8997 LP  0  0  0  0  0  0  0  0  0  0  0  0  # atno 17370 bound_to 10713
  156.0676  130.3690  150.0844 LP  0  0  0  0  0  0  0  0  0  0  0  0  # atno 17371 bound_to 10713
  140.7710  133.8738  155.8492 LP  0  0  0  0  0  0  0  0  0  0  0  0  # atno 17394 bound_to 11000
  140.9841  134.1366  157.4467 LP  0  0  0  0  0  0  0  0  0  0  0  0  # atno 17395 bound_to 11000

$$$$
