AV-unprocessed.smi:837|AV-procd|sdf|3899|dock1
  -GOLD-   22720 1353D 1   1.00000     0.00000
 Structure written by MMmdl.
 50 52  0  0  0  0  0  0  0  0  2 V2000
  145.4527  133.9559  154.3808 C   0  0  0  0  0  0  0  0  0  0  0  0
  145.3780  133.6782  152.8637 C   0  0  1  0  0  0  0  0  0  0  0  0
  145.5323  132.1660  152.5915 C   0  0  0  0  0  0  0  0  0  0  0  0
  145.5338  131.8482  151.0879 C   0  0  0  0  0  0  0  0  0  0  0  0
  144.2736  132.3895  150.3991 C   0  0  0  0  0  0  0  0  0  0  0  0
  144.1145  133.8977  150.6495 C   0  0  0  0  0  0  0  0  0  0  0  0
  144.1020  134.2358  152.1597 C   0  0  1  0  0  0  0  0  0  0  0  0
  142.8770  133.7660  152.7858 N   0  0  0  0  0  0  0  0  0  0  0  0
  142.1195  134.7619  153.2613 C   0  0  0  0  0  0  0  0  0  0  0  0
  141.0421  134.6201  153.8383 O   0  0  0  0  0  0  0  0  0  0  0  0
  142.7436  135.9269  153.0091 N   0  0  0  0  0  0  0  0  0  0  0  0
  142.2388  137.2395  153.4308 C   0  0  0  0  0  0  0  0  0  0  0  0
  142.8506  137.7131  154.7564 C   0  0  0  0  0  0  0  0  0  0  0  0
  142.7481  137.0331  155.7782 O   0  0  0  0  0  0  0  0  0  0  0  0
  143.4869  138.8931  154.7220 N   0  0  0  0  0  0  0  0  0  0  0  0
  144.1006  139.5526  155.8711 C   0  0  0  0  0  0  0  0  0  0  0  0
  144.4683  141.0259  155.5968 C   0  0  0  0  0  0  0  0  0  0  0  0
  145.9057  141.2210  155.1443 C   0  0  0  0  0  0  0  0  0  0  0  0
  146.4961  140.3306  154.2196 C   0  0  0  0  0  0  0  0  0  0  0  0
  147.8367  140.5271  153.8289 C   0  0  0  0  0  0  0  0  0  0  0  0
  148.5573  141.6109  154.3706 C   0  0  0  0  0  0  0  0  0  0  0  0
  147.9591  142.4432  155.2510 N   0  3  0  0  0  0  0  0  0  0  0  0
  146.6772  142.2894  155.6501 C   0  0  0  0  0  0  0  0  0  0  0  0
  143.9078  135.7319  152.3746 C   0  0  0  0  0  0  0  0  0  0  0  0
  144.7162  136.5907  152.0215 O   0  0  0  0  0  0  0  0  0  0  0  0
  144.6226  133.4959  154.9172 H   0  0  0  0  0  0  0  0  0  0  0  0
  145.4407  135.0235  154.6003 H   0  0  0  0  0  0  0  0  0  0  0  0
  146.3751  133.5566  154.8027 H   0  0  0  0  0  0  0  0  0  0  0  0
  146.2410  134.1713  152.4126 H   0  0  0  0  0  0  0  0  0  0  0  0
  146.4597  131.8019  153.0349 H   0  0  0  0  0  0  0  0  0  0  0  0
  144.7257  131.6164  153.0785 H   0  0  0  0  0  0  0  0  0  0  0  0
  146.4193  132.2847  150.6243 H   0  0  0  0  0  0  0  0  0  0  0  0
  145.6050  130.7708  150.9363 H   0  0  0  0  0  0  0  0  0  0  0  0
  144.3250  132.1955  149.3274 H   0  0  0  0  0  0  0  0  0  0  0  0
  143.3955  131.8567  150.7659 H   0  0  0  0  0  0  0  0  0  0  0  0
  144.9369  134.4241  150.1621 H   0  0  0  0  0  0  0  0  0  0  0  0
  143.2014  134.2519  150.1684 H   0  0  0  0  0  0  0  0  0  0  0  0
  142.6376  132.7871  152.8484 H   0  0  0  0  0  0  0  0  0  0  0  0
  142.4411  137.9931  152.6683 H   0  0  0  0  0  0  0  0  0  0  0  0
  141.1521  137.1950  153.5241 H   0  0  0  0  0  0  0  0  0  0  0  0
  143.5361  139.3780  153.8375 H   0  0  0  0  0  0  0  0  0  0  0  0
  143.4490  139.4773  156.7431 H   0  0  0  0  0  0  0  0  0  0  0  0
  145.0050  138.9947  156.1149 H   0  0  0  0  0  0  0  0  0  0  0  0
  143.8003  141.4359  154.8381 H   0  0  0  0  0  0  0  0  0  0  0  0
  144.2978  141.6206  156.4950 H   0  0  0  0  0  0  0  0  0  0  0  0
  145.9329  139.4993  153.8202 H   0  0  0  0  0  0  0  0  0  0  0  0
  148.3050  139.8522  153.1271 H   0  0  0  0  0  0  0  0  0  0  0  0
  149.5862  141.8348  154.1288 H   0  0  0  0  0  0  0  0  0  0  0  0
  146.3123  143.0174  156.3602 H   0  0  0  0  0  0  0  0  0  0  0  0
  148.4989  143.2208  155.6320 H   0  0  0  0  0  0  0  0  0  0  0  0
  1  2  1  0  0  0  0
  1 26  1  0  0  0  0
  1 27  1  0  0  0  0
  1 28  1  0  0  0  0
  2  7  1  0  0  0  0
  2  3  1  0  0  0  0
  2 29  1  0  0  0  0
  3  4  1  0  0  0  0
  3 30  1  0  0  0  0
  3 31  1  0  0  0  0
  4  5  1  0  0  0  0
  4 32  1  0  0  0  0
  4 33  1  0  0  0  0
  5  6  1  0  0  0  0
  5 34  1  0  0  0  0
  5 35  1  0  0  0  0
  6  7  1  0  0  0  0
  6 36  1  0  0  0  0
  6 37  1  0  0  0  0
  7 24  1  0  0  0  0
  7  8  1  0  0  0  0
  8  9  1  0  0  0  0
  8 38  1  0  0  0  0
  9 10  2  0  0  0  0
  9 11  1  0  0  0  0
 11 12  1  0  0  0  0
 11 24  1  0  0  0  0
 12 13  1  0  0  0  0
 12 39  1  0  0  0  0
 12 40  1  0  0  0  0
 13 14  2  0  0  0  0
 13 15  1  0  0  0  0
 15 16  1  0  0  0  0
 15 41  1  0  0  0  0
 16 17  1  0  0  0  0
 16 42  1  0  0  0  0
 16 43  1  0  0  0  0
 17 18  1  0  0  0  0
 17 44  1  0  0  0  0
 17 45  1  0  0  0  0
 18 23  1  0  0  0  0
 18 19  2  0  0  0  0
 19 20  1  0  0  0  0
 19 46  1  0  0  0  0
 20 21  2  0  0  0  0
 20 47  1  0  0  0  0
 21 22  1  0  0  0  0
 21 48  1  0  0  0  0
 22 23  2  0  0  0  0
 22 50  1  0  0  0  0
 23 49  1  0  0  0  0
 24 25  2  0  0  0  0
M  CHG  1  22   1
M  END
> <s_m_source_file>
AV-unprocessed.smi

> <i_m_source_file_index>
837

> <i_lp_mmshare_version>
43012

> <i_f3d_flags>
0

> <s_epik_input>
W0NIMl0xW0NIMl1bQ0gyXVtDSDJdW0NAQEhdKFtDSDNdKVtDQEBdMTJbTkhdQyg9TylOKEMyPU8pW0NIMl1DKD1PKVtOSF1bQ0gyXVtDSDJdYzNbY0hdW2NIXVtjSF1uW2NIXTM=

> <s_epik_cmdline>
J2VwaWtfcHl0aG9uJywgJy1waCcsICc3LjAnLCAnLXRuJywgJzgnLCAnLW1hJywgJzIwMCcsICctbWV0YWxfYmluZGluZycsICctaW1hZScsICc8aW5maWxlLm1hZT4nLCAnLW9tYWUnLCAnPG91dGZpbGUubWFlPic=

> <r_lp_tautomer_probability>
1

> <r_epik_Ionization_Penalty>
2.28139

> <r_epik_Ionization_Penalty_Charging>
2.28135

> <r_epik_Ionization_Penalty_Neutral>
4.65525e-05

> <r_epik_State_Penalty>
2.43066

> <r_epik_Charging_Adjusted_Penalty>
4.71201

> <i_epik_Tot_Q>
1

> <i_epik_Tot_abs_Q>
1

> <r_epik_Metal_State_Penalty>
2.4646

> <b_epik_Metal_Only>
0

> <s_lp_Force_Field>
OPLS_2005

> <r_lp_Energy>
30.2127

> <b_lp_Chiralities_Consistent>
1

> <s_lp_Variant>
AV-unprocessed.smi:837-8

> <Gold.Version>
5.8.1

> <Gold.Id.Protein>
6NUR|6NUR_protein|mol2

> <Gold.PLP.Fitness>
47.7683

> <Gold.PLP.PLP>
-36.6367

> <Gold.PLP.part.hbond>
-4.4146

> <Gold.PLP.part.metal>
0.0000

> <Gold.PLP.part.buried>
-6.2624

> <Gold.PLP.part.nonpolar>
-27.4264

> <Gold.PLP.part.repulsive>
0.7376

> <Gold.PLP.ligand.clash>
0.0000

> <Gold.PLP.ligand.torsion>
0.8878

> <Gold.PLP.Chemscore.Hbond>
4.2814

> <Gold.PLP.Chemscore.CHOScore>
0.0000

> <Gold.PLP.Chemscore.Metal>
0.0000

> <Gold.Chemscore.Hbonds>
donor molecule, donor type, donor heavy atom, donor atom, acceptor molecule, acceptor atom, score
      L1  H     8    38       P1 10957  0.26
      L1  H    15    41       P1 10175  1.00
      L1  H    22    50       P1  8028  1.98
      P1  H 11000 11005       L1    10  0.98

> <Gold.PLP.Chemscore.Internal.Correction>
0.0630

> <Gold.Rescore>
     Score         DG    S(hbond)    S(metal)    S(lipo)     H(rot)  DE(clash)    DE(int)     intcor
     17.93     -18.82       3.01        0.00      71.07       1.96       0.04       0.85       ----

> <Gold.Chemscore.Fitness>
17.9342

> <Gold.Chemscore.DG>
-18.8209

> <Gold.Chemscore.ZeroCoef>
-5.4800

> <Gold.Chemscore.Hbond>
3.0101

> <Gold.Chemscore.Metal>
0.0000

> <Gold.Chemscore.Lipo>
71.0657

> <Gold.Chemscore.Internal_Hbond>
0.0000

> <Gold.Chemscore.DEClash>
0.0373

> <Gold.Chemscore.DEInternal>
0.8494

> <Gold.Chemscore.Rot>
1.9638

> <Gold.Chemscore.Internal.Correction>
   9.000000E+99

> <Gold.Chemscore.Hbonds>
donor molecule, donor type, donor heavy atom, donor atom, acceptor molecule, acceptor atom, score
      L1  H     8    38       P1 10957  0.05
      L1  H    15    41       P1 10175  1.00
      L1  H    22    50       P1  8028  0.88
      P1  H 11000 11005       L1    10  0.90

> <Gold.Chemscore.Hbond.Weighted>
-10.0536

> <Gold.Chemscore.Metal.Weighted>
-0.0000

> <Gold.Chemscore.Lipo.Weighted>
-8.3147

> <Gold.Chemscore.Internal_Hbond.Weighted>
0.0000

> <Gold.Chemscore.DEClash.Weighted>
0.0373

> <Gold.Chemscore.DEInternal.Weighted>
0.8494

> <Gold.Chemscore.Rot.Weighted>
5.0274

> <Gold.Chemscore.Internal.Correction.Weighted>
   9.000000E+99

> <Gold.Protein.RotatedTorsions>
[ 6907 6896 6895 6894 ] final -140.42 input  -60.11 | X-H torsion
[ 7974 7965 7964 7962 ] final  114.42 input  175.53 | X-H torsion
[ 8008 7997 7996 7995 ] final   22.56 input   59.86 | X-H torsion
[ 10167 10162 10161 10158 ] final   56.77 input  -65.29 | X-H torsion
[ 10718 10713 10712 10709 ] final  -49.96 input   66.30 | X-H torsion
[ 10763 10752 10751 10750 ] final -152.28 input  -60.55 | X-H torsion
[ 11005 11000 10999 10996 ] final    4.56 input  -57.11 | X-H torsion

> <Gold.Protein.ActiveResidues>
 VAL166  LYS551  ARG553  GLY616  TRP617  ASP618  TYR619  PRO620  LYS621  CYS622 
 ASP623  PHE694  ASN695  SER759  ASP760  ASP761  ALA762  ILE779  LEU786  VAL792 
 PHE793  MET794  SER795  GLU796  ALA797  LYS798  CYS799  TRP800  GLU811  SER814 

> <Gold.Protein.RotatedAtoms>
  151.0605  133.5548  159.2634 H   0  0  0  0  0  0  0  0  0  0  0  0  # atno 6907 bound_to 6896
  151.2525  135.0626  159.9077 H   0  0  0  0  0  0  0  0  0  0  0  0  # atno 6908 bound_to 6896
  152.5397  134.0363  159.8101 H   0  0  0  0  0  0  0  0  0  0  0  0  # atno 6909 bound_to 6896
  145.2046  139.2935  143.4300 H   0  0  0  0  0  0  0  0  0  0  0  0  # atno 7974 bound_to 7965
  154.9676  140.3086  155.5002 H   0  0  0  0  0  0  0  0  0  0  0  0  # atno 8008 bound_to 7997
  156.2970  140.2290  156.4705 H   0  0  0  0  0  0  0  0  0  0  0  0  # atno 8009 bound_to 7997
  154.7907  140.0440  157.1187 H   0  0  0  0  0  0  0  0  0  0  0  0  # atno 8010 bound_to 7997
  140.2051  144.3947  150.6512 H   0  0  0  0  0  0  0  0  0  0  0  0  # atno 10167 bound_to 10162
  156.1845  130.4151  149.9459 H   0  0  0  0  0  0  0  0  0  0  0  0  # atno 10718 bound_to 10713
  154.8004  135.3240  154.7564 H   0  0  0  0  0  0  0  0  0  0  0  0  # atno 10763 bound_to 10752
  153.8233  135.6885  153.4828 H   0  0  0  0  0  0  0  0  0  0  0  0  # atno 10764 bound_to 10752
  153.1718  135.4620  154.9855 H   0  0  0  0  0  0  0  0  0  0  0  0  # atno 10765 bound_to 10752
  140.5805  134.0017  155.8045 H   0  0  0  0  0  0  0  0  0  0  0  0  # atno 11005 bound_to 11000
  146.3410  140.2302  142.8593 LP  0  0  0  0  0  0  0  0  0  0  0  0  # atno 17320 bound_to 7965
  144.9914  140.8551  143.5337 LP  0  0  0  0  0  0  0  0  0  0  0  0  # atno 17321 bound_to 7965
  140.6363  143.2195  151.6388 LP  0  0  0  0  0  0  0  0  0  0  0  0  # atno 17342 bound_to 10162
  139.5202  144.3231  152.0893 LP  0  0  0  0  0  0  0  0  0  0  0  0  # atno 17343 bound_to 10162
  156.7219  130.9010  151.3619 LP  0  0  0  0  0  0  0  0  0  0  0  0  # atno 17370 bound_to 10713
  157.6890  130.9214  150.0462 LP  0  0  0  0  0  0  0  0  0  0  0  0  # atno 17371 bound_to 10713
  141.0999  133.9784  157.3096 LP  0  0  0  0  0  0  0  0  0  0  0  0  # atno 17394 bound_to 11000
  139.9319  135.0199  156.8430 LP  0  0  0  0  0  0  0  0  0  0  0  0  # atno 17395 bound_to 11000

$$$$
