AV-unprocessed.smi:1833|AV-procd|sdf|7468|dock1
  -GOLD-   22720 9163D 1   1.00000     0.00000
 Structure written by MMmdl.
 42 43  0  0  0  0  0  0  0  0  2 V2000
  145.5467  128.9322  152.0695 C   0  0  0  0  0  0  0  0  0  0  0  0
  146.3674  130.2182  151.8942 C   0  0  0  0  0  0  0  0  0  0  0  0
  145.5297  131.4433  151.9453 N   0  3  2  0  0  0  0  0  0  0  0  0
  144.5350  131.4844  150.8413 C   0  0  0  0  0  0  0  0  0  0  0  0
  143.5904  132.6894  150.9827 C   0  0  0  0  0  0  0  0  0  0  0  0
  144.3786  134.0029  151.0558 C   0  0  0  0  0  0  0  0  0  0  0  0
  145.4171  133.9289  152.1854 C   0  0  2  0  0  0  0  0  0  0  0  0
  146.2206  135.1489  152.2037 N   0  0  0  0  0  0  0  0  0  0  0  0
  145.7438  136.4005  152.1377 C   0  0  0  0  0  0  0  0  0  0  0  0
  144.5476  136.6843  152.0750 O   0  0  0  0  0  0  0  0  0  0  0  0
  146.7304  137.3075  152.1376 N   0  0  0  0  0  0  0  0  0  0  0  0
  146.5396  138.7494  152.0311 C   0  0  0  0  0  0  0  0  0  0  0  0
  146.3118  139.3899  153.4099 C   0  0  0  0  0  0  0  0  0  0  0  0
  147.5209  140.1014  153.9171 C   0  0  0  0  0  0  0  0  0  0  0  0
  148.6734  139.4867  154.1985 N   0  0  0  0  0  0  0  0  0  0  0  0
  149.6441  140.3670  154.6824 C   0  0  0  0  0  0  0  0  0  0  0  0
  149.2072  141.6636  154.7795 C   0  0  0  0  0  0  0  0  0  0  0  0
  147.5499  141.8265  154.2663 S   0  0  0  0  0  0  0  0  0  0  0  0
  146.3270  132.6981  152.0075 C   0  0  0  0  0  0  0  0  0  0  0  0
  146.1786  128.0544  151.9319 H   0  0  0  0  0  0  0  0  0  0  0  0
  144.7408  128.8750  151.3373 H   0  0  0  0  0  0  0  0  0  0  0  0
  145.1069  128.8575  153.0635 H   0  0  0  0  0  0  0  0  0  0  0  0
  147.1604  130.2740  152.6415 H   0  0  0  0  0  0  0  0  0  0  0  0
  146.8629  130.1630  150.9239 H   0  0  0  0  0  0  0  0  0  0  0  0
  145.0549  131.5243  149.8826 H   0  0  0  0  0  0  0  0  0  0  0  0
  143.9438  130.5678  150.8433 H   0  0  0  0  0  0  0  0  0  0  0  0
  142.8953  132.7188  150.1430 H   0  0  0  0  0  0  0  0  0  0  0  0
  142.9834  132.5758  151.8820 H   0  0  0  0  0  0  0  0  0  0  0  0
  144.8742  134.1855  150.1009 H   0  0  0  0  0  0  0  0  0  0  0  0
  143.6969  134.8384  151.2206 H   0  0  0  0  0  0  0  0  0  0  0  0
  144.8800  133.8180  153.1295 H   0  0  0  0  0  0  0  0  0  0  0  0
  147.2223  135.0307  152.2502 H   0  0  0  0  0  0  0  0  0  0  0  0
  147.6835  136.9792  152.1946 H   0  0  0  0  0  0  0  0  0  0  0  0
  147.3952  139.2073  151.5320 H   0  0  0  0  0  0  0  0  0  0  0  0
  145.6747  138.9284  151.3918 H   0  0  0  0  0  0  0  0  0  0  0  0
  145.4835  140.0982  153.3635 H   0  0  0  0  0  0  0  0  0  0  0  0
  146.0302  138.6295  154.1392 H   0  0  0  0  0  0  0  0  0  0  0  0
  150.6216  139.9841  154.9359 H   0  0  0  0  0  0  0  0  0  0  0  0
  149.7556  142.5280  155.1233 H   0  0  0  0  0  0  0  0  0  0  0  0
  147.0278  132.6557  152.8409 H   0  0  0  0  0  0  0  0  0  0  0  0
  146.9232  132.7936  151.0982 H   0  0  0  0  0  0  0  0  0  0  0  0
  144.9969  131.3897  152.8019 H   0  0  0  0  0  0  0  0  0  0  0  0
  1  2  1  0  0  0  0
  1 20  1  0  0  0  0
  1 21  1  0  0  0  0
  1 22  1  0  0  0  0
  2  3  1  0  0  0  0
  2 23  1  0  0  0  0
  2 24  1  0  0  0  0
  3 19  1  0  0  0  0
  3  4  1  0  0  0  0
  3 42  1  0  0  0  0
  4  5  1  0  0  0  0
  4 25  1  0  0  0  0
  4 26  1  0  0  0  0
  5  6  1  0  0  0  0
  5 27  1  0  0  0  0
  5 28  1  0  0  0  0
  6  7  1  0  0  0  0
  6 29  1  0  0  0  0
  6 30  1  0  0  0  0
  7  8  1  0  0  0  0
  7 19  1  0  0  0  0
  7 31  1  0  0  0  0
  8  9  1  0  0  0  0
  8 32  1  0  0  0  0
  9 10  2  0  0  0  0
  9 11  1  0  0  0  0
 11 12  1  0  0  0  0
 11 33  1  0  0  0  0
 12 13  1  0  0  0  0
 12 34  1  0  0  0  0
 12 35  1  0  0  0  0
 13 14  1  0  0  0  0
 13 36  1  0  0  0  0
 13 37  1  0  0  0  0
 14 18  1  0  0  0  0
 14 15  2  0  0  0  0
 15 16  1  0  0  0  0
 16 17  2  0  0  0  0
 16 38  1  0  0  0  0
 17 18  1  0  0  0  0
 17 39  1  0  0  0  0
 19 40  1  0  0  0  0
 19 41  1  0  0  0  0
M  CHG  1   3   1
M  END
> <s_m_source_file>
AV-unprocessed.smi

> <i_m_source_file_index>
1833

> <i_lp_mmshare_version>
43012

> <i_f3d_flags>
0

> <s_epik_input>
W0NIM11bQ0gyXU4xW0NIMl1bQ0gyXVtDSDJdW0NASF0oW0NIMl0xKVtOSF1DKD1PKVtOSF1bQ0gyXVtDSDJdYzJuW2NIXVtjSF1zMg==

> <s_epik_cmdline>
J2VwaWtfcHl0aG9uJywgJy1waCcsICc3LjAnLCAnLXRuJywgJzgnLCAnLW1hJywgJzIwMCcsICctbWV0YWxfYmluZGluZycsICctaW1hZScsICc8aW5maWxlLm1hZT4nLCAnLW9tYWUnLCAnPG91dGZpbGUubWFlPic=

> <r_lp_tautomer_probability>
1

> <r_epik_Ionization_Penalty>
0.00269629

> <r_epik_Ionization_Penalty_Charging>
0.00233899

> <r_epik_Ionization_Penalty_Neutral>
0.000357304

> <r_epik_State_Penalty>
-0

> <r_epik_Charging_Adjusted_Penalty>
0.00233899

> <i_epik_Tot_Q>
1

> <i_epik_Tot_abs_Q>
1

> <r_epik_Metal_State_Penalty>
-0

> <b_epik_Metal_Only>
0

> <s_lp_Force_Field>
OPLS_2005

> <r_lp_Energy>
7.34013

> <b_lp_Chiralities_Consistent>
1

> <s_lp_Variant>
AV-unprocessed.smi:1833-4

> <Gold.Version>
5.8.1

> <Gold.Id.Protein>
6NUR|6NUR_protein|mol2

> <Gold.PLP.Fitness>
43.0962

> <Gold.PLP.PLP>
-36.5405

> <Gold.PLP.part.hbond>
-1.8906

> <Gold.PLP.part.metal>
0.0000

> <Gold.PLP.part.buried>
-1.5053

> <Gold.PLP.part.nonpolar>
-34.0039

> <Gold.PLP.part.repulsive>
1.3418

> <Gold.PLP.ligand.clash>
0.0000

> <Gold.PLP.ligand.torsion>
0.6524

> <Gold.PLP.Chemscore.Hbond>
1.6247

> <Gold.PLP.Chemscore.CHOScore>
0.9638

> <Gold.PLP.Chemscore.Metal>
0.0000

> <Gold.Chemscore.Hbonds>
donor molecule, donor type, donor heavy atom, donor atom, acceptor molecule, acceptor atom, score
      L1  H     8    32       P1  7948  0.60
      L1  H    11    33       P1  7948  0.91
      L1  C    17    39       P1  8028  0.95

> <Gold.PLP.Chemscore.Internal.Correction>
0.0949

> <Gold.Rescore>
     Score         DG    S(hbond)    S(metal)    S(lipo)     H(rot)  DE(clash)    DE(int)     intcor
     15.60     -18.16       1.87        0.00      92.36       1.71       0.52       2.04       ----

> <Gold.Chemscore.Fitness>
15.5964

> <Gold.Chemscore.DG>
-18.1568

> <Gold.Chemscore.ZeroCoef>
-5.4800

> <Gold.Chemscore.Hbond>
1.8742

> <Gold.Chemscore.Metal>
0.0000

> <Gold.Chemscore.Lipo>
92.3646

> <Gold.Chemscore.Internal_Hbond>
0.0000

> <Gold.Chemscore.DEClash>
0.5241

> <Gold.Chemscore.DEInternal>
2.0364

> <Gold.Chemscore.Rot>
1.7147

> <Gold.Chemscore.Internal.Correction>
   9.000000E+99

> <Gold.Chemscore.Hbonds>
donor molecule, donor type, donor heavy atom, donor atom, acceptor molecule, acceptor atom, score
      L1  H     8    32       P1  7948  0.57
      L1  H    11    33       P1  7948  0.88

> <Gold.Chemscore.Hbond.Weighted>
-6.2598

> <Gold.Chemscore.Metal.Weighted>
-0.0000

> <Gold.Chemscore.Lipo.Weighted>
-10.8067

> <Gold.Chemscore.Internal_Hbond.Weighted>
0.0000

> <Gold.Chemscore.DEClash.Weighted>
0.5241

> <Gold.Chemscore.DEInternal.Weighted>
2.0364

> <Gold.Chemscore.Rot.Weighted>
4.3896

> <Gold.Chemscore.Internal.Correction.Weighted>
   9.000000E+99

> <Gold.Protein.RotatedTorsions>
[ 6907 6896 6895 6894 ] final -155.40 input  -60.11 | X-H torsion
[ 7974 7965 7964 7962 ] final   48.47 input  175.53 | X-H torsion
[ 8008 7997 7996 7995 ] final  -33.65 input   59.86 | X-H torsion
[ 10167 10162 10161 10158 ] final   -2.30 input  -65.29 | X-H torsion
[ 10718 10713 10712 10709 ] final  137.76 input   66.30 | X-H torsion
[ 10763 10752 10751 10750 ] final   56.46 input  -60.55 | X-H torsion
[ 11005 11000 10999 10996 ] final  -24.31 input  -57.11 | X-H torsion

> <Gold.Protein.ActiveResidues>
 VAL166  LYS551  ARG553  GLY616  TRP617  ASP618  TYR619  PRO620  LYS621  CYS622 
 ASP623  PHE694  ASN695  SER759  ASP760  ASP761  ALA762  ILE779  LEU786  VAL792 
 PHE793  MET794  SER795  GLU796  ALA797  LYS798  CYS799  TRP800  GLU811  SER814 

> <Gold.Protein.RotatedAtoms>
  151.2719  133.4251  159.2621 H   0  0  0  0  0  0  0  0  0  0  0  0  # atno 6907 bound_to 6896
  151.0437  134.9625  159.8185 H   0  0  0  0  0  0  0  0  0  0  0  0  # atno 6908 bound_to 6896
  152.5370  134.2677  159.9012 H   0  0  0  0  0  0  0  0  0  0  0  0  # atno 6909 bound_to 6896
  146.0201  139.4641  142.9902 H   0  0  0  0  0  0  0  0  0  0  0  0  # atno 7974 bound_to 7965
  154.4143  140.1705  156.1923 H   0  0  0  0  0  0  0  0  0  0  0  0  # atno 8008 bound_to 7997
  155.9593  140.3395  155.6453 H   0  0  0  0  0  0  0  0  0  0  0  0  # atno 8009 bound_to 7997
  155.6769  140.0718  157.2490 H   0  0  0  0  0  0  0  0  0  0  0  0  # atno 8010 bound_to 7997
  140.6845  143.6674  150.8214 H   0  0  0  0  0  0  0  0  0  0  0  0  # atno 10167 bound_to 10162
  157.4326  131.1050  151.0233 H   0  0  0  0  0  0  0  0  0  0  0  0  # atno 10718 bound_to 10713
  152.9832  135.5675  154.5232 H   0  0  0  0  0  0  0  0  0  0  0  0  # atno 10763 bound_to 10752
  154.4716  135.2785  155.1640 H   0  0  0  0  0  0  0  0  0  0  0  0  # atno 10764 bound_to 10752
  154.3185  135.6273  153.5550 H   0  0  0  0  0  0  0  0  0  0  0  0  # atno 10765 bound_to 10752
  140.8834  133.7638  156.0330 H   0  0  0  0  0  0  0  0  0  0  0  0  # atno 11005 bound_to 11000
  145.7206  141.0076  143.1404 LP  0  0  0  0  0  0  0  0  0  0  0  0  # atno 17320 bound_to 7965
  144.6986  139.8866  143.7450 LP  0  0  0  0  0  0  0  0  0  0  0  0  # atno 17321 bound_to 7965
  140.0379  143.5376  152.2731 LP  0  0  0  0  0  0  0  0  0  0  0  0  # atno 17342 bound_to 10162
  139.6193  144.7626  151.2776 LP  0  0  0  0  0  0  0  0  0  0  0  0  # atno 17343 bound_to 10162
  157.1124  130.6027  149.5485 LP  0  0  0  0  0  0  0  0  0  0  0  0  # atno 17370 bound_to 10713
  155.9919  130.4975  150.7317 LP  0  0  0  0  0  0  0  0  0  0  0  0  # atno 17371 bound_to 10713
  140.8434  134.3039  157.5304 LP  0  0  0  0  0  0  0  0  0  0  0  0  # atno 17394 bound_to 11000
  139.8722  134.9429  156.3837 LP  0  0  0  0  0  0  0  0  0  0  0  0  # atno 17395 bound_to 11000

$$$$
