#       Name:                AV-unprocessed.smi:3298
#       Creating user name   scv26
#       Creation time:       Fri Mar 27 18:58:09 2020


#       File generated by GOLD software.
#

@<TRIPOS>MOLECULE
AV-unprocessed.smi:3298
    40    41     1
SMALL
NO_CHARGES


@<TRIPOS>ATOM
      1 ****        -5.8115   1.1044   1.2068 C.3            1 S1                 0.0000
      2 ****        -4.4328   1.5339   0.7516 C.ar           1 S1                 0.0000
      3 ****        -3.3044   0.6946   0.8700 C.ar           1 S1                 0.0000
      4 ****        -2.0415   1.1561   0.4373 C.ar           1 S1                 0.0000
      5 ****        -0.9385   0.2685   0.5627 N.am           1 S1                 0.0000
      6 ****         0.3713   0.5657   0.6165 C.2            1 S1                 0.0000
      7 ****         0.8444   1.7020   0.5937 O.2            1 S1                 0.0000
      8 ****         1.1171  -0.5434   0.7176 N.am           1 S1                 0.0000
      9 ****         2.5736  -0.5651   0.7912 C.3            1 S1                 0.0000
     10 ****         3.0581  -1.9371   1.1767 C.2            1 S1                 0.0000
     11 ****         3.8792  -2.4668   0.2729 C.2            1 S1                 0.0000
     12 ****         4.1022  -1.5602  -0.9097 C.3            1 S1                 0.0000
     13 ****         3.7653  -2.2286  -2.2562 C.3            1 S1                 0.0000
     14 ****         2.4240  -2.6749  -2.2988 O.3            1 S1                 0.0000
     15 ****         3.2454  -0.3097  -0.5846 C.3            1 S1                 0.0000
     16 ****        -1.9515   2.4518  -0.1316 C.ar           1 S1                 0.0000
     17 ****        -3.1123   3.2458  -0.2249 C.ar           1 S1                 0.0000
     18 ****        -4.2950   2.7668   0.2164 N.pl3          1 S1                 1.0000
     19 ****         2.9261   0.1499   1.5366 H              1 S1                 0.0000
     20 ****         5.1564  -1.2808  -0.9120 H              1 S1                 0.0000
     21 ****        -5.8223   0.0500   1.4849 H              1 S1                 0.0000
     22 ****        -6.5409   1.2524   0.4099 H              1 S1                 0.0000
     23 ****        -6.1231   1.6890   2.0727 H              1 S1                 0.0000
     24 ****        -3.4064  -0.2932   1.2961 H              1 S1                 0.0000
     25 ****        -1.1758  -0.7056   0.6804 H              1 S1                 0.0000
     26 ****         0.6494  -1.4380   0.7308 H              1 S1                 0.0000
     27 ****         2.7643  -2.4120   2.1012 H              1 S1                 0.0000
     28 ****         4.3491  -3.4360   0.3517 H              1 S1                 0.0000
     29 ****         3.9306  -1.5293  -3.0762 H              1 S1                 0.0000
     30 ****         4.4219  -3.0819  -2.4281 H              1 S1                 0.0000
     31 ****         2.2681  -3.0762  -3.1399 H              1 S1                 0.0000
     32 ****         2.5071  -0.1204  -1.3651 H              1 S1                 0.0000
     33 ****         3.8757   0.5791  -0.5369 H              1 S1                 0.0000
     34 ****        -1.0203   2.8464  -0.5085 H              1 S1                 0.0000
     35 ****        -3.1301   4.2416  -0.6430 H              1 S1                 0.0000
     36 ****        -5.1215   3.3601   0.1376 H              1 S1                 0.0000
     37 ****         0.2382   2.4948   0.5306 LP             1 S1                 0.0000
     38 ****         1.8349   1.8321   0.6383 LP             1 S1                 0.0000
     39 ****         1.8060  -1.8983  -2.1759 LP             1 S1                 0.0000
     40 ****         2.2677  -3.3435  -1.5718 LP             1 S1                 0.0000
@<TRIPOS>BOND
    1    1    2 1     
    2    1   21 1     
    3    1   22 1     
    4    1   23 1     
    5    2   18 ar    
    6    2    3 ar    
    7    3    4 ar    
    8    3   24 1     
    9    4    5 1     
   10    4   16 ar    
   11    5    6 am    
   12    5   25 1     
   13    6    7 2     
   14    6    8 am    
   15    8    9 1     
   16    8   26 1     
   17    9   19 1     
   18    9   15 1     
   19    9   10 1     
   20   10   11 2     
   21   10   27 1     
   22   11   12 1     
   23   11   28 1     
   24   12   20 1     
   25   12   13 1     
   26   12   15 1     
   27   13   14 1     
   28   13   29 1     
   29   13   30 1     
   30   14   31 1     
   31   15   32 1     
   32   15   33 1     
   33   16   17 ar    
   34   16   34 1     
   35   17   18 ar    
   36   17   35 1     
   37   18   36 1     
   38    7   37 1     
   39    7   38 1     
   40   14   39 1     
   41   14   40 1     
@<TRIPOS>SUBSTRUCTURE
      1 S1             1
@<TRIPOS>SET
LONE_PAIRS      STATIC     ATOMS    <user>   **** ""
4 37 38 39 40
DONOR_HYDROGENS      STATIC     ATOMS    <user>   **** ""
4 25 26 31 36
ATOM$BLUE        STATIC     ATOMS    COLORGROUP SYSTEM
4 37 38 39 40
ATOM$RED        STATIC     ATOMS    COLORGROUP SYSTEM
4 25 26 31 36
