#       Name:                AV-unprocessed.smi:203
#       Creating user name   scv26
#       Creation time:       Thu Mar 26 19:48:04 2020


#       File generated by GOLD software.
#

@<TRIPOS>MOLECULE
AV-unprocessed.smi:203
    67    71     1
SMALL
NO_CHARGES


@<TRIPOS>ATOM
      1 ****        -5.0764   2.8228  -3.2919 O.2            1 S1                 0.0000
      2 ****        -4.3066   1.9390  -2.9227 C.2            1 S1                 0.0000
      3 ****        -3.3602   2.0890  -1.7443 C.3            1 S1                 0.0000
      4 ****        -2.8047   0.6643  -1.5402 C.3            1 S1                 0.0000
      5 ****        -3.2917  -0.0395  -0.2336 C.3            1 S1                 0.0000
      6 ****        -4.8332  -0.2138  -0.1835 C.3            1 S1                 0.0000
      7 ****        -5.2862  -0.9083   1.1073 C.3            1 S1                 0.0000
      8 ****        -4.7676  -0.1358   2.3247 C.3            1 S1                 0.0000
      9 ****        -3.2424   0.0142   2.2507 C.3            1 S1                 0.0000
     10 ****        -2.8279   0.6347   0.9925 N.3            1 S1                 0.0000
     11 ****        -1.5161   0.9584   1.0367 C.ar           1 S1                 0.0000
     12 ****        -1.2075   2.2708   1.1760 N.ar           1 S1                 0.0000
     13 ****         0.0722   2.6542   1.2145 C.ar           1 S1                 0.0000
     14 ****         1.1728   1.9020   1.1384 N.ar           1 S1                 0.0000
     15 ****         0.8625   0.5804   1.0053 C.ar           1 S1                 0.0000
     16 ****        -0.4457   0.0242   0.9454 C.ar           1 S1                 0.0000
     17 ****        -0.3691  -1.3565   0.8049 N.2            1 S1                 0.0000
     18 ****         0.9127  -1.6025   0.7838 C.2            1 S1                 0.0000
     19 ****         1.7240  -0.4969   0.8991 N.pl3          1 S1                 0.0000
     20 ****         3.1759  -0.4839   0.9071 C.3            1 S1                 0.0000
     21 ****         3.7715  -0.5981  -0.5123 C.3            1 S1                 0.0000
     22 ****         3.3214   0.4653  -1.3277 O.3            1 S1                 0.0000
     23 ****         5.3132  -0.6338  -0.5536 C.3            1 S1                 0.0000
     24 ****         5.9270  -1.9735  -0.1277 C.3            1 S1                 0.0000
     25 ****         7.2304  -1.5916   0.5619 C.3            1 S1                 0.0000
     26 ****         7.2514  -0.0654   0.5053 C.3            1 S1                 0.0000
     27 ****         5.8863   0.2893   0.3616 O.3            1 S1                 0.0000
     28 ****        -3.1892  -0.0988  -2.8261 C.3            1 S1                 0.0000
     29 ****        -4.1773   0.7368  -3.4802 N.am           1 S1                 0.0000
     30 ****        -2.5640   2.7851  -2.0102 H              1 S1                 0.0000
     31 ****        -3.8741   2.4835  -0.8675 H              1 S1                 0.0000
     32 ****        -1.7155   0.7161  -1.5288 H              1 S1                 0.0000
     33 ****        -2.8593  -1.0408  -0.2255 H              1 S1                 0.0000
     34 ****        -5.3263   0.7563  -0.2480 H              1 S1                 0.0000
     35 ****        -5.1873  -0.7918  -1.0362 H              1 S1                 0.0000
     36 ****        -6.3742  -0.9734   1.1383 H              1 S1                 0.0000
     37 ****        -4.9089  -1.9313   1.1288 H              1 S1                 0.0000
     38 ****        -5.2331   0.8501   2.3627 H              1 S1                 0.0000
     39 ****        -5.0488  -0.6501   3.2439 H              1 S1                 0.0000
     40 ****        -2.8956   0.6139   3.0939 H              1 S1                 0.0000
     41 ****        -2.7732  -0.9663   2.3438 H              1 S1                 0.0000
     42 ****         0.2385   3.7161   1.3201 H              1 S1                 0.0000
     43 ****         1.3055  -2.6037   0.6815 H              1 S1                 0.0000
     44 ****         3.5115   0.4330   1.3930 H              1 S1                 0.0000
     45 ****         3.5164  -1.3077   1.5342 H              1 S1                 0.0000
     46 ****         3.3991  -1.5108  -0.9794 H              1 S1                 0.0000
     47 ****         3.6236   1.2776  -0.9503 H              1 S1                 0.0000
     48 ****         5.6699  -0.3974  -1.5585 H              1 S1                 0.0000
     49 ****         5.2840  -2.5029   0.5756 H              1 S1                 0.0000
     50 ****         6.0871  -2.6304  -0.9832 H              1 S1                 0.0000
     51 ****         7.2172  -1.9342   1.5972 H              1 S1                 0.0000
     52 ****         8.1048  -2.0257   0.0761 H              1 S1                 0.0000
     53 ****         7.6919   0.3834   1.3958 H              1 S1                 0.0000
     54 ****         7.8089   0.2826  -0.3658 H              1 S1                 0.0000
     55 ****        -2.3276  -0.2019  -3.4872 H              1 S1                 0.0000
     56 ****        -3.5772  -1.0995  -2.6356 H              1 S1                 0.0000
     57 ****        -4.7101   0.4244  -4.2790 H              1 S1                 0.0000
     58 ****        -5.6768   2.6674  -4.0764 LP             1 S1                 0.0000
     59 ****        -5.1026   3.6974  -2.8079 LP             1 S1                 0.0000
     60 ****        -3.3279   1.4968   0.9105 LP             1 S1                 0.0000
     61 ****        -1.9365   2.9514   1.2499 LP             1 S1                 0.0000
     62 ****         2.1052   2.2615   1.1744 LP             1 S1                 0.0000
     63 ****        -1.1224  -2.0106   0.7359 LP             1 S1                 0.0000
     64 ****         2.3221   0.4618  -1.3668 LP             1 S1                 0.0000
     65 ****         3.6914   0.3632  -2.2511 LP             1 S1                 0.0000
     66 ****         5.4212   0.2312   1.2450 LP             1 S1                 0.0000
     67 ****         5.8087   1.2202   0.0047 LP             1 S1                 0.0000
@<TRIPOS>BOND
    1    1    2 2     
    2    2   29 am    
    3    2    3 1     
    4    3    4 1     
    5    3   30 1     
    6    3   31 1     
    7    4    5 1     
    8    4   28 1     
    9    4   32 1     
   10    5   10 1     
   11    5    6 1     
   12    5   33 1     
   13    6    7 1     
   14    6   34 1     
   15    6   35 1     
   16    7    8 1     
   17    7   36 1     
   18    7   37 1     
   19    8    9 1     
   20    8   38 1     
   21    8   39 1     
   22    9   10 1     
   23    9   40 1     
   24    9   41 1     
   25   10   11 1     
   26   11   16 ar    
   27   11   12 ar    
   28   12   13 ar    
   29   13   14 ar    
   30   13   42 1     
   31   14   15 ar    
   32   15   19 1     
   33   15   16 ar    
   34   16   17 1     
   35   17   18 2     
   36   18   19 1     
   37   18   43 1     
   38   19   20 1     
   39   20   21 1     
   40   20   44 1     
   41   20   45 1     
   42   21   22 1     
   43   21   23 1     
   44   21   46 1     
   45   22   47 1     
   46   23   27 1     
   47   23   24 1     
   48   23   48 1     
   49   24   25 1     
   50   24   49 1     
   51   24   50 1     
   52   25   26 1     
   53   25   51 1     
   54   25   52 1     
   55   26   27 1     
   56   26   53 1     
   57   26   54 1     
   58   28   29 1     
   59   28   55 1     
   60   28   56 1     
   61   29   57 1     
   62    1   58 1     
   63    1   59 1     
   64   10   60 1     
   65   12   61 1     
   66   14   62 1     
   67   17   63 1     
   68   22   64 1     
   69   22   65 1     
   70   27   66 1     
   71   27   67 1     
@<TRIPOS>SUBSTRUCTURE
      1 S1             1
@<TRIPOS>SET
LONE_PAIRS      STATIC     ATOMS    <user>   **** ""
10 58 59 60 61 62 63 64 65 66 67
DONOR_HYDROGENS      STATIC     ATOMS    <user>   **** ""
2 47 57
ATOM$BLUE        STATIC     ATOMS    COLORGROUP SYSTEM
10 58 59 60 61 62 63 64 65 66 67
ATOM$RED        STATIC     ATOMS    COLORGROUP SYSTEM
2 47 57
