#       Name:                AV-unprocessed.smi:630
#       Creating user name   scv26
#       Creation time:       Fri Mar 27 00:04:34 2020


#       File generated by GOLD software.
#

@<TRIPOS>MOLECULE
AV-unprocessed.smi:630
    42    43     1
SMALL
NO_CHARGES


@<TRIPOS>ATOM
      1 ****         0.8557  -0.6122  -3.0204 N.am           1 S1                 0.0000
      2 ****        -0.1772   0.0024  -2.4377 C.2            1 S1                 0.0000
      3 ****        -0.5409   1.1279  -2.7749 O.2            1 S1                 0.0000
      4 ****        -0.9118  -0.7592  -1.3171 C.3            1 S1                 0.0000
      5 ****        -2.4161  -0.8573  -1.6721 C.3            1 S1                 0.0000
      6 ****        -3.1544  -1.9575  -0.8921 C.3            1 S1                 0.0000
      7 ****        -3.7309  -1.5192   0.4640 C.3            1 S1                 0.0000
      8 ****        -2.8791  -0.5260   1.2718 C.3            1 S1                 0.0000
      9 ****        -1.3655  -0.7933   1.2537 C.3            1 S1                 0.0000
     10 ****        -0.6285  -0.1212   0.0734 C.3            1 S1                 0.0000
     11 ****         0.8102  -0.1720   0.3566 N.am           1 S1                 0.0000
     12 ****         1.6032   0.8524   0.7052 C.2            1 S1                 0.0000
     13 ****         1.1346   1.9858   0.8315 O.2            1 S1                 0.0000
     14 ****         2.8965   0.4975   0.8812 N.pl3          1 S1                -1.0000
     15 ****         3.8104   1.4299   1.1960 C.2            1 S1                 0.0000
     16 ****         4.2321   1.6481   2.4471 N.2            1 S1                 0.0000
     17 ****         5.1868   2.6624   2.5418 C.2            1 S1                 0.0000
     18 ****         5.5075   3.2219   1.3334 C.2            1 S1                 0.0000
     19 ****         4.6135   2.4881   0.0326 S.3            1 S1                 0.0000
     20 ****         1.3823  -0.1347  -3.7370 H              1 S1                 0.0000
     21 ****         1.1250  -1.5380  -2.7212 H              1 S1                 0.0000
     22 ****        -0.5105  -1.7744  -1.3068 H              1 S1                 0.0000
     23 ****        -2.9152   0.1049  -1.5470 H              1 S1                 0.0000
     24 ****        -2.5101  -1.0984  -2.7326 H              1 S1                 0.0000
     25 ****        -3.9786  -2.3321  -1.5000 H              1 S1                 0.0000
     26 ****        -2.4930  -2.8131  -0.7511 H              1 S1                 0.0000
     27 ****        -4.7133  -1.0722   0.3074 H              1 S1                 0.0000
     28 ****        -3.9080  -2.4125   1.0640 H              1 S1                 0.0000
     29 ****        -3.0733   0.4912   0.9299 H              1 S1                 0.0000
     30 ****        -3.2293  -0.5504   2.3044 H              1 S1                 0.0000
     31 ****        -0.9574  -0.3861   2.1802 H              1 S1                 0.0000
     32 ****        -1.1590  -1.8638   1.2872 H              1 S1                 0.0000
     33 ****        -0.9532   0.9201   0.0329 H              1 S1                 0.0000
     34 ****         1.2506  -1.0764   0.2739 H              1 S1                 0.0000
     35 ****         5.5858   2.9208   3.5114 H              1 S1                 0.0000
     36 ****         6.2103   4.0153   1.1294 H              1 S1                 0.0000
     37 ****        -0.0590   1.6110  -3.5059 LP             1 S1                 0.0000
     38 ****        -1.3184   1.5599  -2.3179 LP             1 S1                 0.0000
     39 ****         0.1599   2.1443   0.6740 LP             1 S1                 0.0000
     40 ****         1.7293   2.7466   1.0915 LP             1 S1                 0.0000
     41 ****         3.1719  -0.4582   0.7771 LP             1 S1                 0.0000
     42 ****         3.8963   1.1349   3.2370 LP             1 S1                 0.0000
@<TRIPOS>BOND
    1    1    2 am    
    2    1   20 1     
    3    1   21 1     
    4    2    3 2     
    5    2    4 1     
    6    4   10 1     
    7    4    5 1     
    8    4   22 1     
    9    5    6 1     
   10    5   23 1     
   11    5   24 1     
   12    6    7 1     
   13    6   25 1     
   14    6   26 1     
   15    7    8 1     
   16    7   27 1     
   17    7   28 1     
   18    8    9 1     
   19    8   29 1     
   20    8   30 1     
   21    9   10 1     
   22    9   31 1     
   23    9   32 1     
   24   10   11 1     
   25   10   33 1     
   26   11   12 am    
   27   11   34 1     
   28   12   13 2     
   29   12   14 1     
   30   14   15 1     
   31   15   19 1     
   32   15   16 2     
   33   16   17 1     
   34   17   18 2     
   35   17   35 1     
   36   18   19 1     
   37   18   36 1     
   38    3   37 1     
   39    3   38 1     
   40   13   39 1     
   41   13   40 1     
   42   14   41 1     
   43   16   42 1     
@<TRIPOS>SUBSTRUCTURE
      1 S1             1
@<TRIPOS>SET
LONE_PAIRS      STATIC     ATOMS    <user>   **** ""
6 37 38 39 40 41 42
DONOR_HYDROGENS      STATIC     ATOMS    <user>   **** ""
3 20 21 34
ATOM$BLUE        STATIC     ATOMS    COLORGROUP SYSTEM
6 37 38 39 40 41 42
ATOM$RED        STATIC     ATOMS    COLORGROUP SYSTEM
3 20 21 34
