AV-unprocessed.smi:1756|AV-procd|sdf|7071|dock1
  -GOLD-   22720 8293D 1   1.00000     0.00000
 Structure written by MMmdl.
 38 39  0  0  0  0  0  0  0  0  1 V2000
  150.6043  134.1816  155.6098 O   0  0  0  0  0  0  0  0  0  0  0  0
  150.0591  134.7862  154.6870 C   0  0  0  0  0  0  0  0  0  0  0  0
  150.2783  136.0829  154.4264 N   0  0  0  0  0  0  0  0  0  0  0  0
  151.1597  136.9642  155.1870 C   0  0  0  0  0  0  0  0  0  0  0  0
  150.4840  138.3019  155.5402 C   0  0  2  0  0  0  0  0  0  0  0  0
  150.0498  139.1194  154.3043 C   0  0  0  0  0  0  0  0  0  0  0  0
  149.4894  140.4829  154.7244 C   0  0  0  0  0  0  0  0  0  0  0  0
  150.4942  141.1991  155.6319 C   0  0  0  0  0  0  0  0  0  0  0  0
  150.8972  140.2864  156.7999 C   0  0  0  0  0  0  0  0  0  0  0  0
  151.4238  139.0623  156.2971 O   0  0  0  0  0  0  0  0  0  0  0  0
  149.1951  134.2597  153.7995 N   0  0  0  0  0  0  0  0  0  0  0  0
  148.6855  132.9524  153.7143 C   0  0  0  0  0  0  0  0  0  0  0  0
  149.3461  131.8300  154.1030 C   0  0  0  0  0  0  0  0  0  0  0  0
  148.7535  130.5074  153.9903 C   0  0  0  0  0  0  0  0  0  0  0  0
  149.4797  129.2643  154.4808 C   0  0  0  0  0  0  0  0  0  0  0  0
  148.8780  128.7428  155.5507 F   0  0  0  0  0  0  0  0  0  0  0  0
  149.4940  128.3405  153.5210 F   0  0  0  0  0  0  0  0  0  0  0  0
  150.7419  129.5444  154.8060 F   0  0  0  0  0  0  0  0  0  0  0  0
  147.4993  130.4510  153.5055 C   0  0  0  0  0  0  0  0  0  0  0  0
  146.8140  131.5989  153.1021 N   0  0  0  0  0  0  0  0  0  0  0  0
  147.3188  132.8508  153.1755 C   0  0  0  0  0  0  0  0  0  0  0  0
  146.6470  133.8132  152.8055 O   0  0  0  0  0  0  0  0  0  0  0  0
  145.8803  131.4720  152.7389 H   0  0  0  0  0  0  0  0  0  0  0  0
  149.7950  136.4967  153.6426 H   0  0  0  0  0  0  0  0  0  0  0  0
  151.4233  136.4410  156.1065 H   0  0  0  0  0  0  0  0  0  0  0  0
  152.0992  137.1379  154.6595 H   0  0  0  0  0  0  0  0  0  0  0  0
  149.6144  138.0989  156.1682 H   0  0  0  0  0  0  0  0  0  0  0  0
  150.9039  139.2642  153.6417 H   0  0  0  0  0  0  0  0  0  0  0  0
  149.2968  138.5798  153.7302 H   0  0  0  0  0  0  0  0  0  0  0  0
  149.2679  141.0907  153.8468 H   0  0  0  0  0  0  0  0  0  0  0  0
  148.5476  140.3443  155.2567 H   0  0  0  0  0  0  0  0  0  0  0  0
  151.3813  141.4684  155.0574 H   0  0  0  0  0  0  0  0  0  0  0  0
  150.0688  142.1299  156.0076 H   0  0  0  0  0  0  0  0  0  0  0  0
  151.6581  140.7732  157.4100 H   0  0  0  0  0  0  0  0  0  0  0  0
  150.0453  140.0887  157.4520 H   0  0  0  0  0  0  0  0  0  0  0  0
  148.8824  134.8765  153.0636 H   0  0  0  0  0  0  0  0  0  0  0  0
  150.3370  131.8839  154.5220 H   0  0  0  0  0  0  0  0  0  0  0  0
  146.9304  129.5396  153.3948 H   0  0  0  0  0  0  0  0  0  0  0  0
  1  2  2  0  0  0  0
  2  3  1  0  0  0  0
  2 11  1  0  0  0  0
  3  4  1  0  0  0  0
  3 24  1  0  0  0  0
  4  5  1  0  0  0  0
  4 25  1  0  0  0  0
  4 26  1  0  0  0  0
  5 10  1  0  0  0  0
  5  6  1  0  0  0  0
  5 27  1  0  0  0  0
  6  7  1  0  0  0  0
  6 28  1  0  0  0  0
  6 29  1  0  0  0  0
  7  8  1  0  0  0  0
  7 30  1  0  0  0  0
  7 31  1  0  0  0  0
  8  9  1  0  0  0  0
  8 32  1  0  0  0  0
  8 33  1  0  0  0  0
  9 10  1  0  0  0  0
  9 34  1  0  0  0  0
  9 35  1  0  0  0  0
 11 12  1  0  0  0  0
 11 36  1  0  0  0  0
 12 21  1  0  0  0  0
 12 13  2  0  0  0  0
 13 14  1  0  0  0  0
 13 37  1  0  0  0  0
 14 15  1  0  0  0  0
 14 19  2  0  0  0  0
 15 16  1  0  0  0  0
 15 17  1  0  0  0  0
 15 18  1  0  0  0  0
 19 20  1  0  0  0  0
 19 38  1  0  0  0  0
 20 23  1  0  0  0  0
 20 21  1  0  0  0  0
 21 22  2  0  0  0  0
M  END
> <s_m_source_file>
AV-unprocessed.smi

> <i_m_source_file_index>
1756

> <i_lp_mmshare_version>
43012

> <i_f3d_flags>
0

> <s_epik_input>
Tz1jMVtuSF1bY0hdYyhDKEYpKEYpRilbY0hdYzFbTkhdQyg9TylbTkhdW0NIMl1bQ0BASF0yW0NIMl1bQ0gyXVtDSDJdW0NIMl1PMg==

> <s_epik_cmdline>
J2VwaWtfcHl0aG9uJywgJy1waCcsICc3LjAnLCAnLXRuJywgJzgnLCAnLW1hJywgJzIwMCcsICctbWV0YWxfYmluZGluZycsICctaW1hZScsICc8aW5maWxlLm1hZT4nLCAnLW9tYWUnLCAnPG91dGZpbGUubWFlPic=

> <r_lp_tautomer_probability>
1

> <r_epik_Ionization_Penalty>
0.00380944

> <r_epik_Ionization_Penalty_Charging>
0.00379057

> <r_epik_Ionization_Penalty_Neutral>
1.88732e-05

> <r_epik_State_Penalty>
-0

> <r_epik_Charging_Adjusted_Penalty>
0.00379057

> <i_epik_Tot_Q>
0

> <i_epik_Tot_abs_Q>
0

> <r_epik_Metal_State_Penalty>
0.371099

> <b_epik_Metal_Only>
0

> <s_lp_Force_Field>
OPLS_2005

> <r_lp_Energy>
19.4174

> <b_lp_Chiralities_Consistent>
1

> <s_lp_Variant>
AV-unprocessed.smi:1756-1

> <Gold.Version>
5.8.1

> <Gold.Id.Protein>
6NUR|6NUR_protein|mol2

> <Gold.PLP.Fitness>
38.7253

> <Gold.PLP.PLP>
-33.9600

> <Gold.PLP.part.hbond>
-2.9577

> <Gold.PLP.part.metal>
0.0000

> <Gold.PLP.part.buried>
-1.4345

> <Gold.PLP.part.nonpolar>
-29.5082

> <Gold.PLP.part.repulsive>
0.2366

> <Gold.PLP.ligand.clash>
0.0000

> <Gold.PLP.ligand.torsion>
0.4242

> <Gold.PLP.Chemscore.Hbond>
1.8440

> <Gold.PLP.Chemscore.CHOScore>
0.0000

> <Gold.PLP.Chemscore.Metal>
0.0000

> <Gold.Chemscore.Hbonds>
donor molecule, donor type, donor heavy atom, donor atom, acceptor molecule, acceptor atom, score
      L1  H     3    24       P1  7948  0.94
      L1  H    11    36       P1  7948  0.90

> <Gold.PLP.Chemscore.Internal.Correction>
0.0818

> <Gold.Rescore>
     Score         DG    S(hbond)    S(metal)    S(lipo)     H(rot)  DE(clash)    DE(int)     intcor
     13.12     -13.58       1.36        0.00      59.49       1.33       0.12       0.34       ----

> <Gold.Chemscore.Fitness>
13.1224

> <Gold.Chemscore.DG>
-13.5813

> <Gold.Chemscore.ZeroCoef>
-5.4800

> <Gold.Chemscore.Hbond>
1.3642

> <Gold.Chemscore.Metal>
0.0000

> <Gold.Chemscore.Lipo>
59.4931

> <Gold.Chemscore.Internal_Hbond>
0.0000

> <Gold.Chemscore.DEClash>
0.1221

> <Gold.Chemscore.DEInternal>
0.3368

> <Gold.Chemscore.Rot>
1.3344

> <Gold.Chemscore.Internal.Correction>
   9.000000E+99

> <Gold.Chemscore.Hbonds>
donor molecule, donor type, donor heavy atom, donor atom, acceptor molecule, acceptor atom, score
      L1  H     3    24       P1  7948  0.31
      L1  H    11    36       P1  7948  0.18

> <Gold.Chemscore.Hbond.Weighted>
-4.5566

> <Gold.Chemscore.Metal.Weighted>
-0.0000

> <Gold.Chemscore.Lipo.Weighted>
-6.9607

> <Gold.Chemscore.Internal_Hbond.Weighted>
0.0000

> <Gold.Chemscore.DEClash.Weighted>
0.1221

> <Gold.Chemscore.DEInternal.Weighted>
0.3368

> <Gold.Chemscore.Rot.Weighted>
3.4160

> <Gold.Chemscore.Internal.Correction.Weighted>
   9.000000E+99

> <Gold.Protein.RotatedTorsions>
[ 6907 6896 6895 6894 ] final -130.02 input  -60.11 | X-H torsion
[ 7974 7965 7964 7962 ] final   66.80 input  175.53 | X-H torsion
[ 8008 7997 7996 7995 ] final -170.07 input   59.86 | X-H torsion
[ 10167 10162 10161 10158 ] final -151.15 input  -65.29 | X-H torsion
[ 10718 10713 10712 10709 ] final   70.19 input   66.30 | X-H torsion
[ 10763 10752 10751 10750 ] final   37.78 input  -60.55 | X-H torsion
[ 11005 11000 10999 10996 ] final  171.24 input  -57.11 | X-H torsion

> <Gold.Protein.ActiveResidues>
 VAL166  LYS551  ARG553  GLY616  TRP617  ASP618  TYR619  PRO620  LYS621  CYS622 
 ASP623  PHE694  ASN695  SER759  ASP760  ASP761  ALA762  ILE779  LEU786  VAL792 
 PHE793  MET794  SER795  GLU796  ALA797  LYS798  CYS799  TRP800  GLU811  SER814 

> <Gold.Protein.RotatedAtoms>
  150.9351  133.6721  159.2802 H   0  0  0  0  0  0  0  0  0  0  0  0  # atno 6907 bound_to 6896
  151.4130  135.0986  159.9600 H   0  0  0  0  0  0  0  0  0  0  0  0  # atno 6908 bound_to 6896
  152.5044  133.8820  159.7406 H   0  0  0  0  0  0  0  0  0  0  0  0  # atno 6909 bound_to 6896
  145.8223  139.3092  143.1036 H   0  0  0  0  0  0  0  0  0  0  0  0  # atno 7974 bound_to 7965
  155.9134  140.1061  157.1262 H   0  0  0  0  0  0  0  0  0  0  0  0  # atno 8008 bound_to 7997
  154.4043  140.1270  156.4651 H   0  0  0  0  0  0  0  0  0  0  0  0  # atno 8009 bound_to 7997
  155.7283  140.3469  155.5050 H   0  0  0  0  0  0  0  0  0  0  0  0  # atno 8010 bound_to 7997
  139.7292  143.8835  152.2529 H   0  0  0  0  0  0  0  0  0  0  0  0  # atno 10167 bound_to 10162
  157.6386  130.9464  150.0616 H   0  0  0  0  0  0  0  0  0  0  0  0  # atno 10718 bound_to 10713
  153.0025  135.6268  154.2199 H   0  0  0  0  0  0  0  0  0  0  0  0  # atno 10763 bound_to 10752
  154.1942  135.2807  155.3014 H   0  0  0  0  0  0  0  0  0  0  0  0  # atno 10764 bound_to 10752
  154.5735  135.5669  153.7177 H   0  0  0  0  0  0  0  0  0  0  0  0  # atno 10765 bound_to 10752
  140.3169  134.7470  157.4034 H   0  0  0  0  0  0  0  0  0  0  0  0  # atno 11005 bound_to 11000
  145.9661  140.8797  143.0186 LP  0  0  0  0  0  0  0  0  0  0  0  0  # atno 17320 bound_to 7965
  144.6746  140.1880  143.7399 LP  0  0  0  0  0  0  0  0  0  0  0  0  # atno 17321 bound_to 7965
  139.8753  144.7046  150.8940 LP  0  0  0  0  0  0  0  0  0  0  0  0  # atno 17342 bound_to 10162
  140.7768  143.3705  151.1659 LP  0  0  0  0  0  0  0  0  0  0  0  0  # atno 17343 bound_to 10162
  156.1647  130.3645  149.9249 LP  0  0  0  0  0  0  0  0  0  0  0  0  # atno 17370 bound_to 10713
  156.7238  130.9017  151.3620 LP  0  0  0  0  0  0  0  0  0  0  0  0  # atno 17371 bound_to 10713
  140.0976  134.5516  155.8384 LP  0  0  0  0  0  0  0  0  0  0  0  0  # atno 17394 bound_to 11000
  141.2095  133.6685  156.6447 LP  0  0  0  0  0  0  0  0  0  0  0  0  # atno 17395 bound_to 11000

$$$$
