AV-unprocessed.smi:3259|AV-procd|sdf|12473|dock7
  -GOLD-   2272018373D 1   1.00000     0.00000
 Structure written by MMmdl.
 39 40  0  0  0  0  0  0  0  0  1 V2000
  150.8377  136.5572  155.8296 C   0  0  0  0  0  0  0  0  0  0  0  0
  150.3446  137.6419  156.6063 O   0  0  0  0  0  0  0  0  0  0  0  0
  150.6575  138.9682  156.1588 C   0  0  2  0  0  0  0  0  0  0  0  0
  150.3182  139.1287  154.6715 C   0  0  0  0  0  0  0  0  0  0  0  0
  152.0517  139.3862  156.6645 C   0  0  0  0  0  0  0  0  0  0  0  0
  151.3778  139.7701  157.9803 C   0  0  1  0  0  0  0  0  0  0  0  0
  151.9393  140.9800  158.5680 N   0  0  0  0  0  0  0  0  0  0  0  0
  153.2240  141.1245  158.9267 C   0  0  0  0  0  0  0  0  0  0  0  0
  154.0875  140.2746  158.7113 O   0  0  0  0  0  0  0  0  0  0  0  0
  153.5870  142.4194  159.6559 C   0  0  0  0  0  0  0  0  0  0  0  0
  152.4604  143.3370  159.6889 N   0  0  0  0  0  0  0  0  0  0  0  0
  152.0319  144.1310  160.7327 C   0  0  0  0  0  0  0  0  0  0  0  0
  150.9526  144.8396  160.2887 C   0  0  0  0  0  0  0  0  0  0  0  0
  150.7925  144.4043  158.9436 C   0  0  0  0  0  0  0  0  0  0  0  0
  151.6955  143.5047  158.5877 N   0  0  0  0  0  0  0  0  0  0  0  0
  150.0644  139.9887  157.1848 C   0  0  0  0  0  0  0  0  0  0  0  0
  149.8066  141.4114  156.6495 C   0  0  0  0  0  0  0  0  0  0  0  0
  148.7735  139.5740  157.8992 C   0  0  0  0  0  0  0  0  0  0  0  0
  150.6644  135.6266  156.3698 H   0  0  0  0  0  0  0  0  0  0  0  0
  151.9078  136.6334  155.6389 H   0  0  0  0  0  0  0  0  0  0  0  0
  150.3164  136.4760  154.8759 H   0  0  0  0  0  0  0  0  0  0  0  0
  150.4546  140.1553  154.3331 H   0  0  0  0  0  0  0  0  0  0  0  0
  149.2831  138.8528  154.4691 H   0  0  0  0  0  0  0  0  0  0  0  0
  150.9591  138.5158  154.0384 H   0  0  0  0  0  0  0  0  0  0  0  0
  152.7893  138.5898  156.7557 H   0  0  0  0  0  0  0  0  0  0  0  0
  152.4621  140.2376  156.1184 H   0  0  0  0  0  0  0  0  0  0  0  0
  151.3251  138.9242  158.6697 H   0  0  0  0  0  0  0  0  0  0  0  0
  151.2971  141.7306  158.7759 H   0  0  0  0  0  0  0  0  0  0  0  0
  153.9040  142.2025  160.6773 H   0  0  0  0  0  0  0  0  0  0  0  0
  154.4257  142.9024  159.1530 H   0  0  0  0  0  0  0  0  0  0  0  0
  152.5288  144.1296  161.6917 H   0  0  0  0  0  0  0  0  0  0  0  0
  150.3670  145.5600  160.8404 H   0  0  0  0  0  0  0  0  0  0  0  0
  150.0524  144.7129  158.2201 H   0  0  0  0  0  0  0  0  0  0  0  0
  149.5665  142.1083  157.4534 H   0  0  0  0  0  0  0  0  0  0  0  0
  148.9697  141.4290  155.9508 H   0  0  0  0  0  0  0  0  0  0  0  0
  150.6715  141.8186  156.1255 H   0  0  0  0  0  0  0  0  0  0  0  0
  148.4709  140.3128  158.6421 H   0  0  0  0  0  0  0  0  0  0  0  0
  148.8862  138.6281  158.4293 H   0  0  0  0  0  0  0  0  0  0  0  0
  147.9490  139.4557  157.1955 H   0  0  0  0  0  0  0  0  0  0  0  0
  1  2  1  0  0  0  0
  1 19  1  0  0  0  0
  1 20  1  0  0  0  0
  1 21  1  0  0  0  0
  2  3  1  0  0  0  0
  3 16  1  0  0  0  0
  3  4  1  0  0  0  0
  3  5  1  0  0  0  0
  4 22  1  0  0  0  0
  4 23  1  0  0  0  0
  4 24  1  0  0  0  0
  5  6  1  0  0  0  0
  5 25  1  0  0  0  0
  5 26  1  0  0  0  0
  6  7  1  0  0  0  0
  6 16  1  0  0  0  0
  6 27  1  0  0  0  0
  7  8  1  0  0  0  0
  7 28  1  0  0  0  0
  8  9  2  0  0  0  0
  8 10  1  0  0  0  0
 10 11  1  0  0  0  0
 10 29  1  0  0  0  0
 10 30  1  0  0  0  0
 11 15  1  0  0  0  0
 11 12  1  0  0  0  0
 12 13  2  0  0  0  0
 12 31  1  0  0  0  0
 13 14  1  0  0  0  0
 13 32  1  0  0  0  0
 14 15  2  0  0  0  0
 14 33  1  0  0  0  0
 16 17  1  0  0  0  0
 16 18  1  0  0  0  0
 17 34  1  0  0  0  0
 17 35  1  0  0  0  0
 17 36  1  0  0  0  0
 18 37  1  0  0  0  0
 18 38  1  0  0  0  0
 18 39  1  0  0  0  0
M  END
> <s_m_source_file>
AV-unprocessed.smi

> <i_m_source_file_index>
3259

> <i_lp_mmshare_version>
43012

> <i_f3d_flags>
0

> <s_epik_input>
W0NIM11PW0NAQF0xKFtDSDNdKVtDSDJdW0NASF0oQzEoW0NIM10pW0NIM10pW05IXUMoPU8pW0NIMl1uMltjSF1bY0hdW2NIXW4y

> <s_epik_cmdline>
J2VwaWtfcHl0aG9uJywgJy1waCcsICc3LjAnLCAnLXRuJywgJzgnLCAnLW1hJywgJzIwMCcsICctbWV0YWxfYmluZGluZycsICctaW1hZScsICc8aW5maWxlLm1hZT4nLCAnLW9tYWUnLCAnPG91dGZpbGUubWFlPic=

> <r_lp_tautomer_probability>
1

> <r_epik_Ionization_Penalty>
1.78399e-05

> <r_epik_Ionization_Penalty_Charging>
0

> <r_epik_Ionization_Penalty_Neutral>
1.78399e-05

> <r_epik_State_Penalty>
-0

> <r_epik_Charging_Adjusted_Penalty>
0

> <i_epik_Tot_Q>
0

> <i_epik_Tot_abs_Q>
0

> <r_epik_Metal_State_Penalty>
-0

> <b_epik_Metal_Only>
0

> <s_lp_Force_Field>
OPLS_2005

> <r_lp_Energy>
22.327

> <b_lp_Chiralities_Consistent>
1

> <s_lp_Variant>
AV-unprocessed.smi:3259-2

> <Gold.Version>
5.8.1

> <Gold.Id.Protein>
6NUR|6NUR_protein|mol2

> <Gold.PLP.Fitness>
40.5778

> <Gold.PLP.PLP>
-35.4063

> <Gold.PLP.part.hbond>
-1.0000

> <Gold.PLP.part.metal>
0.0000

> <Gold.PLP.part.buried>
-4.4597

> <Gold.PLP.part.nonpolar>
-29.5368

> <Gold.PLP.part.repulsive>
0.1468

> <Gold.PLP.ligand.clash>
0.0000

> <Gold.PLP.ligand.torsion>
0.5947

> <Gold.PLP.Chemscore.Hbond>
0.9920

> <Gold.PLP.Chemscore.CHOScore>
1.0000

> <Gold.PLP.Chemscore.Metal>
0.0000

> <Gold.Chemscore.Hbonds>
donor molecule, donor type, donor heavy atom, donor atom, acceptor molecule, acceptor atom, score
      P1  H  7997  8010       L1     9  0.86
      L1  C    14    33       P1  8028  0.21
      L1  C    14    33       P1  8029  0.58

> <Gold.PLP.Chemscore.Internal.Correction>
0.3850

> <Gold.Rescore>
     Score         DG    S(hbond)    S(metal)    S(lipo)     H(rot)  DE(clash)    DE(int)     intcor
     11.30     -14.24       0.91        0.00      83.64       1.60       0.07       2.87       ----

> <Gold.Chemscore.Fitness>
11.3013

> <Gold.Chemscore.DG>
-14.2353

> <Gold.Chemscore.ZeroCoef>
-5.4800

> <Gold.Chemscore.Hbond>
0.9147

> <Gold.Chemscore.Metal>
0.0000

> <Gold.Chemscore.Lipo>
83.6436

> <Gold.Chemscore.Internal_Hbond>
0.0000

> <Gold.Chemscore.DEClash>
0.0652

> <Gold.Chemscore.DEInternal>
2.8688

> <Gold.Chemscore.Rot>
1.5962

> <Gold.Chemscore.Internal.Correction>
   9.000000E+99

> <Gold.Chemscore.Hbonds>
donor molecule, donor type, donor heavy atom, donor atom, acceptor molecule, acceptor atom, score
      P1  H  7997  8010       L1     9  0.85

> <Gold.Chemscore.Hbond.Weighted>
-3.0552

> <Gold.Chemscore.Metal.Weighted>
-0.0000

> <Gold.Chemscore.Lipo.Weighted>
-9.7863

> <Gold.Chemscore.Internal_Hbond.Weighted>
0.0000

> <Gold.Chemscore.DEClash.Weighted>
0.0652

> <Gold.Chemscore.DEInternal.Weighted>
2.8688

> <Gold.Chemscore.Rot.Weighted>
4.0862

> <Gold.Chemscore.Internal.Correction.Weighted>
   9.000000E+99

> <Gold.Protein.RotatedTorsions>
[ 6907 6896 6895 6894 ] final   19.85 input  -60.11 | X-H torsion
[ 7974 7965 7964 7962 ] final    2.80 input  175.53 | X-H torsion
[ 8008 7997 7996 7995 ] final   15.46 input   59.86 | X-H torsion
[ 10167 10162 10161 10158 ] final  133.82 input  -65.29 | X-H torsion
[ 10718 10713 10712 10709 ] final   44.71 input   66.30 | X-H torsion
[ 10763 10752 10751 10750 ] final   -7.66 input  -60.55 | X-H torsion
[ 11005 11000 10999 10996 ] final  106.35 input  -57.11 | X-H torsion

> <Gold.Protein.ActiveResidues>
 VAL166  LYS551  ARG553  GLY616  TRP617  ASP618  TYR619  PRO620  LYS621  CYS622 
 ASP623  PHE694  ASN695  SER759  ASP760  ASP761  ALA762  ILE779  LEU786  VAL792 
 PHE793  MET794  SER795  GLU796  ALA797  LYS798  CYS799  TRP800  GLU811  SER814 

> <Gold.Protein.RotatedAtoms>
  151.8873  135.0430  160.0494 H   0  0  0  0  0  0  0  0  0  0  0  0  # atno 6907 bound_to 6896
  152.2464  133.5174  159.5308 H   0  0  0  0  0  0  0  0  0  0  0  0  # atno 6908 bound_to 6896
  150.7070  134.0935  159.3983 H   0  0  0  0  0  0  0  0  0  0  0  0  # atno 6909 bound_to 6896
  146.2444  140.0782  142.8358 H   0  0  0  0  0  0  0  0  0  0  0  0  # atno 7974 bound_to 7965
  154.8629  140.2947  155.5528 H   0  0  0  0  0  0  0  0  0  0  0  0  # atno 8008 bound_to 7997
  156.3020  140.2474  156.3539 H   0  0  0  0  0  0  0  0  0  0  0  0  # atno 8009 bound_to 7997
  154.8899  140.0395  157.1821 H   0  0  0  0  0  0  0  0  0  0  0  0  # atno 8010 bound_to 7997
  139.5281  144.6597  151.5051 H   0  0  0  0  0  0  0  0  0  0  0  0  # atno 10167 bound_to 10162
  157.4297  130.8017  149.7592 H   0  0  0  0  0  0  0  0  0  0  0  0  # atno 10718 bound_to 10713
  153.4295  135.7011  153.6240 H   0  0  0  0  0  0  0  0  0  0  0  0  # atno 10763 bound_to 10752
  153.4661  135.3725  155.2365 H   0  0  0  0  0  0  0  0  0  0  0  0  # atno 10764 bound_to 10752
  154.8725  135.4031  154.3676 H   0  0  0  0  0  0  0  0  0  0  0  0  # atno 10765 bound_to 10752
  139.8813  134.9366  156.5653 H   0  0  0  0  0  0  0  0  0  0  0  0  # atno 11005 bound_to 11000
  145.0756  140.9186  143.4856 LP  0  0  0  0  0  0  0  0  0  0  0  0  # atno 17320 bound_to 7965
  145.0924  139.2880  143.5728 LP  0  0  0  0  0  0  0  0  0  0  0  0  # atno 17321 bound_to 7965
  140.6439  143.8833  150.6718 LP  0  0  0  0  0  0  0  0  0  0  0  0  # atno 17342 bound_to 10162
  140.2176  143.3834  152.1668 LP  0  0  0  0  0  0  0  0  0  0  0  0  # atno 17343 bound_to 10162
  155.9909  130.3941  150.3008 LP  0  0  0  0  0  0  0  0  0  0  0  0  # atno 17370 bound_to 10713
  157.1164  131.0235  151.3027 LP  0  0  0  0  0  0  0  0  0  0  0  0  # atno 17371 bound_to 10713
  140.8139  133.8407  155.8834 LP  0  0  0  0  0  0  0  0  0  0  0  0  # atno 17394 bound_to 11000
  140.9481  134.1814  157.4748 LP  0  0  0  0  0  0  0  0  0  0  0  0  # atno 17395 bound_to 11000

$$$$
