AV-unprocessed.smi:639|AV-procd|sdf|3148|dock2
  -GOLD-   22720 0 73D 1   1.00000     0.00000
 Structure written by MMmdl.
 23 24  0  0  0  0  0  0  0  0  2 V2000
  152.5078  144.6342  157.9963 C   0  0  0  0  0  0  0  0  0  0  0  0
  151.8502  143.3528  157.8568 N   0  0  0  0  0  0  0  0  0  0  0  0
  150.9952  142.9281  156.8635 C   0  0  0  0  0  0  0  0  0  0  0  0
  150.6224  141.6431  157.1537 C   0  0  0  0  0  0  0  0  0  0  0  0
  149.6919  140.7123  156.3954 C   0  0  1  0  0  0  0  0  0  0  0  0
  149.4935  139.3857  157.1543 C   0  0  0  0  0  0  0  0  0  0  0  0
  148.3973  141.3158  156.1114 N   0  5  0  0  0  0  0  0  0  0  0  0
  148.2517  141.4264  154.7695 C   0  0  0  0  0  0  0  0  0  0  0  0
  147.2986  141.8962  154.1521 O   0  0  0  0  0  0  0  0  0  0  0  0
  149.3223  140.9365  154.1373 N   0  0  0  0  0  0  0  0  0  0  0  0
  150.2295  140.4726  154.9913 C   0  0  0  0  0  0  0  0  0  0  0  0
  151.3055  139.9416  154.7166 O   0  0  0  0  0  0  0  0  0  0  0  0
  151.3188  141.3781  158.3705 C   0  0  0  0  0  0  0  0  0  0  0  0
  152.0521  142.3979  158.7861 N   0  0  0  0  0  0  0  0  0  0  0  0
  152.2479  145.2808  157.1576 H   0  0  0  0  0  0  0  0  0  0  0  0
  153.5890  144.4949  158.0149 H   0  0  0  0  0  0  0  0  0  0  0  0
  152.1906  145.1123  158.9236 H   0  0  0  0  0  0  0  0  0  0  0  0
  150.7219  143.5683  156.0376 H   0  0  0  0  0  0  0  0  0  0  0  0
  150.4420  138.8730  157.3187 H   0  0  0  0  0  0  0  0  0  0  0  0
  148.8427  138.7011  156.6082 H   0  0  0  0  0  0  0  0  0  0  0  0
  149.0414  139.5574  158.1319 H   0  0  0  0  0  0  0  0  0  0  0  0
  149.4224  140.9100  153.1337 H   0  0  0  0  0  0  0  0  0  0  0  0
  151.3119  140.4732  158.9600 H   0  0  0  0  0  0  0  0  0  0  0  0
  1  2  1  0  0  0  0
  1 15  1  0  0  0  0
  1 16  1  0  0  0  0
  1 17  1  0  0  0  0
  2 14  1  0  0  0  0
  2  3  1  0  0  0  0
  3  4  2  0  0  0  0
  3 18  1  0  0  0  0
  4  5  1  0  0  0  0
  4 13  1  0  0  0  0
  5 11  1  0  0  0  0
  5  6  1  0  0  0  0
  5  7  1  0  0  0  0
  6 19  1  0  0  0  0
  6 20  1  0  0  0  0
  6 21  1  0  0  0  0
  7  8  1  0  0  0  0
  8  9  2  0  0  0  0
  8 10  1  0  0  0  0
 10 11  1  0  0  0  0
 10 22  1  0  0  0  0
 11 12  2  0  0  0  0
 13 14  2  0  0  0  0
 13 23  1  0  0  0  0
M  CHG  1   7  -1
M  END
> <s_m_source_file>
AV-unprocessed.smi

> <i_m_source_file_index>
639

> <i_lp_mmshare_version>
43012

> <i_f3d_flags>
0

> <s_epik_input>
W0NIM11uMVtjSF1jKFtjSF1uMSlbQ0BAXTIoW0NIM10pW05IXUMoPU8pW05IXUMyPU8=

> <s_epik_cmdline>
J2VwaWtfcHl0aG9uJywgJy1waCcsICc3LjAnLCAnLXRuJywgJzgnLCAnLW1hJywgJzIwMCcsICctbWV0YWxfYmluZGluZycsICctaW1hZScsICc8aW5maWxlLm1hZT4nLCAnLW9tYWUnLCAnPG91dGZpbGUubWFlPic=

> <r_lp_tautomer_probability>
1

> <r_epik_Ionization_Penalty>
4.83415

> <r_epik_Ionization_Penalty_Charging>
4.8337

> <r_epik_Ionization_Penalty_Neutral>
0.000449923

> <r_epik_State_Penalty>
4.85653

> <r_epik_Charging_Adjusted_Penalty>
9.69023

> <i_epik_Tot_Q>
-1

> <i_epik_Tot_abs_Q>
1

> <r_epik_Metal_State_Penalty>
1.31841

> <b_epik_Metal_Only>
1

> <s_lp_Force_Field>
OPLS_2005

> <r_lp_Energy>
8.78459

> <b_lp_Chiralities_Consistent>
1

> <s_lp_Variant>
AV-unprocessed.smi:639-5

> <Gold.Version>
5.8.1

> <Gold.Id.Protein>
6NUR|6NUR_protein|mol2

> <Gold.PLP.Fitness>
30.8980

> <Gold.PLP.PLP>
-23.3786

> <Gold.PLP.part.hbond>
-1.7003

> <Gold.PLP.part.metal>
0.0000

> <Gold.PLP.part.buried>
-2.4315

> <Gold.PLP.part.nonpolar>
-19.6627

> <Gold.PLP.part.repulsive>
0.9909

> <Gold.PLP.ligand.clash>
0.0000

> <Gold.PLP.ligand.torsion>
0.0680

> <Gold.PLP.Chemscore.Hbond>
1.5325

> <Gold.PLP.Chemscore.CHOScore>
1.0000

> <Gold.PLP.Chemscore.Metal>
0.0000

> <Gold.Chemscore.Hbonds>
donor molecule, donor type, donor heavy atom, donor atom, acceptor molecule, acceptor atom, score
      L1  H    10    22       P1  7957  0.68
      P1  H  7989  7998       L1    12  0.80
      L1  C     3    18       P1  8028  1.00

> <Gold.PLP.Chemscore.Internal.Correction>
0.0579

> <Gold.Rescore>
     Score         DG    S(hbond)    S(metal)    S(lipo)     H(rot)  DE(clash)    DE(int)     intcor
     10.56     -11.17       0.96        0.00      43.02       1.00       0.58       0.03       ----

> <Gold.Chemscore.Fitness>
10.5646

> <Gold.Chemscore.DG>
-11.1724

> <Gold.Chemscore.ZeroCoef>
-5.4800

> <Gold.Chemscore.Hbond>
0.9639

> <Gold.Chemscore.Metal>
0.0000

> <Gold.Chemscore.Lipo>
43.0173

> <Gold.Chemscore.Internal_Hbond>
0.0000

> <Gold.Chemscore.DEClash>
0.5771

> <Gold.Chemscore.DEInternal>
0.0307

> <Gold.Chemscore.Rot>
1.0000

> <Gold.Chemscore.Internal.Correction>
   9.000000E+99

> <Gold.Chemscore.Hbonds>
donor molecule, donor type, donor heavy atom, donor atom, acceptor molecule, acceptor atom, score
      L1  H    10    22       P1  7957  0.68
      P1  H  7989  7998       L1    12  0.11

> <Gold.Chemscore.Hbond.Weighted>
-3.2194

> <Gold.Chemscore.Metal.Weighted>
-0.0000

> <Gold.Chemscore.Lipo.Weighted>
-5.0330

> <Gold.Chemscore.Internal_Hbond.Weighted>
0.0000

> <Gold.Chemscore.DEClash.Weighted>
0.5771

> <Gold.Chemscore.DEInternal.Weighted>
0.0307

> <Gold.Chemscore.Rot.Weighted>
2.5600

> <Gold.Chemscore.Internal.Correction.Weighted>
   9.000000E+99

> <Gold.Protein.RotatedTorsions>
[ 6907 6896 6895 6894 ] final   66.03 input  -60.11 | X-H torsion
[ 7974 7965 7964 7962 ] final -139.56 input  175.53 | X-H torsion
[ 8008 7997 7996 7995 ] final -133.56 input   59.86 | X-H torsion
[ 10167 10162 10161 10158 ] final  -64.44 input  -65.29 | X-H torsion
[ 10718 10713 10712 10709 ] final  169.57 input   66.30 | X-H torsion
[ 10763 10752 10751 10750 ] final  121.05 input  -60.55 | X-H torsion
[ 11005 11000 10999 10996 ] final  -64.78 input  -57.11 | X-H torsion

> <Gold.Protein.ActiveResidues>
 VAL166  LYS551  ARG553  GLY616  TRP617  ASP618  TYR619  PRO620  LYS621  CYS622 
 ASP623  PHE694  ASN695  SER759  ASP760  ASP761  ALA762  ILE779  LEU786  VAL792 
 PHE793  MET794  SER795  GLU796  ALA797  LYS798  CYS799  TRP800  GLU811  SER814 

> <Gold.Protein.RotatedAtoms>
  152.4451  134.5511  159.9866 H   0  0  0  0  0  0  0  0  0  0  0  0  # atno 6907 bound_to 6896
  151.5598  133.3399  159.2977 H   0  0  0  0  0  0  0  0  0  0  0  0  # atno 6908 bound_to 6896
  150.8365  134.7674  159.6961 H   0  0  0  0  0  0  0  0  0  0  0  0  # atno 6909 bound_to 6896
  144.8667  140.6304  143.5293 H   0  0  0  0  0  0  0  0  0  0  0  0  # atno 7974 bound_to 7965
  155.3474  140.0475  157.3046 H   0  0  0  0  0  0  0  0  0  0  0  0  # atno 8008 bound_to 7997
  154.5245  140.2236  155.8880 H   0  0  0  0  0  0  0  0  0  0  0  0  # atno 8009 bound_to 7997
  156.1724  140.3092  155.9005 H   0  0  0  0  0  0  0  0  0  0  0  0  # atno 8010 bound_to 7997
  140.5801  143.2326  151.6361 H   0  0  0  0  0  0  0  0  0  0  0  0  # atno 10167 bound_to 10162
  157.0207  131.0231  151.2775 H   0  0  0  0  0  0  0  0  0  0  0  0  # atno 10718 bound_to 10713
  153.6080  135.3436  155.2968 H   0  0  0  0  0  0  0  0  0  0  0  0  # atno 10763 bound_to 10752
  154.8624  135.4243  154.2341 H   0  0  0  0  0  0  0  0  0  0  0  0  # atno 10764 bound_to 10752
  153.3185  135.7036  153.7124 H   0  0  0  0  0  0  0  0  0  0  0  0  # atno 10765 bound_to 10752
  141.1435  133.6671  156.5886 H   0  0  0  0  0  0  0  0  0  0  0  0  # atno 11005 bound_to 11000
  145.4208  139.1564  143.4075 LP  0  0  0  0  0  0  0  0  0  0  0  0  # atno 17320 bound_to 7965
  146.2901  140.4318  142.8743 LP  0  0  0  0  0  0  0  0  0  0  0  0  # atno 17321 bound_to 7965
  139.5164  144.3346  152.0795 LP  0  0  0  0  0  0  0  0  0  0  0  0  # atno 17342 bound_to 10162
  140.2495  144.4184  150.6227 LP  0  0  0  0  0  0  0  0  0  0  0  0  # atno 17343 bound_to 10162
  157.5251  130.8023  149.7853 LP  0  0  0  0  0  0  0  0  0  0  0  0  # atno 17370 bound_to 10713
  156.0103  130.3836  150.2287 LP  0  0  0  0  0  0  0  0  0  0  0  0  # atno 17371 bound_to 10713
  140.3781  134.7547  157.4643 LP  0  0  0  0  0  0  0  0  0  0  0  0  # atno 17394 bound_to 11000
  140.0659  134.5931  155.8696 LP  0  0  0  0  0  0  0  0  0  0  0  0  # atno 17395 bound_to 11000

$$$$
