#       Name:                AV-unprocessed.smi:155
#       Creating user name   scv26
#       Creation time:       Thu Mar 26 18:52:33 2020


#       File generated by GOLD software.
#

@<TRIPOS>MOLECULE
AV-unprocessed.smi:155
    71    74     1
SMALL
NO_CHARGES


@<TRIPOS>ATOM
      1 ****        -5.8145   3.6309  -0.8905 C.3            1 S1                 0.0000
      2 ****        -5.4566   2.2193  -0.9292 N.3            1 S1                 0.0000
      3 ****        -6.2897   1.5100   0.0358 C.3            1 S1                 0.0000
      4 ****        -5.6541   1.7128  -2.2872 C.3            1 S1                 0.0000
      5 ****        -5.0202   0.3204  -2.5317 C.3            1 S1                 0.0000
      6 ****        -3.5368   0.3145  -2.6689 N.4            1 S1                 1.0000
      7 ****        -3.0390   1.1377  -3.7994 C.3            1 S1                 0.0000
      8 ****        -1.5828   0.8206  -4.1762 C.3            1 S1                 0.0000
      9 ****        -0.5615   1.3974  -3.1828 C.3            1 S1                 0.0000
     10 ****        -0.3714   0.5753  -1.9863 N.pl3          1 S1                 0.0000
     11 ****         0.7988   0.6921  -1.3050 C.ar           1 S1                 0.0000
     12 ****         1.4459   1.8879  -1.3146 N.ar           1 S1                 0.0000
     13 ****         2.5958   2.0419  -0.6518 C.ar           1 S1                 0.0000
     14 ****         3.2688   1.1445   0.0698 N.ar           1 S1                 0.0000
     15 ****         2.6334  -0.0614   0.0760 C.ar           1 S1                 0.0000
     16 ****         1.4061  -0.3729  -0.5766 C.ar           1 S1                 0.0000
     17 ****         1.0823  -1.7072  -0.3535 N.2            1 S1                 0.0000
     18 ****         2.0548  -2.1543   0.3930 C.2            1 S1                 0.0000
     19 ****         3.0273  -1.2314   0.7009 N.pl3          1 S1                 0.0000
     20 ****         4.2161  -1.4618   1.5042 C.3            1 S1                 0.0000
     21 ****         3.9025  -1.5503   3.0132 C.3            1 S1                 0.0000
     22 ****         3.2905  -0.3372   3.4078 O.3            1 S1                 0.0000
     23 ****         5.1600  -1.7474   3.8841 C.3            1 S1                 0.0000
     24 ****         6.0721  -2.8956   3.4487 C.3            1 S1                 0.0000
     25 ****         6.8335  -3.2394   4.7168 C.3            1 S1                 0.0000
     26 ****         5.9451  -2.6890   5.8350 C.3            1 S1                 0.0000
     27 ****         4.7868  -2.1842   5.1831 O.3            1 S1                 0.0000
     28 ****        -1.4615  -0.1830  -1.3707 C.3            1 S1                 0.0000
     29 ****        -2.8140   0.5462  -1.3932 C.3            1 S1                 0.0000
     30 ****        -5.1898   4.2052  -1.5755 H              1 S1                 0.0000
     31 ****        -5.6643   4.0389   0.1097 H              1 S1                 0.0000
     32 ****        -6.8581   3.7853  -1.1692 H              1 S1                 0.0000
     33 ****        -6.0256   0.4551   0.0956 H              1 S1                 0.0000
     34 ****        -7.3475   1.5843  -0.2209 H              1 S1                 0.0000
     35 ****        -6.1544   1.9291   1.0336 H              1 S1                 0.0000
     36 ****        -6.7256   1.6602  -2.4862 H              1 S1                 0.0000
     37 ****        -5.2605   2.4272  -3.0099 H              1 S1                 0.0000
     38 ****        -5.3244  -0.4027  -1.7758 H              1 S1                 0.0000
     39 ****        -5.4256  -0.0708  -3.4655 H              1 S1                 0.0000
     40 ****        -3.6657   0.9424  -4.6706 H              1 S1                 0.0000
     41 ****        -3.1407   2.1999  -3.5748 H              1 S1                 0.0000
     42 ****        -1.4330  -0.2502  -4.3219 H              1 S1                 0.0000
     43 ****        -1.3909   1.2802  -5.1463 H              1 S1                 0.0000
     44 ****         0.3967   1.4733  -3.6992 H              1 S1                 0.0000
     45 ****        -0.8371   2.4123  -2.8933 H              1 S1                 0.0000
     46 ****         3.0402   3.0248  -0.7078 H              1 S1                 0.0000
     47 ****         2.0909  -3.1762   0.7420 H              1 S1                 0.0000
     48 ****         4.6759  -2.3853   1.1520 H              1 S1                 0.0000
     49 ****         4.9347  -0.6643   1.3105 H              1 S1                 0.0000
     50 ****         3.2039  -2.3699   3.1878 H              1 S1                 0.0000
     51 ****         2.5096  -0.2124   2.8906 H              1 S1                 0.0000
     52 ****         5.7397  -0.8244   3.9543 H              1 S1                 0.0000
     53 ****         5.4740  -3.7539   3.1385 H              1 S1                 0.0000
     54 ****         6.7311  -2.6255   2.6230 H              1 S1                 0.0000
     55 ****         6.9962  -4.3139   4.8073 H              1 S1                 0.0000
     56 ****         7.8071  -2.7483   4.7319 H              1 S1                 0.0000
     57 ****         5.6723  -3.4521   6.5642 H              1 S1                 0.0000
     58 ****         6.4485  -1.8776   6.3622 H              1 S1                 0.0000
     59 ****        -1.5388  -1.1648  -1.8393 H              1 S1                 0.0000
     60 ****        -1.2201  -0.3640  -0.3228 H              1 S1                 0.0000
     61 ****        -2.7063   1.6102  -1.1768 H              1 S1                 0.0000
     62 ****        -3.4124   0.1299  -0.5820 H              1 S1                 0.0000
     63 ****        -3.3208  -0.6402  -2.9178 H              1 S1                 0.0000
     64 ****        -4.4962   2.0816  -0.6867 LP             1 S1                 0.0000
     65 ****         1.0584   2.6579  -1.8215 LP             1 S1                 0.0000
     66 ****         4.1285   1.3322   0.5449 LP             1 S1                 0.0000
     67 ****         0.2854  -2.2096  -0.6889 LP             1 S1                 0.0000
     68 ****         3.9211   0.4238   3.2553 LP             1 S1                 0.0000
     69 ****         3.0494  -0.3810   4.3773 LP             1 S1                 0.0000
     70 ****         4.0976  -2.9052   5.1123 LP             1 S1                 0.0000
     71 ****         4.4136  -1.4163   5.7037 LP             1 S1                 0.0000
@<TRIPOS>BOND
    1    1    2 1     
    2    1   30 1     
    3    1   31 1     
    4    1   32 1     
    5    2    3 1     
    6    2    4 1     
    7    3   33 1     
    8    3   34 1     
    9    3   35 1     
   10    4    5 1     
   11    4   36 1     
   12    4   37 1     
   13    5    6 1     
   14    5   38 1     
   15    5   39 1     
   16    6   29 1     
   17    6    7 1     
   18    6   63 1     
   19    7    8 1     
   20    7   40 1     
   21    7   41 1     
   22    8    9 1     
   23    8   42 1     
   24    8   43 1     
   25    9   10 1     
   26    9   44 1     
   27    9   45 1     
   28   10   11 1     
   29   10   28 1     
   30   11   16 ar    
   31   11   12 ar    
   32   12   13 ar    
   33   13   14 ar    
   34   13   46 1     
   35   14   15 ar    
   36   15   19 1     
   37   15   16 ar    
   38   16   17 1     
   39   17   18 2     
   40   18   19 1     
   41   18   47 1     
   42   19   20 1     
   43   20   21 1     
   44   20   48 1     
   45   20   49 1     
   46   21   22 1     
   47   21   23 1     
   48   21   50 1     
   49   22   51 1     
   50   23   27 1     
   51   23   24 1     
   52   23   52 1     
   53   24   25 1     
   54   24   53 1     
   55   24   54 1     
   56   25   26 1     
   57   25   55 1     
   58   25   56 1     
   59   26   27 1     
   60   26   57 1     
   61   26   58 1     
   62   28   29 1     
   63   28   59 1     
   64   28   60 1     
   65   29   61 1     
   66   29   62 1     
   67    2   64 1     
   68   12   65 1     
   69   14   66 1     
   70   17   67 1     
   71   22   68 1     
   72   22   69 1     
   73   27   70 1     
   74   27   71 1     
@<TRIPOS>SUBSTRUCTURE
      1 S1             1
@<TRIPOS>SET
LONE_PAIRS      STATIC     ATOMS    <user>   **** ""
8 64 65 66 67 68 69 70 71
DONOR_HYDROGENS      STATIC     ATOMS    <user>   **** ""
2 63 51
ATOM$BLUE        STATIC     ATOMS    COLORGROUP SYSTEM
8 64 65 66 67 68 69 70 71
ATOM$RED        STATIC     ATOMS    COLORGROUP SYSTEM
2 63 51
