#       Name:                AV-unprocessed.smi:496
#       Creating user name   scv26
#       Creation time:       Thu Mar 26 23:16:28 2020


#       File generated by GOLD software.
#

@<TRIPOS>MOLECULE
AV-unprocessed.smi:496
    49    51     1
SMALL
NO_CHARGES


@<TRIPOS>ATOM
      1 ****        -0.9639   4.5218  -1.8698 C.3            1 S1                 0.0000
      2 ****        -0.9111   3.1113  -1.9828 O.3            1 S1                 0.0000
      3 ****        -1.7819   2.4595  -1.0720 C.3            1 S1                 0.0000
      4 ****        -1.6337   0.9367  -1.2120 C.3            1 S1                 0.0000
      5 ****        -0.2510   0.4905  -1.0191 N.pl3          1 S1                 0.0000
      6 ****         0.4453   0.2253   0.1298 C.2            1 S1                 0.0000
      7 ****        -0.1279   0.3495   1.5318 C.3            1 S1                 0.0000
      8 ****         0.6160   1.4120   2.3542 C.3            1 S1                 0.0000
      9 ****        -0.1099  -0.9244   2.2541 N.pl3          1 S1                -1.0000
     10 ****        -0.9821  -1.9456   2.0196 C.2            1 S1                 0.0000
     11 ****        -1.9259  -2.0114   1.2242 O.2            1 S1                 0.0000
     12 ****        -0.7307  -3.1043   2.9063 C.2            1 S1                 0.0000
     13 ****         0.3538  -3.4567   3.6692 C.2            1 S1                 0.0000
     14 ****         0.0347  -4.6954   4.2908 C.2            1 S1                 0.0000
     15 ****        -1.2179  -5.0199   3.8566 C.2            1 S1                 0.0000
     16 ****        -1.6936  -4.0678   3.0089 O.3            1 S1                 0.0000
     17 ****         1.7048  -0.1853  -0.0549 N.2            1 S1                 0.0000
     18 ****         1.8469  -0.1708  -1.4262 C.ar           1 S1                 0.0000
     19 ****         2.9590  -0.4951  -2.2359 C.ar           1 S1                 0.0000
     20 ****         2.8722  -0.3988  -3.6399 C.ar           1 S1                 0.0000
     21 ****         1.6744   0.0227  -4.2520 C.ar           1 S1                 0.0000
     22 ****         0.5550   0.3487  -3.4621 C.ar           1 S1                 0.0000
     23 ****         0.6457   0.2499  -2.0597 C.ar           1 S1                 0.0000
     24 ****        -0.2801   4.9722  -2.5891 H              1 S1                 0.0000
     25 ****        -0.6659   4.8484  -0.8727 H              1 S1                 0.0000
     26 ****        -1.9669   4.8967  -2.0769 H              1 S1                 0.0000
     27 ****        -1.5503   2.7668  -0.0514 H              1 S1                 0.0000
     28 ****        -2.8144   2.7497  -1.2709 H              1 S1                 0.0000
     29 ****        -2.2942   0.4146  -0.5194 H              1 S1                 0.0000
     30 ****        -1.9612   0.6308  -2.2054 H              1 S1                 0.0000
     31 ****        -1.1513   0.7135   1.4426 H              1 S1                 0.0000
     32 ****         0.5796   2.3819   1.8574 H              1 S1                 0.0000
     33 ****         1.6655   1.1502   2.4941 H              1 S1                 0.0000
     34 ****         0.1688   1.5317   3.3415 H              1 S1                 0.0000
     35 ****         1.2675  -2.8889   3.7679 H              1 S1                 0.0000
     36 ****         0.6455  -5.2759   4.9661 H              1 S1                 0.0000
     37 ****        -1.8844  -5.8499   4.0388 H              1 S1                 0.0000
     38 ****         3.8801  -0.8174  -1.7737 H              1 S1                 0.0000
     39 ****         3.7283  -0.6481  -4.2493 H              1 S1                 0.0000
     40 ****         1.6149   0.0960  -5.3279 H              1 S1                 0.0000
     41 ****        -0.3617   0.6745  -3.9301 H              1 S1                 0.0000
     42 ****         0.0253   2.8101  -1.8024 LP             1 S1                 0.0000
     43 ****        -1.1703   2.8544  -2.9138 LP             1 S1                 0.0000
     44 ****         0.5844  -1.0530   2.9623 LP             1 S1                 0.0000
     45 ****        -2.1367  -1.2329   0.6330 LP             1 S1                 0.0000
     46 ****        -2.4785  -2.8431   1.1718 LP             1 S1                 0.0000
     47 ****        -1.8754  -4.4681   2.1107 LP             1 S1                 0.0000
     48 ****        -2.5363  -3.6729   3.3747 LP             1 S1                 0.0000
     49 ****         2.3811  -0.4413   0.6358 LP             1 S1                 0.0000
@<TRIPOS>BOND
    1    1    2 1     
    2    1   24 1     
    3    1   25 1     
    4    1   26 1     
    5    2    3 1     
    6    3    4 1     
    7    3   27 1     
    8    3   28 1     
    9    4    5 1     
   10    4   29 1     
   11    4   30 1     
   12    5   23 1     
   13    5    6 1     
   14    6    7 1     
   15    6   17 2     
   16    7    8 1     
   17    7    9 1     
   18    7   31 1     
   19    8   32 1     
   20    8   33 1     
   21    8   34 1     
   22    9   10 1     
   23   10   11 2     
   24   10   12 1     
   25   12   16 1     
   26   12   13 2     
   27   13   14 1     
   28   13   35 1     
   29   14   15 2     
   30   14   36 1     
   31   15   16 1     
   32   15   37 1     
   33   17   18 1     
   34   18   23 ar    
   35   18   19 ar    
   36   19   20 ar    
   37   19   38 1     
   38   20   21 ar    
   39   20   39 1     
   40   21   22 ar    
   41   21   40 1     
   42   22   23 ar    
   43   22   41 1     
   44    2   42 1     
   45    2   43 1     
   46    9   44 1     
   47   11   45 1     
   48   11   46 1     
   49   16   47 1     
   50   16   48 1     
   51   17   49 1     
@<TRIPOS>SUBSTRUCTURE
      1 S1             1
@<TRIPOS>SET
LONE_PAIRS      STATIC     ATOMS    <user>   **** ""
8 42 43 44 45 46 47 48 49
ATOM$BLUE        STATIC     ATOMS    COLORGROUP SYSTEM
8 42 43 44 45 46 47 48 49
