#       Name:                AV-unprocessed.smi:2198
#       Creating user name   scv26
#       Creation time:       Fri Mar 27 12:13:16 2020


#       File generated by GOLD software.
#

@<TRIPOS>MOLECULE
AV-unprocessed.smi:2198
    48    49     1
SMALL
NO_CHARGES


@<TRIPOS>ATOM
      1 ****        -6.6864  -1.0432  -0.9614 C.3            1 S1                 0.0000
      2 ****        -5.1732  -1.0485  -0.9551 C.2            1 S1                 0.0000
      3 ****        -4.6110   0.1702  -1.2973 N.pl3          1 S1                 0.0000
      4 ****        -3.2308   0.2629  -1.3196 C.2            1 S1                 0.0000
      5 ****        -2.6961   1.6308  -1.7068 C.3            1 S1                 0.0000
      6 ****        -2.4500  -0.8035  -1.0109 C.2            1 S1                 0.0000
      7 ****        -0.9232  -0.7391  -1.0170 C.3            1 S1                 0.0000
      8 ****        -0.2748  -0.1323   0.2300 C.2            1 S1                 0.0000
      9 ****        -0.8586  -0.1593   1.3135 O.2            1 S1                 0.0000
     10 ****         0.9378   0.4154   0.0588 N.am           1 S1                 0.0000
     11 ****         1.7316   1.0623   1.1021 C.3            1 S1                 0.0000
     12 ****         2.7035   2.0818   0.4774 C.3            1 S1                 0.0000
     13 ****         3.8511   1.3996  -0.2866 C.3            1 S1                 0.0000
     14 ****         4.5967   0.3955   0.6058 C.3            1 S1                 0.0000
     15 ****         3.6383  -0.6582   1.1925 C.3            1 S1                 0.0000
     16 ****         4.3852  -1.6633   2.0807 C.3            1 S1                 0.0000
     17 ****         2.4895   0.0267   1.9617 C.3            1 S1                 0.0000
     18 ****        -3.1095  -2.0792  -0.6446 C.2            1 S1                 0.0000
     19 ****        -2.4574  -3.0772  -0.3410 O.2            1 S1                 0.0000
     20 ****        -4.5132  -2.1229  -0.6456 N.2            1 S1                 0.0000
     21 ****        -5.1542   0.9896  -1.5286 H              1 S1                 0.0000
     22 ****        -7.0804  -2.0548  -0.8546 H              1 S1                 0.0000
     23 ****        -7.0648  -0.6291  -1.8965 H              1 S1                 0.0000
     24 ****        -7.0646  -0.4400  -0.1358 H              1 S1                 0.0000
     25 ****        -2.1016   1.5631  -2.6180 H              1 S1                 0.0000
     26 ****        -2.0672   2.0336  -0.9127 H              1 S1                 0.0000
     27 ****        -3.5034   2.3419  -1.8866 H              1 S1                 0.0000
     28 ****        -0.6101  -0.1589  -1.8856 H              1 S1                 0.0000
     29 ****        -0.4958  -1.7295  -1.1770 H              1 S1                 0.0000
     30 ****         1.3417   0.3878  -0.8661 H              1 S1                 0.0000
     31 ****         1.0481   1.6146   1.7495 H              1 S1                 0.0000
     32 ****         2.1649   2.7620  -0.1835 H              1 S1                 0.0000
     33 ****         3.1257   2.7016   1.2693 H              1 S1                 0.0000
     34 ****         3.4577   0.8870  -1.1652 H              1 S1                 0.0000
     35 ****         4.5464   2.1530  -0.6576 H              1 S1                 0.0000
     36 ****         5.3818  -0.0932   0.0277 H              1 S1                 0.0000
     37 ****         5.0971   0.9306   1.4142 H              1 S1                 0.0000
     38 ****         3.2055  -1.2184   0.3625 H              1 S1                 0.0000
     39 ****         4.8441  -1.1712   2.9387 H              1 S1                 0.0000
     40 ****         5.1755  -2.1677   1.5240 H              1 S1                 0.0000
     41 ****         3.7086  -2.4302   2.4592 H              1 S1                 0.0000
     42 ****         2.8988   0.5307   2.8382 H              1 S1                 0.0000
     43 ****         1.7966  -0.7229   2.3459 H              1 S1                 0.0000
     44 ****        -1.7632  -0.5798   1.3838 LP             1 S1                 0.0000
     45 ****        -0.4282   0.2393   2.1235 LP             1 S1                 0.0000
     46 ****        -1.4581  -3.0395  -0.3375 LP             1 S1                 0.0000
     47 ****        -2.9266  -3.9261  -0.0976 LP             1 S1                 0.0000
     48 ****        -4.9960  -2.9668  -0.4119 LP             1 S1                 0.0000
@<TRIPOS>BOND
    1    1   22 1     
    2    1   23 1     
    3    1   24 1     
    4    1    2 1     
    5    2    3 1     
    6    2   20 2     
    7    3    4 1     
    8    3   21 1     
    9    4    6 2     
   10    4    5 1     
   11    5   25 1     
   12    5   26 1     
   13    5   27 1     
   14    6   18 1     
   15    6    7 1     
   16    7    8 1     
   17    7   28 1     
   18    7   29 1     
   19    8    9 2     
   20    8   10 am    
   21   10   11 1     
   22   10   30 1     
   23   11   17 1     
   24   11   12 1     
   25   11   31 1     
   26   12   13 1     
   27   12   32 1     
   28   12   33 1     
   29   13   14 1     
   30   13   34 1     
   31   13   35 1     
   32   14   15 1     
   33   14   36 1     
   34   14   37 1     
   35   15   16 1     
   36   15   17 1     
   37   15   38 1     
   38   16   39 1     
   39   16   40 1     
   40   16   41 1     
   41   17   42 1     
   42   17   43 1     
   43   18   19 2     
   44   18   20 1     
   45    9   44 1     
   46    9   45 1     
   47   19   46 1     
   48   19   47 1     
   49   20   48 1     
@<TRIPOS>SUBSTRUCTURE
      1 S1             1
@<TRIPOS>SET
LONE_PAIRS      STATIC     ATOMS    <user>   **** ""
5 44 45 46 47 48
DONOR_HYDROGENS      STATIC     ATOMS    <user>   **** ""
2 21 30
ATOM$BLUE        STATIC     ATOMS    COLORGROUP SYSTEM
5 44 45 46 47 48
ATOM$RED        STATIC     ATOMS    COLORGROUP SYSTEM
2 21 30
