#       Name:                AV-unprocessed.smi:1605
#       Creating user name   scv26
#       Creation time:       Fri Mar 27 07:10:45 2020


#       File generated by GOLD software.
#

@<TRIPOS>MOLECULE
AV-unprocessed.smi:1605
    56    58     1
SMALL
NO_CHARGES


@<TRIPOS>ATOM
      1 ****        -3.4733   0.7853   3.6523 C.3            1 S1                 0.0000
      2 ****        -3.1128   0.4174   2.3298 O.3            1 S1                 0.0000
      3 ****        -1.8375   0.8935   1.9153 C.3            1 S1                 0.0000
      4 ****        -1.8054   0.8890   0.3796 C.3            1 S1                 0.0000
      5 ****        -1.8310  -0.5418  -0.1856 C.3            1 S1                 0.0000
      6 ****        -0.7161  -1.3547   0.3639 N.4            1 S1                 1.0000
      7 ****        -0.6087  -2.6854  -0.2875 C.3            1 S1                 0.0000
      8 ****         0.7879  -3.3402  -0.1516 C.3            1 S1                 0.0000
      9 ****         0.6811  -4.6607  -0.6393 O.3            1 S1                 0.0000
     10 ****         1.9174  -2.6456  -0.9447 C.3            1 S1                 0.0000
     11 ****         2.2219  -1.3162  -0.4476 N.pl3          1 S1                 0.0000
     12 ****         2.9136  -1.0084   0.6664 C.2            1 S1                 0.0000
     13 ****         3.0502   0.2810   0.9600 N.2            1 S1                 0.0000
     14 ****         2.3835   0.8809  -0.0938 C.ar           1 S1                 0.0000
     15 ****         2.1486   2.2446  -0.3731 C.ar           1 S1                 0.0000
     16 ****         1.4161   2.6339  -1.5169 C.ar           1 S1                 0.0000
     17 ****         1.1808   4.1117  -1.7749 C.3            1 S1                 0.0000
     18 ****         0.9104   1.6513  -2.4055 C.ar           1 S1                 0.0000
     19 ****         0.1163   2.0457  -3.6381 C.3            1 S1                 0.0000
     20 ****         1.1388   0.2847  -2.1431 C.ar           1 S1                 0.0000
     21 ****         1.8627  -0.0902  -0.9979 C.ar           1 S1                 0.0000
     22 ****        -0.7586  -1.4108   1.8484 C.3            1 S1                 0.0000
     23 ****        -0.7015   0.0026   2.4526 C.3            1 S1                 0.0000
     24 ****        -4.4677   0.3993   3.8760 H              1 S1                 0.0000
     25 ****        -3.5042   1.8698   3.7652 H              1 S1                 0.0000
     26 ****        -2.7861   0.3756   4.3921 H              1 S1                 0.0000
     27 ****        -1.7012   1.9204   2.2588 H              1 S1                 0.0000
     28 ****        -2.6444   1.4630  -0.0146 H              1 S1                 0.0000
     29 ****        -0.9023   1.3948   0.0374 H              1 S1                 0.0000
     30 ****        -2.7828  -1.0249   0.0404 H              1 S1                 0.0000
     31 ****        -1.7511  -0.4927  -1.2721 H              1 S1                 0.0000
     32 ****        -1.3784  -3.3372   0.1296 H              1 S1                 0.0000
     33 ****        -0.8364  -2.5894  -1.3503 H              1 S1                 0.0000
     34 ****         1.0755  -3.4244   0.8956 H              1 S1                 0.0000
     35 ****         1.5113  -5.0968  -0.5196 H              1 S1                 0.0000
     36 ****         2.8327  -3.2368  -0.8890 H              1 S1                 0.0000
     37 ****         1.6585  -2.5774  -2.0022 H              1 S1                 0.0000
     38 ****         3.3254  -1.7750   1.3067 H              1 S1                 0.0000
     39 ****         2.5343   2.9932   0.3034 H              1 S1                 0.0000
     40 ****         1.6725   4.4196  -2.6978 H              1 S1                 0.0000
     41 ****         1.5744   4.7254  -0.9644 H              1 S1                 0.0000
     42 ****         0.1146   4.3210  -1.8631 H              1 S1                 0.0000
     43 ****        -0.1497   1.1735  -4.2360 H              1 S1                 0.0000
     44 ****         0.6968   2.7186  -4.2695 H              1 S1                 0.0000
     45 ****        -0.8068   2.5494  -3.3508 H              1 S1                 0.0000
     46 ****         0.7525  -0.4727  -2.8091 H              1 S1                 0.0000
     47 ****        -1.6651  -1.9248   2.1711 H              1 S1                 0.0000
     48 ****         0.0826  -1.9853   2.2330 H              1 S1                 0.0000
     49 ****         0.2576   0.4582   2.2031 H              1 S1                 0.0000
     50 ****        -0.7285  -0.0542   3.5402 H              1 S1                 0.0000
     51 ****         0.1296  -0.8597   0.1181 H              1 S1                 0.0000
     52 ****        -3.8019   0.7833   1.7043 LP             1 S1                 0.0000
     53 ****        -3.1077  -0.5809   2.2730 LP             1 S1                 0.0000
     54 ****         0.4480  -4.6423  -1.6116 LP             1 S1                 0.0000
     55 ****        -0.0311  -5.1489  -0.1349 LP             1 S1                 0.0000
     56 ****         3.5132   0.7058   1.7380 LP             1 S1                 0.0000
@<TRIPOS>BOND
    1    1    2 1     
    2    1   24 1     
    3    1   25 1     
    4    1   26 1     
    5    2    3 1     
    6    3   23 1     
    7    3    4 1     
    8    3   27 1     
    9    4    5 1     
   10    4   28 1     
   11    4   29 1     
   12    5    6 1     
   13    5   30 1     
   14    5   31 1     
   15    6    7 1     
   16    6   22 1     
   17    6   51 1     
   18    7    8 1     
   19    7   32 1     
   20    7   33 1     
   21    8    9 1     
   22    8   10 1     
   23    8   34 1     
   24    9   35 1     
   25   10   11 1     
   26   10   36 1     
   27   10   37 1     
   28   11   21 1     
   29   11   12 1     
   30   12   13 2     
   31   12   38 1     
   32   13   14 1     
   33   14   21 ar    
   34   14   15 ar    
   35   15   16 ar    
   36   15   39 1     
   37   16   17 1     
   38   16   18 ar    
   39   17   40 1     
   40   17   41 1     
   41   17   42 1     
   42   18   19 1     
   43   18   20 ar    
   44   19   43 1     
   45   19   44 1     
   46   19   45 1     
   47   20   21 ar    
   48   20   46 1     
   49   22   23 1     
   50   22   47 1     
   51   22   48 1     
   52   23   49 1     
   53   23   50 1     
   54    2   52 1     
   55    2   53 1     
   56    9   54 1     
   57    9   55 1     
   58   13   56 1     
@<TRIPOS>SUBSTRUCTURE
      1 S1             1
@<TRIPOS>SET
LONE_PAIRS      STATIC     ATOMS    <user>   **** ""
5 52 53 54 55 56
DONOR_HYDROGENS      STATIC     ATOMS    <user>   **** ""
2 51 35
ATOM$BLUE        STATIC     ATOMS    COLORGROUP SYSTEM
5 52 53 54 55 56
ATOM$RED        STATIC     ATOMS    COLORGROUP SYSTEM
2 51 35
