AV-unprocessed.smi:3112|AV-procd|sdf|11850|dock4
  -GOLD-   2272017233D 1   1.00000     0.00000
 Structure written by MMmdl.
 36 36  0  0  0  0  0  0  0  0  1 V2000
  146.8186  142.2022  153.8682 C   0  0  0  0  0  0  0  0  0  0  0  0
  147.6121  141.4242  154.9266 C   0  0  0  0  0  0  0  0  0  0  0  0
  149.1392  141.5351  154.7450 C   0  0  2  0  0  0  0  0  0  0  0  0
  149.5593  140.8678  153.5718 O   0  0  0  0  0  0  0  0  0  0  0  0
  149.9614  141.0158  155.9395 C   0  0  0  0  0  0  0  0  0  0  0  0
  150.9214  142.0089  156.4294 N   0  0  0  0  0  0  0  0  0  0  0  0
  151.1773  141.9648  157.8724 C   0  0  1  0  0  0  0  0  0  0  0  0
  151.7119  140.5632  158.2228 C   0  0  0  0  0  0  0  0  0  0  0  0
  152.1502  143.0968  158.3210 C   0  0  1  0  0  0  0  0  0  0  0  0
  151.7191  144.5139  157.8996 C   0  0  0  0  0  0  0  0  0  0  0  0
  152.3888  143.0690  159.7593 N   0  0  0  0  0  0  0  0  0  0  0  0
  152.1521  144.0663  160.6833 C   0  0  0  0  0  0  0  0  0  0  0  0
  152.5287  143.5890  161.9060 C   0  0  0  0  0  0  0  0  0  0  0  0
  152.9890  142.2722  161.6271 C   0  0  0  0  0  0  0  0  0  0  0  0
  152.9043  141.9633  160.3437 N   0  0  0  0  0  0  0  0  0  0  0  0
  145.7472  142.1232  154.0528 H   0  0  0  0  0  0  0  0  0  0  0  0
  147.0095  141.8179  152.8658 H   0  0  0  0  0  0  0  0  0  0  0  0
  147.0799  143.2606  153.8776 H   0  0  0  0  0  0  0  0  0  0  0  0
  147.3417  141.8074  155.9114 H   0  0  0  0  0  0  0  0  0  0  0  0
  147.3034  140.3782  154.9104 H   0  0  0  0  0  0  0  0  0  0  0  0
  149.3934  142.5872  154.6104 H   0  0  0  0  0  0  0  0  0  0  0  0
  148.9740  140.1433  153.4128 H   0  0  0  0  0  0  0  0  0  0  0  0
  149.2891  140.6847  156.7285 H   0  0  0  0  0  0  0  0  0  0  0  0
  150.5062  140.1260  155.6222 H   0  0  0  0  0  0  0  0  0  0  0  0
  151.7961  141.8959  155.9272 H   0  0  0  0  0  0  0  0  0  0  0  0
  150.2342  142.0805  158.4089 H   0  0  0  0  0  0  0  0  0  0  0  0
  151.8000  140.4191  159.2997 H   0  0  0  0  0  0  0  0  0  0  0  0
  152.6941  140.3907  157.7815 H   0  0  0  0  0  0  0  0  0  0  0  0
  151.0419  139.7853  157.8554 H   0  0  0  0  0  0  0  0  0  0  0  0
  153.1153  142.9053  157.8489 H   0  0  0  0  0  0  0  0  0  0  0  0
  151.7758  144.6419  156.8192 H   0  0  0  0  0  0  0  0  0  0  0  0
  152.3744  145.2678  158.3374 H   0  0  0  0  0  0  0  0  0  0  0  0
  150.7000  144.7348  158.2180 H   0  0  0  0  0  0  0  0  0  0  0  0
  151.7409  145.0230  160.3971 H   0  0  0  0  0  0  0  0  0  0  0  0
  152.4824  144.1024  162.8547 H   0  0  0  0  0  0  0  0  0  0  0  0
  153.3795  141.5366  162.3147 H   0  0  0  0  0  0  0  0  0  0  0  0
  1  2  1  0  0  0  0
  1 16  1  0  0  0  0
  1 17  1  0  0  0  0
  1 18  1  0  0  0  0
  2  3  1  0  0  0  0
  2 19  1  0  0  0  0
  2 20  1  0  0  0  0
  3  4  1  0  0  0  0
  3  5  1  0  0  0  0
  3 21  1  0  0  0  0
  4 22  1  0  0  0  0
  5  6  1  0  0  0  0
  5 23  1  0  0  0  0
  5 24  1  0  0  0  0
  6  7  1  0  0  0  0
  6 25  1  0  0  0  0
  7  8  1  0  0  0  0
  7  9  1  0  0  0  0
  7 26  1  0  0  0  0
  8 27  1  0  0  0  0
  8 28  1  0  0  0  0
  8 29  1  0  0  0  0
  9 10  1  0  0  0  0
  9 11  1  0  0  0  0
  9 30  1  0  0  0  0
 10 31  1  0  0  0  0
 10 32  1  0  0  0  0
 10 33  1  0  0  0  0
 11 15  1  0  0  0  0
 11 12  1  0  0  0  0
 12 13  2  0  0  0  0
 12 34  1  0  0  0  0
 13 14  1  0  0  0  0
 13 35  1  0  0  0  0
 14 15  2  0  0  0  0
 14 36  1  0  0  0  0
M  END
> <s_m_source_file>
AV-unprocessed.smi

> <i_m_source_file_index>
3112

> <i_lp_mmshare_version>
43012

> <i_f3d_flags>
0

> <s_epik_input>
W0NIM11bQ0gyXVtDQEhdKFtPSF0pW0NIMl1bTkhdW0NASF0oW0NIM10pW0NASF0oW0NIM10pbjFbY0hdW2NIXVtjSF1uMQ==

> <s_epik_cmdline>
J2VwaWtfcHl0aG9uJywgJy1waCcsICc3LjAnLCAnLXRuJywgJzgnLCAnLW1hJywgJzIwMCcsICctbWV0YWxfYmluZGluZycsICctaW1hZScsICc8aW5maWxlLm1hZT4nLCAnLW9tYWUnLCAnPG91dGZpbGUubWFlPic=

> <r_lp_tautomer_probability>
1

> <r_epik_Ionization_Penalty>
2.16876

> <r_epik_Ionization_Penalty_Charging>
0

> <r_epik_Ionization_Penalty_Neutral>
2.16876

> <r_epik_State_Penalty>
2.30854

> <r_epik_Charging_Adjusted_Penalty>
2.30854

> <i_epik_Tot_Q>
0

> <i_epik_Tot_abs_Q>
0

> <r_epik_Metal_State_Penalty>
2.3073

> <b_epik_Metal_Only>
0

> <s_lp_Force_Field>
OPLS_2005

> <r_lp_Energy>
23.3331

> <b_lp_Chiralities_Consistent>
1

> <s_lp_Variant>
AV-unprocessed.smi:3112-15

> <Gold.Version>
5.8.1

> <Gold.Id.Protein>
6NUR|6NUR_protein|mol2

> <Gold.PLP.Fitness>
45.0350

> <Gold.PLP.PLP>
-42.8451

> <Gold.PLP.part.hbond>
-2.9761

> <Gold.PLP.part.metal>
0.0000

> <Gold.PLP.part.buried>
-6.6743

> <Gold.PLP.part.nonpolar>
-33.2621

> <Gold.PLP.part.repulsive>
0.0000

> <Gold.PLP.ligand.clash>
0.0000

> <Gold.PLP.ligand.torsion>
1.0332

> <Gold.PLP.Chemscore.Hbond>
1.3520

> <Gold.PLP.Chemscore.CHOScore>
0.0000

> <Gold.PLP.Chemscore.Metal>
0.0000

> <Gold.Chemscore.Hbonds>
donor molecule, donor type, donor heavy atom, donor atom, acceptor molecule, acceptor atom, score
      P1  H  7989  7998       L1     4  0.33
      P1  H  8011  8017       L1     4  1.00

> <Gold.PLP.Chemscore.Internal.Correction>
0.2004

> <Gold.Rescore>
     Score         DG    S(hbond)    S(metal)    S(lipo)     H(rot)  DE(clash)    DE(int)     intcor
     12.53     -14.95       1.08        0.00     100.69       2.31       0.03       2.39       ----

> <Gold.Chemscore.Fitness>
12.5314

> <Gold.Chemscore.DG>
-14.9488

> <Gold.Chemscore.ZeroCoef>
-5.4800

> <Gold.Chemscore.Hbond>
1.0789

> <Gold.Chemscore.Metal>
0.0000

> <Gold.Chemscore.Lipo>
100.6929

> <Gold.Chemscore.Internal_Hbond>
0.0000

> <Gold.Chemscore.DEClash>
0.0310

> <Gold.Chemscore.DEInternal>
2.3865

> <Gold.Chemscore.Rot>
2.3108

> <Gold.Chemscore.Internal.Correction>
   9.000000E+99

> <Gold.Chemscore.Hbonds>
donor molecule, donor type, donor heavy atom, donor atom, acceptor molecule, acceptor atom, score
      P1  H  7989  7998       L1     4  0.23
      P1  H  8011  8017       L1     4  0.28

> <Gold.Chemscore.Hbond.Weighted>
-3.6034

> <Gold.Chemscore.Metal.Weighted>
-0.0000

> <Gold.Chemscore.Lipo.Weighted>
-11.7811

> <Gold.Chemscore.Internal_Hbond.Weighted>
0.0000

> <Gold.Chemscore.DEClash.Weighted>
0.0310

> <Gold.Chemscore.DEInternal.Weighted>
2.3865

> <Gold.Chemscore.Rot.Weighted>
5.9157

> <Gold.Chemscore.Internal.Correction.Weighted>
   9.000000E+99

> <Gold.Protein.RotatedTorsions>
[ 6907 6896 6895 6894 ] final  146.43 input  -60.11 | X-H torsion
[ 7974 7965 7964 7962 ] final  -96.40 input  175.53 | X-H torsion
[ 8008 7997 7996 7995 ] final  114.23 input   59.86 | X-H torsion
[ 10167 10162 10161 10158 ] final  143.68 input  -65.29 | X-H torsion
[ 10718 10713 10712 10709 ] final  119.69 input   66.30 | X-H torsion
[ 10763 10752 10751 10750 ] final  155.24 input  -60.55 | X-H torsion
[ 11005 11000 10999 10996 ] final  -24.08 input  -57.11 | X-H torsion

> <Gold.Protein.ActiveResidues>
 VAL166  LYS551  ARG553  GLY616  TRP617  ASP618  TYR619  PRO620  LYS621  CYS622 
 ASP623  PHE694  ASN695  SER759  ASP760  ASP761  ALA762  ILE779  LEU786  VAL792 
 PHE793  MET794  SER795  GLU796  ALA797  LYS798  CYS799  TRP800  GLU811  SER814 

> <Gold.Protein.RotatedAtoms>
  152.1680  133.4625  159.4894 H   0  0  0  0  0  0  0  0  0  0  0  0  # atno 6907 bound_to 6896
  150.6916  134.1988  159.4323 H   0  0  0  0  0  0  0  0  0  0  0  0  # atno 6908 bound_to 6896
  151.9894  134.9987  160.0611 H   0  0  0  0  0  0  0  0  0  0  0  0  # atno 6909 bound_to 6896
  145.3474  140.9470  143.2573 H   0  0  0  0  0  0  0  0  0  0  0  0  # atno 7974 bound_to 7965
  156.2308  140.2963  156.0183 H   0  0  0  0  0  0  0  0  0  0  0  0  # atno 8008 bound_to 7997
  155.2230  140.0416  157.2968 H   0  0  0  0  0  0  0  0  0  0  0  0  # atno 8009 bound_to 7997
  154.5992  140.2422  155.7822 H   0  0  0  0  0  0  0  0  0  0  0  0  # atno 8010 bound_to 7997
  139.4964  144.6024  151.6452 H   0  0  0  0  0  0  0  0  0  0  0  0  # atno 10167 bound_to 10162
  157.5944  131.1060  150.7931 H   0  0  0  0  0  0  0  0  0  0  0  0  # atno 10718 bound_to 10713
  154.1652  135.2807  155.3097 H   0  0  0  0  0  0  0  0  0  0  0  0  # atno 10763 bound_to 10752
  154.6117  135.5496  153.7483 H   0  0  0  0  0  0  0  0  0  0  0  0  # atno 10764 bound_to 10752
  153.0181  135.6417  154.1793 H   0  0  0  0  0  0  0  0  0  0  0  0  # atno 10765 bound_to 10752
  140.8812  133.7652  156.0304 H   0  0  0  0  0  0  0  0  0  0  0  0  # atno 11005 bound_to 11000
  144.8743  139.4993  143.6753 LP  0  0  0  0  0  0  0  0  0  0  0  0  # atno 17320 bound_to 7965
  146.2982  139.7343  142.9111 LP  0  0  0  0  0  0  0  0  0  0  0  0  # atno 17321 bound_to 7965
  140.5677  144.0162  150.6201 LP  0  0  0  0  0  0  0  0  0  0  0  0  # atno 17342 bound_to 10162
  140.3269  143.3102  152.0727 LP  0  0  0  0  0  0  0  0  0  0  0  0  # atno 17343 bound_to 10162
  156.8345  130.5027  149.5328 LP  0  0  0  0  0  0  0  0  0  0  0  0  # atno 17370 bound_to 10713
  156.1004  130.5964  150.9884 LP  0  0  0  0  0  0  0  0  0  0  0  0  # atno 17371 bound_to 10713
  140.8459  134.3012  157.5295 LP  0  0  0  0  0  0  0  0  0  0  0  0  # atno 17394 bound_to 11000
  139.8720  134.9441  156.3872 LP  0  0  0  0  0  0  0  0  0  0  0  0  # atno 17395 bound_to 11000

$$$$
