#       Name:                AV-unprocessed.smi:1412
#       Creating user name   scv26
#       Creation time:       Fri Mar 27 05:38:33 2020


#       File generated by GOLD software.
#

@<TRIPOS>MOLECULE
AV-unprocessed.smi:1412
    48    49     1
SMALL
NO_CHARGES


@<TRIPOS>ATOM
      1 ****        -1.8755   0.2327  -3.7652 C.3            1 S1                 0.0000
      2 ****        -1.5293  -0.5479  -2.4849 C.3            1 S1                 0.0000
      3 ****        -1.0070   0.2948  -1.2815 C.3            1 S1                 0.0000
      4 ****        -2.0048   1.4478  -0.9896 C.3            1 S1                 0.0000
      5 ****         0.3593   0.9559  -1.6358 C.3            1 S1                 0.0000
      6 ****         0.9416   1.6685  -0.4967 N.am           1 S1                 0.0000
      7 ****         1.9219   1.2312   0.3066 C.2            1 S1                 0.0000
      8 ****         2.5082   0.1774   0.0522 O.2            1 S1                 0.0000
      9 ****         2.1405   2.0280   1.3750 N.pl3          1 S1                -1.0000
     10 ****         3.0288   1.6583   2.3121 C.2            1 S1                 0.0000
     11 ****         2.6683   0.9740   3.4099 N.2            1 S1                 0.0000
     12 ****         3.7366   0.6854   4.2478 N.2            1 S1                 0.0000
     13 ****         4.8792   1.1718   3.7634 C.2            1 S1                 0.0000
     14 ****         4.7541   2.0242   2.2388 S.3            1 S1                 0.0000
     15 ****        -0.8254  -0.5720  -0.0586 N.4            1 S1                 1.0000
     16 ****        -2.0382  -0.8745   0.7512 C.3            1 S1                 0.0000
     17 ****        -1.6369  -1.5694   2.0656 C.3            1 S1                 0.0000
     18 ****        -0.8847  -2.7447   1.7940 O.3            1 S1                 0.0000
     19 ****         0.3122  -2.4534   1.0846 C.3            1 S1                 0.0000
     20 ****        -0.0532  -1.8276  -0.2693 C.3            1 S1                 0.0000
     21 ****        -2.1891  -0.4531  -4.5525 H              1 S1                 0.0000
     22 ****        -1.0207   0.7902  -4.1465 H              1 S1                 0.0000
     23 ****        -2.6960   0.9322  -3.6076 H              1 S1                 0.0000
     24 ****        -2.4165  -1.1043  -2.1814 H              1 S1                 0.0000
     25 ****        -0.7878  -1.2969  -2.7631 H              1 S1                 0.0000
     26 ****        -1.9924   2.2018  -1.7769 H              1 S1                 0.0000
     27 ****        -1.7642   1.9666  -0.0608 H              1 S1                 0.0000
     28 ****        -3.0324   1.0903  -0.9173 H              1 S1                 0.0000
     29 ****         1.0615   0.2249  -2.0374 H              1 S1                 0.0000
     30 ****         0.2321   1.6885  -2.4325 H              1 S1                 0.0000
     31 ****         0.5146   2.5508  -0.2538 H              1 S1                 0.0000
     32 ****         5.8009   1.0284   4.3072 H              1 S1                 0.0000
     33 ****        -2.5839   0.0273   1.0232 H              1 S1                 0.0000
     34 ****        -2.7196  -1.5061   0.1801 H              1 S1                 0.0000
     35 ****        -1.0561  -0.8948   2.6972 H              1 S1                 0.0000
     36 ****        -2.5274  -1.8442   2.6312 H              1 S1                 0.0000
     37 ****         0.9515  -1.7874   1.6668 H              1 S1                 0.0000
     38 ****         0.8669  -3.3795   0.9338 H              1 S1                 0.0000
     39 ****        -0.6447  -2.5431  -0.8420 H              1 S1                 0.0000
     40 ****         0.8571  -1.6461  -0.8369 H              1 S1                 0.0000
     41 ****        -0.2491  -0.0068   0.5503 H              1 S1                 0.0000
     42 ****         2.2532  -0.3543  -0.7555 LP             1 S1                 0.0000
     43 ****         3.2389  -0.1459   0.6534 LP             1 S1                 0.0000
     44 ****         1.6427   2.8903   1.4680 LP             1 S1                 0.0000
     45 ****         1.7263   0.7003   3.6039 LP             1 S1                 0.0000
     46 ****         3.6589   0.1773   5.1056 LP             1 S1                 0.0000
     47 ****        -1.4431  -3.3667   1.2451 LP             1 S1                 0.0000
     48 ****        -0.6486  -3.1852   2.6601 LP             1 S1                 0.0000
@<TRIPOS>BOND
    1    1    2 1     
    2    1   21 1     
    3    1   22 1     
    4    1   23 1     
    5    2    3 1     
    6    2   24 1     
    7    2   25 1     
    8    3    4 1     
    9    3    5 1     
   10    3   15 1     
   11    4   26 1     
   12    4   27 1     
   13    4   28 1     
   14    5    6 1     
   15    5   29 1     
   16    5   30 1     
   17    6    7 am    
   18    6   31 1     
   19    7    8 2     
   20    7    9 1     
   21    9   10 1     
   22   10   14 1     
   23   10   11 2     
   24   11   12 1     
   25   12   13 2     
   26   13   14 1     
   27   13   32 1     
   28   15   20 1     
   29   15   16 1     
   30   15   41 1     
   31   16   17 1     
   32   16   33 1     
   33   16   34 1     
   34   17   18 1     
   35   17   35 1     
   36   17   36 1     
   37   18   19 1     
   38   19   20 1     
   39   19   37 1     
   40   19   38 1     
   41   20   39 1     
   42   20   40 1     
   43    8   42 1     
   44    8   43 1     
   45    9   44 1     
   46   11   45 1     
   47   12   46 1     
   48   18   47 1     
   49   18   48 1     
@<TRIPOS>SUBSTRUCTURE
      1 S1             1
@<TRIPOS>SET
LONE_PAIRS      STATIC     ATOMS    <user>   **** ""
7 42 43 44 45 46 47 48
DONOR_HYDROGENS      STATIC     ATOMS    <user>   **** ""
2 31 41
ATOM$BLUE        STATIC     ATOMS    COLORGROUP SYSTEM
7 42 43 44 45 46 47 48
ATOM$RED        STATIC     ATOMS    COLORGROUP SYSTEM
2 31 41
