AV-unprocessed.smi:148|AV-procd|sdf|1203|dock1
  -GOLD-   2262018363D 1   1.00000     0.00000
 Structure written by MMmdl.
 63 67  0  0  0  0  0  0  0  0  1 V2000
  151.7629  137.2380  153.7840 O   0  0  0  0  0  0  0  0  0  0  0  0
  150.9700  137.1903  154.9527 C   0  0  0  0  0  0  0  0  0  0  0  0
  150.0928  138.4581  155.0947 C   0  0  1  0  0  0  0  0  0  0  0  0
  148.9696  138.1873  156.1346 C   0  0  0  0  0  0  0  0  0  0  0  0
  147.7148  137.7005  155.5859 N   0  0  0  0  0  0  0  0  0  0  0  0
  146.8541  136.8030  156.1790 C   0  0  0  0  0  0  0  0  0  0  0  0
  145.8068  136.4805  155.4698 N   0  0  0  0  0  0  0  0  0  0  0  0
  145.9664  137.1994  154.2928 C   0  0  0  0  0  0  0  0  0  0  0  0
  145.2153  137.3026  153.0930 C   0  0  0  0  0  0  0  0  0  0  0  0
  144.1043  136.5610  152.8843 N   0  0  0  0  0  0  0  0  0  0  0  0
  143.0231  137.1173  153.7027 C   0  0  0  0  0  0  0  0  0  0  0  0
  141.6621  136.5324  153.3187 C   0  0  0  0  0  0  0  0  0  0  0  0
  141.7124  135.0092  153.4221 C   0  0  0  0  0  0  0  0  0  0  0  0
  142.8453  134.4697  152.5414 C   0  0  0  0  0  0  0  0  0  0  0  0
  144.2328  135.0870  152.8810 C   0  0  1  0  0  0  0  0  0  0  0  0
  145.3224  134.5504  151.8868 C   0  0  2  0  0  0  0  0  0  0  0  0
  144.7511  133.9572  150.5821 C   0  0  0  0  0  0  0  0  0  0  0  0
  145.8302  133.0242  150.0501 C   0  0  0  0  0  0  0  0  0  0  0  0
  146.3398  132.3426  151.3116 C   0  0  0  0  0  0  0  0  0  0  0  0
  146.2371  133.4088  152.4143 C   0  0  1  0  0  0  0  0  0  0  0  0
  147.5350  133.8981  152.6804 O   0  0  0  0  0  0  0  0  0  0  0  0
  145.6927  138.1101  152.1090 N   0  0  0  0  0  0  0  0  0  0  0  0
  146.8277  138.7905  152.2998 C   0  0  0  0  0  0  0  0  0  0  0  0
  147.6339  138.7911  153.3644 N   0  0  0  0  0  0  0  0  0  0  0  0
  147.1596  137.9724  154.3470 C   0  0  0  0  0  0  0  0  0  0  0  0
  150.9520  139.7110  155.4401 C   0  0  2  0  0  0  0  0  0  0  0  0
  151.6224  139.6842  156.8125 C   0  0  0  0  0  0  0  0  0  0  0  0
  151.6561  141.1431  157.2752 C   0  0  0  0  0  0  0  0  0  0  0  0
  151.0716  141.8898  156.2200 O   0  0  0  0  0  0  0  0  0  0  0  0
  150.1810  141.0315  155.5311 C   0  0  0  0  0  0  0  0  0  0  0  0
  151.2353  136.9596  153.0510 H   0  0  0  0  0  0  0  0  0  0  0  0
  150.3531  136.2913  154.9351 H   0  0  0  0  0  0  0  0  0  0  0  0
  151.6627  137.0880  155.7870 H   0  0  0  0  0  0  0  0  0  0  0  0
  149.6310  138.6312  154.1217 H   0  0  0  0  0  0  0  0  0  0  0  0
  149.2973  137.4464  156.8641 H   0  0  0  0  0  0  0  0  0  0  0  0
  148.7667  139.0977  156.7004 H   0  0  0  0  0  0  0  0  0  0  0  0
  147.0288  136.3898  157.1616 H   0  0  0  0  0  0  0  0  0  0  0  0
  143.2227  136.9129  154.7560 H   0  0  0  0  0  0  0  0  0  0  0  0
  142.9882  138.2027  153.5922 H   0  0  0  0  0  0  0  0  0  0  0  0
  140.8843  136.9303  153.9710 H   0  0  0  0  0  0  0  0  0  0  0  0
  141.4035  136.8300  152.3017 H   0  0  0  0  0  0  0  0  0  0  0  0
  141.8736  134.7105  154.4588 H   0  0  0  0  0  0  0  0  0  0  0  0
  140.7586  134.5792  153.1150 H   0  0  0  0  0  0  0  0  0  0  0  0
  142.8569  133.3866  152.6555 H   0  0  0  0  0  0  0  0  0  0  0  0
  142.6056  134.6675  151.4954 H   0  0  0  0  0  0  0  0  0  0  0  0
  144.4969  134.7702  153.8911 H   0  0  0  0  0  0  0  0  0  0  0  0
  145.9467  135.3941  151.5846 H   0  0  0  0  0  0  0  0  0  0  0  0
  143.8578  133.3673  150.7928 H   0  0  0  0  0  0  0  0  0  0  0  0
  144.4831  134.7236  149.8542 H   0  0  0  0  0  0  0  0  0  0  0  0
  145.4509  132.3167  149.3123 H   0  0  0  0  0  0  0  0  0  0  0  0
  146.6299  133.6034  149.5860 H   0  0  0  0  0  0  0  0  0  0  0  0
  145.6797  131.5094  151.5566 H   0  0  0  0  0  0  0  0  0  0  0  0
  147.3433  131.9317  151.1889 H   0  0  0  0  0  0  0  0  0  0  0  0
  145.8349  132.9468  153.3150 H   0  0  0  0  0  0  0  0  0  0  0  0
  147.6970  134.6393  152.1171 H   0  0  0  0  0  0  0  0  0  0  0  0
  147.1392  139.4190  151.4785 H   0  0  0  0  0  0  0  0  0  0  0  0
  151.7244  139.8359  154.6794 H   0  0  0  0  0  0  0  0  0  0  0  0
  151.0372  139.0957  157.5195 H   0  0  0  0  0  0  0  0  0  0  0  0
  152.6249  139.2594  156.7697 H   0  0  0  0  0  0  0  0  0  0  0  0
  151.0677  141.2715  158.1847 H   0  0  0  0  0  0  0  0  0  0  0  0
  152.6696  141.4924  157.4734 H   0  0  0  0  0  0  0  0  0  0  0  0
  149.9292  141.4450  154.5543 H   0  0  0  0  0  0  0  0  0  0  0  0
  149.2620  140.9176  156.1091 H   0  0  0  0  0  0  0  0  0  0  0  0
  1  2  1  0  0  0  0
  1 31  1  0  0  0  0
  2  3  1  0  0  0  0
  2 32  1  0  0  0  0
  2 33  1  0  0  0  0
  3  4  1  0  0  0  0
  3 26  1  0  0  0  0
  3 34  1  0  0  0  0
  4  5  1  0  0  0  0
  4 35  1  0  0  0  0
  4 36  1  0  0  0  0
  5 25  1  0  0  0  0
  5  6  1  0  0  0  0
  6  7  2  0  0  0  0
  6 37  1  0  0  0  0
  7  8  1  0  0  0  0
  8 25  2  0  0  0  0
  8  9  1  0  0  0  0
  9 10  1  0  0  0  0
  9 22  2  0  0  0  0
 10 15  1  0  0  0  0
 10 11  1  0  0  0  0
 11 12  1  0  0  0  0
 11 38  1  0  0  0  0
 11 39  1  0  0  0  0
 12 13  1  0  0  0  0
 12 40  1  0  0  0  0
 12 41  1  0  0  0  0
 13 14  1  0  0  0  0
 13 42  1  0  0  0  0
 13 43  1  0  0  0  0
 14 15  1  0  0  0  0
 14 44  1  0  0  0  0
 14 45  1  0  0  0  0
 15 16  1  0  0  0  0
 15 46  1  0  0  0  0
 16 20  1  0  0  0  0
 16 17  1  0  0  0  0
 16 47  1  0  0  0  0
 17 18  1  0  0  0  0
 17 48  1  0  0  0  0
 17 49  1  0  0  0  0
 18 19  1  0  0  0  0
 18 50  1  0  0  0  0
 18 51  1  0  0  0  0
 19 20  1  0  0  0  0
 19 52  1  0  0  0  0
 19 53  1  0  0  0  0
 20 21  1  0  0  0  0
 20 54  1  0  0  0  0
 21 55  1  0  0  0  0
 22 23  1  0  0  0  0
 23 24  2  0  0  0  0
 23 56  1  0  0  0  0
 24 25  1  0  0  0  0
 26 30  1  0  0  0  0
 26 27  1  0  0  0  0
 26 57  1  0  0  0  0
 27 28  1  0  0  0  0
 27 58  1  0  0  0  0
 27 59  1  0  0  0  0
 28 29  1  0  0  0  0
 28 60  1  0  0  0  0
 28 61  1  0  0  0  0
 29 30  1  0  0  0  0
 30 62  1  0  0  0  0
 30 63  1  0  0  0  0
M  END
> <s_m_source_file>
AV-unprocessed.smi

> <i_m_source_file_index>
148

> <i_lp_mmshare_version>
43012

> <i_f3d_flags>
0

> <s_epik_input>
W0NIMl0xT1tDSDJdW0NIMl1bQ0BIXTFbQ0BIXShbQ0gyXVtPSF0pW0NIMl1uKFtjSF1uMiljKGMyMyluW2NIXW5jM040W0NIMl1bQ0gyXVtDSDJdW0NIMl1bQ0BIXTRbQ0BASF01W0NIMl1bQ0gyXVtDSDJdW0NASF01W09IXQ==

> <s_epik_cmdline>
J2VwaWtfcHl0aG9uJywgJy1waCcsICc3LjAnLCAnLXRuJywgJzgnLCAnLW1hJywgJzIwMCcsICctbWV0YWxfYmluZGluZycsICctaW1hZScsICc8aW5maWxlLm1hZT4nLCAnLW9tYWUnLCAnPG91dGZpbGUubWFlPic=

> <r_lp_tautomer_probability>
1

> <r_epik_Ionization_Penalty>
0.00556303

> <r_epik_Ionization_Penalty_Charging>
0

> <r_epik_Ionization_Penalty_Neutral>
0.00556303

> <r_epik_State_Penalty>
0.00401767

> <r_epik_Charging_Adjusted_Penalty>
0.00401767

> <i_epik_Tot_Q>
0

> <i_epik_Tot_abs_Q>
0

> <r_epik_Metal_State_Penalty>
-0

> <b_epik_Metal_Only>
0

> <s_lp_Force_Field>
OPLS_2005

> <r_lp_Energy>
69.6021

> <b_lp_Chiralities_Consistent>
1

> <s_lp_Variant>
AV-unprocessed.smi:148-2

> <Gold.Version>
5.8.1

> <Gold.Id.Protein>
6NUR|6NUR_protein|mol2

> <Gold.PLP.Fitness>
48.2622

> <Gold.PLP.PLP>
-40.4243

> <Gold.PLP.part.hbond>
-3.0000

> <Gold.PLP.part.metal>
0.0000

> <Gold.PLP.part.buried>
-7.1263

> <Gold.PLP.part.nonpolar>
-31.8260

> <Gold.PLP.part.repulsive>
1.7836

> <Gold.PLP.ligand.clash>
0.0000

> <Gold.PLP.ligand.torsion>
2.2706

> <Gold.PLP.Chemscore.Hbond>
2.8720

> <Gold.PLP.Chemscore.CHOScore>
0.8572

> <Gold.PLP.Chemscore.Metal>
0.0000

> <Gold.Chemscore.Hbonds>
donor molecule, donor type, donor heavy atom, donor atom, acceptor molecule, acceptor atom, score
      L1  H     1    31       P1  7949  0.93
      L1  H    21    55       P1  7948  0.85
      P1  H 10752 10765       L1     1  1.00
      L1  C    23    56       P1  7957  0.84

> <Gold.PLP.Chemscore.Internal.Correction>
1.1916

> <Gold.Rescore>
     Score         DG    S(hbond)    S(metal)    S(lipo)     H(rot)  DE(clash)    DE(int)     intcor
      9.49     -13.00       1.59        0.00      91.39       3.32       0.41       3.10       ----

> <Gold.Chemscore.Fitness>
9.4876

> <Gold.Chemscore.DG>
-12.9982

> <Gold.Chemscore.ZeroCoef>
-5.4800

> <Gold.Chemscore.Hbond>
1.5946

> <Gold.Chemscore.Metal>
0.0000

> <Gold.Chemscore.Lipo>
91.3854

> <Gold.Chemscore.Internal_Hbond>
0.0000

> <Gold.Chemscore.DEClash>
0.4119

> <Gold.Chemscore.DEInternal>
3.0987

> <Gold.Chemscore.Rot>
3.3203

> <Gold.Chemscore.Internal.Correction>
   9.000000E+99

> <Gold.Chemscore.Hbonds>
donor molecule, donor type, donor heavy atom, donor atom, acceptor molecule, acceptor atom, score
      L1  H     1    31       P1  7949  0.54
      L1  H    21    55       P1  7948  0.50
      P1  H 10752 10765       L1     1  0.15

> <Gold.Chemscore.Hbond.Weighted>
-5.3261

> <Gold.Chemscore.Metal.Weighted>
-0.0000

> <Gold.Chemscore.Lipo.Weighted>
-10.6921

> <Gold.Chemscore.Internal_Hbond.Weighted>
0.0000

> <Gold.Chemscore.DEClash.Weighted>
0.4119

> <Gold.Chemscore.DEInternal.Weighted>
3.0987

> <Gold.Chemscore.Rot.Weighted>
8.5000

> <Gold.Chemscore.Internal.Correction.Weighted>
   9.000000E+99

> <Gold.Protein.RotatedTorsions>
[ 6907 6896 6895 6894 ] final  141.97 input  -60.11 | X-H torsion
[ 7974 7965 7964 7962 ] final  -74.45 input  175.53 | X-H torsion
[ 8008 7997 7996 7995 ] final -141.69 input   59.86 | X-H torsion
[ 10167 10162 10161 10158 ] final  -50.98 input  -65.29 | X-H torsion
[ 10718 10713 10712 10709 ] final    7.26 input   66.30 | X-H torsion
[ 10763 10752 10751 10750 ] final  148.77 input  -60.55 | X-H torsion
[ 11005 11000 10999 10996 ] final -102.29 input  -57.11 | X-H torsion

> <Gold.Protein.ActiveResidues>
 VAL166  LYS551  ARG553  GLY616  TRP617  ASP618  TYR619  PRO620  LYS621  CYS622 
 ASP623  PHE694  ASN695  SER759  ASP760  ASP761  ALA762  ILE779  LEU786  VAL792 
 PHE793  MET794  SER795  GLU796  ALA797  LYS798  CYS799  TRP800  GLU811  SER814 

> <Gold.Protein.RotatedAtoms>
  152.2244  133.5009  159.5180 H   0  0  0  0  0  0  0  0  0  0  0  0  # atno 6907 bound_to 6896
  150.7021  134.1300  159.4075 H   0  0  0  0  0  0  0  0  0  0  0  0  # atno 6908 bound_to 6896
  151.9220  135.0294  160.0573 H   0  0  0  0  0  0  0  0  0  0  0  0  # atno 6909 bound_to 6896
  145.6389  140.9317  143.1047 H   0  0  0  0  0  0  0  0  0  0  0  0  # atno 7974 bound_to 7965
  155.4819  140.0561  157.2966 H   0  0  0  0  0  0  0  0  0  0  0  0  # atno 8008 bound_to 7997
  154.4657  140.2017  156.0078 H   0  0  0  0  0  0  0  0  0  0  0  0  # atno 8009 bound_to 7997
  156.0969  140.3225  155.7894 H   0  0  0  0  0  0  0  0  0  0  0  0  # atno 8010 bound_to 7997
  140.6611  143.2637  151.4437 H   0  0  0  0  0  0  0  0  0  0  0  0  # atno 10167 bound_to 10162
  156.9343  130.5837  149.5650 H   0  0  0  0  0  0  0  0  0  0  0  0  # atno 10718 bound_to 10713
  154.0601  135.2875  155.3326 H   0  0  0  0  0  0  0  0  0  0  0  0  # atno 10763 bound_to 10752
  154.6813  135.5262  153.8271 H   0  0  0  0  0  0  0  0  0  0  0  0  # atno 10764 bound_to 10752
  153.0526  135.6582  154.0791 H   0  0  0  0  0  0  0  0  0  0  0  0  # atno 10765 bound_to 10752
  141.1195  133.8546  157.1341 H   0  0  0  0  0  0  0  0  0  0  0  0  # atno 11005 bound_to 11000
  144.7165  139.8179  143.7397 LP  0  0  0  0  0  0  0  0  0  0  0  0  # atno 17320 bound_to 7965
  146.1297  139.4330  143.0176 LP  0  0  0  0  0  0  0  0  0  0  0  0  # atno 17321 bound_to 7965
  139.5845  144.1635  152.2011 LP  0  0  0  0  0  0  0  0  0  0  0  0  # atno 17342 bound_to 10162
  140.0970  144.5572  150.7015 LP  0  0  0  0  0  0  0  0  0  0  0  0  # atno 17343 bound_to 10162
  156.0433  130.5513  150.8822 LP  0  0  0  0  0  0  0  0  0  0  0  0  # atno 17370 bound_to 10713
  157.5826  131.0946  150.9246 LP  0  0  0  0  0  0  0  0  0  0  0  0  # atno 17371 bound_to 10713
  140.0142  134.9975  157.0458 LP  0  0  0  0  0  0  0  0  0  0  0  0  # atno 17394 bound_to 11000
  140.4548  134.1545  155.7185 LP  0  0  0  0  0  0  0  0  0  0  0  0  # atno 17395 bound_to 11000

$$$$
