AV-unprocessed.smi:1929|AV-procd|sdf|7808|dock7
  -GOLD-   22720 9553D 1   1.00000     0.00000
 Structure written by MMmdl.
 43 44  0  0  0  0  0  0  0  0  4 V2000
  152.1010  139.3879  155.0546 C   0  0  0  0  0  0  0  0  0  0  0  0
  150.8680  139.7301  154.3559 N   0  5  0  0  0  0  0  0  0  0  0  0
  149.6588  139.1842  154.6559 C   0  0  0  0  0  0  0  0  0  0  0  0
  149.3392  138.3509  155.5103 O   0  0  0  0  0  0  0  0  0  0  0  0
  148.5662  139.7214  153.7242 C   0  0  0  0  0  0  0  0  0  0  0  0
  147.7997  138.6021  153.1204 N   0  3  2  0  0  0  0  0  0  0  0  0
  147.0432  138.9974  151.9010 C   0  0  0  0  0  0  0  0  0  0  0  0
  146.3614  137.7817  151.2496 C   0  0  0  0  0  0  0  0  0  0  0  0
  145.4377  137.0428  152.2374 C   0  0  2  0  0  0  0  0  0  0  0  0
  144.2503  137.8329  152.5645 N   0  0  0  0  0  0  0  0  0  0  0  0
  143.0694  137.3303  152.9538 C   0  0  0  0  0  0  0  0  0  0  0  0
  142.8603  136.1261  153.0971 O   0  0  0  0  0  0  0  0  0  0  0  0
  142.1607  138.3040  153.1373 N   0  0  0  0  0  0  0  0  0  0  0  0
  140.7906  138.1776  153.4950 C   0  0  0  0  0  0  0  0  0  0  0  0
  140.0764  139.3638  153.7750 C   0  0  0  0  0  0  0  0  0  0  0  0
  138.7177  139.2876  154.1439 C   0  0  0  0  0  0  0  0  0  0  0  0
  138.1131  138.0841  154.2379 N   0  3  0  0  0  0  0  0  0  0  0  0
  138.7576  136.9226  153.9951 C   0  0  0  0  0  0  0  0  0  0  0  0
  140.1168  136.9359  153.6212 C   0  0  0  0  0  0  0  0  0  0  0  0
  146.2255  136.6970  153.5127 C   0  0  0  0  0  0  0  0  0  0  0  0
  146.9243  137.9300  154.1148 C   0  0  0  0  0  0  0  0  0  0  0  0
  152.9714  139.8500  154.5890 H   0  0  0  0  0  0  0  0  0  0  0  0
  152.2912  138.3141  155.0658 H   0  0  0  0  0  0  0  0  0  0  0  0
  152.0939  139.7189  156.0932 H   0  0  0  0  0  0  0  0  0  0  0  0
  147.9040  140.3347  154.3369 H   0  0  0  0  0  0  0  0  0  0  0  0
  148.9594  140.3785  152.9451 H   0  0  0  0  0  0  0  0  0  0  0  0
  146.3016  139.7546  152.1600 H   0  0  0  0  0  0  0  0  0  0  0  0
  147.7113  139.4534  151.1703 H   0  0  0  0  0  0  0  0  0  0  0  0
  145.8083  138.0942  150.3633 H   0  0  0  0  0  0  0  0  0  0  0  0
  147.1289  137.0929  150.8942 H   0  0  0  0  0  0  0  0  0  0  0  0
  145.1057  136.1087  151.7804 H   0  0  0  0  0  0  0  0  0  0  0  0
  144.3335  138.8351  152.4749 H   0  0  0  0  0  0  0  0  0  0  0  0
  142.4644  139.2403  152.9129 H   0  0  0  0  0  0  0  0  0  0  0  0
  140.5598  140.3273  153.7011 H   0  0  0  0  0  0  0  0  0  0  0  0
  138.1016  140.1468  154.3659 H   0  0  0  0  0  0  0  0  0  0  0  0
  138.1722  136.0221  154.1110 H   0  0  0  0  0  0  0  0  0  0  0  0
  140.6157  135.9942  153.4503 H   0  0  0  0  0  0  0  0  0  0  0  0
  145.5673  136.2402  154.2529 H   0  0  0  0  0  0  0  0  0  0  0  0
  146.9788  135.9448  153.2736 H   0  0  0  0  0  0  0  0  0  0  0  0
  147.5196  137.6164  154.9733 H   0  0  0  0  0  0  0  0  0  0  0  0
  146.1855  138.6411  154.4875 H   0  0  0  0  0  0  0  0  0  0  0  0
  148.4865  137.9197  152.8324 H   0  0  0  0  0  0  0  0  0  0  0  0
  137.1294  138.0503  154.5080 H   0  0  0  0  0  0  0  0  0  0  0  0
  1  2  1  0  0  0  0
  1 22  1  0  0  0  0
  1 23  1  0  0  0  0
  1 24  1  0  0  0  0
  2  3  1  0  0  0  0
  3  4  2  0  0  0  0
  3  5  1  0  0  0  0
  5  6  1  0  0  0  0
  5 25  1  0  0  0  0
  5 26  1  0  0  0  0
  6 21  1  0  0  0  0
  6  7  1  0  0  0  0
  6 42  1  0  0  0  0
  7  8  1  0  0  0  0
  7 27  1  0  0  0  0
  7 28  1  0  0  0  0
  8  9  1  0  0  0  0
  8 29  1  0  0  0  0
  8 30  1  0  0  0  0
  9 10  1  0  0  0  0
  9 20  1  0  0  0  0
  9 31  1  0  0  0  0
 10 11  1  0  0  0  0
 10 32  1  0  0  0  0
 11 12  2  0  0  0  0
 11 13  1  0  0  0  0
 13 14  1  0  0  0  0
 13 33  1  0  0  0  0
 14 19  1  0  0  0  0
 14 15  2  0  0  0  0
 15 16  1  0  0  0  0
 15 34  1  0  0  0  0
 16 17  2  0  0  0  0
 16 35  1  0  0  0  0
 17 18  1  0  0  0  0
 17 43  1  0  0  0  0
 18 19  2  0  0  0  0
 18 36  1  0  0  0  0
 19 37  1  0  0  0  0
 20 21  1  0  0  0  0
 20 38  1  0  0  0  0
 20 39  1  0  0  0  0
 21 40  1  0  0  0  0
 21 41  1  0  0  0  0
M  CHG  1   2  -1
M  CHG  1   6   1
M  CHG  1  17   1
M  END
> <s_m_source_file>
AV-unprocessed.smi

> <i_m_source_file_index>
1929

> <i_lp_mmshare_version>
43012

> <i_f3d_flags>
0

> <s_epik_input>
W0NIM11bTkhdQyg9TylbQ0gyXU4xW0NIMl1bQ0gyXVtDSF0oW0NIMl1bQ0gyXTEpW05IXUMoPU8pW05IXWMyW2NIXVtjSF1uW2NIXVtjSF0y

> <s_epik_cmdline>
J2VwaWtfcHl0aG9uJywgJy1waCcsICc3LjAnLCAnLXRuJywgJzgnLCAnLW1hJywgJzIwMCcsICctbWV0YWxfYmluZGluZycsICctaW1hZScsICc8aW5maWxlLm1hZT4nLCAnLW9tYWUnLCAnPG91dGZpbGUubWFlPic=

> <r_epik_Ionization_Penalty>
7.25133

> <r_epik_Ionization_Penalty_Charging>
7.25131

> <r_epik_Ionization_Penalty_Neutral>
1.84563e-05

> <r_epik_State_Penalty>
8.093

> <r_epik_Charging_Adjusted_Penalty>
15.3443

> <i_epik_Tot_Q>
1

> <i_epik_Tot_abs_Q>
3

> <r_epik_Metal_State_Penalty>
4.12368

> <b_epik_Metal_Only>
1

> <s_lp_Force_Field>
OPLS_2005

> <r_lp_Energy>
20.7097

> <b_lp_Chiralities_Consistent>
1

> <s_lp_Variant>
AV-unprocessed.smi:1929-10

> <Gold.Version>
5.8.1

> <Gold.Id.Protein>
6NUR|6NUR_protein|mol2

> <Gold.PLP.Fitness>
47.5940

> <Gold.PLP.PLP>
-34.2645

> <Gold.PLP.part.hbond>
-5.8137

> <Gold.PLP.part.metal>
0.0000

> <Gold.PLP.part.buried>
3.9708

> <Gold.PLP.part.nonpolar>
-32.5878

> <Gold.PLP.part.repulsive>
0.4094

> <Gold.PLP.ligand.clash>
0.0000

> <Gold.PLP.ligand.torsion>
0.5587

> <Gold.PLP.Chemscore.Hbond>
4.8000

> <Gold.PLP.Chemscore.CHOScore>
0.0000

> <Gold.PLP.Chemscore.Metal>
0.0000

> <Gold.Chemscore.Hbonds>
donor molecule, donor type, donor heavy atom, donor atom, acceptor molecule, acceptor atom, score
      L1  H     6    42       P1  7948  2.00
      L1  H    10    32       P1 10175  1.00
      L1  H    13    33       P1 10175  1.00
      P1  H  7989  7998       L1     2  0.55

> <Gold.PLP.Chemscore.Internal.Correction>
0.0469

> <Gold.Rescore>
     Score         DG    S(hbond)    S(metal)    S(lipo)     H(rot)  DE(clash)    DE(int)     intcor
     15.70     -20.53       3.16        0.00      74.65       1.66       1.66       3.16       ----

> <Gold.Chemscore.Fitness>
15.7029

> <Gold.Chemscore.DG>
-20.5286

> <Gold.Chemscore.ZeroCoef>
-5.4800

> <Gold.Chemscore.Hbond>
3.1610

> <Gold.Chemscore.Metal>
0.0000

> <Gold.Chemscore.Lipo>
74.6491

> <Gold.Chemscore.Internal_Hbond>
0.0000

> <Gold.Chemscore.DEClash>
1.6621

> <Gold.Chemscore.DEInternal>
3.1635

> <Gold.Chemscore.Rot>
1.6574

> <Gold.Chemscore.Internal.Correction>
   9.000000E+99

> <Gold.Chemscore.Hbonds>
donor molecule, donor type, donor heavy atom, donor atom, acceptor molecule, acceptor atom, score
      L1  H     6    42       P1  7948  0.93
      L1  H    10    32       P1 10175  0.96
      L1  H    13    33       P1 10175  0.98
      P1  H  7989  7998       L1     2  0.03

> <Gold.Chemscore.Hbond.Weighted>
-10.5576

> <Gold.Chemscore.Metal.Weighted>
-0.0000

> <Gold.Chemscore.Lipo.Weighted>
-8.7339

> <Gold.Chemscore.Internal_Hbond.Weighted>
0.0000

> <Gold.Chemscore.DEClash.Weighted>
1.6621

> <Gold.Chemscore.DEInternal.Weighted>
3.1635

> <Gold.Chemscore.Rot.Weighted>
4.2430

> <Gold.Chemscore.Internal.Correction.Weighted>
   9.000000E+99

> <Gold.Protein.RotatedTorsions>
[ 6907 6896 6895 6894 ] final -111.26 input  -60.11 | X-H torsion
[ 7974 7965 7964 7962 ] final  -86.78 input  175.53 | X-H torsion
[ 8008 7997 7996 7995 ] final  -92.56 input   59.86 | X-H torsion
[ 10167 10162 10161 10158 ] final  104.31 input  -65.29 | X-H torsion
[ 10718 10713 10712 10709 ] final   94.18 input   66.30 | X-H torsion
[ 10763 10752 10751 10750 ] final  -41.17 input  -60.55 | X-H torsion
[ 11005 11000 10999 10996 ] final  -26.59 input  -57.11 | X-H torsion

> <Gold.Protein.ActiveResidues>
 VAL166  LYS551  ARG553  GLY616  TRP617  ASP618  TYR619  PRO620  LYS621  CYS622 
 ASP623  PHE694  ASN695  SER759  ASP760  ASP761  ALA762  ILE779  LEU786  VAL792 
 PHE793  MET794  SER795  GLU796  ALA797  LYS798  CYS799  TRP800  GLU811  SER814 

> <Gold.Protein.RotatedAtoms>
  150.7679  133.9261  159.3412 H   0  0  0  0  0  0  0  0  0  0  0  0  # atno 6907 bound_to 6896
  151.7154  135.0902  160.0284 H   0  0  0  0  0  0  0  0  0  0  0  0  # atno 6908 bound_to 6896
  152.3683  133.6347  159.6103 H   0  0  0  0  0  0  0  0  0  0  0  0  # atno 6909 bound_to 6896
  145.4753  140.9558  143.1894 H   0  0  0  0  0  0  0  0  0  0  0  0  # atno 7974 bound_to 7965
  154.7246  140.0508  157.0671 H   0  0  0  0  0  0  0  0  0  0  0  0  # atno 8008 bound_to 7997
  155.0382  140.3165  155.4715 H   0  0  0  0  0  0  0  0  0  0  0  0  # atno 8009 bound_to 7997
  156.2825  140.2137  156.5505 H   0  0  0  0  0  0  0  0  0  0  0  0  # atno 8010 bound_to 7997
  139.7188  144.7062  151.0906 H   0  0  0  0  0  0  0  0  0  0  0  0  # atno 10167 bound_to 10162
  157.6950  131.0503  150.4147 H   0  0  0  0  0  0  0  0  0  0  0  0  # atno 10718 bound_to 10713
  153.9582  135.6743  153.4745 H   0  0  0  0  0  0  0  0  0  0  0  0  # atno 10763 bound_to 10752
  153.0851  135.4903  154.8578 H   0  0  0  0  0  0  0  0  0  0  0  0  # atno 10764 bound_to 10752
  154.7288  135.3133  154.8886 H   0  0  0  0  0  0  0  0  0  0  0  0  # atno 10765 bound_to 10752
  140.9043  133.7503  156.0585 H   0  0  0  0  0  0  0  0  0  0  0  0  # atno 11005 bound_to 11000
  144.7921  139.6308  143.7109 LP  0  0  0  0  0  0  0  0  0  0  0  0  # atno 17320 bound_to 7965
  146.2373  139.5930  142.9515 LP  0  0  0  0  0  0  0  0  0  0  0  0  # atno 17321 bound_to 7965
  140.7749  143.5194  150.9555 LP  0  0  0  0  0  0  0  0  0  0  0  0  # atno 17342 bound_to 10162
  139.8880  143.6988  152.3149 LP  0  0  0  0  0  0  0  0  0  0  0  0  # atno 17343 bound_to 10162
  156.4528  130.4015  149.6625 LP  0  0  0  0  0  0  0  0  0  0  0  0  # atno 17370 bound_to 10713
  156.3768  130.7559  151.2548 LP  0  0  0  0  0  0  0  0  0  0  0  0  # atno 17371 bound_to 10713
  140.8190  134.3311  157.5387 LP  0  0  0  0  0  0  0  0  0  0  0  0  # atno 17394 bound_to 11000
  139.8747  134.9298  156.3487 LP  0  0  0  0  0  0  0  0  0  0  0  0  # atno 17395 bound_to 11000

$$$$
