AV-unprocessed.smi:1406|AV-procd|sdf|5710|dock3
  -GOLD-   22720 5343D 1   1.00000     0.00000
 Structure written by MMmdl.
 41 43  0  0  0  0  0  0  0  0  2 V2000
  149.3623  139.2694  154.3982 C   0  0  0  0  0  0  0  0  0  0  0  0
  150.7148  138.5567  154.6017 C   0  0  1  0  0  0  0  0  0  0  0  0
  151.7292  139.4014  155.3927 C   0  0  0  0  0  0  0  0  0  0  0  0
  152.7720  139.7948  154.8689 O   0  0  0  0  0  0  0  0  0  0  0  0
  151.4077  139.6769  156.6663 N   0  0  0  0  0  0  0  0  0  0  0  0
  152.1954  140.5171  157.5604 C   0  0  2  0  0  0  0  0  0  0  0  0
  152.9971  139.7361  158.6124 C   0  0  0  0  0  0  0  0  0  0  0  0
  152.9249  140.5902  159.8944 C   0  0  0  0  0  0  0  0  0  0  0  0
  152.1748  141.8202  159.5479 N   0  3  1  0  0  0  0  0  0  0  0  0
  153.0808  142.9679  159.2663 C   0  0  0  0  0  0  0  0  0  0  0  0
  152.3276  144.1682  158.6783 C   0  0  0  0  0  0  0  0  0  0  0  0
  151.6058  143.7603  157.3915 C   0  0  0  0  0  0  0  0  0  0  0  0
  150.6347  142.6136  157.6921 C   0  0  0  0  0  0  0  0  0  0  0  0
  151.3053  141.4234  158.4141 C   0  0  1  0  0  0  0  0  0  0  0  0
  150.5465  137.2474  155.2224 N   0  0  0  0  0  0  0  0  0  0  0  0
  149.4407  136.6370  155.6541 C   0  0  0  0  0  0  0  0  0  0  0  0
  149.6485  135.4154  156.1244 N   0  0  0  0  0  0  0  0  0  0  0  0
  150.9991  135.3265  155.9402 C   0  0  0  0  0  0  0  0  0  0  0  0
  151.5850  136.3916  155.3936 N   0  0  0  0  0  0  0  0  0  0  0  0
  149.4890  140.2116  153.8637 H   0  0  0  0  0  0  0  0  0  0  0  0
  148.8706  139.4898  155.3467 H   0  0  0  0  0  0  0  0  0  0  0  0
  148.6825  138.6519  153.8105 H   0  0  0  0  0  0  0  0  0  0  0  0
  151.1467  138.3903  153.6137 H   0  0  0  0  0  0  0  0  0  0  0  0
  150.5366  139.3134  157.0251 H   0  0  0  0  0  0  0  0  0  0  0  0
  152.8790  141.1334  156.9735 H   0  0  0  0  0  0  0  0  0  0  0  0
  152.5615  138.7531  158.7976 H   0  0  0  0  0  0  0  0  0  0  0  0
  154.0256  139.5822  158.2843 H   0  0  0  0  0  0  0  0  0  0  0  0
  152.3659  140.0520  160.6608 H   0  0  0  0  0  0  0  0  0  0  0  0
  153.9118  140.8046  160.3073 H   0  0  0  0  0  0  0  0  0  0  0  0
  153.5793  143.2609  160.1910 H   0  0  0  0  0  0  0  0  0  0  0  0
  153.8667  142.6611  158.5739 H   0  0  0  0  0  0  0  0  0  0  0  0
  151.6103  144.5521  159.4049 H   0  0  0  0  0  0  0  0  0  0  0  0
  153.0257  144.9798  158.4713 H   0  0  0  0  0  0  0  0  0  0  0  0
  151.0639  144.6111  156.9777 H   0  0  0  0  0  0  0  0  0  0  0  0
  152.3298  143.4548  156.6353 H   0  0  0  0  0  0  0  0  0  0  0  0
  149.8333  142.9972  158.3252 H   0  0  0  0  0  0  0  0  0  0  0  0
  150.1538  142.2769  156.7729 H   0  0  0  0  0  0  0  0  0  0  0  0
  150.5088  140.8061  158.8353 H   0  0  0  0  0  0  0  0  0  0  0  0
  148.4618  137.0921  155.6164 H   0  0  0  0  0  0  0  0  0  0  0  0
  151.5665  134.4476  156.2098 H   0  0  0  0  0  0  0  0  0  0  0  0
  151.5895  142.0866  160.3269 H   0  0  0  0  0  0  0  0  0  0  0  0
  1  2  1  0  0  0  0
  1 20  1  0  0  0  0
  1 21  1  0  0  0  0
  1 22  1  0  0  0  0
  2  3  1  0  0  0  0
  2 15  1  0  0  0  0
  2 23  1  0  0  0  0
  3  4  2  0  0  0  0
  3  5  1  0  0  0  0
  5  6  1  0  0  0  0
  5 24  1  0  0  0  0
  6 14  1  0  0  0  0
  6  7  1  0  0  0  0
  6 25  1  0  0  0  0
  7  8  1  0  0  0  0
  7 26  1  0  0  0  0
  7 27  1  0  0  0  0
  8  9  1  0  0  0  0
  8 28  1  0  0  0  0
  8 29  1  0  0  0  0
  9 14  1  0  0  0  0
  9 10  1  0  0  0  0
  9 41  1  0  0  0  0
 10 11  1  0  0  0  0
 10 30  1  0  0  0  0
 10 31  1  0  0  0  0
 11 12  1  0  0  0  0
 11 32  1  0  0  0  0
 11 33  1  0  0  0  0
 12 13  1  0  0  0  0
 12 34  1  0  0  0  0
 12 35  1  0  0  0  0
 13 14  1  0  0  0  0
 13 36  1  0  0  0  0
 13 37  1  0  0  0  0
 14 38  1  0  0  0  0
 15 19  1  0  0  0  0
 15 16  1  0  0  0  0
 16 17  2  0  0  0  0
 16 39  1  0  0  0  0
 17 18  1  0  0  0  0
 18 19  2  0  0  0  0
 18 40  1  0  0  0  0
M  CHG  1   9   1
M  END
> <s_m_source_file>
AV-unprocessed.smi

> <i_m_source_file_index>
1406

> <i_lp_mmshare_version>
43012

> <i_f3d_flags>
0

> <s_epik_input>
bjFbY0hdbltjSF1uMVtDQEhdKFtDSDNdKUMoPU8pW05IXVtDQEhdKFtDSDJdW0NIMl0yKVtDQEBIXShOMjMpW0NIMl1bQ0gyXVtDSDJdW0NIMl0z

> <s_epik_cmdline>
J2VwaWtfcHl0aG9uJywgJy1waCcsICc3LjAnLCAnLXRuJywgJzgnLCAnLW1hJywgJzIwMCcsICctbWV0YWxfYmluZGluZycsICctaW1hZScsICc8aW5maWxlLm1hZT4nLCAnLW9tYWUnLCAnPG91dGZpbGUubWFlPic=

> <r_lp_tautomer_probability>
1

> <r_epik_Ionization_Penalty>
0.00197066

> <r_epik_Ionization_Penalty_Charging>
0.00196223

> <r_epik_Ionization_Penalty_Neutral>
8.43107e-06

> <r_epik_State_Penalty>
0.00133866

> <r_epik_Charging_Adjusted_Penalty>
0.00330089

> <i_epik_Tot_Q>
1

> <i_epik_Tot_abs_Q>
1

> <r_epik_Metal_State_Penalty>
-0

> <b_epik_Metal_Only>
0

> <s_lp_Force_Field>
OPLS_2005

> <r_lp_Energy>
42.7017

> <b_lp_Chiralities_Consistent>
1

> <s_lp_Variant>
AV-unprocessed.smi:1406-2

> <Gold.Version>
5.8.1

> <Gold.Id.Protein>
6NUR|6NUR_protein|mol2

> <Gold.PLP.Fitness>
42.9129

> <Gold.PLP.PLP>
-36.6267

> <Gold.PLP.part.hbond>
-3.0000

> <Gold.PLP.part.metal>
0.0000

> <Gold.PLP.part.buried>
-3.9963

> <Gold.PLP.part.nonpolar>
-29.7452

> <Gold.PLP.part.repulsive>
0.3524

> <Gold.PLP.ligand.clash>
0.0000

> <Gold.PLP.ligand.torsion>
0.2890

> <Gold.PLP.Chemscore.Hbond>
2.2531

> <Gold.PLP.Chemscore.CHOScore>
0.0000

> <Gold.PLP.Chemscore.Metal>
0.0000

> <Gold.Chemscore.Hbonds>
donor molecule, donor type, donor heavy atom, donor atom, acceptor molecule, acceptor atom, score
      P1  H  7989  7998       L1     4  0.25
      P1  H  7997  8010       L1     4  1.00
      P1  H 10752 10764       L1    19  1.00

> <Gold.PLP.Chemscore.Internal.Correction>
0.1048

> <Gold.Rescore>
     Score         DG    S(hbond)    S(metal)    S(lipo)     H(rot)  DE(clash)    DE(int)     intcor
     16.54     -17.08       1.96        0.00      84.59       1.89       0.13       0.41       ----

> <Gold.Chemscore.Fitness>
16.5385

> <Gold.Chemscore.DG>
-17.0808

> <Gold.Chemscore.ZeroCoef>
-5.4800

> <Gold.Chemscore.Hbond>
1.9560

> <Gold.Chemscore.Metal>
0.0000

> <Gold.Chemscore.Lipo>
84.5915

> <Gold.Chemscore.Internal_Hbond>
0.0000

> <Gold.Chemscore.DEClash>
0.1345

> <Gold.Chemscore.DEInternal>
0.4078

> <Gold.Chemscore.Rot>
1.8865

> <Gold.Chemscore.Internal.Correction>
   9.000000E+99

> <Gold.Chemscore.Hbonds>
donor molecule, donor type, donor heavy atom, donor atom, acceptor molecule, acceptor atom, score
      P1  H  7989  7998       L1     4  0.01
      P1  H  7997  8010       L1     4  0.95
      P1  H 10752 10764       L1    19  0.26

> <Gold.Chemscore.Hbond.Weighted>
-6.5331

> <Gold.Chemscore.Metal.Weighted>
-0.0000

> <Gold.Chemscore.Lipo.Weighted>
-9.8972

> <Gold.Chemscore.Internal_Hbond.Weighted>
0.0000

> <Gold.Chemscore.DEClash.Weighted>
0.1345

> <Gold.Chemscore.DEInternal.Weighted>
0.4078

> <Gold.Chemscore.Rot.Weighted>
4.8295

> <Gold.Chemscore.Internal.Correction.Weighted>
   9.000000E+99

> <Gold.Protein.RotatedTorsions>
[ 6907 6896 6895 6894 ] final  -80.64 input  -60.11 | X-H torsion
[ 7974 7965 7964 7962 ] final  -96.68 input  175.53 | X-H torsion
[ 8008 7997 7996 7995 ] final  101.35 input   59.86 | X-H torsion
[ 10167 10162 10161 10158 ] final   40.27 input  -65.29 | X-H torsion
[ 10718 10713 10712 10709 ] final    9.12 input   66.30 | X-H torsion
[ 10763 10752 10751 10750 ] final  -61.71 input  -60.55 | X-H torsion
[ 11005 11000 10999 10996 ] final  151.86 input  -57.11 | X-H torsion

> <Gold.Protein.ActiveResidues>
 VAL166  LYS551  ARG553  GLY616  TRP617  ASP618  TYR619  PRO620  LYS621  CYS622 
 ASP623  PHE694  ASN695  SER759  ASP760  ASP761  ALA762  ILE779  LEU786  VAL792 
 PHE793  MET794  SER795  GLU796  ALA797  LYS798  CYS799  TRP800  GLU811  SER814 

> <Gold.Protein.RotatedAtoms>
  150.6926  134.3938  159.5087 H   0  0  0  0  0  0  0  0  0  0  0  0  # atno 6907 bound_to 6896
  152.1722  134.8822  160.0542 H   0  0  0  0  0  0  0  0  0  0  0  0  # atno 6908 bound_to 6896
  151.9843  133.3734  159.4156 H   0  0  0  0  0  0  0  0  0  0  0  0  # atno 6909 bound_to 6896
  145.3437  140.9464  143.2594 H   0  0  0  0  0  0  0  0  0  0  0  0  # atno 7974 bound_to 7965
  156.1290  140.3199  155.8321 H   0  0  0  0  0  0  0  0  0  0  0  0  # atno 8008 bound_to 7997
  155.4366  140.0522  157.3031 H   0  0  0  0  0  0  0  0  0  0  0  0  # atno 8009 bound_to 7997
  154.4885  140.2082  155.9614 H   0  0  0  0  0  0  0  0  0  0  0  0  # atno 8010 bound_to 7997
  140.3758  144.2044  150.6131 H   0  0  0  0  0  0  0  0  0  0  0  0  # atno 10167 bound_to 10162
  156.9617  130.5935  149.5662 H   0  0  0  0  0  0  0  0  0  0  0  0  # atno 10718 bound_to 10713
  154.2887  135.6257  153.5376 H   0  0  0  0  0  0  0  0  0  0  0  0  # atno 10763 bound_to 10752
  152.9855  135.5650  154.5414 H   0  0  0  0  0  0  0  0  0  0  0  0  # atno 10764 bound_to 10752
  154.5020  135.2872  155.1388 H   0  0  0  0  0  0  0  0  0  0  0  0  # atno 10765 bound_to 10752
  140.1256  134.8835  157.2133 H   0  0  0  0  0  0  0  0  0  0  0  0  # atno 11005 bound_to 11000
  144.8771  139.4956  143.6740 LP  0  0  0  0  0  0  0  0  0  0  0  0  # atno 17320 bound_to 7965
  146.2997  139.7387  142.9100 LP  0  0  0  0  0  0  0  0  0  0  0  0  # atno 17321 bound_to 7965
  140.4987  143.2324  151.8711 LP  0  0  0  0  0  0  0  0  0  0  0  0  # atno 17342 bound_to 10162
  139.4799  144.5084  151.8966 LP  0  0  0  0  0  0  0  0  0  0  0  0  # atno 17343 bound_to 10162
  156.0319  130.5410  150.8556 LP  0  0  0  0  0  0  0  0  0  0  0  0  # atno 17370 bound_to 10713
  157.5653  131.0946  150.9499 LP  0  0  0  0  0  0  0  0  0  0  0  0  # atno 17371 bound_to 10713
  140.2908  134.3242  155.7316 LP  0  0  0  0  0  0  0  0  0  0  0  0  # atno 17394 bound_to 11000
  141.2160  133.7533  156.9501 LP  0  0  0  0  0  0  0  0  0  0  0  0  # atno 17395 bound_to 11000

$$$$
