AV-unprocessed.smi:667|AV-procd|sdf|3256|dock4
  -GOLD-   22720 0203D 1   1.00000     0.00000
 Structure written by MMmdl.
 48 49  0  0  0  0  0  0  0  0  1 V2000
  146.4993  142.4393  154.2590 C   0  0  0  0  0  0  0  0  0  0  0  0
  147.3222  141.1978  154.0658 C   0  0  0  0  0  0  0  0  0  0  0  0
  146.7174  140.0648  153.7499 N   0  0  0  0  0  0  0  0  0  0  0  0
  147.7114  139.1597  153.6493 N   0  0  0  0  0  0  0  0  0  0  0  0
  147.3902  137.7859  153.3149 C   0  0  0  0  0  0  0  0  0  0  0  0
  148.9479  139.7236  153.8983 C   0  0  0  0  0  0  0  0  0  0  0  0
  150.2148  138.9320  153.8423 C   0  0  0  0  0  0  0  0  0  0  0  0
  148.7355  141.0461  154.1841 C   0  0  0  0  0  0  0  0  0  0  0  0
  149.7477  142.1052  154.5433 C   0  0  0  0  0  0  0  0  0  0  0  0
  150.5129  141.6991  155.8048 C   0  0  0  0  0  0  0  0  0  0  0  0
  151.2480  140.7111  155.7928 O   0  0  0  0  0  0  0  0  0  0  0  0
  150.3364  142.4743  156.8859 N   0  0  0  0  0  0  0  0  0  0  0  0
  151.0000  142.2825  158.1708 C   0  0  0  0  0  0  0  0  0  0  0  0
  152.2060  143.2379  158.3471 C   0  0  1  0  0  0  0  0  0  0  0  0
  151.8139  144.7012  158.1819 C   0  0  0  0  0  0  0  0  0  0  0  0
  151.4201  145.1355  159.5969 C   0  0  0  0  0  0  0  0  0  0  0  0
  151.8652  144.0986  160.4661 O   0  0  0  0  0  0  0  0  0  0  0  0
  152.7913  143.2768  159.7691 C   0  0  1  0  0  0  0  0  0  0  0  0
  153.0087  141.9270  160.4897 C   0  0  0  0  0  0  0  0  0  0  0  0
  153.2901  142.1418  161.9857 C   0  0  0  0  0  0  0  0  0  0  0  0
  154.1506  141.1168  159.8515 C   0  0  0  0  0  0  0  0  0  0  0  0
  147.0190  143.3175  153.8772 H   0  0  0  0  0  0  0  0  0  0  0  0
  146.2924  142.6085  155.3156 H   0  0  0  0  0  0  0  0  0  0  0  0
  145.5437  142.3730  153.7377 H   0  0  0  0  0  0  0  0  0  0  0  0
  147.7848  137.1202  154.0829 H   0  0  0  0  0  0  0  0  0  0  0  0
  147.8377  137.5279  152.3548 H   0  0  0  0  0  0  0  0  0  0  0  0
  146.3102  137.6467  153.2499 H   0  0  0  0  0  0  0  0  0  0  0  0
  151.0800  139.5843  153.7242 H   0  0  0  0  0  0  0  0  0  0  0  0
  150.2102  138.2389  153.0011 H   0  0  0  0  0  0  0  0  0  0  0  0
  150.3493  138.3547  154.7570 H   0  0  0  0  0  0  0  0  0  0  0  0
  150.4463  142.2698  153.7219 H   0  0  0  0  0  0  0  0  0  0  0  0
  149.2709  143.0682  154.7268 H   0  0  0  0  0  0  0  0  0  0  0  0
  149.7117  143.2637  156.8079 H   0  0  0  0  0  0  0  0  0  0  0  0
  150.2670  142.4450  158.9614 H   0  0  0  0  0  0  0  0  0  0  0  0
  151.3082  141.2400  158.2525 H   0  0  0  0  0  0  0  0  0  0  0  0
  152.9819  142.9679  157.6294 H   0  0  0  0  0  0  0  0  0  0  0  0
  152.6805  145.2758  157.8519 H   0  0  0  0  0  0  0  0  0  0  0  0
  151.0174  144.8692  157.4573 H   0  0  0  0  0  0  0  0  0  0  0  0
  151.8870  146.0845  159.8629 H   0  0  0  0  0  0  0  0  0  0  0  0
  150.3403  145.2479  159.6971 H   0  0  0  0  0  0  0  0  0  0  0  0
  153.7429  143.8123  159.7374 H   0  0  0  0  0  0  0  0  0  0  0  0
  152.0937  141.3386  160.4201 H   0  0  0  0  0  0  0  0  0  0  0  0
  154.1918  142.7361  162.1385 H   0  0  0  0  0  0  0  0  0  0  0  0
  153.4271  141.1905  162.5003 H   0  0  0  0  0  0  0  0  0  0  0  0
  152.4642  142.6590  162.4749 H   0  0  0  0  0  0  0  0  0  0  0  0
  155.0943  141.6608  159.8983 H   0  0  0  0  0  0  0  0  0  0  0  0
  153.9513  140.8911  158.8041 H   0  0  0  0  0  0  0  0  0  0  0  0
  154.2909  140.1653  160.3647 H   0  0  0  0  0  0  0  0  0  0  0  0
  1  2  1  0  0  0  0
  1 22  1  0  0  0  0
  1 23  1  0  0  0  0
  1 24  1  0  0  0  0
  2  8  1  0  0  0  0
  2  3  2  0  0  0  0
  3  4  1  0  0  0  0
  4  5  1  0  0  0  0
  4  6  1  0  0  0  0
  5 25  1  0  0  0  0
  5 26  1  0  0  0  0
  5 27  1  0  0  0  0
  6  7  1  0  0  0  0
  6  8  2  0  0  0  0
  7 28  1  0  0  0  0
  7 29  1  0  0  0  0
  7 30  1  0  0  0  0
  8  9  1  0  0  0  0
  9 10  1  0  0  0  0
  9 31  1  0  0  0  0
  9 32  1  0  0  0  0
 10 11  2  0  0  0  0
 10 12  1  0  0  0  0
 12 13  1  0  0  0  0
 12 33  1  0  0  0  0
 13 14  1  0  0  0  0
 13 34  1  0  0  0  0
 13 35  1  0  0  0  0
 14 18  1  0  0  0  0
 14 15  1  0  0  0  0
 14 36  1  0  0  0  0
 15 16  1  0  0  0  0
 15 37  1  0  0  0  0
 15 38  1  0  0  0  0
 16 17  1  0  0  0  0
 16 39  1  0  0  0  0
 16 40  1  0  0  0  0
 17 18  1  0  0  0  0
 18 19  1  0  0  0  0
 18 41  1  0  0  0  0
 19 20  1  0  0  0  0
 19 21  1  0  0  0  0
 19 42  1  0  0  0  0
 20 43  1  0  0  0  0
 20 44  1  0  0  0  0
 20 45  1  0  0  0  0
 21 46  1  0  0  0  0
 21 47  1  0  0  0  0
 21 48  1  0  0  0  0
M  END
> <s_m_source_file>
AV-unprocessed.smi

> <i_m_source_file_index>
667

> <i_lp_mmshare_version>
43012

> <i_f3d_flags>
0

> <s_epik_input>
W0NIM11jMW5uKFtDSDNdKWMoW0NIM10pYzFbQ0gyXUMoPU8pW05IXVtDSDJdW0NAQEhdMltDSDJdW0NIMl1PW0NASF0yW0NIXShbQ0gzXSlbQ0gzXQ==

> <s_epik_cmdline>
J2VwaWtfcHl0aG9uJywgJy1waCcsICc3LjAnLCAnLXRuJywgJzgnLCAnLW1hJywgJzIwMCcsICctbWV0YWxfYmluZGluZycsICctaW1hZScsICc8aW5maWxlLm1hZT4nLCAnLW9tYWUnLCAnPG91dGZpbGUubWFlPic=

> <r_lp_tautomer_probability>
1

> <r_epik_Ionization_Penalty>
0.00315488

> <r_epik_Ionization_Penalty_Charging>
0

> <r_epik_Ionization_Penalty_Neutral>
0.00315488

> <r_epik_State_Penalty>
0.00222269

> <r_epik_Charging_Adjusted_Penalty>
0.00222269

> <i_epik_Tot_Q>
0

> <i_epik_Tot_abs_Q>
0

> <r_epik_Metal_State_Penalty>
-0

> <b_epik_Metal_Only>
0

> <s_lp_Force_Field>
OPLS_2005

> <r_lp_Energy>
16.6838

> <b_lp_Chiralities_Consistent>
1

> <s_lp_Variant>
AV-unprocessed.smi:667-2

> <Gold.Version>
5.8.1

> <Gold.Id.Protein>
6NUR|6NUR_protein|mol2

> <Gold.PLP.Fitness>
50.7620

> <Gold.PLP.PLP>
-48.3655

> <Gold.PLP.part.hbond>
-1.0000

> <Gold.PLP.part.metal>
0.0000

> <Gold.PLP.part.buried>
-5.0181

> <Gold.PLP.part.nonpolar>
-42.2809

> <Gold.PLP.part.repulsive>
0.2315

> <Gold.PLP.ligand.clash>
0.0000

> <Gold.PLP.ligand.torsion>
0.3119

> <Gold.PLP.Chemscore.Hbond>
0.9913

> <Gold.PLP.Chemscore.CHOScore>
0.0000

> <Gold.PLP.Chemscore.Metal>
0.0000

> <Gold.Chemscore.Hbonds>
donor molecule, donor type, donor heavy atom, donor atom, acceptor molecule, acceptor atom, score
      L1  H    12    33       P1  8028  0.99
      P1  H  7989  7998       L1    11  0.14

> <Gold.PLP.Chemscore.Internal.Correction>
0.0466

> <Gold.Rescore>
     Score         DG    S(hbond)    S(metal)    S(lipo)     H(rot)  DE(clash)    DE(int)     intcor
     19.43     -19.89       1.00        0.00     128.03       1.52       0.22       0.23       ----

> <Gold.Chemscore.Fitness>
19.4347

> <Gold.Chemscore.DG>
-19.8893

> <Gold.Chemscore.ZeroCoef>
-5.4800

> <Gold.Chemscore.Hbond>
0.9953

> <Gold.Chemscore.Metal>
0.0000

> <Gold.Chemscore.Lipo>
128.0299

> <Gold.Chemscore.Internal_Hbond>
0.0000

> <Gold.Chemscore.DEClash>
0.2211

> <Gold.Chemscore.DEInternal>
0.2335

> <Gold.Chemscore.Rot>
1.5213

> <Gold.Chemscore.Internal.Correction>
   9.000000E+99

> <Gold.Chemscore.Hbonds>
donor molecule, donor type, donor heavy atom, donor atom, acceptor molecule, acceptor atom, score
      L1  H    12    33       P1  8028  0.87
      P1  H  7989  7998       L1    11  0.01

> <Gold.Chemscore.Hbond.Weighted>
-3.3243

> <Gold.Chemscore.Metal.Weighted>
-0.0000

> <Gold.Chemscore.Lipo.Weighted>
-14.9795

> <Gold.Chemscore.Internal_Hbond.Weighted>
0.0000

> <Gold.Chemscore.DEClash.Weighted>
0.2211

> <Gold.Chemscore.DEInternal.Weighted>
0.2335

> <Gold.Chemscore.Rot.Weighted>
3.8945

> <Gold.Chemscore.Internal.Correction.Weighted>
   9.000000E+99

> <Gold.Protein.RotatedTorsions>
[ 6907 6896 6895 6894 ] final  -57.08 input  -60.11 | X-H torsion
[ 7974 7965 7964 7962 ] final  105.63 input  175.53 | X-H torsion
[ 8008 7997 7996 7995 ] final   76.26 input   59.86 | X-H torsion
[ 10167 10162 10161 10158 ] final -153.71 input  -65.29 | X-H torsion
[ 10718 10713 10712 10709 ] final -113.14 input   66.30 | X-H torsion
[ 10763 10752 10751 10750 ] final    4.73 input  -60.55 | X-H torsion
[ 11005 11000 10999 10996 ] final  -13.21 input  -57.11 | X-H torsion

> <Gold.Protein.ActiveResidues>
 VAL166  LYS551  ARG553  GLY616  TRP617  ASP618  TYR619  PRO620  LYS621  CYS622 
 ASP623  PHE694  ASN695  SER759  ASP760  ASP761  ALA762  ILE779  LEU786  VAL792 
 PHE793  MET794  SER795  GLU796  ALA797  LYS798  CYS799  TRP800  GLU811  SER814 

> <Gold.Protein.RotatedAtoms>
  150.8115  134.7272  159.6691 H   0  0  0  0  0  0  0  0  0  0  0  0  # atno 6907 bound_to 6896
  152.4235  134.5908  159.9983 H   0  0  0  0  0  0  0  0  0  0  0  0  # atno 6908 bound_to 6896
  151.6117  133.3309  159.3105 H   0  0  0  0  0  0  0  0  0  0  0  0  # atno 6909 bound_to 6896
  145.3171  139.2523  143.3732 H   0  0  0  0  0  0  0  0  0  0  0  0  # atno 7974 bound_to 7965
  155.8247  140.3468  155.5535 H   0  0  0  0  0  0  0  0  0  0  0  0  # atno 8008 bound_to 7997
  155.8305  140.0926  157.1815 H   0  0  0  0  0  0  0  0  0  0  0  0  # atno 8009 bound_to 7997
  154.4004  140.1413  156.3595 H   0  0  0  0  0  0  0  0  0  0  0  0  # atno 8010 bound_to 7997
  139.7074  143.9164  152.2454 H   0  0  0  0  0  0  0  0  0  0  0  0  # atno 10167 bound_to 10162
  156.0748  130.5957  150.8603 H   0  0  0  0  0  0  0  0  0  0  0  0  # atno 10718 bound_to 10713
  153.2678  135.6929  153.7512 H   0  0  0  0  0  0  0  0  0  0  0  0  # atno 10763 bound_to 10752
  153.6547  135.3371  155.3111 H   0  0  0  0  0  0  0  0  0  0  0  0  # atno 10764 bound_to 10752
  154.8453  135.4463  154.1690 H   0  0  0  0  0  0  0  0  0  0  0  0  # atno 10765 bound_to 10752
  140.7737  133.8418  155.9230 H   0  0  0  0  0  0  0  0  0  0  0  0  # atno 11005 bound_to 11000
  146.3096  140.3720  142.8675 LP  0  0  0  0  0  0  0  0  0  0  0  0  # atno 17320 bound_to 7965
  144.8969  140.7594  143.5891 LP  0  0  0  0  0  0  0  0  0  0  0  0  # atno 17321 bound_to 7965
  139.9024  144.6904  150.8651 LP  0  0  0  0  0  0  0  0  0  0  0  0  # atno 17342 bound_to 10162
  140.7725  143.3504  151.2026 LP  0  0  0  0  0  0  0  0  0  0  0  0  # atno 17343 bound_to 10162
  157.5838  131.0946  150.9228 LP  0  0  0  0  0  0  0  0  0  0  0  0  # atno 17370 bound_to 10713
  156.9418  130.5387  149.5280 LP  0  0  0  0  0  0  0  0  0  0  0  0  # atno 17371 bound_to 10713
  140.9549  134.1731  157.4699 LP  0  0  0  0  0  0  0  0  0  0  0  0  # atno 17394 bound_to 11000
  139.8752  134.9923  156.5590 LP  0  0  0  0  0  0  0  0  0  0  0  0  # atno 17395 bound_to 11000

$$$$
