AV-unprocessed.smi:2428|AV-procd|sdf|9580|dock10
  -GOLD-   2272013213D 1   1.00000     0.00000
 Structure written by MMmdl.
 30 31  0  0  0  0  0  0  0  0  1 V2000
  152.3667  145.2927  159.0135 F   0  0  0  0  0  0  0  0  0  0  0  0
  151.5968  144.4206  159.6646 C   0  0  0  0  0  0  0  0  0  0  0  0
  151.9967  144.3730  160.9357 F   0  0  0  0  0  0  0  0  0  0  0  0
  150.3360  144.8501  159.6285 F   0  0  0  0  0  0  0  0  0  0  0  0
  151.6819  143.0570  158.9984 C   0  0  0  0  0  0  0  0  0  0  0  0
  152.1959  141.9490  159.7023 C   0  0  0  0  0  0  0  0  0  0  0  0
  152.2655  140.6996  159.0563 C   0  0  0  0  0  0  0  0  0  0  0  0
  151.8172  140.5973  157.7231 C   0  0  0  0  0  0  0  0  0  0  0  0
  151.8890  139.3494  157.0869 N   0  0  0  0  0  0  0  0  0  0  0  0
  151.7789  139.2355  155.6375 C   0  0  0  0  0  0  0  0  0  0  0  0
  150.4285  139.7503  155.1123 C   0  0  2  0  0  0  0  0  0  0  0  0
  149.9112  138.9747  153.9040 C   0  0  0  0  0  0  0  0  0  0  0  0
  148.9562  139.9551  153.2441 C   0  0  0  0  0  0  0  0  0  0  0  0
  149.3890  141.3185  153.7920 C   0  0  0  0  0  0  0  0  0  0  0  0
  150.5421  141.0618  154.5826 O   0  0  0  0  0  0  0  0  0  0  0  0
  151.3327  141.6603  157.0387 N   0  0  0  0  0  0  0  0  0  0  0  0
  151.2669  142.8551  157.6642 C   0  0  0  0  0  0  0  0  0  0  0  0
  152.5328  142.0537  160.7232 H   0  0  0  0  0  0  0  0  0  0  0  0
  152.6542  139.8378  159.5793 H   0  0  0  0  0  0  0  0  0  0  0  0
  151.7114  138.5213  157.6366 H   0  0  0  0  0  0  0  0  0  0  0  0
  152.6103  139.7303  155.1345 H   0  0  0  0  0  0  0  0  0  0  0  0
  151.8712  138.1760  155.3979 H   0  0  0  0  0  0  0  0  0  0  0  0
  149.6763  139.7415  155.9038 H   0  0  0  0  0  0  0  0  0  0  0  0
  150.7329  138.7496  153.2227 H   0  0  0  0  0  0  0  0  0  0  0  0
  149.4330  138.0342  154.1782 H   0  0  0  0  0  0  0  0  0  0  0  0
  149.0241  139.9074  152.1570 H   0  0  0  0  0  0  0  0  0  0  0  0
  147.9241  139.7452  153.5262 H   0  0  0  0  0  0  0  0  0  0  0  0
  149.6170  142.0326  153.0006 H   0  0  0  0  0  0  0  0  0  0  0  0
  148.6067  141.7453  154.4210 H   0  0  0  0  0  0  0  0  0  0  0  0
  150.8730  143.6693  157.0745 H   0  0  0  0  0  0  0  0  0  0  0  0
  1  2  1  0  0  0  0
  2  3  1  0  0  0  0
  2  4  1  0  0  0  0
  2  5  1  0  0  0  0
  5 17  1  0  0  0  0
  5  6  2  0  0  0  0
  6  7  1  0  0  0  0
  6 18  1  0  0  0  0
  7  8  2  0  0  0  0
  7 19  1  0  0  0  0
  8  9  1  0  0  0  0
  8 16  1  0  0  0  0
  9 10  1  0  0  0  0
  9 20  1  0  0  0  0
 10 11  1  0  0  0  0
 10 21  1  0  0  0  0
 10 22  1  0  0  0  0
 11 15  1  0  0  0  0
 11 12  1  0  0  0  0
 11 23  1  0  0  0  0
 12 13  1  0  0  0  0
 12 24  1  0  0  0  0
 12 25  1  0  0  0  0
 13 14  1  0  0  0  0
 13 26  1  0  0  0  0
 13 27  1  0  0  0  0
 14 15  1  0  0  0  0
 14 28  1  0  0  0  0
 14 29  1  0  0  0  0
 16 17  2  0  0  0  0
 17 30  1  0  0  0  0
M  END
> <s_m_source_file>
AV-unprocessed.smi

> <i_m_source_file_index>
2428

> <i_lp_mmshare_version>
43012

> <i_f3d_flags>
0

> <s_epik_input>
RkMoRikoRiljMVtjSF1bY0hdYyhuW2NIXTEpW05IXVtDSDJdW0NAQEhdMltDSDJdW0NIMl1bQ0gyXU8y

> <s_epik_cmdline>
J2VwaWtfcHl0aG9uJywgJy1waCcsICc3LjAnLCAnLXRuJywgJzgnLCAnLW1hJywgJzIwMCcsICctbWV0YWxfYmluZGluZycsICctaW1hZScsICc8aW5maWxlLm1hZT4nLCAnLW9tYWUnLCAnPG91dGZpbGUubWFlPic=

> <r_lp_tautomer_probability>
1

> <r_epik_Ionization_Penalty>
0.000819842

> <r_epik_Ionization_Penalty_Charging>
0

> <r_epik_Ionization_Penalty_Neutral>
0.000819842

> <r_epik_State_Penalty>
0.000527207

> <r_epik_Charging_Adjusted_Penalty>
0.000527207

> <i_epik_Tot_Q>
0

> <i_epik_Tot_abs_Q>
0

> <r_epik_Metal_State_Penalty>
-0

> <b_epik_Metal_Only>
0

> <s_lp_Force_Field>
OPLS_2005

> <r_lp_Energy>
19.3564

> <b_lp_Chiralities_Consistent>
1

> <s_lp_Variant>
AV-unprocessed.smi:2428-1

> <Gold.Version>
5.8.1

> <Gold.Id.Protein>
6NUR|6NUR_protein|mol2

> <Gold.PLP.Fitness>
41.6080

> <Gold.PLP.PLP>
-38.4808

> <Gold.PLP.part.hbond>
-1.0000

> <Gold.PLP.part.metal>
0.0000

> <Gold.PLP.part.buried>
-1.9678

> <Gold.PLP.part.nonpolar>
-35.4612

> <Gold.PLP.part.repulsive>
0.2431

> <Gold.PLP.ligand.clash>
0.8313

> <Gold.PLP.ligand.torsion>
0.5872

> <Gold.PLP.Chemscore.Hbond>
0.7040

> <Gold.PLP.Chemscore.CHOScore>
1.0000

> <Gold.PLP.Chemscore.Metal>
0.0000

> <Gold.Chemscore.Hbonds>
donor molecule, donor type, donor heavy atom, donor atom, acceptor molecule, acceptor atom, score
      P1  H  7989  7998       L1    15  0.64
      L1  C    17    30       P1  8028  0.73

> <Gold.PLP.Chemscore.Internal.Correction>
0.0208

> <Gold.Rescore>
     Score         DG    S(hbond)    S(metal)    S(lipo)     H(rot)  DE(clash)    DE(int)     intcor
     10.27     -13.78       0.67        0.00      79.20       1.25       0.31       3.20       ----

> <Gold.Chemscore.Fitness>
10.2733

> <Gold.Chemscore.DG>
-13.7794

> <Gold.Chemscore.ZeroCoef>
-5.4800

> <Gold.Chemscore.Hbond>
0.6695

> <Gold.Chemscore.Metal>
0.0000

> <Gold.Chemscore.Lipo>
79.2039

> <Gold.Chemscore.Internal_Hbond>
0.0000

> <Gold.Chemscore.DEClash>
0.3089

> <Gold.Chemscore.DEInternal>
3.1972

> <Gold.Chemscore.Rot>
1.2514

> <Gold.Chemscore.Internal.Correction>
   9.000000E+99

> <Gold.Chemscore.Hbonds>
donor molecule, donor type, donor heavy atom, donor atom, acceptor molecule, acceptor atom, score
      P1  H  7989  7998       L1    15  0.07

> <Gold.Chemscore.Hbond.Weighted>
-2.2361

> <Gold.Chemscore.Metal.Weighted>
-0.0000

> <Gold.Chemscore.Lipo.Weighted>
-9.2669

> <Gold.Chemscore.Internal_Hbond.Weighted>
0.0000

> <Gold.Chemscore.DEClash.Weighted>
0.3089

> <Gold.Chemscore.DEInternal.Weighted>
3.1972

> <Gold.Chemscore.Rot.Weighted>
3.2036

> <Gold.Chemscore.Internal.Correction.Weighted>
   9.000000E+99

> <Gold.Protein.RotatedTorsions>
[ 6907 6896 6895 6894 ] final  137.74 input  -60.11 | X-H torsion
[ 7974 7965 7964 7962 ] final  -77.27 input  175.53 | X-H torsion
[ 8008 7997 7996 7995 ] final   -4.31 input   59.86 | X-H torsion
[ 10167 10162 10161 10158 ] final   62.22 input  -65.29 | X-H torsion
[ 10718 10713 10712 10709 ] final  165.52 input   66.30 | X-H torsion
[ 10763 10752 10751 10750 ] final  112.60 input  -60.55 | X-H torsion
[ 11005 11000 10999 10996 ] final   47.43 input  -57.11 | X-H torsion

> <Gold.Protein.ActiveResidues>
 VAL166  LYS551  ARG553  GLY616  TRP617  ASP618  TYR619  PRO620  LYS621  CYS622 
 ASP623  PHE694  ASN695  SER759  ASP760  ASP761  ALA762  ILE779  LEU786  VAL792 
 PHE793  MET794  SER795  GLU796  ALA797  LYS798  CYS799  TRP800  GLU811  SER814 

> <Gold.Protein.RotatedAtoms>
  152.2746  133.5414  159.5459 H   0  0  0  0  0  0  0  0  0  0  0  0  # atno 6907 bound_to 6896
  150.7172  134.0649  159.3853 H   0  0  0  0  0  0  0  0  0  0  0  0  # atno 6908 bound_to 6896
  151.8563  135.0540  160.0515 H   0  0  0  0  0  0  0  0  0  0  0  0  # atno 6909 bound_to 6896
  145.6019  140.9407  143.1236 H   0  0  0  0  0  0  0  0  0  0  0  0  # atno 7974 bound_to 7965
  154.6156  140.2487  155.7613 H   0  0  0  0  0  0  0  0  0  0  0  0  # atno 8008 bound_to 7997
  156.2397  140.2937  156.0358 H   0  0  0  0  0  0  0  0  0  0  0  0  # atno 8009 bound_to 7997
  155.1980  140.0393  157.2903 H   0  0  0  0  0  0  0  0  0  0  0  0  # atno 8010 bound_to 7997
  140.1463  144.4506  150.6783 H   0  0  0  0  0  0  0  0  0  0  0  0  # atno 10167 bound_to 10162
  157.0789  131.0387  151.2583 H   0  0  0  0  0  0  0  0  0  0  0  0  # atno 10718 bound_to 10713
  153.4802  135.3681  155.2438 H   0  0  0  0  0  0  0  0  0  0  0  0  # atno 10763 bound_to 10752
  154.8755  135.3952  154.3709 H   0  0  0  0  0  0  0  0  0  0  0  0  # atno 10764 bound_to 10752
  153.4312  135.7082  153.6295 H   0  0  0  0  0  0  0  0  0  0  0  0  # atno 10765 bound_to 10752
  140.1280  134.4743  155.8544 H   0  0  0  0  0  0  0  0  0  0  0  0  # atno 11005 bound_to 11000
  144.7306  139.7737  143.7348 LP  0  0  0  0  0  0  0  0  0  0  0  0  # atno 17320 bound_to 7965
  146.1570  139.4671  143.0012 LP  0  0  0  0  0  0  0  0  0  0  0  0  # atno 17321 bound_to 7965
  140.6730  143.2293  151.5578 LP  0  0  0  0  0  0  0  0  0  0  0  0  # atno 17342 bound_to 10162
  139.5447  144.2552  152.1420 LP  0  0  0  0  0  0  0  0  0  0  0  0  # atno 17343 bound_to 10162
  157.4816  130.7768  149.7420 LP  0  0  0  0  0  0  0  0  0  0  0  0  # atno 17370 bound_to 10713
  155.9929  130.3928  150.2922 LP  0  0  0  0  0  0  0  0  0  0  0  0  # atno 17371 bound_to 10713
  141.2165  133.6785  156.7015 LP  0  0  0  0  0  0  0  0  0  0  0  0  # atno 17394 bound_to 11000
  140.2879  134.8264  157.3991 LP  0  0  0  0  0  0  0  0  0  0  0  0  # atno 17395 bound_to 11000

$$$$
