AV-unprocessed.smi:160|AV-procd|sdf|1365|dock8
  -GOLD-   2262019 83D 1   1.00000     0.00000
 Structure written by MMmdl.
 28 29  0  0  0  0  0  0  0  0  2 V2000
  150.3362  136.3055  158.3551 N   0  5  0  0  0  0  0  0  0  0  0  0
  150.9891  135.8429  157.2667 C   0  0  0  0  0  0  0  0  0  0  0  0
  151.5127  134.7357  157.1483 O   0  0  0  0  0  0  0  0  0  0  0  0
  151.0507  136.8153  156.1129 C   0  0  0  0  0  0  0  0  0  0  0  0
  151.3649  136.3842  154.8538 N   0  0  0  0  0  0  0  0  0  0  0  0
  151.2966  137.5419  154.2106 C   0  0  0  0  0  0  0  0  0  0  0  0
  150.9579  138.5810  154.9795 N   0  0  0  0  0  0  0  0  0  0  0  0
  150.8287  140.0309  154.6085 C   0  0  2  0  0  0  0  0  0  0  0  0
  151.3616  140.7921  155.6443 O   0  0  0  0  0  0  0  0  0  0  0  0
  150.3482  141.0551  156.6057 C   0  0  1  0  0  0  0  0  0  0  0  0
  150.7271  142.2906  157.4362 C   0  0  0  0  0  0  0  0  0  0  0  0
  151.0041  143.3837  156.5867 O   0  0  0  0  0  0  0  0  0  0  0  0
  149.0937  141.2640  155.7400 C   0  0  2  0  0  0  0  0  0  0  0  0
  147.9579  140.7539  156.4090 O   0  0  0  0  0  0  0  0  0  0  0  0
  149.3618  140.4718  154.4555 C   0  0  1  0  0  0  0  0  0  0  0  0
  149.1947  141.2951  153.3184 O   0  0  0  0  0  0  0  0  0  0  0  0
  150.8099  138.1228  156.2485 N   0  0  0  0  0  0  0  0  0  0  0  0
  151.4206  140.1236  153.6970 H   0  0  0  0  0  0  0  0  0  0  0  0
  150.2246  140.1828  157.2503 H   0  0  0  0  0  0  0  0  0  0  0  0
  148.9488  142.3236  155.5213 H   0  0  0  0  0  0  0  0  0  0  0  0
  148.7064  139.6076  154.3375 H   0  0  0  0  0  0  0  0  0  0  0  0
  150.0507  137.2919  158.3712 H   0  0  0  0  0  0  0  0  0  0  0  0
  151.5010  137.6354  153.1543 H   0  0  0  0  0  0  0  0  0  0  0  0
  149.9404  142.5488  158.1458 H   0  0  0  0  0  0  0  0  0  0  0  0
  151.6307  142.0892  158.0123 H   0  0  0  0  0  0  0  0  0  0  0  0
  150.2159  143.8947  156.4867 H   0  0  0  0  0  0  0  0  0  0  0  0
  147.4957  140.1780  155.8195 H   0  0  0  0  0  0  0  0  0  0  0  0
  149.0000  140.7430  152.5765 H   0  0  0  0  0  0  0  0  0  0  0  0
  1  2  1  0  0  0  0
  1 22  1  0  0  0  0
  2  3  2  0  0  0  0
  2  4  1  0  0  0  0
  4 17  2  0  0  0  0
  4  5  1  0  0  0  0
  5  6  2  0  0  0  0
  6  7  1  0  0  0  0
  6 23  1  0  0  0  0
  7  8  1  0  0  0  0
  7 17  1  0  0  0  0
  8 18  1  0  0  0  0
  8 15  1  0  0  0  0
  8  9  1  0  0  0  0
  9 10  1  0  0  0  0
 10 19  1  0  0  0  0
 10 11  1  0  0  0  0
 10 13  1  0  0  0  0
 11 12  1  0  0  0  0
 11 24  1  0  0  0  0
 11 25  1  0  0  0  0
 12 26  1  0  0  0  0
 13 20  1  0  0  0  0
 13 14  1  0  0  0  0
 13 15  1  0  0  0  0
 14 27  1  0  0  0  0
 15 21  1  0  0  0  0
 15 16  1  0  0  0  0
 16 28  1  0  0  0  0
M  CHG  1   1  -1
M  END
> <s_m_source_file>
AV-unprocessed.smi

> <i_m_source_file_index>
160

> <i_lp_mmshare_version>
43012

> <i_f3d_flags>
0

> <s_epik_input>
W05IMl1DKD1PKWMxbltjSF1uKG4xKVtDQEBIXTJPW0NASF0oW0NIMl1bT0hdKVtDQEBIXShbT0hdKVtDQEhdMltPSF0=

> <s_epik_cmdline>
J2VwaWtfcHl0aG9uJywgJy1waCcsICc3LjAnLCAnLXRuJywgJzgnLCAnLW1hJywgJzIwMCcsICctbWV0YWxfYmluZGluZycsICctaW1hZScsICc8aW5maWxlLm1hZT4nLCAnLW9tYWUnLCAnPG91dGZpbGUubWFlPic=

> <r_lp_tautomer_probability>
1

> <r_epik_Ionization_Penalty>
6.6993

> <r_epik_Ionization_Penalty_Charging>
6.6993

> <r_epik_Ionization_Penalty_Neutral>
6.01698e-06

> <r_epik_State_Penalty>
6.69929

> <r_epik_Charging_Adjusted_Penalty>
13.3986

> <i_epik_Tot_Q>
-1

> <i_epik_Tot_abs_Q>
1

> <r_epik_Metal_State_Penalty>
2.62798

> <b_epik_Metal_Only>
1

> <s_epik_Chemistry_Notes>
This compound contains an acetal/aminal-like group ( X-CH(R)-Y where X, Y are N, S, or O) that may be acid/base labile, releasing an aldehyde.

> <s_lp_Force_Field>
OPLS_2005

> <r_lp_Energy>
36.7288

> <b_lp_Chiralities_Consistent>
1

> <s_lp_Variant>
AV-unprocessed.smi:160-23

> <Gold.Version>
5.8.1

> <Gold.Id.Protein>
6NUR|6NUR_protein|mol2

> <Gold.PLP.Fitness>
42.2289

> <Gold.PLP.PLP>
-25.0846

> <Gold.PLP.part.hbond>
-7.9841

> <Gold.PLP.part.metal>
0.0000

> <Gold.PLP.part.buried>
1.5311

> <Gold.PLP.part.nonpolar>
-19.0520

> <Gold.PLP.part.repulsive>
0.1726

> <Gold.PLP.ligand.clash>
0.0000

> <Gold.PLP.ligand.torsion>
0.6927

> <Gold.PLP.Chemscore.Hbond>
5.2360

> <Gold.PLP.Chemscore.CHOScore>
0.9294

> <Gold.PLP.Chemscore.Metal>
0.0000

> <Gold.Chemscore.Hbonds>
donor molecule, donor type, donor heavy atom, donor atom, acceptor molecule, acceptor atom, score
      L1  H    12    26       P1  8028  1.00
      L1  H    16    28       P1  7957  0.91
      P1  H  6896  6908       L1     1  1.76
      P1  H  8011  8017       L1    16  0.50
      P1  H 10752 10763       L1     5  1.00
      L1  C     6    23       P1  7949  0.95

> <Gold.PLP.Chemscore.Internal.Correction>
0.0333

> <Gold.Rescore>
     Score         DG    S(hbond)    S(metal)    S(lipo)     H(rot)  DE(clash)    DE(int)     intcor
      6.63      -9.85       3.59        0.00      23.38       4.04       1.37       1.84       ----

> <Gold.Chemscore.Fitness>
6.6287

> <Gold.Chemscore.DG>
-9.8467

> <Gold.Chemscore.ZeroCoef>
-5.4800

> <Gold.Chemscore.Hbond>
3.5852

> <Gold.Chemscore.Metal>
0.0000

> <Gold.Chemscore.Lipo>
23.3780

> <Gold.Chemscore.Internal_Hbond>
0.0000

> <Gold.Chemscore.DEClash>
1.3742

> <Gold.Chemscore.DEInternal>
1.8439

> <Gold.Chemscore.Rot>
4.0403

> <Gold.Chemscore.Internal.Correction>
   9.000000E+99

> <Gold.Chemscore.Hbonds>
donor molecule, donor type, donor heavy atom, donor atom, acceptor molecule, acceptor atom, score
      L1  H    12    26       P1  8028  0.99
      L1  H    16    28       P1  7957  0.88
      P1  H  6896  6908       L1     1  0.18
      P1  H  8011  8017       L1    16  0.02
      P1  H 10752 10763       L1     5  0.60

> <Gold.Chemscore.Hbond.Weighted>
-11.9745

> <Gold.Chemscore.Metal.Weighted>
-0.0000

> <Gold.Chemscore.Lipo.Weighted>
-2.7352

> <Gold.Chemscore.Internal_Hbond.Weighted>
0.0000

> <Gold.Chemscore.DEClash.Weighted>
1.3742

> <Gold.Chemscore.DEInternal.Weighted>
1.8439

> <Gold.Chemscore.Rot.Weighted>
10.3431

> <Gold.Chemscore.Internal.Correction.Weighted>
   9.000000E+99

> <Gold.Protein.RotatedTorsions>
[ 6907 6896 6895 6894 ] final -170.23 input  -60.11 | X-H torsion
[ 7974 7965 7964 7962 ] final  178.86 input  175.53 | X-H torsion
[ 8008 7997 7996 7995 ] final   -3.47 input   59.86 | X-H torsion
[ 10167 10162 10161 10158 ] final -129.30 input  -65.29 | X-H torsion
[ 10718 10713 10712 10709 ] final  157.82 input   66.30 | X-H torsion
[ 10763 10752 10751 10750 ] final   48.75 input  -60.55 | X-H torsion
[ 11005 11000 10999 10996 ] final   42.40 input  -57.11 | X-H torsion

> <Gold.Protein.ActiveResidues>
 VAL166  LYS551  ARG553  GLY616  TRP617  ASP618  TYR619  PRO620  LYS621  CYS622 
 ASP623  PHE694  ASN695  SER759  ASP760  ASP761  ALA762  ILE779  LEU786  VAL792 
 PHE793  MET794  SER795  GLU796  ALA797  LYS798  CYS799  TRP800  GLU811  SER814 

> <Gold.Protein.RotatedAtoms>
  151.5043  133.3498  159.2874 H   0  0  0  0  0  0  0  0  0  0  0  0  # atno 6907 bound_to 6896
  150.8752  134.8136  159.7196 H   0  0  0  0  0  0  0  0  0  0  0  0  # atno 6908 bound_to 6896
  152.4726  134.4933  159.9754 H   0  0  0  0  0  0  0  0  0  0  0  0  # atno 6909 bound_to 6896
  144.7151  140.0461  143.6436 H   0  0  0  0  0  0  0  0  0  0  0  0  # atno 7974 bound_to 7965
  154.6245  140.2508  155.7508 H   0  0  0  0  0  0  0  0  0  0  0  0  # atno 8008 bound_to 7997
  156.2445  140.2919  156.0488 H   0  0  0  0  0  0  0  0  0  0  0  0  # atno 8009 bound_to 7997
  155.1843  140.0390  157.2878 H   0  0  0  0  0  0  0  0  0  0  0  0  # atno 8010 bound_to 7997
  139.9412  143.6161  152.2503 H   0  0  0  0  0  0  0  0  0  0  0  0  # atno 10167 bound_to 10162
  157.1863  131.0644  151.2104 H   0  0  0  0  0  0  0  0  0  0  0  0  # atno 10718 bound_to 10713
  152.9790  135.5934  154.3977 H   0  0  0  0  0  0  0  0  0  0  0  0  # atno 10763 bound_to 10752
  154.3626  135.2767  155.2313 H   0  0  0  0  0  0  0  0  0  0  0  0  # atno 10764 bound_to 10752
  154.4304  135.6038  153.6120 H   0  0  0  0  0  0  0  0  0  0  0  0  # atno 10765 bound_to 10752
  140.1743  134.4183  155.8238 H   0  0  0  0  0  0  0  0  0  0  0  0  # atno 11005 bound_to 11000
  145.9983  139.3070  143.0943 LP  0  0  0  0  0  0  0  0  0  0  0  0  # atno 17320 bound_to 7965
  145.8823  140.9355  143.0595 LP  0  0  0  0  0  0  0  0  0  0  0  0  # atno 17321 bound_to 7965
  139.6703  144.7661  151.1796 LP  0  0  0  0  0  0  0  0  0  0  0  0  # atno 17342 bound_to 10162
  140.7610  143.5876  150.8830 LP  0  0  0  0  0  0  0  0  0  0  0  0  # atno 17343 bound_to 10162
  157.3904  130.7279  149.6693 LP  0  0  0  0  0  0  0  0  0  0  0  0  # atno 17370 bound_to 10713
  155.9717  130.4148  150.4149 LP  0  0  0  0  0  0  0  0  0  0  0  0  # atno 17371 bound_to 10713
  141.2219  133.6970  156.7818 LP  0  0  0  0  0  0  0  0  0  0  0  0  # atno 17394 bound_to 11000
  140.2341  134.8663  157.3507 LP  0  0  0  0  0  0  0  0  0  0  0  0  # atno 17395 bound_to 11000

$$$$
