AV-unprocessed.smi:249|AV-procd|sdf|1910|dock7
  -GOLD-   2262021 03D 1   1.00000     0.00000
 Structure written by MMmdl.
 64 67  0  0  0  0  0  0  0  0  2 V2000
  149.8817  128.4798  154.1611 C   0  0  0  0  0  0  0  0  0  0  0  0
  148.5382  128.4498  153.4142 C   0  0  0  0  0  0  0  0  0  0  0  0
  148.0772  129.7933  152.9574 N   0  3  2  0  0  0  0  0  0  0  0  0
  148.5392  130.8786  153.8702 C   0  0  0  0  0  0  0  0  0  0  0  0
  148.1770  132.2740  153.3437 C   0  0  0  0  0  0  0  0  0  0  0  0
  146.6591  132.3977  153.1350 C   0  0  1  0  0  0  0  0  0  0  0  0
  146.2347  133.7392  152.7111 N   0  0  0  0  0  0  0  0  0  0  0  0
  145.0603  133.8229  151.8495 C   0  0  0  0  0  0  0  0  0  0  0  0
  146.3115  134.7367  153.6250 C   0  0  0  0  0  0  0  0  0  0  0  0
  146.5922  134.4448  154.9225 N   0  0  0  0  0  0  0  0  0  0  0  0
  146.6766  135.4261  155.8260 C   0  0  0  0  0  0  0  0  0  0  0  0
  146.5148  136.7392  155.6495 N   0  0  0  0  0  0  0  0  0  0  0  0
  146.2200  137.0333  154.3507 C   0  0  0  0  0  0  0  0  0  0  0  0
  146.1026  136.0999  153.2833 C   0  0  0  0  0  0  0  0  0  0  0  0
  145.8011  136.7630  152.1007 N   0  0  0  0  0  0  0  0  0  0  0  0
  145.7506  138.0204  152.4470 C   0  0  0  0  0  0  0  0  0  0  0  0
  145.9689  138.2708  153.7838 N   0  0  0  0  0  0  0  0  0  0  0  0
  145.9752  139.5714  154.4307 C   0  0  0  0  0  0  0  0  0  0  0  0
  147.1761  140.4803  154.0570 C   0  0  1  0  0  0  0  0  0  0  0  0
  146.8044  141.9539  154.3425 C   0  0  0  0  0  0  0  0  0  0  0  0
  147.1788  142.3415  155.6492 O   0  0  0  0  0  0  0  0  0  0  0  0
  148.5292  140.0740  154.7119 C   0  0  1  0  0  0  0  0  0  0  0  0
  149.1982  138.8296  154.1463 C   0  0  0  0  0  0  0  0  0  0  0  0
  150.6511  138.9856  154.5862 C   0  0  0  0  0  0  0  0  0  0  0  0
  150.8727  140.3826  154.7314 O   0  0  0  0  0  0  0  0  0  0  0  0
  149.6602  141.0872  154.5002 C   0  0  0  0  0  0  0  0  0  0  0  0
  146.2056  131.2720  152.1887 C   0  0  0  0  0  0  0  0  0  0  0  0
  146.5994  129.8750  152.7138 C   0  0  1  0  0  0  0  0  0  0  0  0
  146.0848  128.8147  151.7176 C   0  0  0  0  0  0  0  0  0  0  0  0
  150.2497  127.4655  154.3186 H   0  0  0  0  0  0  0  0  0  0  0  0
  149.8010  128.9393  155.1456 H   0  0  0  0  0  0  0  0  0  0  0  0
  150.6399  129.0187  153.5920 H   0  0  0  0  0  0  0  0  0  0  0  0
  148.6917  127.7931  152.5611 H   0  0  0  0  0  0  0  0  0  0  0  0
  147.7699  127.9829  154.0323 H   0  0  0  0  0  0  0  0  0  0  0  0
  148.1067  130.7292  154.8609 H   0  0  0  0  0  0  0  0  0  0  0  0
  149.6204  130.8462  153.9914 H   0  0  0  0  0  0  0  0  0  0  0  0
  148.5280  133.0252  154.0514 H   0  0  0  0  0  0  0  0  0  0  0  0
  148.7085  132.4542  152.4086 H   0  0  0  0  0  0  0  0  0  0  0  0
  146.1765  132.2236  154.0978 H   0  0  0  0  0  0  0  0  0  0  0  0
  144.9610  134.8249  151.4299 H   0  0  0  0  0  0  0  0  0  0  0  0
  144.1461  133.5894  152.3959 H   0  0  0  0  0  0  0  0  0  0  0  0
  145.1475  133.1222  151.0189 H   0  0  0  0  0  0  0  0  0  0  0  0
  146.9067  135.1153  156.8345 H   0  0  0  0  0  0  0  0  0  0  0  0
  145.5366  138.8038  151.7343 H   0  0  0  0  0  0  0  0  0  0  0  0
  145.0400  140.0647  154.1635 H   0  0  0  0  0  0  0  0  0  0  0  0
  145.9421  139.4203  155.5104 H   0  0  0  0  0  0  0  0  0  0  0  0
  147.3112  140.4178  152.9768 H   0  0  0  0  0  0  0  0  0  0  0  0
  147.2781  142.6255  153.6268 H   0  0  0  0  0  0  0  0  0  0  0  0
  145.7302  142.1036  154.2299 H   0  0  0  0  0  0  0  0  0  0  0  0
  147.8253  143.0279  155.5859 H   0  0  0  0  0  0  0  0  0  0  0  0
  148.3879  139.9354  155.7850 H   0  0  0  0  0  0  0  0  0  0  0  0
  148.7738  137.8976  154.5150 H   0  0  0  0  0  0  0  0  0  0  0  0
  149.1370  138.8259  153.0570 H   0  0  0  0  0  0  0  0  0  0  0  0
  150.8129  138.5083  155.5533 H   0  0  0  0  0  0  0  0  0  0  0  0
  151.3464  138.5457  153.8710 H   0  0  0  0  0  0  0  0  0  0  0  0
  149.6653  141.4493  153.4709 H   0  0  0  0  0  0  0  0  0  0  0  0
  149.5834  141.9502  155.1619 H   0  0  0  0  0  0  0  0  0  0  0  0
  145.1229  131.3221  152.0677 H   0  0  0  0  0  0  0  0  0  0  0  0
  146.6384  131.4104  151.1968 H   0  0  0  0  0  0  0  0  0  0  0  0
  146.0932  129.7146  153.6672 H   0  0  0  0  0  0  0  0  0  0  0  0
  145.0472  129.0095  151.4438 H   0  0  0  0  0  0  0  0  0  0  0  0
  146.0996  127.8089  152.1363 H   0  0  0  0  0  0  0  0  0  0  0  0
  146.6701  128.8133  150.7976 H   0  0  0  0  0  0  0  0  0  0  0  0
  148.5199  129.9580  152.0645 H   0  0  0  0  0  0  0  0  0  0  0  0
  1  2  1  0  0  0  0
  1 30  1  0  0  0  0
  1 31  1  0  0  0  0
  1 32  1  0  0  0  0
  2  3  1  0  0  0  0
  2 33  1  0  0  0  0
  2 34  1  0  0  0  0
  3 28  1  0  0  0  0
  3  4  1  0  0  0  0
  3 64  1  0  0  0  0
  4  5  1  0  0  0  0
  4 35  1  0  0  0  0
  4 36  1  0  0  0  0
  5  6  1  0  0  0  0
  5 37  1  0  0  0  0
  5 38  1  0  0  0  0
  6  7  1  0  0  0  0
  6 27  1  0  0  0  0
  6 39  1  0  0  0  0
  7  8  1  0  0  0  0
  7  9  1  0  0  0  0
  8 40  1  0  0  0  0
  8 41  1  0  0  0  0
  8 42  1  0  0  0  0
  9 14  1  0  0  0  0
  9 10  2  0  0  0  0
 10 11  1  0  0  0  0
 11 12  2  0  0  0  0
 11 43  1  0  0  0  0
 12 13  1  0  0  0  0
 13 17  1  0  0  0  0
 13 14  2  0  0  0  0
 14 15  1  0  0  0  0
 15 16  2  0  0  0  0
 16 17  1  0  0  0  0
 16 44  1  0  0  0  0
 17 18  1  0  0  0  0
 18 19  1  0  0  0  0
 18 45  1  0  0  0  0
 18 46  1  0  0  0  0
 19 20  1  0  0  0  0
 19 22  1  0  0  0  0
 19 47  1  0  0  0  0
 20 21  1  0  0  0  0
 20 48  1  0  0  0  0
 20 49  1  0  0  0  0
 21 50  1  0  0  0  0
 22 26  1  0  0  0  0
 22 23  1  0  0  0  0
 22 51  1  0  0  0  0
 23 24  1  0  0  0  0
 23 52  1  0  0  0  0
 23 53  1  0  0  0  0
 24 25  1  0  0  0  0
 24 54  1  0  0  0  0
 24 55  1  0  0  0  0
 25 26  1  0  0  0  0
 26 56  1  0  0  0  0
 26 57  1  0  0  0  0
 27 28  1  0  0  0  0
 27 58  1  0  0  0  0
 27 59  1  0  0  0  0
 28 29  1  0  0  0  0
 28 60  1  0  0  0  0
 29 61  1  0  0  0  0
 29 62  1  0  0  0  0
 29 63  1  0  0  0  0
M  CHG  1   3   1
M  END
> <s_m_source_file>
AV-unprocessed.smi

> <i_m_source_file_index>
249

> <i_lp_mmshare_version>
43012

> <i_f3d_flags>
0

> <s_epik_input>
W0NIM11bQ0gyXU4xW0NIMl1bQ0gyXVtDQEhdKFtDSDJdW0NASF0xW0NIM10pTihbQ0gzXSljKG5bY0hdbjIpYyhjMjMpbltjSF1uM1tDSDJdW0NASF0oW0NIMl1bT0hdKVtDQEBIXTRbQ0gyXVtDSDJdT1tDSDJdNA==

> <s_epik_cmdline>
J2VwaWtfcHl0aG9uJywgJy1waCcsICc3LjAnLCAnLXRuJywgJzgnLCAnLW1hJywgJzIwMCcsICctbWV0YWxfYmluZGluZycsICctaW1hZScsICc8aW5maWxlLm1hZT4nLCAnLW9tYWUnLCAnPG91dGZpbGUubWFlPic=

> <r_lp_tautomer_probability>
1

> <r_epik_Ionization_Penalty>
0.00294688

> <r_epik_Ionization_Penalty_Charging>
0.00169971

> <r_epik_Ionization_Penalty_Neutral>
0.00124717

> <r_epik_State_Penalty>
-0

> <r_epik_Charging_Adjusted_Penalty>
0.00169971

> <i_epik_Tot_Q>
1

> <i_epik_Tot_abs_Q>
1

> <r_epik_Metal_State_Penalty>
-0

> <b_epik_Metal_Only>
0

> <s_lp_Force_Field>
OPLS_2005

> <r_lp_Energy>
54.6385

> <b_lp_Chiralities_Consistent>
1

> <s_lp_Variant>
AV-unprocessed.smi:249-13

> <Gold.Version>
5.8.1

> <Gold.Id.Protein>
6NUR|6NUR_protein|mol2

> <Gold.PLP.Fitness>
48.7592

> <Gold.PLP.PLP>
-37.5740

> <Gold.PLP.part.hbond>
-2.9867

> <Gold.PLP.part.metal>
0.0000

> <Gold.PLP.part.buried>
-0.1581

> <Gold.PLP.part.nonpolar>
-35.2625

> <Gold.PLP.part.repulsive>
0.5091

> <Gold.PLP.ligand.clash>
0.0000

> <Gold.PLP.ligand.torsion>
1.8265

> <Gold.PLP.Chemscore.Hbond>
3.0000

> <Gold.PLP.Chemscore.CHOScore>
1.6395

> <Gold.PLP.Chemscore.Metal>
0.0000

> <Gold.Chemscore.Hbonds>
donor molecule, donor type, donor heavy atom, donor atom, acceptor molecule, acceptor atom, score
      L1  H     3    64       P1 10747  1.00
      L1  H    21    50       P1  8028  1.00
      P1  H  7989  7998       L1    25  0.84
      L1  C    16    44       P1 10171  0.88
      L1  C    16    44       P1 10175  0.62

> <Gold.PLP.Chemscore.Internal.Correction>
0.9197

> <Gold.Rescore>
     Score         DG    S(hbond)    S(metal)    S(lipo)     H(rot)  DE(clash)    DE(int)     intcor
     11.09     -15.51       1.72        0.00     100.24       2.90       1.70       2.73       ----

> <Gold.Chemscore.Fitness>
11.0907

> <Gold.Chemscore.DG>
-15.5111

> <Gold.Chemscore.ZeroCoef>
-5.4800

> <Gold.Chemscore.Hbond>
1.7152

> <Gold.Chemscore.Metal>
0.0000

> <Gold.Chemscore.Lipo>
100.2388

> <Gold.Chemscore.Internal_Hbond>
0.0000

> <Gold.Chemscore.DEClash>
1.6951

> <Gold.Chemscore.DEInternal>
2.7253

> <Gold.Chemscore.Rot>
2.9006

> <Gold.Chemscore.Internal.Correction>
   9.000000E+99

> <Gold.Chemscore.Hbonds>
donor molecule, donor type, donor heavy atom, donor atom, acceptor molecule, acceptor atom, score
      L1  H     3    64       P1 10747  0.42
      L1  H    21    50       P1  8028  0.59
      P1  H  7989  7998       L1    25  0.09

> <Gold.Chemscore.Hbond.Weighted>
-5.7288

> <Gold.Chemscore.Metal.Weighted>
-0.0000

> <Gold.Chemscore.Lipo.Weighted>
-11.7279

> <Gold.Chemscore.Internal_Hbond.Weighted>
0.0000

> <Gold.Chemscore.DEClash.Weighted>
1.6951

> <Gold.Chemscore.DEInternal.Weighted>
2.7253

> <Gold.Chemscore.Rot.Weighted>
7.4256

> <Gold.Chemscore.Internal.Correction.Weighted>
   9.000000E+99

> <Gold.Protein.RotatedTorsions>
[ 6907 6896 6895 6894 ] final  146.02 input  -60.11 | X-H torsion
[ 7974 7965 7964 7962 ] final  -55.79 input  175.53 | X-H torsion
[ 8008 7997 7996 7995 ] final   42.73 input   59.86 | X-H torsion
[ 10167 10162 10161 10158 ] final    4.58 input  -65.29 | X-H torsion
[ 10718 10713 10712 10709 ] final   42.64 input   66.30 | X-H torsion
[ 10763 10752 10751 10750 ] final  117.65 input  -60.55 | X-H torsion
[ 11005 11000 10999 10996 ] final   48.47 input  -57.11 | X-H torsion

> <Gold.Protein.ActiveResidues>
 VAL166  LYS551  ARG553  GLY616  TRP617  ASP618  TYR619  PRO620  LYS621  CYS622 
 ASP623  PHE694  ASN695  SER759  ASP760  ASP761  ALA762  ILE779  LEU786  VAL792 
 PHE793  MET794  SER795  GLU796  ALA797  LYS798  CYS799  TRP800  GLU811  SER814 

> <Gold.Protein.RotatedAtoms>
  152.1734  133.4658  159.4920 H   0  0  0  0  0  0  0  0  0  0  0  0  # atno 6907 bound_to 6896
  150.6923  134.1925  159.4299 H   0  0  0  0  0  0  0  0  0  0  0  0  # atno 6908 bound_to 6896
  151.9833  135.0017  160.0609 H   0  0  0  0  0  0  0  0  0  0  0  0  # atno 6909 bound_to 6896
  145.8701  140.8222  142.9892 H   0  0  0  0  0  0  0  0  0  0  0  0  # atno 7974 bound_to 7965
  155.2910  140.3379  155.4252 H   0  0  0  0  0  0  0  0  0  0  0  0  # atno 8008 bound_to 7997
  156.2046  140.1746  156.7867 H   0  0  0  0  0  0  0  0  0  0  0  0  # atno 8009 bound_to 7997
  154.5603  140.0688  156.8793 H   0  0  0  0  0  0  0  0  0  0  0  0  # atno 8010 bound_to 7997
  140.6527  143.7504  150.7602 H   0  0  0  0  0  0  0  0  0  0  0  0  # atno 10167 bound_to 10162
  157.4071  130.7893  149.7398 H   0  0  0  0  0  0  0  0  0  0  0  0  # atno 10718 bound_to 10713
  153.5556  135.3531  155.2778 H   0  0  0  0  0  0  0  0  0  0  0  0  # atno 10763 bound_to 10752
  154.8701  135.4124  154.2888 H   0  0  0  0  0  0  0  0  0  0  0  0  # atno 10764 bound_to 10752
  153.3623  135.7060  153.6771 H   0  0  0  0  0  0  0  0  0  0  0  0  # atno 10765 bound_to 10752
  140.1188  134.4857  155.8615 H   0  0  0  0  0  0  0  0  0  0  0  0  # atno 11005 bound_to 11000
  144.6726  140.1226  143.7449 LP  0  0  0  0  0  0  0  0  0  0  0  0  # atno 17320 bound_to 7965
  145.9147  139.2508  143.1417 LP  0  0  0  0  0  0  0  0  0  0  0  0  # atno 17321 bound_to 7965
  140.1158  143.4657  152.2343 LP  0  0  0  0  0  0  0  0  0  0  0  0  # atno 17342 bound_to 10162
  139.5745  144.7480  151.3803 LP  0  0  0  0  0  0  0  0  0  0  0  0  # atno 17343 bound_to 10162
  155.9839  130.3996  150.3336 LP  0  0  0  0  0  0  0  0  0  0  0  0  # atno 17370 bound_to 10713
  157.1471  131.0311  151.2902 LP  0  0  0  0  0  0  0  0  0  0  0  0  # atno 17371 bound_to 10713
  141.2147  133.6753  156.6848 LP  0  0  0  0  0  0  0  0  0  0  0  0  # atno 17394 bound_to 11000
  140.2992  134.8177  157.4083 LP  0  0  0  0  0  0  0  0  0  0  0  0  # atno 17395 bound_to 11000

$$$$
