AV-unprocessed.smi:3285|AV-procd|sdf|12583|dock4
  -GOLD-   2272018503D 1   1.00000     0.00000
 Structure written by MMmdl.
 45 46  0  0  0  0  0  0  0  0  2 V2000
  153.0835  138.6586  154.7494 C   0  0  0  0  0  0  0  0  0  0  0  0
  151.6883  138.1263  154.9071 C   0  0  0  0  0  0  0  0  0  0  0  0
  151.5190  136.8509  155.2103 N   0  0  0  0  0  0  0  0  0  0  0  0
  150.1372  136.6535  155.2827 O   0  0  0  0  0  0  0  0  0  0  0  0
  149.5202  137.8322  155.0163 C   0  0  0  0  0  0  0  0  0  0  0  0
  148.0290  137.8186  155.0405 C   0  0  0  0  0  0  0  0  0  0  0  0
  150.4452  138.8103  154.7702 C   0  0  0  0  0  0  0  0  0  0  0  0
  150.2107  140.2577  154.4291 C   0  0  0  0  0  0  0  0  0  0  0  0
  149.3528  140.9518  155.4945 C   0  0  0  0  0  0  0  0  0  0  0  0
  149.9822  142.2080  155.9469 N   0  3  0  0  0  0  0  0  0  0  0  0
  150.4707  142.1893  157.3424 C   0  0  1  0  0  0  0  0  0  0  0  0
  151.5136  141.0769  157.5230 C   0  0  0  0  0  0  0  0  0  0  0  0
  152.0547  141.0625  158.9586 C   0  0  0  0  0  0  0  0  0  0  0  0
  152.6661  142.4205  159.3600 C   0  0  2  0  0  0  0  0  0  0  0  0
  153.2012  142.3435  160.8013 C   0  0  0  0  0  0  0  0  0  0  0  0
  151.6402  143.5678  159.1545 C   0  0  1  0  0  0  0  0  0  0  0  0
  152.2261  144.9561  159.4693 C   0  0  0  0  0  0  0  0  0  0  0  0
  151.0790  143.5515  157.7161 C   0  0  0  0  0  0  0  0  0  0  0  0
  153.0828  139.7079  154.4556 H   0  0  0  0  0  0  0  0  0  0  0  0
  153.6298  138.1042  153.9858 H   0  0  0  0  0  0  0  0  0  0  0  0
  153.6412  138.5771  155.6827 H   0  0  0  0  0  0  0  0  0  0  0  0
  147.6213  138.8021  154.8073 H   0  0  0  0  0  0  0  0  0  0  0  0
  147.6617  137.5259  156.0241 H   0  0  0  0  0  0  0  0  0  0  0  0
  147.6383  137.1103  154.3097 H   0  0  0  0  0  0  0  0  0  0  0  0
  151.1597  140.7861  154.3302 H   0  0  0  0  0  0  0  0  0  0  0  0
  149.7255  140.3496  153.4570 H   0  0  0  0  0  0  0  0  0  0  0  0
  148.3615  141.1700  155.0944 H   0  0  0  0  0  0  0  0  0  0  0  0
  149.2200  140.2914  156.3530 H   0  0  0  0  0  0  0  0  0  0  0  0
  150.7674  142.4008  155.3418 H   0  0  0  0  0  0  0  0  0  0  0  0
  149.6363  141.9871  158.0167 H   0  0  0  0  0  0  0  0  0  0  0  0
  151.0722  140.1074  157.2884 H   0  0  0  0  0  0  0  0  0  0  0  0
  152.3390  141.2197  156.8239 H   0  0  0  0  0  0  0  0  0  0  0  0
  151.2486  140.8035  159.6467 H   0  0  0  0  0  0  0  0  0  0  0  0
  152.8028  140.2746  159.0536 H   0  0  0  0  0  0  0  0  0  0  0  0
  153.5182  142.6059  158.7043 H   0  0  0  0  0  0  0  0  0  0  0  0
  152.3904  142.2214  161.5201 H   0  0  0  0  0  0  0  0  0  0  0  0
  153.7618  143.2366  161.0751 H   0  0  0  0  0  0  0  0  0  0  0  0
  153.8789  141.4977  160.9210 H   0  0  0  0  0  0  0  0  0  0  0  0
  150.8050  143.4021  159.8370 H   0  0  0  0  0  0  0  0  0  0  0  0
  153.1145  145.1579  158.8700 H   0  0  0  0  0  0  0  0  0  0  0  0
  152.5013  145.0516  160.5191 H   0  0  0  0  0  0  0  0  0  0  0  0
  151.5013  145.7434  159.2610 H   0  0  0  0  0  0  0  0  0  0  0  0
  151.8752  143.8019  157.0131 H   0  0  0  0  0  0  0  0  0  0  0  0
  150.3205  144.3287  157.6097 H   0  0  0  0  0  0  0  0  0  0  0  0
  149.3132  142.9588  155.8516 H   0  0  0  0  0  0  0  0  0  0  0  0
  1  2  1  0  0  0  0
  1 19  1  0  0  0  0
  1 20  1  0  0  0  0
  1 21  1  0  0  0  0
  2  7  1  0  0  0  0
  2  3  2  0  0  0  0
  3  4  1  0  0  0  0
  4  5  1  0  0  0  0
  5  6  1  0  0  0  0
  5  7  2  0  0  0  0
  6 22  1  0  0  0  0
  6 23  1  0  0  0  0
  6 24  1  0  0  0  0
  7  8  1  0  0  0  0
  8  9  1  0  0  0  0
  8 25  1  0  0  0  0
  8 26  1  0  0  0  0
  9 10  1  0  0  0  0
  9 27  1  0  0  0  0
  9 28  1  0  0  0  0
 10 11  1  0  0  0  0
 10 29  1  0  0  0  0
 10 45  1  0  0  0  0
 11 18  1  0  0  0  0
 11 12  1  0  0  0  0
 11 30  1  0  0  0  0
 12 13  1  0  0  0  0
 12 31  1  0  0  0  0
 12 32  1  0  0  0  0
 13 14  1  0  0  0  0
 13 33  1  0  0  0  0
 13 34  1  0  0  0  0
 14 15  1  0  0  0  0
 14 16  1  0  0  0  0
 14 35  1  0  0  0  0
 15 36  1  0  0  0  0
 15 37  1  0  0  0  0
 15 38  1  0  0  0  0
 16 17  1  0  0  0  0
 16 18  1  0  0  0  0
 16 39  1  0  0  0  0
 17 40  1  0  0  0  0
 17 41  1  0  0  0  0
 17 42  1  0  0  0  0
 18 43  1  0  0  0  0
 18 44  1  0  0  0  0
M  CHG  1  10   1
M  END
> <s_m_source_file>
AV-unprocessed.smi

> <i_m_source_file_index>
3285

> <i_lp_mmshare_version>
43012

> <i_f3d_flags>
0

> <s_epik_input>
W0NIM11jMW5vYyhbQ0gzXSljMVtDSDJdW0NIMl1bTkhdW0NAQEhdMltDSDJdW0NIMl1bQ0BASF0oW0NIM10pW0NAQEhdKFtDSDNdKVtDSDJdMg==

> <s_epik_cmdline>
J2VwaWtfcHl0aG9uJywgJy1waCcsICc3LjAnLCAnLXRuJywgJzgnLCAnLW1hJywgJzIwMCcsICctbWV0YWxfYmluZGluZycsICctaW1hZScsICc8aW5maWxlLm1hZT4nLCAnLW9tYWUnLCAnPG91dGZpbGUubWFlPic=

> <r_lp_tautomer_probability>
1

> <r_epik_Ionization_Penalty>
0.000204615

> <r_epik_Ionization_Penalty_Charging>
0.000204615

> <r_epik_Ionization_Penalty_Neutral>
9.28663e-11

> <r_epik_State_Penalty>
-0

> <r_epik_Charging_Adjusted_Penalty>
0.000204615

> <i_epik_Tot_Q>
1

> <i_epik_Tot_abs_Q>
1

> <r_epik_Metal_State_Penalty>
-0

> <b_epik_Metal_Only>
0

> <s_lp_Force_Field>
OPLS_2005

> <r_lp_Energy>
11.6607

> <b_lp_Chiralities_Consistent>
1

> <s_lp_Variant>
AV-unprocessed.smi:3285-4

> <Gold.Version>
5.8.1

> <Gold.Id.Protein>
6NUR|6NUR_protein|mol2

> <Gold.PLP.Fitness>
46.9834

> <Gold.PLP.PLP>
-39.4094

> <Gold.PLP.part.hbond>
-2.0000

> <Gold.PLP.part.metal>
0.0000

> <Gold.PLP.part.buried>
-1.8553

> <Gold.PLP.part.nonpolar>
-36.8942

> <Gold.PLP.part.repulsive>
0.3691

> <Gold.PLP.ligand.clash>
0.0000

> <Gold.PLP.ligand.torsion>
0.7276

> <Gold.PLP.Chemscore.Hbond>
3.0000

> <Gold.PLP.Chemscore.CHOScore>
0.0000

> <Gold.PLP.Chemscore.Metal>
0.0000

> <Gold.Chemscore.Hbonds>
donor molecule, donor type, donor heavy atom, donor atom, acceptor molecule, acceptor atom, score
      L1  H    10    45       P1  8028  2.00
      P1  H 10752 10763       L1     3  1.00

> <Gold.PLP.Chemscore.Internal.Correction>
0.0292

> <Gold.Rescore>
     Score         DG    S(hbond)    S(metal)    S(lipo)     H(rot)  DE(clash)    DE(int)     intcor
     20.95     -23.19       1.96        0.00     124.96       1.35       1.50       0.74       ----

> <Gold.Chemscore.Fitness>
20.9521

> <Gold.Chemscore.DG>
-23.1893

> <Gold.Chemscore.ZeroCoef>
-5.4800

> <Gold.Chemscore.Hbond>
1.9569

> <Gold.Chemscore.Metal>
0.0000

> <Gold.Chemscore.Lipo>
124.9592

> <Gold.Chemscore.Internal_Hbond>
0.0000

> <Gold.Chemscore.DEClash>
1.4954

> <Gold.Chemscore.DEInternal>
0.7418

> <Gold.Chemscore.Rot>
1.3465

> <Gold.Chemscore.Internal.Correction>
   9.000000E+99

> <Gold.Chemscore.Hbonds>
donor molecule, donor type, donor heavy atom, donor atom, acceptor molecule, acceptor atom, score
      L1  H    10    45       P1  8028  0.96
      P1  H 10752 10763       L1     3  0.82

> <Gold.Chemscore.Hbond.Weighted>
-6.5361

> <Gold.Chemscore.Metal.Weighted>
-0.0000

> <Gold.Chemscore.Lipo.Weighted>
-14.6202

> <Gold.Chemscore.Internal_Hbond.Weighted>
0.0000

> <Gold.Chemscore.DEClash.Weighted>
1.4954

> <Gold.Chemscore.DEInternal.Weighted>
0.7418

> <Gold.Chemscore.Rot.Weighted>
3.4470

> <Gold.Chemscore.Internal.Correction.Weighted>
   9.000000E+99

> <Gold.Protein.RotatedTorsions>
[ 6907 6896 6895 6894 ] final   72.19 input  -60.11 | X-H torsion
[ 7974 7965 7964 7962 ] final   71.52 input  175.53 | X-H torsion
[ 8008 7997 7996 7995 ] final   54.38 input   59.86 | X-H torsion
[ 10167 10162 10161 10158 ] final  -49.28 input  -65.29 | X-H torsion
[ 10718 10713 10712 10709 ] final  152.98 input   66.30 | X-H torsion
[ 10763 10752 10751 10750 ] final   50.00 input  -60.55 | X-H torsion
[ 11005 11000 10999 10996 ] final  -44.04 input  -57.11 | X-H torsion

> <Gold.Protein.ActiveResidues>
 VAL166  LYS551  ARG553  GLY616  TRP617  ASP618  TYR619  PRO620  LYS621  CYS622 
 ASP623  PHE694  ASN695  SER759  ASP760  ASP761  ALA762  ILE779  LEU786  VAL792 
 PHE793  MET794  SER795  GLU796  ALA797  LYS798  CYS799  TRP800  GLU811  SER814 

> <Gold.Protein.RotatedAtoms>
  152.4854  134.4608  159.9604 H   0  0  0  0  0  0  0  0  0  0  0  0  # atno 6907 bound_to 6896
  151.4605  133.3588  159.2816 H   0  0  0  0  0  0  0  0  0  0  0  0  # atno 6908 bound_to 6896
  150.8960  134.8393  159.7387 H   0  0  0  0  0  0  0  0  0  0  0  0  # atno 6909 bound_to 6896
  145.7648  139.2816  143.1355 H   0  0  0  0  0  0  0  0  0  0  0  0  # atno 7974 bound_to 7965
  155.4837  140.3469  155.4344 H   0  0  0  0  0  0  0  0  0  0  0  0  # atno 8008 bound_to 7997
  156.1022  140.1438  156.9480 H   0  0  0  0  0  0  0  0  0  0  0  0  # atno 8009 bound_to 7997
  154.4701  140.0904  156.7101 H   0  0  0  0  0  0  0  0  0  0  0  0  # atno 8010 bound_to 7997
  140.6692  143.2704  151.4192 H   0  0  0  0  0  0  0  0  0  0  0  0  # atno 10167 bound_to 10162
  157.2507  131.0778  151.1731 H   0  0  0  0  0  0  0  0  0  0  0  0  # atno 10718 bound_to 10713
  152.9785  135.5893  154.4181 H   0  0  0  0  0  0  0  0  0  0  0  0  # atno 10763 bound_to 10752
  154.3808  135.2767  155.2214 H   0  0  0  0  0  0  0  0  0  0  0  0  # atno 10764 bound_to 10752
  154.4128  135.6077  153.6018 H   0  0  0  0  0  0  0  0  0  0  0  0  # atno 10765 bound_to 10752
  141.0424  133.6775  156.2816 H   0  0  0  0  0  0  0  0  0  0  0  0  # atno 11005 bound_to 11000
  146.0228  140.8331  142.9914 LP  0  0  0  0  0  0  0  0  0  0  0  0  # atno 17320 bound_to 7965
  144.6823  140.2654  143.7313 LP  0  0  0  0  0  0  0  0  0  0  0  0  # atno 17321 bound_to 7965
  139.5953  144.1410  152.2137 LP  0  0  0  0  0  0  0  0  0  0  0  0  # atno 17342 bound_to 10162
  140.0777  144.5726  150.7145 LP  0  0  0  0  0  0  0  0  0  0  0  0  # atno 17343 bound_to 10162
  157.3280  130.6971  149.6308 LP  0  0  0  0  0  0  0  0  0  0  0  0  # atno 17370 bound_to 10713
  155.9666  130.4315  150.4925 LP  0  0  0  0  0  0  0  0  0  0  0  0  # atno 17371 bound_to 10713
  140.6210  134.5361  157.5547 LP  0  0  0  0  0  0  0  0  0  0  0  0  # atno 17394 bound_to 11000
  139.9286  134.8008  156.0997 LP  0  0  0  0  0  0  0  0  0  0  0  0  # atno 17395 bound_to 11000

$$$$
