#       Name:                AV-unprocessed.smi:364
#       Creating user name   scv26
#       Creation time:       Thu Mar 26 22:36:34 2020


#       File generated by GOLD software.
#

@<TRIPOS>MOLECULE
AV-unprocessed.smi:364
    42    43     1
SMALL
NO_CHARGES


@<TRIPOS>ATOM
      1 ****        -1.8791  -2.8556   0.2513 C.3            1 S1                 0.0000
      2 ****        -2.2166  -1.3616   0.3562 C.3            1 S1                 0.0000
      3 ****        -1.9416  -0.6318  -0.9733 C.3            1 S1                 0.0000
      4 ****        -2.2432   0.8751  -0.8717 C.3            1 S1                 0.0000
      5 ****        -1.4752   1.5426   0.2846 C.3            1 S1                 0.0000
      6 ****        -0.0449   1.5258  -0.0011 N.am           1 S1                 0.0000
      7 ****         0.8206   2.5465   0.1031 C.2            1 S1                 0.0000
      8 ****         0.4895   3.6768   0.4575 O.2            1 S1                 0.0000
      9 ****         2.2961   2.2608  -0.2293 C.3            1 S1                 0.0000
     10 ****         2.5866   0.8495  -0.5462 N.am           1 S1                 0.0000
     11 ****         2.9764   0.0192   0.5181 C.2            1 S1                 0.0000
     12 ****         3.2193  -1.2844   0.3217 C.2            1 S1                 0.0000
     13 ****         3.0548  -1.7788  -1.0512 C.2            1 S1                 0.0000
     14 ****         2.6995  -1.0251  -2.0239 N.2            1 S1                 0.0000
     15 ****         2.4435   0.3433  -1.8147 C.2            1 S1                 0.0000
     16 ****         2.0874   1.0704  -2.7420 O.2            1 S1                 0.0000
     17 ****        -1.7576   0.8121   1.6115 C.3            1 S1                 0.0000
     18 ****        -1.4517  -0.6946   1.5166 C.3            1 S1                 0.0000
     19 ****        -0.8200  -3.0080   0.0402 H              1 S1                 0.0000
     20 ****        -2.4492  -3.3323  -0.5465 H              1 S1                 0.0000
     21 ****        -2.1119  -3.3775   1.1799 H              1 S1                 0.0000
     22 ****        -3.2836  -1.2785   0.5683 H              1 S1                 0.0000
     23 ****        -0.9018  -0.7799  -1.2687 H              1 S1                 0.0000
     24 ****        -2.5474  -1.0685  -1.7680 H              1 S1                 0.0000
     25 ****        -2.0035   1.3666  -1.8154 H              1 S1                 0.0000
     26 ****        -3.3140   1.0165  -0.7200 H              1 S1                 0.0000
     27 ****        -1.8194   2.5743   0.3719 H              1 S1                 0.0000
     28 ****         0.3333   0.6388  -0.3007 H              1 S1                 0.0000
     29 ****         2.5970   2.9086  -1.0544 H              1 S1                 0.0000
     30 ****         2.9035   2.5821   0.6181 H              1 S1                 0.0000
     31 ****         3.0527   0.5019   1.4818 H              1 S1                 0.0000
     32 ****         3.5169  -1.9770   1.0950 H              1 S1                 0.0000
     33 ****         3.2567  -2.8437  -1.1915 H              1 S1                 0.0000
     34 ****        -1.1769   1.2603   2.4189 H              1 S1                 0.0000
     35 ****        -2.8061   0.9480   1.8797 H              1 S1                 0.0000
     36 ****        -1.7127  -1.1773   2.4589 H              1 S1                 0.0000
     37 ****        -0.3789  -0.8441   1.3858 H              1 S1                 0.0000
     38 ****        -0.4650   3.8701   0.6845 LP             1 S1                 0.0000
     39 ****         1.1749   4.4025   0.5186 LP             1 S1                 0.0000
     40 ****         2.6031  -1.4124  -2.9408 LP             1 S1                 0.0000
     41 ****         1.8997   2.0383  -2.5748 LP             1 S1                 0.0000
     42 ****         1.9859   0.6932  -3.6625 LP             1 S1                 0.0000
@<TRIPOS>BOND
    1    1    2 1     
    2    1   19 1     
    3    1   20 1     
    4    1   21 1     
    5    2   18 1     
    6    2    3 1     
    7    2   22 1     
    8    3    4 1     
    9    3   23 1     
   10    3   24 1     
   11    4    5 1     
   12    4   25 1     
   13    4   26 1     
   14    5    6 1     
   15    5   17 1     
   16    5   27 1     
   17    6    7 am    
   18    6   28 1     
   19    7    8 2     
   20    7    9 1     
   21    9   10 1     
   22    9   29 1     
   23    9   30 1     
   24   10   15 am    
   25   10   11 1     
   26   11   12 2     
   27   11   31 1     
   28   12   13 1     
   29   12   32 1     
   30   13   14 2     
   31   13   33 1     
   32   14   15 1     
   33   15   16 2     
   34   17   18 1     
   35   17   34 1     
   36   17   35 1     
   37   18   36 1     
   38   18   37 1     
   39    8   38 1     
   40    8   39 1     
   41   14   40 1     
   42   16   41 1     
   43   16   42 1     
@<TRIPOS>SUBSTRUCTURE
      1 S1             1
@<TRIPOS>SET
LONE_PAIRS      STATIC     ATOMS    <user>   **** ""
5 38 39 40 41 42
DONOR_HYDROGENS      STATIC     ATOMS    <user>   **** ""
1 28
ATOM$BLUE        STATIC     ATOMS    COLORGROUP SYSTEM
5 38 39 40 41 42
ATOM$RED        STATIC     ATOMS    COLORGROUP SYSTEM
1 28
