#       Name:                AV-unprocessed.smi:2752
#       Creating user name   scv26
#       Creation time:       Fri Mar 27 15:06:01 2020


#       File generated by GOLD software.
#

@<TRIPOS>MOLECULE
AV-unprocessed.smi:2752
    39    40     1
SMALL
NO_CHARGES


@<TRIPOS>ATOM
      1 ****        -1.3871   1.6260  -2.5981 C.3            1 S1                 0.0000
      2 ****        -0.9559   0.3656  -2.1110 O.3            1 S1                 0.0000
      3 ****         0.3659   0.0155  -2.5132 C.3            1 S1                 0.0000
      4 ****         0.3009  -0.7057  -3.8640 C.3            1 S1                 0.0000
      5 ****        -0.0625  -2.1429  -3.5020 C.3            1 S1                 0.0000
      6 ****         0.6821  -2.4151  -2.1922 C.3            1 S1                 0.0000
      7 ****         0.9520  -1.0408  -1.5481 C.3            1 S1                 0.0000
      8 ****         0.3853  -0.9651  -0.2030 N.am           1 S1                 0.0000
      9 ****         0.6958  -0.0297   0.7056 C.2            1 S1                 0.0000
     10 ****         1.5182   0.8644   0.5039 O.2            1 S1                 0.0000
     11 ****        -0.0071  -0.2005   1.8390 N.am           1 S1                 0.0000
     12 ****         0.0304   0.5843   3.0221 C.ar           1 S1                 0.0000
     13 ****        -0.8401   0.1572   4.0508 C.ar           1 S1                 0.0000
     14 ****        -0.8786   0.8683   5.2661 C.ar           1 S1                 0.0000
     15 ****        -0.0439   1.9895   5.4195 C.ar           1 S1                 0.0000
     16 ****        -0.0459   2.7046   6.5695 F              1 S1                 0.0000
     17 ****         0.7932   2.3489   4.3472 C.ar           1 S1                 0.0000
     18 ****         0.8312   1.6679   3.1822 N.ar           1 S1                 0.0000
     19 ****        -2.4085   1.8135  -2.2676 H              1 S1                 0.0000
     20 ****        -1.3747   1.6662  -3.6873 H              1 S1                 0.0000
     21 ****        -0.7586   2.4292  -2.2118 H              1 S1                 0.0000
     22 ****         1.0062   0.8989  -2.5464 H              1 S1                 0.0000
     23 ****        -0.4037  -0.2596  -4.5657 H              1 S1                 0.0000
     24 ****         1.2855  -0.6881  -4.3331 H              1 S1                 0.0000
     25 ****        -1.1379  -2.2150  -3.3341 H              1 S1                 0.0000
     26 ****         0.1987  -2.8522  -4.2877 H              1 S1                 0.0000
     27 ****         0.1083  -3.0833  -1.5484 H              1 S1                 0.0000
     28 ****         1.6307  -2.9111  -2.4014 H              1 S1                 0.0000
     29 ****         2.0340  -0.9065  -1.4884 H              1 S1                 0.0000
     30 ****        -0.3047  -1.6603   0.0403 H              1 S1                 0.0000
     31 ****        -0.6479  -0.9799   1.8548 H              1 S1                 0.0000
     32 ****        -1.4743  -0.7068   3.9144 H              1 S1                 0.0000
     33 ****        -1.5366   0.5582   6.0643 H              1 S1                 0.0000
     34 ****         1.4486   3.2037   4.4253 H              1 S1                 0.0000
     35 ****        -1.5843  -0.3349  -2.4491 LP             1 S1                 0.0000
     36 ****        -0.9863   0.3865  -1.1117 LP             1 S1                 0.0000
     37 ****         1.9931   0.9181  -0.3746 LP             1 S1                 0.0000
     38 ****         1.7112   1.5368   1.2185 LP             1 S1                 0.0000
     39 ****         1.4423   1.9586   2.4459 LP             1 S1                 0.0000
@<TRIPOS>BOND
    1    1    2 1     
    2    1   19 1     
    3    1   20 1     
    4    1   21 1     
    5    2    3 1     
    6    3    7 1     
    7    3    4 1     
    8    3   22 1     
    9    4    5 1     
   10    4   23 1     
   11    4   24 1     
   12    5    6 1     
   13    5   25 1     
   14    5   26 1     
   15    6    7 1     
   16    6   27 1     
   17    6   28 1     
   18    7    8 1     
   19    7   29 1     
   20    8    9 am    
   21    8   30 1     
   22    9   10 2     
   23    9   11 am    
   24   11   12 1     
   25   11   31 1     
   26   12   18 ar    
   27   12   13 ar    
   28   13   14 ar    
   29   13   32 1     
   30   14   15 ar    
   31   14   33 1     
   32   15   16 1     
   33   15   17 ar    
   34   17   18 ar    
   35   17   34 1     
   36    2   35 1     
   37    2   36 1     
   38   10   37 1     
   39   10   38 1     
   40   18   39 1     
@<TRIPOS>SUBSTRUCTURE
      1 S1             1
@<TRIPOS>SET
LONE_PAIRS      STATIC     ATOMS    <user>   **** ""
5 35 36 37 38 39
DONOR_HYDROGENS      STATIC     ATOMS    <user>   **** ""
2 30 31
ATOM$BLUE        STATIC     ATOMS    COLORGROUP SYSTEM
5 35 36 37 38 39
ATOM$RED        STATIC     ATOMS    COLORGROUP SYSTEM
2 30 31
