AV-unprocessed.smi:1645|AV-procd|sdf|6602|dock3
  -GOLD-   22720 7303D 1   1.00000     0.00000
 Structure written by MMmdl.
 55 58  0  0  0  0  0  0  0  0  2 V2000
  147.3325  136.0822  155.8649 O   0  0  0  0  0  0  0  0  0  0  0  0
  147.8119  136.2004  154.7378 C   0  0  0  0  0  0  0  0  0  0  0  0
  148.6696  137.1610  154.3545 N   0  0  0  0  0  0  0  0  0  0  0  0
  149.2658  138.1780  155.1476 C   0  0  0  0  0  0  0  0  0  0  0  0
  149.1477  138.2615  156.5542 C   0  0  0  0  0  0  0  0  0  0  0  0
  149.8114  139.3012  157.2334 C   0  0  0  0  0  0  0  0  0  0  0  0
  150.5838  140.2291  156.4960 C   0  0  0  0  0  0  0  0  0  0  0  0
  151.2638  141.2728  157.1612 N   0  0  0  0  0  0  0  0  0  0  0  0
  151.7955  140.9942  158.4981 C   0  0  0  0  0  0  0  0  0  0  0  0
  152.8112  142.0665  158.9282 C   0  0  0  0  0  0  0  0  0  0  0  0
  152.2092  143.4745  158.8150 C   0  0  0  0  0  0  0  0  0  0  0  0
  151.6771  143.7056  157.3931 C   0  0  0  0  0  0  0  0  0  0  0  0
  150.6810  142.6054  156.9889 C   0  0  0  0  0  0  0  0  0  0  0  0
  150.6969  140.1433  155.1478 N   0  0  0  0  0  0  0  0  0  0  0  0
  150.0619  139.1439  154.5010 C   0  0  0  0  0  0  0  0  0  0  0  0
  147.5127  135.3818  153.7193 N   0  0  0  0  0  0  0  0  0  0  0  0
  146.6031  134.2423  153.7981 C   0  0  2  0  0  0  0  0  0  0  0  0
  146.7370  133.4466  155.1009 C   0  0  0  0  0  0  0  0  0  0  0  0
  146.3682  132.0254  154.6797 C   0  0  0  0  0  0  0  0  0  0  0  0
  146.9709  131.9052  153.3446 N   0  3  1  0  0  0  0  0  0  0  0  0
  146.6869  130.6659  152.5753 C   0  0  0  0  0  0  0  0  0  0  0  0
  145.4535  130.7789  151.6722 C   0  0  0  0  0  0  0  0  0  0  0  0
  145.5787  132.0059  150.7684 C   0  0  0  0  0  0  0  0  0  0  0  0
  145.6536  133.2536  151.6487 C   0  0  0  0  0  0  0  0  0  0  0  0
  146.8317  133.2181  152.6551 C   0  0  1  0  0  0  0  0  0  0  0  0
  148.8970  137.1918  153.3715 H   0  0  0  0  0  0  0  0  0  0  0  0
  148.5772  137.5456  157.1250 H   0  0  0  0  0  0  0  0  0  0  0  0
  149.7153  139.3791  158.3062 H   0  0  0  0  0  0  0  0  0  0  0  0
  150.9703  140.9556  159.2105 H   0  0  0  0  0  0  0  0  0  0  0  0
  152.2814  140.0177  158.5136 H   0  0  0  0  0  0  0  0  0  0  0  0
  153.1388  141.8806  159.9511 H   0  0  0  0  0  0  0  0  0  0  0  0
  153.7004  141.9985  158.3003 H   0  0  0  0  0  0  0  0  0  0  0  0
  151.3980  143.5867  159.5353 H   0  0  0  0  0  0  0  0  0  0  0  0
  152.9580  144.2265  159.0653 H   0  0  0  0  0  0  0  0  0  0  0  0
  151.1997  144.6835  157.3274 H   0  0  0  0  0  0  0  0  0  0  0  0
  152.5099  143.7193  156.6887 H   0  0  0  0  0  0  0  0  0  0  0  0
  150.3653  142.7783  155.9609 H   0  0  0  0  0  0  0  0  0  0  0  0
  149.7839  142.6730  157.6057 H   0  0  0  0  0  0  0  0  0  0  0  0
  150.1930  139.1186  153.4290 H   0  0  0  0  0  0  0  0  0  0  0  0
  147.9518  135.5553  152.8270 H   0  0  0  0  0  0  0  0  0  0  0  0
  145.5789  134.6193  153.7688 H   0  0  0  0  0  0  0  0  0  0  0  0
  147.7686  133.4660  155.4566 H   0  0  0  0  0  0  0  0  0  0  0  0
  146.1001  133.8293  155.8989 H   0  0  0  0  0  0  0  0  0  0  0  0
  146.7512  131.2727  155.3694 H   0  0  0  0  0  0  0  0  0  0  0  0
  145.2851  131.9126  154.6077 H   0  0  0  0  0  0  0  0  0  0  0  0
  147.5592  130.4634  151.9526 H   0  0  0  0  0  0  0  0  0  0  0  0
  146.5937  129.8173  153.2542 H   0  0  0  0  0  0  0  0  0  0  0  0
  145.3550  129.8776  151.0661 H   0  0  0  0  0  0  0  0  0  0  0  0
  144.5486  130.8471  152.2774 H   0  0  0  0  0  0  0  0  0  0  0  0
  146.4658  131.9291  150.1384 H   0  0  0  0  0  0  0  0  0  0  0  0
  144.7195  132.0701  150.0999 H   0  0  0  0  0  0  0  0  0  0  0  0
  145.7288  134.1444  151.0246 H   0  0  0  0  0  0  0  0  0  0  0  0
  144.7057  133.3386  152.1819 H   0  0  0  0  0  0  0  0  0  0  0  0
  147.7673  133.4026  152.1247 H   0  0  0  0  0  0  0  0  0  0  0  0
  147.9569  131.8440  153.5541 H   0  0  0  0  0  0  0  0  0  0  0  0
  1  2  2  0  0  0  0
  2  3  1  0  0  0  0
  2 16  1  0  0  0  0
  3  4  1  0  0  0  0
  3 26  1  0  0  0  0
  4 15  1  0  0  0  0
  4  5  2  0  0  0  0
  5  6  1  0  0  0  0
  5 27  1  0  0  0  0
  6  7  2  0  0  0  0
  6 28  1  0  0  0  0
  7  8  1  0  0  0  0
  7 14  1  0  0  0  0
  8 13  1  0  0  0  0
  8  9  1  0  0  0  0
  9 10  1  0  0  0  0
  9 29  1  0  0  0  0
  9 30  1  0  0  0  0
 10 11  1  0  0  0  0
 10 31  1  0  0  0  0
 10 32  1  0  0  0  0
 11 12  1  0  0  0  0
 11 33  1  0  0  0  0
 11 34  1  0  0  0  0
 12 13  1  0  0  0  0
 12 35  1  0  0  0  0
 12 36  1  0  0  0  0
 13 37  1  0  0  0  0
 13 38  1  0  0  0  0
 14 15  2  0  0  0  0
 15 39  1  0  0  0  0
 16 17  1  0  0  0  0
 16 40  1  0  0  0  0
 17 25  1  0  0  0  0
 17 18  1  0  0  0  0
 17 41  1  0  0  0  0
 18 19  1  0  0  0  0
 18 42  1  0  0  0  0
 18 43  1  0  0  0  0
 19 20  1  0  0  0  0
 19 44  1  0  0  0  0
 19 45  1  0  0  0  0
 20 25  1  0  0  0  0
 20 21  1  0  0  0  0
 20 55  1  0  0  0  0
 21 22  1  0  0  0  0
 21 46  1  0  0  0  0
 21 47  1  0  0  0  0
 22 23  1  0  0  0  0
 22 48  1  0  0  0  0
 22 49  1  0  0  0  0
 23 24  1  0  0  0  0
 23 50  1  0  0  0  0
 23 51  1  0  0  0  0
 24 25  1  0  0  0  0
 24 52  1  0  0  0  0
 24 53  1  0  0  0  0
 25 54  1  0  0  0  0
M  CHG  1  20   1
M  END
> <s_m_source_file>
AV-unprocessed.smi

> <i_m_source_file_index>
1645

> <i_lp_mmshare_version>
43012

> <i_f3d_flags>
0

> <s_epik_input>
W0NIMl0xW0NIMl1bQ0gyXVtDSDJdW0NASF0oTjEyKVtDQEBIXShbQ0gyXVtDSDJdMilbTkhdQyg9TylbTkhdYzNbY0hdW2NIXWMobltjSF0zKU40W0NIMl1bQ0gyXVtDSDJdW0NIMl1bQ0gyXTQ=

> <s_epik_cmdline>
J2VwaWtfcHl0aG9uJywgJy1waCcsICc3LjAnLCAnLXRuJywgJzgnLCAnLW1hJywgJzIwMCcsICctbWV0YWxfYmluZGluZycsICctaW1hZScsICc8aW5maWxlLm1hZT4nLCAnLW9tYWUnLCAnPG91dGZpbGUubWFlPic=

> <r_lp_tautomer_probability>
1

> <r_epik_Ionization_Penalty>
0.0808019

> <r_epik_Ionization_Penalty_Charging>
0.000974069

> <r_epik_Ionization_Penalty_Neutral>
0.0798278

> <r_epik_State_Penalty>
0.0653665

> <r_epik_Charging_Adjusted_Penalty>
0.0663406

> <i_epik_Tot_Q>
1

> <i_epik_Tot_abs_Q>
1

> <r_epik_Metal_State_Penalty>
0.0585673

> <b_epik_Metal_Only>
0

> <s_lp_Force_Field>
OPLS_2005

> <r_lp_Energy>
57.6774

> <b_lp_Chiralities_Consistent>
1

> <s_lp_Variant>
AV-unprocessed.smi:1645-3

> <Gold.Version>
5.8.1

> <Gold.Id.Protein>
6NUR|6NUR_protein|mol2

> <Gold.PLP.Fitness>
44.8818

> <Gold.PLP.PLP>
-34.9601

> <Gold.PLP.part.hbond>
-2.8802

> <Gold.PLP.part.metal>
0.0000

> <Gold.PLP.part.buried>
-3.8060

> <Gold.PLP.part.nonpolar>
-28.0138

> <Gold.PLP.part.repulsive>
0.1048

> <Gold.PLP.ligand.clash>
0.0000

> <Gold.PLP.ligand.torsion>
0.8004

> <Gold.PLP.Chemscore.Hbond>
2.7050

> <Gold.PLP.Chemscore.CHOScore>
1.0000

> <Gold.PLP.Chemscore.Metal>
0.0000

> <Gold.Chemscore.Hbonds>
donor molecule, donor type, donor heavy atom, donor atom, acceptor molecule, acceptor atom, score
      L1  H     3    26       P1  7948  0.90
      L1  H    16    40       P1  7948  1.00
      P1  H  7989  7998       L1    14  0.80
      L1  C    15    39       P1  7957  1.00

> <Gold.PLP.Chemscore.Internal.Correction>
0.4074

> <Gold.Rescore>
     Score         DG    S(hbond)    S(metal)    S(lipo)     H(rot)  DE(clash)    DE(int)     intcor
     17.90     -21.34       2.02        0.00     103.71       1.17       0.08       3.36       ----

> <Gold.Chemscore.Fitness>
17.9024

> <Gold.Chemscore.DG>
-21.3445

> <Gold.Chemscore.ZeroCoef>
-5.4800

> <Gold.Chemscore.Hbond>
2.0160

> <Gold.Chemscore.Metal>
0.0000

> <Gold.Chemscore.Lipo>
103.7135

> <Gold.Chemscore.Internal_Hbond>
0.0000

> <Gold.Chemscore.DEClash>
0.0826

> <Gold.Chemscore.DEInternal>
3.3596

> <Gold.Chemscore.Rot>
1.1731

> <Gold.Chemscore.Internal.Correction>
   9.000000E+99

> <Gold.Chemscore.Hbonds>
donor molecule, donor type, donor heavy atom, donor atom, acceptor molecule, acceptor atom, score
      L1  H     3    26       P1  7948  0.88
      L1  H    16    40       P1  7948  0.92
      P1  H  7989  7998       L1    14  0.11

> <Gold.Chemscore.Hbond.Weighted>
-6.7333

> <Gold.Chemscore.Metal.Weighted>
-0.0000

> <Gold.Chemscore.Lipo.Weighted>
-12.1345

> <Gold.Chemscore.Internal_Hbond.Weighted>
0.0000

> <Gold.Chemscore.DEClash.Weighted>
0.0826

> <Gold.Chemscore.DEInternal.Weighted>
3.3596

> <Gold.Chemscore.Rot.Weighted>
3.0032

> <Gold.Chemscore.Internal.Correction.Weighted>
   9.000000E+99

> <Gold.Protein.RotatedTorsions>
[ 6907 6896 6895 6894 ] final  -50.33 input  -60.11 | X-H torsion
[ 7974 7965 7964 7962 ] final  177.55 input  175.53 | X-H torsion
[ 8008 7997 7996 7995 ] final  109.94 input   59.86 | X-H torsion
[ 10167 10162 10161 10158 ] final   42.59 input  -65.29 | X-H torsion
[ 10718 10713 10712 10709 ] final   55.23 input   66.30 | X-H torsion
[ 10763 10752 10751 10750 ] final   27.32 input  -60.55 | X-H torsion
[ 11005 11000 10999 10996 ] final -175.32 input  -57.11 | X-H torsion

> <Gold.Protein.ActiveResidues>
 VAL166  LYS551  ARG553  GLY616  TRP617  ASP618  TYR619  PRO620  LYS621  CYS622 
 ASP623  PHE694  ASN695  SER759  ASP760  ASP761  ALA762  ILE779  LEU786  VAL792 
 PHE793  MET794  SER795  GLU796  ALA797  LYS798  CYS799  TRP800  GLU811  SER814 

> <Gold.Protein.RotatedAtoms>
  150.8717  134.8092  159.7159 H   0  0  0  0  0  0  0  0  0  0  0  0  # atno 6907 bound_to 6896
  152.4719  134.4935  159.9712 H   0  0  0  0  0  0  0  0  0  0  0  0  # atno 6908 bound_to 6896
  151.5023  133.3463  159.2906 H   0  0  0  0  0  0  0  0  0  0  0  0  # atno 6909 bound_to 6896
  144.7167  140.0264  143.6439 H   0  0  0  0  0  0  0  0  0  0  0  0  # atno 7974 bound_to 7965
  156.2016  140.3048  155.9539 H   0  0  0  0  0  0  0  0  0  0  0  0  # atno 8008 bound_to 7997
  155.2940  140.0443  157.3042 H   0  0  0  0  0  0  0  0  0  0  0  0  # atno 8009 bound_to 7997
  154.5578  140.2311  155.8391 H   0  0  0  0  0  0  0  0  0  0  0  0  # atno 8010 bound_to 7997
  140.3529  144.2327  150.6144 H   0  0  0  0  0  0  0  0  0  0  0  0  # atno 10167 bound_to 10162
  157.5327  130.8641  149.8710 H   0  0  0  0  0  0  0  0  0  0  0  0  # atno 10718 bound_to 10713
  153.0563  135.6539  154.0569 H   0  0  0  0  0  0  0  0  0  0  0  0  # atno 10763 bound_to 10752
  154.0246  135.2917  155.3378 H   0  0  0  0  0  0  0  0  0  0  0  0  # atno 10764 bound_to 10752
  154.6880  135.5294  153.8420 H   0  0  0  0  0  0  0  0  0  0  0  0  # atno 10765 bound_to 10752
  140.4646  134.6222  157.4857 H   0  0  0  0  0  0  0  0  0  0  0  0  # atno 11005 bound_to 11000
  146.0139  139.3193  143.0854 LP  0  0  0  0  0  0  0  0  0  0  0  0  # atno 17320 bound_to 7965
  145.8649  140.9454  143.0681 LP  0  0  0  0  0  0  0  0  0  0  0  0  # atno 17321 bound_to 7965
  140.5202  143.2268  151.8401 LP  0  0  0  0  0  0  0  0  0  0  0  0  # atno 17342 bound_to 10162
  139.4824  144.4846  151.9263 LP  0  0  0  0  0  0  0  0  0  0  0  0  # atno 17343 bound_to 10162
  156.0434  130.3733  150.1377 LP  0  0  0  0  0  0  0  0  0  0  0  0  # atno 17370 bound_to 10713
  156.9561  130.9790  151.3488 LP  0  0  0  0  0  0  0  0  0  0  0  0  # atno 17371 bound_to 10713
  139.9923  134.6965  155.9668 LP  0  0  0  0  0  0  0  0  0  0  0  0  # atno 17394 bound_to 11000
  141.1605  133.6539  156.4304 LP  0  0  0  0  0  0  0  0  0  0  0  0  # atno 17395 bound_to 11000

$$$$
