#       Name:                AV-unprocessed.smi:418
#       Creating user name   scv26
#       Creation time:       Thu Mar 26 22:48:40 2020


#       File generated by GOLD software.
#

@<TRIPOS>MOLECULE
AV-unprocessed.smi:418
    46    48     1
SMALL
NO_CHARGES


@<TRIPOS>ATOM
      1 ****        -2.1941   4.8513   1.1744 C.3            1 S1                 0.0000
      2 ****        -1.7509   3.6024   0.5666 N.am           1 S1                 0.0000
      3 ****        -1.2758   2.5084   1.2069 C.2            1 S1                 0.0000
      4 ****        -1.1333   2.3857   2.4234 O.2            1 S1                 0.0000
      5 ****        -0.9793   1.5731   0.2738 N.am           1 S1                 0.0000
      6 ****        -0.4191   0.2463   0.5208 C.3            1 S1                 0.0000
      7 ****         1.1114   0.2302   0.3336 C.3            1 S1                 0.0000
      8 ****         1.7565   0.7466   1.4797 O.3            1 S1                 0.0000
      9 ****         1.6718  -1.1778   0.0730 C.3            1 S1                 0.0000
     10 ****         1.1161  -2.0973   1.0054 O.3            1 S1                 0.0000
     11 ****         1.4768  -3.4247   0.9135 C.ar           1 S1                 0.0000
     12 ****         2.3755  -3.9401  -0.0552 C.ar           1 S1                 0.0000
     13 ****         2.6879  -5.3134  -0.0789 C.ar           1 S1                 0.0000
     14 ****         2.1098  -6.1864   0.8610 C.ar           1 S1                 0.0000
     15 ****         1.2181  -5.6839   1.8264 C.ar           1 S1                 0.0000
     16 ****         0.9046  -4.3111   1.8510 C.ar           1 S1                 0.0000
     17 ****         0.0441  -3.8405   2.7853 F              1 S1                 0.0000
     18 ****        -1.2594   2.0894  -0.9997 C.ar           1 S1                 0.0000
     19 ****        -1.1145   1.5266  -2.2798 C.ar           1 S1                 0.0000
     20 ****        -1.4906   2.3276  -3.3837 C.ar           1 S1                 0.0000
     21 ****        -1.9900   3.6424  -3.1920 C.ar           1 S1                 0.0000
     22 ****        -2.1240   4.1846  -1.8921 C.ar           1 S1                 0.0000
     23 ****        -1.7445   3.3666  -0.8140 C.ar           1 S1                 0.0000
     24 ****        -2.2455   4.7818   2.2617 H              1 S1                 0.0000
     25 ****        -3.1863   5.1182   0.8097 H              1 S1                 0.0000
     26 ****        -1.5066   5.6579   0.9187 H              1 S1                 0.0000
     27 ****        -0.6961  -0.1166   1.5124 H              1 S1                 0.0000
     28 ****        -0.8823  -0.4441  -0.1852 H              1 S1                 0.0000
     29 ****         1.3901   0.8628  -0.5101 H              1 S1                 0.0000
     30 ****         1.5400   0.1965   2.2174 H              1 S1                 0.0000
     31 ****         1.3924  -1.4824  -0.9367 H              1 S1                 0.0000
     32 ****         2.7620  -1.1706   0.1273 H              1 S1                 0.0000
     33 ****         2.8393  -3.3025  -0.7922 H              1 S1                 0.0000
     34 ****         3.3728  -5.6973  -0.8205 H              1 S1                 0.0000
     35 ****         2.3498  -7.2393   0.8417 H              1 S1                 0.0000
     36 ****         0.7731  -6.3515   2.5494 H              1 S1                 0.0000
     37 ****        -0.7312   0.5265  -2.4192 H              1 S1                 0.0000
     38 ****        -1.3957   1.9343  -4.3851 H              1 S1                 0.0000
     39 ****        -2.2699   4.2369  -4.0492 H              1 S1                 0.0000
     40 ****        -2.5012   5.1848  -1.7379 H              1 S1                 0.0000
     41 ****        -1.3784   3.1387   3.0340 LP             1 S1                 0.0000
     42 ****        -0.7725   1.5329   2.8010 LP             1 S1                 0.0000
     43 ****         1.4432   1.6806   1.6515 LP             1 S1                 0.0000
     44 ****         2.7464   0.7477   1.3383 LP             1 S1                 0.0000
     45 ****         0.1219  -2.0538   0.9064 LP             1 S1                 0.0000
     46 ****         1.3741  -1.7837   1.9192 LP             1 S1                 0.0000
@<TRIPOS>BOND
    1    1    2 1     
    2    1   24 1     
    3    1   25 1     
    4    1   26 1     
    5    2   23 1     
    6    2    3 am    
    7    3    4 2     
    8    3    5 am    
    9    5    6 1     
   10    5   18 1     
   11    6    7 1     
   12    6   27 1     
   13    6   28 1     
   14    7    8 1     
   15    7    9 1     
   16    7   29 1     
   17    8   30 1     
   18    9   10 1     
   19    9   31 1     
   20    9   32 1     
   21   10   11 1     
   22   11   16 ar    
   23   11   12 ar    
   24   12   13 ar    
   25   12   33 1     
   26   13   14 ar    
   27   13   34 1     
   28   14   15 ar    
   29   14   35 1     
   30   15   16 ar    
   31   15   36 1     
   32   16   17 1     
   33   18   23 ar    
   34   18   19 ar    
   35   19   20 ar    
   36   19   37 1     
   37   20   21 ar    
   38   20   38 1     
   39   21   22 ar    
   40   21   39 1     
   41   22   23 ar    
   42   22   40 1     
   43    4   41 1     
   44    4   42 1     
   45    8   43 1     
   46    8   44 1     
   47   10   45 1     
   48   10   46 1     
@<TRIPOS>SUBSTRUCTURE
      1 S1             1
@<TRIPOS>SET
LONE_PAIRS      STATIC     ATOMS    <user>   **** ""
6 41 42 43 44 45 46
DONOR_HYDROGENS      STATIC     ATOMS    <user>   **** ""
1 30
ATOM$BLUE        STATIC     ATOMS    COLORGROUP SYSTEM
6 41 42 43 44 45 46
ATOM$RED        STATIC     ATOMS    COLORGROUP SYSTEM
1 30
