AV-unprocessed.smi:72|AV-procd|sdf|721|dock3
  -GOLD-   2262017 43D 1   1.00000     0.00000
 Structure written by MMmdl.
 28 29  0  0  0  0  0  0  0  0  2 V2000
  154.0370  138.1004  155.0995 N   0  0  0  0  0  0  0  0  0  0  0  0
  152.8104  138.3819  155.0292 C   0  0  0  0  0  0  0  0  0  0  0  0
  151.9107  137.5296  154.2828 N   0  0  0  0  0  0  0  0  0  0  0  0
  150.6569  137.8618  154.2419 C   0  0  0  0  0  0  0  0  0  0  0  0
  150.1534  139.0503  154.9192 N   0  0  0  0  0  0  0  0  0  0  0  0
  148.6870  139.4492  154.8758 C   0  0  2  0  0  0  0  0  0  0  0  0
  147.9477  138.4914  154.1716 O   0  0  0  0  0  0  0  0  0  0  0  0
  147.5185  139.0261  152.9245 C   0  0  1  0  0  0  0  0  0  0  0  0
  146.3090  138.2479  152.3777 C   0  0  0  0  0  0  0  0  0  0  0  0
  146.5404  137.8534  151.0419 O   0  0  0  0  0  0  0  0  0  0  0  0
  147.3135  140.5168  153.2222 C   0  0  1  0  0  0  0  0  0  0  0  0
  146.0578  140.7528  153.8327 O   0  0  0  0  0  0  0  0  0  0  0  0
  148.4455  140.8203  154.1948 C   0  0  2  0  0  0  0  0  0  0  0  0
  149.5665  141.3113  153.4792 O   0  0  0  0  0  0  0  0  0  0  0  0
  151.0618  139.8698  155.6409 C   0  0  0  0  0  0  0  0  0  0  0  0
  150.6191  140.8770  156.1938 O   0  0  0  0  0  0  0  0  0  0  0  0
  152.3763  139.5146  155.6810 N   0  5  0  0  0  0  0  0  0  0  0  0
  148.3464  139.4194  155.9122 H   0  0  0  0  0  0  0  0  0  0  0  0
  148.3486  138.9265  152.2230 H   0  0  0  0  0  0  0  0  0  0  0  0
  147.3642  141.1227  152.3162 H   0  0  0  0  0  0  0  0  0  0  0  0
  148.1671  141.5609  154.9456 H   0  0  0  0  0  0  0  0  0  0  0  0
  154.2652  137.2566  154.5942 H   0  0  0  0  0  0  0  0  0  0  0  0
  149.9145  137.2749  153.7021 H   0  0  0  0  0  0  0  0  0  0  0  0
  146.1463  137.3515  152.9763 H   0  0  0  0  0  0  0  0  0  0  0  0
  145.3925  138.8357  152.4347 H   0  0  0  0  0  0  0  0  0  0  0  0
  145.7489  137.9953  150.5453 H   0  0  0  0  0  0  0  0  0  0  0  0
  145.3812  140.4528  153.2452 H   0  0  0  0  0  0  0  0  0  0  0  0
  149.6286  140.8368  152.6635 H   0  0  0  0  0  0  0  0  0  0  0  0
  1  2  2  0  0  0  0
  1 22  1  0  0  0  0
  2 17  1  0  0  0  0
  2  3  1  0  0  0  0
  3  4  2  0  0  0  0
  4  5  1  0  0  0  0
  4 23  1  0  0  0  0
  5  6  1  0  0  0  0
  5 15  1  0  0  0  0
  6 18  1  0  0  0  0
  6 13  1  0  0  0  0
  6  7  1  0  0  0  0
  7  8  1  0  0  0  0
  8 19  1  0  0  0  0
  8  9  1  0  0  0  0
  8 11  1  0  0  0  0
  9 10  1  0  0  0  0
  9 24  1  0  0  0  0
  9 25  1  0  0  0  0
 10 26  1  0  0  0  0
 11 20  1  0  0  0  0
 11 12  1  0  0  0  0
 11 13  1  0  0  0  0
 12 27  1  0  0  0  0
 13 21  1  0  0  0  0
 13 14  1  0  0  0  0
 14 28  1  0  0  0  0
 15 16  2  0  0  0  0
 15 17  1  0  0  0  0
M  CHG  1  17  -1
M  END
> <s_m_source_file>
AV-unprocessed.smi

> <i_m_source_file_index>
72

> <i_lp_mmshare_version>
43012

> <i_f3d_flags>
0

> <s_epik_input>
W05IMl1jMW5bY0hdbihjKD1PKW4xKVtDQEBIXTJPW0NASF0oW0NIMl1bT0hdKVtDQEBIXShbT0hdKVtDQEhdMltPSF0=

> <s_epik_cmdline>
J2VwaWtfcHl0aG9uJywgJy1waCcsICc3LjAnLCAnLXRuJywgJzgnLCAnLW1hJywgJzIwMCcsICctbWV0YWxfYmluZGluZycsICctaW1hZScsICc8aW5maWxlLm1hZT4nLCAnLW9tYWUnLCAnPG91dGZpbGUubWFlPic=

> <r_lp_tautomer_probability>
7.17554e-07

> <r_epik_Ionization_Penalty>
12.8705

> <r_epik_Ionization_Penalty_Charging>
5.64144

> <r_epik_Ionization_Penalty_Neutral>
7.22905

> <r_epik_State_Penalty>
3.30104

> <r_epik_Charging_Adjusted_Penalty>
8.94249

> <i_epik_Tot_Q>
-1

> <i_epik_Tot_abs_Q>
1

> <r_epik_Metal_State_Penalty>
0.529074

> <b_epik_Metal_Only>
1

> <s_epik_Chemistry_Notes>
This compound contains an acetal/aminal-like group ( X-CH(R)-Y where X, Y are N, S, or O) that may be acid/base labile, releasing an aldehyde.

> <s_lp_Force_Field>
OPLS_2005

> <r_lp_Energy>
36.7485

> <b_lp_Chiralities_Consistent>
1

> <s_lp_Variant>
AV-unprocessed.smi:72-59

> <Gold.Version>
5.8.1

> <Gold.Id.Protein>
6NUR|6NUR_protein|mol2

> <Gold.PLP.Fitness>
52.7407

> <Gold.PLP.PLP>
-32.7205

> <Gold.PLP.part.hbond>
-10.7213

> <Gold.PLP.part.metal>
0.0000

> <Gold.PLP.part.buried>
-0.0872

> <Gold.PLP.part.nonpolar>
-23.7023

> <Gold.PLP.part.repulsive>
0.3785

> <Gold.PLP.ligand.clash>
0.0757

> <Gold.PLP.ligand.torsion>
0.7279

> <Gold.PLP.Chemscore.Hbond>
6.1583

> <Gold.PLP.Chemscore.CHOScore>
1.0047

> <Gold.PLP.Chemscore.Metal>
0.0000

> <Gold.Chemscore.Hbonds>
donor molecule, donor type, donor heavy atom, donor atom, acceptor molecule, acceptor atom, score
      L1  H    10    26       P1 10171  0.84
      L1  H    12    27       P1 10175  1.00
      L1  H    14    28       P1  7957  1.00
      P1  H  7954  7966       L1    10  1.00
      P1  H  7997  8009       L1    17  1.05
      P1  H 10752 10765       L1     3  0.71
      L1  C     4    23       P1  7948  1.00

> <Gold.PLP.Chemscore.Internal.Correction>
0.0629

> <Gold.Rescore>
     Score         DG    S(hbond)    S(metal)    S(lipo)     H(rot)  DE(clash)    DE(int)     intcor
     10.26     -11.86       3.97        0.00      29.55       4.04       0.64       0.96       ----

> <Gold.Chemscore.Fitness>
10.2596

> <Gold.Chemscore.DG>
-11.8572

> <Gold.Chemscore.ZeroCoef>
-5.4800

> <Gold.Chemscore.Hbond>
3.9709

> <Gold.Chemscore.Metal>
0.0000

> <Gold.Chemscore.Lipo>
29.5509

> <Gold.Chemscore.Internal_Hbond>
0.0000

> <Gold.Chemscore.DEClash>
0.6398

> <Gold.Chemscore.DEInternal>
0.9578

> <Gold.Chemscore.Rot>
4.0403

> <Gold.Chemscore.Internal.Correction>
   9.000000E+99

> <Gold.Chemscore.Hbonds>
donor molecule, donor type, donor heavy atom, donor atom, acceptor molecule, acceptor atom, score
      L1  H    10    26       P1 10171  0.84
      L1  H    12    27       P1 10175  0.94
      L1  H    14    28       P1  7957  1.00
      P1  H  7954  7966       L1    10  0.80
      P1  H  7997  8009       L1    17  0.05
      P1  H 10752 10765       L1     3  0.27

> <Gold.Chemscore.Hbond.Weighted>
-13.2628

> <Gold.Chemscore.Metal.Weighted>
-0.0000

> <Gold.Chemscore.Lipo.Weighted>
-3.4575

> <Gold.Chemscore.Internal_Hbond.Weighted>
0.0000

> <Gold.Chemscore.DEClash.Weighted>
0.6398

> <Gold.Chemscore.DEInternal.Weighted>
0.9578

> <Gold.Chemscore.Rot.Weighted>
10.3431

> <Gold.Chemscore.Internal.Correction.Weighted>
   9.000000E+99

> <Gold.Protein.RotatedTorsions>
[ 6907 6896 6895 6894 ] final  -73.02 input  -60.11 | X-H torsion
[ 7974 7965 7964 7962 ] final   59.36 input  175.53 | X-H torsion
[ 8008 7997 7996 7995 ] final -154.45 input   59.86 | X-H torsion
[ 10167 10162 10161 10158 ] final   44.70 input  -65.29 | X-H torsion
[ 10718 10713 10712 10709 ] final -100.05 input   66.30 | X-H torsion
[ 10763 10752 10751 10750 ] final  151.15 input  -60.55 | X-H torsion
[ 11005 11000 10999 10996 ] final   18.12 input  -57.11 | X-H torsion

> <Gold.Protein.ActiveResidues>
 VAL166  LYS551  ARG553  GLY616  TRP617  ASP618  TYR619  PRO620  LYS621  CYS622 
 ASP623  PHE694  ASN695  SER759  ASP760  ASP761  ALA762  ILE779  LEU786  VAL792 
 PHE793  MET794  SER795  GLU796  ALA797  LYS798  CYS799  TRP800  GLU811  SER814 

> <Gold.Protein.RotatedAtoms>
  150.7146  134.5078  159.5592 H   0  0  0  0  0  0  0  0  0  0  0  0  # atno 6907 bound_to 6896
  152.2661  134.7980  160.0431 H   0  0  0  0  0  0  0  0  0  0  0  0  # atno 6908 bound_to 6896
  151.8676  133.3434  159.3761 H   0  0  0  0  0  0  0  0  0  0  0  0  # atno 6909 bound_to 6896
  145.9080  139.3632  143.0552 H   0  0  0  0  0  0  0  0  0  0  0  0  # atno 7974 bound_to 7965
  155.6866  140.0750  157.2464 H   0  0  0  0  0  0  0  0  0  0  0  0  # atno 8008 bound_to 7997
  154.4096  140.1672  156.2092 H   0  0  0  0  0  0  0  0  0  0  0  0  # atno 8009 bound_to 7997
  155.9489  140.3379  155.6393 H   0  0  0  0  0  0  0  0  0  0  0  0  # atno 8010 bound_to 7997
  140.3317  144.2581  150.6167 H   0  0  0  0  0  0  0  0  0  0  0  0  # atno 10167 bound_to 10162
  156.0151  130.5310  150.6760 H   0  0  0  0  0  0  0  0  0  0  0  0  # atno 10718 bound_to 10713
  154.0992  135.2847  155.3255 H   0  0  0  0  0  0  0  0  0  0  0  0  # atno 10763 bound_to 10752
  154.6567  135.5349  153.7971 H   0  0  0  0  0  0  0  0  0  0  0  0  # atno 10764 bound_to 10752
  153.0385  135.6523  154.1156 H   0  0  0  0  0  0  0  0  0  0  0  0  # atno 10765 bound_to 10752
  140.4283  134.1446  155.7678 H   0  0  0  0  0  0  0  0  0  0  0  0  # atno 11005 bound_to 11000
  145.8707  140.9421  143.0652 LP  0  0  0  0  0  0  0  0  0  0  0  0  # atno 17320 bound_to 7965
  144.6741  140.0651  143.7475 LP  0  0  0  0  0  0  0  0  0  0  0  0  # atno 17321 bound_to 7965
  140.5391  143.2227  151.8114 LP  0  0  0  0  0  0  0  0  0  0  0  0  # atno 17342 bound_to 10162
  139.4855  144.4623  151.9526 LP  0  0  0  0  0  0  0  0  0  0  0  0  # atno 17343 bound_to 10162
  157.4473  131.0868  151.0883 LP  0  0  0  0  0  0  0  0  0  0  0  0  # atno 17370 bound_to 10713
  157.1409  130.6142  149.5555 LP  0  0  0  0  0  0  0  0  0  0  0  0  # atno 17371 bound_to 10713
  141.1756  133.8521  157.1432 LP  0  0  0  0  0  0  0  0  0  0  0  0  # atno 17394 bound_to 11000
  140.0152  134.9971  157.0477 LP  0  0  0  0  0  0  0  0  0  0  0  0  # atno 17395 bound_to 11000

$$$$
