AV-unprocessed.smi:481|AV-procd|sdf|2683|dock10
  -GOLD-   2262023113D 1   1.00000     0.00000
 Structure written by MMmdl.
 42 44  0  0  0  0  0  0  0  0  2 V2000
  152.2545  145.3701  159.1687 C   0  0  0  0  0  0  0  0  0  0  0  0
  151.0843  144.6533  158.8066 O   0  0  0  0  0  0  0  0  0  0  0  0
  151.2746  143.7451  157.7307 C   0  0  0  0  0  0  0  0  0  0  0  0
  150.4816  142.4423  157.9318 C   0  0  0  0  0  0  0  0  0  0  0  0
  150.7335  141.4929  156.8526 N   0  0  0  0  0  0  0  0  0  0  0  0
  150.1521  141.4600  155.6267 C   0  0  0  0  0  0  0  0  0  0  0  0
  149.1838  142.4185  155.2965 N   0  0  0  0  0  0  0  0  0  0  0  0
  148.5757  142.4406  154.1097 N   0  0  0  0  0  0  0  0  0  0  0  0
  147.8280  141.4656  153.7044 C   0  0  0  0  0  0  0  0  0  0  0  0
  147.6170  140.1596  154.3644 C   0  0  0  0  0  0  0  0  0  0  0  0
  148.3700  139.0079  154.0339 C   0  0  0  0  0  0  0  0  0  0  0  0
  148.1310  137.7857  154.6910 C   0  0  0  0  0  0  0  0  0  0  0  0
  147.1299  137.6991  155.6761 C   0  0  0  0  0  0  0  0  0  0  0  0
  146.3635  138.8346  155.9988 C   0  0  0  0  0  0  0  0  0  0  0  0
  146.6031  140.0571  155.3417 C   0  0  0  0  0  0  0  0  0  0  0  0
  150.5886  140.4737  154.8355 N   0  0  0  0  0  0  0  0  0  0  0  0
  151.5225  139.8256  155.6296 C   0  0  0  0  0  0  0  0  0  0  0  0
  151.6209  140.4139  156.8511 C   0  0  0  0  0  0  0  0  0  0  0  0
  152.5189  139.9393  157.9258 C   0  0  0  0  0  0  0  0  0  0  0  0
  152.5517  140.5012  159.0190 O   0  0  0  0  0  0  0  0  0  0  0  0
  153.2527  138.8476  157.5394 N   0  5  0  0  0  0  0  0  0  0  0  0
  153.1903  138.2226  156.3118 C   0  0  0  0  0  0  0  0  0  0  0  0
  153.8855  137.2413  156.0458 O   0  0  0  0  0  0  0  0  0  0  0  0
  152.3357  138.6939  155.3497 N   0  0  0  0  0  0  0  0  0  0  0  0
  152.2485  138.0511  154.0354 C   0  0  0  0  0  0  0  0  0  0  0  0
  152.0457  145.9853  160.0436 H   0  0  0  0  0  0  0  0  0  0  0  0
  152.5870  146.0346  158.3717 H   0  0  0  0  0  0  0  0  0  0  0  0
  153.0718  144.6944  159.4237 H   0  0  0  0  0  0  0  0  0  0  0  0
  151.0280  144.2188  156.7794 H   0  0  0  0  0  0  0  0  0  0  0  0
  152.3381  143.5088  157.6887 H   0  0  0  0  0  0  0  0  0  0  0  0
  150.7454  141.9890  158.8872 H   0  0  0  0  0  0  0  0  0  0  0  0
  149.4104  142.6268  157.9881 H   0  0  0  0  0  0  0  0  0  0  0  0
  148.6814  142.7689  156.0995 H   0  0  0  0  0  0  0  0  0  0  0  0
  147.2795  141.6227  152.7754 H   0  0  0  0  0  0  0  0  0  0  0  0
  149.1350  139.0496  153.2727 H   0  0  0  0  0  0  0  0  0  0  0  0
  148.7154  136.9138  154.4369 H   0  0  0  0  0  0  0  0  0  0  0  0
  146.9474  136.7618  156.1809 H   0  0  0  0  0  0  0  0  0  0  0  0
  145.5923  138.7691  156.7521 H   0  0  0  0  0  0  0  0  0  0  0  0
  146.0089  140.9211  155.6027 H   0  0  0  0  0  0  0  0  0  0  0  0
  151.9247  137.0148  154.1390 H   0  0  0  0  0  0  0  0  0  0  0  0
  153.2205  138.0577  153.5403 H   0  0  0  0  0  0  0  0  0  0  0  0
  151.5429  138.5484  153.3704 H   0  0  0  0  0  0  0  0  0  0  0  0
  1  2  1  0  0  0  0
  1 26  1  0  0  0  0
  1 27  1  0  0  0  0
  1 28  1  0  0  0  0
  2  3  1  0  0  0  0
  3  4  1  0  0  0  0
  3 29  1  0  0  0  0
  3 30  1  0  0  0  0
  4  5  1  0  0  0  0
  4 31  1  0  0  0  0
  4 32  1  0  0  0  0
  5 18  1  0  0  0  0
  5  6  1  0  0  0  0
  6  7  1  0  0  0  0
  6 16  2  0  0  0  0
  7  8  1  0  0  0  0
  7 33  1  0  0  0  0
  8  9  2  0  0  0  0
  9 10  1  0  0  0  0
  9 34  1  0  0  0  0
 10 15  1  0  0  0  0
 10 11  2  0  0  0  0
 11 12  1  0  0  0  0
 11 35  1  0  0  0  0
 12 13  2  0  0  0  0
 12 36  1  0  0  0  0
 13 14  1  0  0  0  0
 13 37  1  0  0  0  0
 14 15  2  0  0  0  0
 14 38  1  0  0  0  0
 15 39  1  0  0  0  0
 16 17  1  0  0  0  0
 17 24  1  0  0  0  0
 17 18  2  0  0  0  0
 18 19  1  0  0  0  0
 19 20  2  0  0  0  0
 19 21  1  0  0  0  0
 21 22  1  0  0  0  0
 22 23  2  0  0  0  0
 22 24  1  0  0  0  0
 24 25  1  0  0  0  0
 25 40  1  0  0  0  0
 25 41  1  0  0  0  0
 25 42  1  0  0  0  0
M  CHG  1  21  -1
M  END
> <s_m_source_file>
AV-unprocessed.smi

> <i_m_source_file_index>
481

> <i_lp_mmshare_version>
43012

> <i_f3d_flags>
0

> <s_epik_input>
W0NIM11uMWMoPU8pW25IXWMoPU8pYyhjMTIpbihbQ0gyXVtDSDJdT1tDSDNdKWMobjIpW05IXS9OPVtDSF0vYzNbY0hdW2NIXVtjSF1bY0hdW2NIXTM=

> <s_epik_cmdline>
J2VwaWtfcHl0aG9uJywgJy1waCcsICc3LjAnLCAnLXRuJywgJzgnLCAnLW1hJywgJzIwMCcsICctbWV0YWxfYmluZGluZycsICctaW1hZScsICc8aW5maWxlLm1hZT4nLCAnLW9tYWUnLCAnPG91dGZpbGUubWFlPic=

> <r_epik_Ionization_Penalty>
4.48471

> <r_epik_Ionization_Penalty_Charging>
4.58449e-09

> <r_epik_Ionization_Penalty_Neutral>
4.48471

> <r_epik_State_Penalty>
4.48428

> <r_epik_Charging_Adjusted_Penalty>
4.48428

> <i_epik_Tot_Q>
-1

> <i_epik_Tot_abs_Q>
1

> <r_epik_Metal_State_Penalty>
0.811551

> <b_epik_Metal_Only>
1

> <s_epik_Chemistry_Notes>
This compound has an imine and may undergo hydrolysis.

> <s_lp_Force_Field>
OPLS_2005

> <r_lp_Energy>
49.411

> <b_lp_Chiralities_Consistent>
1

> <s_lp_Variant>
AV-unprocessed.smi:481-4

> <Gold.Version>
5.8.1

> <Gold.Id.Protein>
6NUR|6NUR_protein|mol2

> <Gold.PLP.Fitness>
42.6446

> <Gold.PLP.PLP>
-37.6857

> <Gold.PLP.part.hbond>
-4.4307

> <Gold.PLP.part.metal>
0.0000

> <Gold.PLP.part.buried>
-5.9968

> <Gold.PLP.part.nonpolar>
-29.6297

> <Gold.PLP.part.repulsive>
2.9530

> <Gold.PLP.ligand.clash>
0.0000

> <Gold.PLP.ligand.torsion>
1.6226

> <Gold.PLP.Chemscore.Hbond>
2.5535

> <Gold.PLP.Chemscore.CHOScore>
0.0000

> <Gold.PLP.Chemscore.Metal>
0.0000

> <Gold.Chemscore.Hbonds>
donor molecule, donor type, donor heavy atom, donor atom, acceptor molecule, acceptor atom, score
      P1  H  7989  7998       L1    16  0.95
      P1  H  7997  8010       L1    21  0.76
      P1  H  8011  8017       L1     8  0.09
      P1  H  8022  8030       L1     8  0.16
      P1  H 10752 10764       L1    23  0.37

> <Gold.PLP.Chemscore.Internal.Correction>
0.5435

> <Gold.Rescore>
     Score         DG    S(hbond)    S(metal)    S(lipo)     H(rot)  DE(clash)    DE(int)     intcor
     12.17     -15.36       1.78        0.00      66.84       1.52       1.69       1.50       ----

> <Gold.Chemscore.Fitness>
12.1749

> <Gold.Chemscore.DG>
-15.3616

> <Gold.Chemscore.ZeroCoef>
-5.4800

> <Gold.Chemscore.Hbond>
1.7843

> <Gold.Chemscore.Metal>
0.0000

> <Gold.Chemscore.Lipo>
66.8444

> <Gold.Chemscore.Internal_Hbond>
0.0000

> <Gold.Chemscore.DEClash>
1.6912

> <Gold.Chemscore.DEInternal>
1.4955

> <Gold.Chemscore.Rot>
1.5230

> <Gold.Chemscore.Internal.Correction>
   9.000000E+99

> <Gold.Chemscore.Hbonds>
donor molecule, donor type, donor heavy atom, donor atom, acceptor molecule, acceptor atom, score
      L1  H     7    33       P1  8028  0.03
      P1  H  7989  7998       L1    16  0.20
      P1  H  8011  8017       L1     8  0.01
      P1  H  8022  8030       L1     8  0.06
      P1  H 10752 10764       L1    23  0.35

> <Gold.Chemscore.Hbond.Weighted>
-5.9596

> <Gold.Chemscore.Metal.Weighted>
-0.0000

> <Gold.Chemscore.Lipo.Weighted>
-7.8208

> <Gold.Chemscore.Internal_Hbond.Weighted>
0.0000

> <Gold.Chemscore.DEClash.Weighted>
1.6912

> <Gold.Chemscore.DEInternal.Weighted>
1.4955

> <Gold.Chemscore.Rot.Weighted>
3.8989

> <Gold.Chemscore.Internal.Correction.Weighted>
   9.000000E+99

> <Gold.Protein.RotatedTorsions>
[ 6907 6896 6895 6894 ] final -155.45 input  -60.11 | X-H torsion
[ 7974 7965 7964 7962 ] final  -60.45 input  175.53 | X-H torsion
[ 8008 7997 7996 7995 ] final   19.89 input   59.86 | X-H torsion
[ 10167 10162 10161 10158 ] final   48.78 input  -65.29 | X-H torsion
[ 10718 10713 10712 10709 ] final -127.35 input   66.30 | X-H torsion
[ 10763 10752 10751 10750 ] final    6.98 input  -60.55 | X-H torsion
[ 11005 11000 10999 10996 ] final  157.42 input  -57.11 | X-H torsion

> <Gold.Protein.ActiveResidues>
 VAL166  LYS551  ARG553  GLY616  TRP617  ASP618  TYR619  PRO620  LYS621  CYS622 
 ASP623  PHE694  ASN695  SER759  ASP760  ASP761  ALA762  ILE779  LEU786  VAL792 
 PHE793  MET794  SER795  GLU796  ALA797  LYS798  CYS799  TRP800  GLU811  SER814 

> <Gold.Protein.RotatedAtoms>
  151.2728  133.4247  159.2621 H   0  0  0  0  0  0  0  0  0  0  0  0  # atno 6907 bound_to 6896
  151.0430  134.9621  159.8182 H   0  0  0  0  0  0  0  0  0  0  0  0  # atno 6908 bound_to 6896
  152.5369  134.2685  159.9015 H   0  0  0  0  0  0  0  0  0  0  0  0  # atno 6909 bound_to 6896
  145.8154  140.8573  143.0160 H   0  0  0  0  0  0  0  0  0  0  0  0  # atno 7974 bound_to 7965
  154.9274  140.3035  155.5185 H   0  0  0  0  0  0  0  0  0  0  0  0  # atno 8008 bound_to 7997
  156.3006  140.2360  156.4267 H   0  0  0  0  0  0  0  0  0  0  0  0  # atno 8009 bound_to 7997
  154.8271  140.0420  157.1440 H   0  0  0  0  0  0  0  0  0  0  0  0  # atno 8010 bound_to 7997
  140.2897  144.3060  150.6243 H   0  0  0  0  0  0  0  0  0  0  0  0  # atno 10167 bound_to 10162
  156.1849  130.6756  151.0351 H   0  0  0  0  0  0  0  0  0  0  0  0  # atno 10718 bound_to 10713
  153.2415  135.6904  153.7778 H   0  0  0  0  0  0  0  0  0  0  0  0  # atno 10763 bound_to 10752
  153.6905  135.3313  155.3202 H   0  0  0  0  0  0  0  0  0  0  0  0  # atno 10764 bound_to 10752
  154.8357  135.4544  154.1339 H   0  0  0  0  0  0  0  0  0  0  0  0  # atno 10765 bound_to 10752
  140.1768  134.8504  157.2756 H   0  0  0  0  0  0  0  0  0  0  0  0  # atno 11005 bound_to 11000
  144.6753  140.0456  143.7480 LP  0  0  0  0  0  0  0  0  0  0  0  0  # atno 17320 bound_to 7965
  145.9732  139.2885  143.1086 LP  0  0  0  0  0  0  0  0  0  0  0  0  # atno 17321 bound_to 7965
  140.5742  143.2178  151.7544 LP  0  0  0  0  0  0  0  0  0  0  0  0  # atno 17342 bound_to 10162
  139.4941  144.4173  152.0016 LP  0  0  0  0  0  0  0  0  0  0  0  0  # atno 17343 bound_to 10162
  157.6892  131.0815  150.7156 LP  0  0  0  0  0  0  0  0  0  0  0  0  # atno 17370 bound_to 10713
  156.7213  130.4681  149.5522 LP  0  0  0  0  0  0  0  0  0  0  0  0  # atno 17371 bound_to 10713
  140.2313  134.3905  155.7520 LP  0  0  0  0  0  0  0  0  0  0  0  0  # atno 17394 bound_to 11000
  141.2221  133.7216  156.8645 LP  0  0  0  0  0  0  0  0  0  0  0  0  # atno 17395 bound_to 11000

$$$$
