AV-unprocessed.smi:559|AV-procd|sdf|2925|dock3
  -GOLD-   2262023413D 1   1.00000     0.00000
 Structure written by MMmdl.
 41 42  0  0  0  0  0  0  0  0  1 V2000
  146.8722  130.1511  152.8501 C   0  0  0  0  0  0  0  0  0  0  0  0
  146.2502  131.3103  152.1253 C   0  0  0  0  0  0  0  0  0  0  0  0
  145.1201  131.1314  151.4629 N   0  0  0  0  0  0  0  0  0  0  0  0
  144.8335  132.3378  150.9353 N   0  0  0  0  0  0  0  0  0  0  0  0
  143.6302  132.4767  150.1371 C   0  0  0  0  0  0  0  0  0  0  0  0
  145.7854  133.2844  151.2682 C   0  0  0  0  0  0  0  0  0  0  0  0
  145.7024  134.7047  150.8076 C   0  0  0  0  0  0  0  0  0  0  0  0
  146.7236  132.6524  152.0416 C   0  0  0  0  0  0  0  0  0  0  0  0
  147.9727  133.2190  152.6697 C   0  0  0  0  0  0  0  0  0  0  0  0
  147.6319  133.8970  153.9976 C   0  0  0  0  0  0  0  0  0  0  0  0
  147.1099  133.2479  154.9033 O   0  0  0  0  0  0  0  0  0  0  0  0
  147.9233  135.2038  154.0952 N   0  0  0  0  0  0  0  0  0  0  0  0
  147.6943  136.0422  155.2674 C   0  0  0  0  0  0  0  0  0  0  0  0
  149.0034  136.6407  155.8177 C   0  0  1  0  0  0  0  0  0  0  0  0
  150.0615  135.5850  156.2044 C   0  0  0  0  0  0  0  0  0  0  0  0
  151.3976  136.2930  156.4504 C   0  0  0  0  0  0  0  0  0  0  0  0
  151.4298  137.7073  155.2883 S   0  0  0  0  0  0  0  0  0  0  0  0
  151.6726  138.9439  156.0466 O   0  0  0  0  0  0  0  0  0  0  0  0
  152.2503  137.3634  154.1172 O   0  0  0  0  0  0  0  0  0  0  0  0
  149.6594  137.6115  154.8233 C   0  0  0  0  0  0  0  0  0  0  0  0
  147.9376  130.0803  152.6316 H   0  0  0  0  0  0  0  0  0  0  0  0
  146.4149  129.2028  152.5654 H   0  0  0  0  0  0  0  0  0  0  0  0
  146.7614  130.2630  153.9286 H   0  0  0  0  0  0  0  0  0  0  0  0
  143.5975  133.4507  149.6499 H   0  0  0  0  0  0  0  0  0  0  0  0
  142.7534  132.3721  150.7763 H   0  0  0  0  0  0  0  0  0  0  0  0
  143.6051  131.7027  149.3691 H   0  0  0  0  0  0  0  0  0  0  0  0
  146.5516  135.2883  151.1617 H   0  0  0  0  0  0  0  0  0  0  0  0
  144.7938  135.1796  151.1781 H   0  0  0  0  0  0  0  0  0  0  0  0
  145.6953  134.7592  149.7188 H   0  0  0  0  0  0  0  0  0  0  0  0
  148.7221  132.4475  152.8479 H   0  0  0  0  0  0  0  0  0  0  0  0
  148.4468  133.9472  152.0106 H   0  0  0  0  0  0  0  0  0  0  0  0
  148.3519  135.6490  153.2968 H   0  0  0  0  0  0  0  0  0  0  0  0
  146.9733  136.8321  155.0492 H   0  0  0  0  0  0  0  0  0  0  0  0
  147.2329  135.4145  156.0303 H   0  0  0  0  0  0  0  0  0  0  0  0
  148.7702  137.2113  156.7181 H   0  0  0  0  0  0  0  0  0  0  0  0
  149.7609  135.0050  157.0772 H   0  0  0  0  0  0  0  0  0  0  0  0
  150.1817  134.8807  155.3802 H   0  0  0  0  0  0  0  0  0  0  0  0
  151.4451  136.6888  157.4651 H   0  0  0  0  0  0  0  0  0  0  0  0
  152.2602  135.6472  156.2856 H   0  0  0  0  0  0  0  0  0  0  0  0
  149.6056  137.2265  153.8044 H   0  0  0  0  0  0  0  0  0  0  0  0
  149.2119  138.6053  154.8414 H   0  0  0  0  0  0  0  0  0  0  0  0
  1  2  1  0  0  0  0
  1 21  1  0  0  0  0
  1 22  1  0  0  0  0
  1 23  1  0  0  0  0
  2  8  1  0  0  0  0
  2  3  2  0  0  0  0
  3  4  1  0  0  0  0
  4  5  1  0  0  0  0
  4  6  1  0  0  0  0
  5 24  1  0  0  0  0
  5 25  1  0  0  0  0
  5 26  1  0  0  0  0
  6  7  1  0  0  0  0
  6  8  2  0  0  0  0
  7 27  1  0  0  0  0
  7 28  1  0  0  0  0
  7 29  1  0  0  0  0
  8  9  1  0  0  0  0
  9 10  1  0  0  0  0
  9 30  1  0  0  0  0
  9 31  1  0  0  0  0
 10 11  2  0  0  0  0
 10 12  1  0  0  0  0
 12 13  1  0  0  0  0
 12 32  1  0  0  0  0
 13 14  1  0  0  0  0
 13 33  1  0  0  0  0
 13 34  1  0  0  0  0
 14 20  1  0  0  0  0
 14 15  1  0  0  0  0
 14 35  1  0  0  0  0
 15 16  1  0  0  0  0
 15 36  1  0  0  0  0
 15 37  1  0  0  0  0
 16 17  1  0  0  0  0
 16 38  1  0  0  0  0
 16 39  1  0  0  0  0
 17 18  2  0  0  0  0
 17 19  2  0  0  0  0
 17 20  1  0  0  0  0
 20 40  1  0  0  0  0
 20 41  1  0  0  0  0
M  END
> <s_m_source_file>
AV-unprocessed.smi

> <i_m_source_file_index>
559

> <i_lp_mmshare_version>
43012

> <i_f3d_flags>
0

> <s_epik_input>
W0NIM11jMW5uKFtDSDNdKWMoW0NIM10pYzFbQ0gyXUMoPU8pW05IXVtDSDJdW0NAQEhdKFtDSDJdMilbQ0gyXVtDSDJdUzIoPU8pPU8=

> <s_epik_cmdline>
J2VwaWtfcHl0aG9uJywgJy1waCcsICc3LjAnLCAnLXRuJywgJzgnLCAnLW1hJywgJzIwMCcsICctbWV0YWxfYmluZGluZycsICctaW1hZScsICc8aW5maWxlLm1hZT4nLCAnLW9tYWUnLCAnPG91dGZpbGUubWFlPic=

> <r_lp_tautomer_probability>
1

> <r_epik_Ionization_Penalty>
0.00301269

> <r_epik_Ionization_Penalty_Charging>
0

> <r_epik_Ionization_Penalty_Neutral>
0.00301269

> <r_epik_State_Penalty>
0.00211587

> <r_epik_Charging_Adjusted_Penalty>
0.00211587

> <i_epik_Tot_Q>
0

> <i_epik_Tot_abs_Q>
0

> <r_epik_Metal_State_Penalty>
-0

> <b_epik_Metal_Only>
0

> <s_lp_Force_Field>
OPLS_2005

> <r_lp_Energy>
-1.18315

> <b_lp_Chiralities_Consistent>
1

> <s_lp_Variant>
AV-unprocessed.smi:559-2

> <Gold.Version>
5.8.1

> <Gold.Id.Protein>
6NUR|6NUR_protein|mol2

> <Gold.PLP.Fitness>
34.1435

> <Gold.PLP.PLP>
-29.2779

> <Gold.PLP.part.hbond>
-2.0000

> <Gold.PLP.part.metal>
0.0000

> <Gold.PLP.part.buried>
-5.4357

> <Gold.PLP.part.nonpolar>
-23.2712

> <Gold.PLP.part.repulsive>
0.3545

> <Gold.PLP.ligand.clash>
0.0000

> <Gold.PLP.ligand.torsion>
0.3415

> <Gold.PLP.Chemscore.Hbond>
1.8480

> <Gold.PLP.Chemscore.CHOScore>
0.0000

> <Gold.PLP.Chemscore.Metal>
0.0000

> <Gold.Chemscore.Hbonds>
donor molecule, donor type, donor heavy atom, donor atom, acceptor molecule, acceptor atom, score
      L1  H    12    32       P1  7948  1.00
      P1  H 10752 10764       L1    19  0.83

> <Gold.PLP.Chemscore.Internal.Correction>
0.0047

> <Gold.Rescore>
     Score         DG    S(hbond)    S(metal)    S(lipo)     H(rot)  DE(clash)    DE(int)     intcor
     14.39     -14.82       1.78        0.00      64.89       1.64       0.10       0.33       ----

> <Gold.Chemscore.Fitness>
14.3866

> <Gold.Chemscore.DG>
-14.8165

> <Gold.Chemscore.ZeroCoef>
-5.4800

> <Gold.Chemscore.Hbond>
1.7789

> <Gold.Chemscore.Metal>
0.0000

> <Gold.Chemscore.Lipo>
64.8924

> <Gold.Chemscore.Internal_Hbond>
0.0000

> <Gold.Chemscore.DEClash>
0.1007

> <Gold.Chemscore.DEInternal>
0.3292

> <Gold.Chemscore.Rot>
1.6396

> <Gold.Chemscore.Internal.Correction>
   9.000000E+99

> <Gold.Chemscore.Hbonds>
donor molecule, donor type, donor heavy atom, donor atom, acceptor molecule, acceptor atom, score
      L1  H    12    32       P1  7948  1.00
      P1  H 10752 10764       L1    19  0.80

> <Gold.Chemscore.Hbond.Weighted>
-5.9415

> <Gold.Chemscore.Metal.Weighted>
-0.0000

> <Gold.Chemscore.Lipo.Weighted>
-7.5924

> <Gold.Chemscore.Internal_Hbond.Weighted>
0.0000

> <Gold.Chemscore.DEClash.Weighted>
0.1007

> <Gold.Chemscore.DEInternal.Weighted>
0.3292

> <Gold.Chemscore.Rot.Weighted>
4.1974

> <Gold.Chemscore.Internal.Correction.Weighted>
   9.000000E+99

> <Gold.Protein.RotatedTorsions>
[ 6907 6896 6895 6894 ] final   88.52 input  -60.11 | X-H torsion
[ 7974 7965 7964 7962 ] final  -62.35 input  175.53 | X-H torsion
[ 8008 7997 7996 7995 ] final  102.65 input   59.86 | X-H torsion
[ 10167 10162 10161 10158 ] final -114.58 input  -65.29 | X-H torsion
[ 10718 10713 10712 10709 ] final  103.98 input   66.30 | X-H torsion
[ 10763 10752 10751 10750 ] final  -91.54 input  -60.55 | X-H torsion
[ 11005 11000 10999 10996 ] final -178.05 input  -57.11 | X-H torsion

> <Gold.Protein.ActiveResidues>
 VAL166  LYS551  ARG553  GLY616  TRP617  ASP618  TYR619  PRO620  LYS621  CYS622 
 ASP623  PHE694  ASN695  SER759  ASP760  ASP761  ALA762  ILE779  LEU786  VAL792 
 PHE793  MET794  SER795  GLU796  ALA797  LYS798  CYS799  TRP800  GLU811  SER814 

> <Gold.Protein.RotatedAtoms>
  152.5426  134.2109  159.8749 H   0  0  0  0  0  0  0  0  0  0  0  0  # atno 6907 bound_to 6896
  151.2091  133.4559  159.2605 H   0  0  0  0  0  0  0  0  0  0  0  0  # atno 6908 bound_to 6896
  151.0914  134.9931  159.8460 H   0  0  0  0  0  0  0  0  0  0  0  0  # atno 6909 bound_to 6896
  145.7924  140.8702  143.0274 H   0  0  0  0  0  0  0  0  0  0  0  0  # atno 7974 bound_to 7965
  156.1413  140.3177  155.8499 H   0  0  0  0  0  0  0  0  0  0  0  0  # atno 8008 bound_to 7997
  155.4149  140.0508  157.3046 H   0  0  0  0  0  0  0  0  0  0  0  0  # atno 8009 bound_to 7997
  154.4978  140.2117  155.9422 H   0  0  0  0  0  0  0  0  0  0  0  0  # atno 8010 bound_to 7997
  140.0995  143.4626  152.1821 H   0  0  0  0  0  0  0  0  0  0  0  0  # atno 10167 bound_to 10162
  157.6755  131.0792  150.5637 H   0  0  0  0  0  0  0  0  0  0  0  0  # atno 10718 bound_to 10713
  154.6770  135.5264  153.8213 H   0  0  0  0  0  0  0  0  0  0  0  0  # atno 10763 bound_to 10752
  153.0539  135.6543  154.0635 H   0  0  0  0  0  0  0  0  0  0  0  0  # atno 10764 bound_to 10752
  154.0527  135.2968  155.3317 H   0  0  0  0  0  0  0  0  0  0  0  0  # atno 10765 bound_to 10752
  140.4340  134.6492  157.4726 H   0  0  0  0  0  0  0  0  0  0  0  0  # atno 11005 bound_to 11000
  144.6780  140.0142  143.7484 LP  0  0  0  0  0  0  0  0  0  0  0  0  # atno 17320 bound_to 7965
  145.9963  139.3055  143.0954 LP  0  0  0  0  0  0  0  0  0  0  0  0  # atno 17321 bound_to 7965
  139.5679  144.7446  151.3970 LP  0  0  0  0  0  0  0  0  0  0  0  0  # atno 17342 bound_to 10162
  140.6986  143.7689  150.7366 LP  0  0  0  0  0  0  0  0  0  0  0  0  # atno 17343 bound_to 10162
  156.5939  130.4336  149.5925 LP  0  0  0  0  0  0  0  0  0  0  0  0  # atno 17370 bound_to 10713
  156.2561  130.6935  151.1689 LP  0  0  0  0  0  0  0  0  0  0  0  0  # atno 17371 bound_to 10713
  140.0114  134.6684  155.9374 LP  0  0  0  0  0  0  0  0  0  0  0  0  # atno 17394 bound_to 11000
  141.1733  133.6538  156.4734 LP  0  0  0  0  0  0  0  0  0  0  0  0  # atno 17395 bound_to 11000

$$$$
