AV-unprocessed.smi:2442|AV-procd|sdf|9630|dock10
  -GOLD-   2272013263D 1   1.00000     0.00000
 Structure written by MMmdl.
 47 48  0  0  0  0  0  0  0  0  2 V2000
  149.0179  131.2665  154.3961 C   0  0  0  0  0  0  0  0  0  0  0  0
  147.8895  132.0989  154.1795 O   0  0  0  0  0  0  0  0  0  0  0  0
  147.2904  131.9517  152.8970 C   0  0  1  0  0  0  0  0  0  0  0  0
  146.7501  130.5145  152.7385 C   0  0  0  0  0  0  0  0  0  0  0  0
  145.9679  130.3427  151.4281 C   0  0  0  0  0  0  0  0  0  0  0  0
  144.8262  131.3637  151.3302 C   0  0  0  0  0  0  0  0  0  0  0  0
  145.3567  132.7980  151.4703 C   0  0  0  0  0  0  0  0  0  0  0  0
  146.1498  132.9891  152.7776 C   0  0  2  0  0  0  0  0  0  0  0  0
  146.6970  134.3440  152.8013 N   0  0  0  0  0  0  0  0  0  0  0  0
  146.0567  135.4347  153.2449 C   0  0  0  0  0  0  0  0  0  0  0  0
  144.9030  135.4364  153.6750 O   0  0  0  0  0  0  0  0  0  0  0  0
  146.8292  136.5276  153.1726 N   0  0  0  0  0  0  0  0  0  0  0  0
  146.4201  137.8640  153.5874 C   0  0  0  0  0  0  0  0  0  0  0  0
  147.0012  138.9490  152.6642 C   0  0  0  0  0  0  0  0  0  0  0  0
  147.5135  140.1501  153.4437 C   0  0  0  0  0  0  0  0  0  0  0  0
  146.7551  141.3424  153.4378 C   0  0  0  0  0  0  0  0  0  0  0  0
  147.2182  142.4647  154.1523 C   0  0  0  0  0  0  0  0  0  0  0  0
  148.3797  142.3917  154.8357 N   0  3  0  0  0  0  0  0  0  0  0  0
  149.1390  141.2755  154.8692 C   0  0  0  0  0  0  0  0  0  0  0  0
  148.7320  140.1168  154.1716 C   0  0  0  0  0  0  0  0  0  0  0  0
  149.6038  138.8748  154.2210 C   0  0  0  0  0  0  0  0  0  0  0  0
  149.4218  131.4564  155.3902 H   0  0  0  0  0  0  0  0  0  0  0  0
  149.8053  131.4762  153.6713 H   0  0  0  0  0  0  0  0  0  0  0  0
  148.7612  130.2089  154.3389 H   0  0  0  0  0  0  0  0  0  0  0  0
  148.0239  132.1535  152.1131 H   0  0  0  0  0  0  0  0  0  0  0  0
  147.5658  129.7924  152.7652 H   0  0  0  0  0  0  0  0  0  0  0  0
  146.1001  130.2751  153.5811 H   0  0  0  0  0  0  0  0  0  0  0  0
  146.6426  130.4631  150.5797 H   0  0  0  0  0  0  0  0  0  0  0  0
  145.5672  129.3305  151.3646 H   0  0  0  0  0  0  0  0  0  0  0  0
  144.3072  131.2505  150.3780 H   0  0  0  0  0  0  0  0  0  0  0  0
  144.0894  131.1672  152.1099 H   0  0  0  0  0  0  0  0  0  0  0  0
  145.9930  133.0292  150.6147 H   0  0  0  0  0  0  0  0  0  0  0  0
  144.5236  133.5009  151.4335 H   0  0  0  0  0  0  0  0  0  0  0  0
  145.4581  132.8497  153.6109 H   0  0  0  0  0  0  0  0  0  0  0  0
  147.6440  134.4534  152.4699 H   0  0  0  0  0  0  0  0  0  0  0  0
  147.7642  136.4275  152.8051 H   0  0  0  0  0  0  0  0  0  0  0  0
  145.3307  137.9035  153.5741 H   0  0  0  0  0  0  0  0  0  0  0  0
  146.7237  138.0381  154.6213 H   0  0  0  0  0  0  0  0  0  0  0  0
  147.8300  138.5400  152.0844 H   0  0  0  0  0  0  0  0  0  0  0  0
  146.2576  139.2605  151.9306 H   0  0  0  0  0  0  0  0  0  0  0  0
  145.8260  141.3977  152.8886 H   0  0  0  0  0  0  0  0  0  0  0  0
  146.6982  143.4104  154.1977 H   0  0  0  0  0  0  0  0  0  0  0  0
  150.0469  141.3445  155.4509 H   0  0  0  0  0  0  0  0  0  0  0  0
  150.5606  139.0840  154.7007 H   0  0  0  0  0  0  0  0  0  0  0  0
  149.8103  138.5054  153.2165 H   0  0  0  0  0  0  0  0  0  0  0  0
  149.1093  138.0855  154.7874 H   0  0  0  0  0  0  0  0  0  0  0  0
  148.6977  143.2148  155.3483 H   0  0  0  0  0  0  0  0  0  0  0  0
  1  2  1  0  0  0  0
  1 22  1  0  0  0  0
  1 23  1  0  0  0  0
  1 24  1  0  0  0  0
  2  3  1  0  0  0  0
  3  8  1  0  0  0  0
  3  4  1  0  0  0  0
  3 25  1  0  0  0  0
  4  5  1  0  0  0  0
  4 26  1  0  0  0  0
  4 27  1  0  0  0  0
  5  6  1  0  0  0  0
  5 28  1  0  0  0  0
  5 29  1  0  0  0  0
  6  7  1  0  0  0  0
  6 30  1  0  0  0  0
  6 31  1  0  0  0  0
  7  8  1  0  0  0  0
  7 32  1  0  0  0  0
  7 33  1  0  0  0  0
  8  9  1  0  0  0  0
  8 34  1  0  0  0  0
  9 10  1  0  0  0  0
  9 35  1  0  0  0  0
 10 11  2  0  0  0  0
 10 12  1  0  0  0  0
 12 13  1  0  0  0  0
 12 36  1  0  0  0  0
 13 14  1  0  0  0  0
 13 37  1  0  0  0  0
 13 38  1  0  0  0  0
 14 15  1  0  0  0  0
 14 39  1  0  0  0  0
 14 40  1  0  0  0  0
 15 20  1  0  0  0  0
 15 16  2  0  0  0  0
 16 17  1  0  0  0  0
 16 41  1  0  0  0  0
 17 18  2  0  0  0  0
 17 42  1  0  0  0  0
 18 19  1  0  0  0  0
 18 47  1  0  0  0  0
 19 20  2  0  0  0  0
 19 43  1  0  0  0  0
 20 21  1  0  0  0  0
 21 44  1  0  0  0  0
 21 45  1  0  0  0  0
 21 46  1  0  0  0  0
M  CHG  1  18   1
M  END
> <s_m_source_file>
AV-unprocessed.smi

> <i_m_source_file_index>
2442

> <i_lp_mmshare_version>
43012

> <i_f3d_flags>
0

> <s_epik_input>
W0NIM11PW0NAQEhdMVtDSDJdW0NIMl1bQ0gyXVtDSDJdW0NASF0xW05IXUMoPU8pW05IXVtDSDJdW0NIMl1jMltjSF1bY0hdbltjSF1jMltDSDNd

> <s_epik_cmdline>
J2VwaWtfcHl0aG9uJywgJy1waCcsICc3LjAnLCAnLXRuJywgJzgnLCAnLW1hJywgJzIwMCcsICctbWV0YWxfYmluZGluZycsICctaW1hZScsICc8aW5maWxlLm1hZT4nLCAnLW9tYWUnLCAnPG91dGZpbGUubWFlPic=

> <r_epik_Ionization_Penalty>
1.07145

> <r_epik_Ionization_Penalty_Charging>
1.0714

> <r_epik_Ionization_Penalty_Neutral>
4.9109e-05

> <r_epik_State_Penalty>
1.12601

> <r_epik_Charging_Adjusted_Penalty>
2.19741

> <i_epik_Tot_Q>
1

> <i_epik_Tot_abs_Q>
1

> <r_epik_Metal_State_Penalty>
1.2173

> <b_epik_Metal_Only>
0

> <s_lp_Force_Field>
OPLS_2005

> <r_lp_Energy>
14.6153

> <b_lp_Chiralities_Consistent>
1

> <s_lp_Variant>
AV-unprocessed.smi:2442-8

> <Gold.Version>
5.8.1

> <Gold.Id.Protein>
6NUR|6NUR_protein|mol2

> <Gold.PLP.Fitness>
44.2006

> <Gold.PLP.PLP>
-36.2424

> <Gold.PLP.part.hbond>
-2.7536

> <Gold.PLP.part.metal>
0.0000

> <Gold.PLP.part.buried>
-1.0056

> <Gold.PLP.part.nonpolar>
-32.7664

> <Gold.PLP.part.repulsive>
0.3144

> <Gold.PLP.ligand.clash>
0.0000

> <Gold.PLP.ligand.torsion>
1.0272

> <Gold.PLP.Chemscore.Hbond>
3.3218

> <Gold.PLP.Chemscore.CHOScore>
0.0000

> <Gold.PLP.Chemscore.Metal>
0.0000

> <Gold.Chemscore.Hbonds>
donor molecule, donor type, donor heavy atom, donor atom, acceptor molecule, acceptor atom, score
      L1  H     9    35       P1  7948  0.33
      L1  H    12    36       P1  7948  0.99
      L1  H    18    47       P1  8028  2.00

> <Gold.PLP.Chemscore.Internal.Correction>
0.0470

> <Gold.Rescore>
     Score         DG    S(hbond)    S(metal)    S(lipo)     H(rot)  DE(clash)    DE(int)     intcor
     19.16     -20.38       2.20        0.00     102.16       1.72       0.15       1.07       ----

> <Gold.Chemscore.Fitness>
19.1569

> <Gold.Chemscore.DG>
-20.3775

> <Gold.Chemscore.ZeroCoef>
-5.4800

> <Gold.Chemscore.Hbond>
2.2032

> <Gold.Chemscore.Metal>
0.0000

> <Gold.Chemscore.Lipo>
102.1632

> <Gold.Chemscore.Internal_Hbond>
0.0000

> <Gold.Chemscore.DEClash>
0.1516

> <Gold.Chemscore.DEInternal>
1.0690

> <Gold.Chemscore.Rot>
1.7244

> <Gold.Chemscore.Internal.Correction>
   9.000000E+99

> <Gold.Chemscore.Hbonds>
donor molecule, donor type, donor heavy atom, donor atom, acceptor molecule, acceptor atom, score
      L1  H     9    35       P1  7948  0.23
      L1  H    12    36       P1  7948  0.92
      L1  H    18    47       P1  8028  0.92

> <Gold.Chemscore.Hbond.Weighted>
-7.3588

> <Gold.Chemscore.Metal.Weighted>
-0.0000

> <Gold.Chemscore.Lipo.Weighted>
-11.9531

> <Gold.Chemscore.Internal_Hbond.Weighted>
0.0000

> <Gold.Chemscore.DEClash.Weighted>
0.1516

> <Gold.Chemscore.DEInternal.Weighted>
1.0690

> <Gold.Chemscore.Rot.Weighted>
4.4145

> <Gold.Chemscore.Internal.Correction.Weighted>
   9.000000E+99

> <Gold.Protein.RotatedTorsions>
[ 6907 6896 6895 6894 ] final  -51.36 input  -60.11 | X-H torsion
[ 7974 7965 7964 7962 ] final  -11.49 input  175.53 | X-H torsion
[ 8008 7997 7996 7995 ] final  100.76 input   59.86 | X-H torsion
[ 10167 10162 10161 10158 ] final -145.09 input  -65.29 | X-H torsion
[ 10718 10713 10712 10709 ] final   -8.79 input   66.30 | X-H torsion
[ 10763 10752 10751 10750 ] final    1.65 input  -60.55 | X-H torsion
[ 11005 11000 10999 10996 ] final  -69.11 input  -57.11 | X-H torsion

> <Gold.Protein.ActiveResidues>
 VAL166  LYS551  ARG553  GLY616  TRP617  ASP618  TYR619  PRO620  LYS621  CYS622 
 ASP623  PHE694  ASN695  SER759  ASP760  ASP761  ALA762  ILE779  LEU786  VAL792 
 PHE793  MET794  SER795  GLU796  ALA797  LYS798  CYS799  TRP800  GLU811  SER814 

> <Gold.Protein.RotatedAtoms>
  150.8619  134.7973  159.7088 H   0  0  0  0  0  0  0  0  0  0  0  0  # atno 6907 bound_to 6896
  152.4653  134.5086  159.9757 H   0  0  0  0  0  0  0  0  0  0  0  0  # atno 6908 bound_to 6896
  151.5189  133.3432  159.2933 H   0  0  0  0  0  0  0  0  0  0  0  0  # atno 6909 bound_to 6896
  146.2185  140.2918  142.8369 H   0  0  0  0  0  0  0  0  0  0  0  0  # atno 7974 bound_to 7965
  156.1235  140.3208  155.8242 H   0  0  0  0  0  0  0  0  0  0  0  0  # atno 8008 bound_to 7997
  155.4462  140.0529  157.3023 H   0  0  0  0  0  0  0  0  0  0  0  0  # atno 8009 bound_to 7997
  154.4845  140.2067  155.9701 H   0  0  0  0  0  0  0  0  0  0  0  0  # atno 8010 bound_to 7997
  139.7838  143.8063  152.2642 H   0  0  0  0  0  0  0  0  0  0  0  0  # atno 10167 bound_to 10162
  156.6975  130.5083  149.5926 H   0  0  0  0  0  0  0  0  0  0  0  0  # atno 10718 bound_to 10713
  153.3053  135.6959  153.7165 H   0  0  0  0  0  0  0  0  0  0  0  0  # atno 10763 bound_to 10752
  153.6063  135.3452  155.2964 H   0  0  0  0  0  0  0  0  0  0  0  0  # atno 10764 bound_to 10752
  154.8561  135.4353  154.2176 H   0  0  0  0  0  0  0  0  0  0  0  0  # atno 10765 bound_to 10752
  141.1547  133.6756  156.6548 H   0  0  0  0  0  0  0  0  0  0  0  0  # atno 11005 bound_to 11000
  144.9121  140.7769  143.5801 LP  0  0  0  0  0  0  0  0  0  0  0  0  # atno 17320 bound_to 7965
  145.2850  139.1904  143.4771 LP  0  0  0  0  0  0  0  0  0  0  0  0  # atno 17321 bound_to 7965
  139.8134  144.7326  150.9667 LP  0  0  0  0  0  0  0  0  0  0  0  0  # atno 17342 bound_to 10162
  140.7819  143.4229  151.0814 LP  0  0  0  0  0  0  0  0  0  0  0  0  # atno 17343 bound_to 10162
  156.1753  130.6463  151.0886 LP  0  0  0  0  0  0  0  0  0  0  0  0  # atno 17370 bound_to 10713
  157.6986  131.0785  150.6893 LP  0  0  0  0  0  0  0  0  0  0  0  0  # atno 17371 bound_to 10713
  140.3292  134.7943  157.4313 LP  0  0  0  0  0  0  0  0  0  0  0  0  # atno 17394 bound_to 11000
  140.1031  134.5446  155.8334 LP  0  0  0  0  0  0  0  0  0  0  0  0  # atno 17395 bound_to 11000

$$$$
