AV-unprocessed.smi:1304|AV-procd|sdf|5430|dock1
  -GOLD-   22720 4593D 1   1.00000     0.00000
 Structure written by MMmdl.
 47 48  0  0  0  0  0  0  0  0  1 V2000
  146.2767  140.0825  154.6970 C   0  0  0  0  0  0  0  0  0  0  0  0
  147.8069  140.0786  154.8551 C   0  0  0  0  0  0  0  0  0  0  0  0
  148.4098  138.7963  155.5190 C   0  0  2  0  0  0  0  0  0  0  0  0
  147.9832  137.5963  154.6321 C   0  0  0  0  0  0  0  0  0  0  0  0
  147.7486  138.6056  156.9225 C   0  0  0  0  0  0  0  0  0  0  0  0
  148.4194  137.6036  157.7409 N   0  0  0  0  0  0  0  0  0  0  0  0
  148.0820  137.2628  158.9937 C   0  0  0  0  0  0  0  0  0  0  0  0
  147.1712  137.8118  159.6119 O   0  0  0  0  0  0  0  0  0  0  0  0
  148.8723  136.1256  159.6648 C   0  0  0  0  0  0  0  0  0  0  0  0
  148.1336  135.4052  160.7189 N   0  0  0  0  0  0  0  0  0  0  0  0
  147.9098  134.0287  160.5164 C   0  0  0  0  0  0  0  0  0  0  0  0
  147.2259  133.2830  161.3985 C   0  0  0  0  0  0  0  0  0  0  0  0
  146.7144  133.9272  162.5849 C   0  0  0  0  0  0  0  0  0  0  0  0
  146.9202  135.2437  162.7875 C   0  0  0  0  0  0  0  0  0  0  0  0
  147.6616  136.0640  161.8228 C   0  0  0  0  0  0  0  0  0  0  0  0
  147.8369  137.2708  161.9902 O   0  0  0  0  0  0  0  0  0  0  0  0
  149.8937  138.9009  155.6530 N   0  0  0  0  0  0  0  0  0  0  0  0
  150.6434  138.7662  154.3964 C   0  0  0  0  0  0  0  0  0  0  0  0
  152.1654  138.7637  154.6193 C   0  0  0  0  0  0  0  0  0  0  0  0
  152.5530  139.9456  155.3077 O   0  0  0  0  0  0  0  0  0  0  0  0
  151.9011  140.0740  156.5644 C   0  0  0  0  0  0  0  0  0  0  0  0
  150.3775  140.0964  156.3572 C   0  0  0  0  0  0  0  0  0  0  0  0
  145.9401  141.0276  154.2713 H   0  0  0  0  0  0  0  0  0  0  0  0
  145.7715  139.9566  155.6546 H   0  0  0  0  0  0  0  0  0  0  0  0
  145.9378  139.2901  154.0299 H   0  0  0  0  0  0  0  0  0  0  0  0
  148.2451  140.2412  153.8702 H   0  0  0  0  0  0  0  0  0  0  0  0
  148.1059  140.9703  155.4045 H   0  0  0  0  0  0  0  0  0  0  0  0
  146.8999  137.5488  154.5158 H   0  0  0  0  0  0  0  0  0  0  0  0
  148.2923  136.6414  155.0567 H   0  0  0  0  0  0  0  0  0  0  0  0
  148.3955  137.6599  153.6259 H   0  0  0  0  0  0  0  0  0  0  0  0
  147.7724  139.5325  157.4958 H   0  0  0  0  0  0  0  0  0  0  0  0
  146.6974  138.3344  156.8120 H   0  0  0  0  0  0  0  0  0  0  0  0
  149.1832  137.1061  157.3069 H   0  0  0  0  0  0  0  0  0  0  0  0
  149.1886  135.4303  158.8861 H   0  0  0  0  0  0  0  0  0  0  0  0
  149.7995  136.5375  160.0670 H   0  0  0  0  0  0  0  0  0  0  0  0
  148.3187  133.6261  159.6007 H   0  0  0  0  0  0  0  0  0  0  0  0
  147.0597  132.2300  161.2237 H   0  0  0  0  0  0  0  0  0  0  0  0
  146.1634  133.3510  163.3137 H   0  0  0  0  0  0  0  0  0  0  0  0
  146.5294  135.7089  163.6805 H   0  0  0  0  0  0  0  0  0  0  0  0
  150.3922  137.8380  153.8874 H   0  0  0  0  0  0  0  0  0  0  0  0
  150.3905  139.5805  153.7174 H   0  0  0  0  0  0  0  0  0  0  0  0
  152.4718  137.8847  155.1885 H   0  0  0  0  0  0  0  0  0  0  0  0
  152.6868  138.7233  153.6629 H   0  0  0  0  0  0  0  0  0  0  0  0
  152.1905  139.2509  157.2199 H   0  0  0  0  0  0  0  0  0  0  0  0
  152.2310  140.9958  157.0437 H   0  0  0  0  0  0  0  0  0  0  0  0
  150.1137  140.9963  155.8019 H   0  0  0  0  0  0  0  0  0  0  0  0
  149.9217  140.1841  157.3410 H   0  0  0  0  0  0  0  0  0  0  0  0
  1  2  1  0  0  0  0
  1 23  1  0  0  0  0
  1 24  1  0  0  0  0
  1 25  1  0  0  0  0
  2  3  1  0  0  0  0
  2 26  1  0  0  0  0
  2 27  1  0  0  0  0
  3  4  1  0  0  0  0
  3  5  1  0  0  0  0
  3 17  1  0  0  0  0
  4 28  1  0  0  0  0
  4 29  1  0  0  0  0
  4 30  1  0  0  0  0
  5  6  1  0  0  0  0
  5 31  1  0  0  0  0
  5 32  1  0  0  0  0
  6  7  1  0  0  0  0
  6 33  1  0  0  0  0
  7  8  2  0  0  0  0
  7  9  1  0  0  0  0
  9 10  1  0  0  0  0
  9 34  1  0  0  0  0
  9 35  1  0  0  0  0
 10 15  1  0  0  0  0
 10 11  1  0  0  0  0
 11 12  2  0  0  0  0
 11 36  1  0  0  0  0
 12 13  1  0  0  0  0
 12 37  1  0  0  0  0
 13 14  2  0  0  0  0
 13 38  1  0  0  0  0
 14 15  1  0  0  0  0
 14 39  1  0  0  0  0
 15 16  2  0  0  0  0
 17 22  1  0  0  0  0
 17 18  1  0  0  0  0
 18 19  1  0  0  0  0
 18 40  1  0  0  0  0
 18 41  1  0  0  0  0
 19 20  1  0  0  0  0
 19 42  1  0  0  0  0
 19 43  1  0  0  0  0
 20 21  1  0  0  0  0
 21 22  1  0  0  0  0
 21 44  1  0  0  0  0
 21 45  1  0  0  0  0
 22 46  1  0  0  0  0
 22 47  1  0  0  0  0
M  END
> <s_m_source_file>
AV-unprocessed.smi

> <i_m_source_file_index>
1304

> <i_lp_mmshare_version>
43012

> <i_f3d_flags>
0

> <s_epik_input>
W0NIMl0xW0NIMl1PW0NIMl1bQ0gyXU4xW0NAQF0oW0NIM10pKFtDSDJdW0NIM10pW0NIMl1bTkhdQyg9TylbQ0gyXW4yW2NIXVtjSF1bY0hdW2NIXWMyPU8=

> <s_epik_cmdline>
J2VwaWtfcHl0aG9uJywgJy1waCcsICc3LjAnLCAnLXRuJywgJzgnLCAnLW1hJywgJzIwMCcsICctbWV0YWxfYmluZGluZycsICctaW1hZScsICc8aW5maWxlLm1hZT4nLCAnLW9tYWUnLCAnPG91dGZpbGUubWFlPic=

> <r_lp_tautomer_probability>
1

> <r_epik_Ionization_Penalty>
0.318667

> <r_epik_Ionization_Penalty_Charging>
3.55364e-07

> <r_epik_Ionization_Penalty_Neutral>
0.318667

> <r_epik_State_Penalty>
0.313095

> <r_epik_Charging_Adjusted_Penalty>
0.313095

> <i_epik_Tot_Q>
0

> <i_epik_Tot_abs_Q>
0

> <r_epik_Metal_State_Penalty>
0.313065

> <b_epik_Metal_Only>
0

> <s_lp_Force_Field>
OPLS_2005

> <r_lp_Energy>
51.8872

> <b_lp_Chiralities_Consistent>
1

> <s_lp_Variant>
AV-unprocessed.smi:1304-2

> <Gold.Version>
5.8.1

> <Gold.Id.Protein>
6NUR|6NUR_protein|mol2

> <Gold.PLP.Fitness>
43.3799

> <Gold.PLP.PLP>
-36.1252

> <Gold.PLP.part.hbond>
-5.0000

> <Gold.PLP.part.metal>
0.0000

> <Gold.PLP.part.buried>
-3.6189

> <Gold.PLP.part.nonpolar>
-28.2193

> <Gold.PLP.part.repulsive>
0.0864

> <Gold.PLP.ligand.clash>
0.0000

> <Gold.PLP.ligand.torsion>
0.6722

> <Gold.PLP.Chemscore.Hbond>
2.8294

> <Gold.PLP.Chemscore.CHOScore>
0.0000

> <Gold.PLP.Chemscore.Metal>
0.0000

> <Gold.Chemscore.Hbonds>
donor molecule, donor type, donor heavy atom, donor atom, acceptor molecule, acceptor atom, score
      P1  H  6931  6943       L1    16  1.00
      P1  H  6934  6947       L1     8  0.77
      P1  H  7989  7998       L1    20  0.02
      P1  H  7997  8008       L1    20  0.95

> <Gold.PLP.Chemscore.Internal.Correction>
0.1108

> <Gold.Rescore>
     Score         DG    S(hbond)    S(metal)    S(lipo)     H(rot)  DE(clash)    DE(int)     intcor
     16.82     -17.93       2.68        0.00      72.74       1.95       0.00       1.12       ----

> <Gold.Chemscore.Fitness>
16.8164

> <Gold.Chemscore.DG>
-17.9336

> <Gold.Chemscore.ZeroCoef>
-5.4800

> <Gold.Chemscore.Hbond>
2.6763

> <Gold.Chemscore.Metal>
0.0000

> <Gold.Chemscore.Lipo>
72.7394

> <Gold.Chemscore.Internal_Hbond>
0.0000

> <Gold.Chemscore.DEClash>
0.0000

> <Gold.Chemscore.DEInternal>
1.1172

> <Gold.Chemscore.Rot>
1.9515

> <Gold.Chemscore.Internal.Correction>
   9.000000E+99

> <Gold.Chemscore.Hbonds>
donor molecule, donor type, donor heavy atom, donor atom, acceptor molecule, acceptor atom, score
      P1  H  6931  6943       L1    16  0.90
      P1  H  6934  6947       L1     8  0.78
      P1  H  7997  8008       L1    20  0.20

> <Gold.Chemscore.Hbond.Weighted>
-8.9389

> <Gold.Chemscore.Metal.Weighted>
-0.0000

> <Gold.Chemscore.Lipo.Weighted>
-8.5105

> <Gold.Chemscore.Internal_Hbond.Weighted>
0.0000

> <Gold.Chemscore.DEClash.Weighted>
0.0000

> <Gold.Chemscore.DEInternal.Weighted>
1.1172

> <Gold.Chemscore.Rot.Weighted>
4.9958

> <Gold.Chemscore.Internal.Correction.Weighted>
   9.000000E+99

> <Gold.Protein.RotatedTorsions>
[ 6907 6896 6895 6894 ] final   51.45 input  -60.11 | X-H torsion
[ 7974 7965 7964 7962 ] final -135.74 input  175.53 | X-H torsion
[ 8008 7997 7996 7995 ] final  -16.12 input   59.86 | X-H torsion
[ 10167 10162 10161 10158 ] final   -3.95 input  -65.29 | X-H torsion
[ 10718 10713 10712 10709 ] final  -64.28 input   66.30 | X-H torsion
[ 10763 10752 10751 10750 ] final  -91.58 input  -60.55 | X-H torsion
[ 11005 11000 10999 10996 ] final -112.14 input  -57.11 | X-H torsion

> <Gold.Protein.ActiveResidues>
 VAL166  LYS551  ARG553  GLY616  TRP617  ASP618  TYR619  PRO620  LYS621  CYS622 
 ASP623  PHE694  ASN695  SER759  ASP760  ASP761  ALA762  ILE779  LEU786  VAL792 
 PHE793  MET794  SER795  GLU796  ALA797  LYS798  CYS799  TRP800  GLU811  SER814 

> <Gold.Protein.RotatedAtoms>
  152.3127  134.7477  160.0332 H   0  0  0  0  0  0  0  0  0  0  0  0  # atno 6907 bound_to 6896
  151.7952  133.3358  159.3519 H   0  0  0  0  0  0  0  0  0  0  0  0  # atno 6908 bound_to 6896
  150.7328  134.5735  159.5947 H   0  0  0  0  0  0  0  0  0  0  0  0  # atno 6909 bound_to 6896
  144.8987  140.6742  143.5099 H   0  0  0  0  0  0  0  0  0  0  0  0  # atno 7974 bound_to 7965
  154.5077  140.2178  155.9218 H   0  0  0  0  0  0  0  0  0  0  0  0  # atno 8008 bound_to 7997
  156.1514  140.3160  155.8621 H   0  0  0  0  0  0  0  0  0  0  0  0  # atno 8009 bound_to 7997
  155.3931  140.0479  157.3030 H   0  0  0  0  0  0  0  0  0  0  0  0  # atno 8010 bound_to 7997
  140.6909  143.6481  150.8375 H   0  0  0  0  0  0  0  0  0  0  0  0  # atno 10167 bound_to 10162
  156.0738  130.4231  150.1398 H   0  0  0  0  0  0  0  0  0  0  0  0  # atno 10718 bound_to 10713
  154.6775  135.5262  153.8219 H   0  0  0  0  0  0  0  0  0  0  0  0  # atno 10763 bound_to 10752
  153.0542  135.6544  154.0628 H   0  0  0  0  0  0  0  0  0  0  0  0  # atno 10764 bound_to 10752
  154.0519  135.2968  155.3319 H   0  0  0  0  0  0  0  0  0  0  0  0  # atno 10765 bound_to 10752
  141.0693  133.9407  157.2517 H   0  0  0  0  0  0  0  0  0  0  0  0  # atno 11005 bound_to 11000
  145.3654  139.1671  143.4361 LP  0  0  0  0  0  0  0  0  0  0  0  0  # atno 17320 bound_to 7965
  146.3096  140.3720  142.8675 LP  0  0  0  0  0  0  0  0  0  0  0  0  # atno 17321 bound_to 7965
  140.0193  143.5559  152.2807 LP  0  0  0  0  0  0  0  0  0  0  0  0  # atno 17342 bound_to 10162
  139.6311  144.7644  151.2533 LP  0  0  0  0  0  0  0  0  0  0  0  0  # atno 17343 bound_to 10162
  156.9444  130.9754  151.3510 LP  0  0  0  0  0  0  0  0  0  0  0  0  # atno 17370 bound_to 10713
  157.5824  130.8385  149.8541 LP  0  0  0  0  0  0  0  0  0  0  0  0  # atno 17371 bound_to 10713
  139.9507  135.0176  156.8985 LP  0  0  0  0  0  0  0  0  0  0  0  0  # atno 17394 bound_to 11000
  140.5708  134.0445  155.7430 LP  0  0  0  0  0  0  0  0  0  0  0  0  # atno 17395 bound_to 11000

$$$$
