AV-unprocessed.smi:2973|AV-procd|sdf|11344|dock3
  -GOLD-   2272016253D 1   1.00000     0.00000
 Structure written by MMmdl.
 50 52  0  0  0  0  0  0  0  0  2 V2000
  148.0483  137.5338  158.0157 C   0  0  0  0  0  0  0  0  0  0  0  0
  147.5358  136.3633  157.1505 C   0  0  1  0  0  0  0  0  0  0  0  0
  146.1103  136.6505  156.6307 C   0  0  0  0  0  0  0  0  0  0  0  0
  145.5399  135.4565  155.8495 C   0  0  0  0  0  0  0  0  0  0  0  0
  146.4596  135.0535  154.6884 C   0  0  0  0  0  0  0  0  0  0  0  0
  147.8873  134.7626  155.1843 C   0  0  0  0  0  0  0  0  0  0  0  0
  148.4982  135.9308  155.9991 C   0  0  2  0  0  0  0  0  0  0  0  0
  149.7956  135.5347  156.5192 N   0  0  0  0  0  0  0  0  0  0  0  0
  150.8062  136.2621  156.0284 C   0  0  0  0  0  0  0  0  0  0  0  0
  151.9944  136.1030  156.3040 O   0  0  0  0  0  0  0  0  0  0  0  0
  150.2966  137.1829  155.1919 N   0  0  0  0  0  0  0  0  0  0  0  0
  151.1074  138.1502  154.4414 C   0  0  0  0  0  0  0  0  0  0  0  0
  151.6898  139.2609  155.3266 C   0  0  0  0  0  0  0  0  0  0  0  0
  152.6843  139.8967  154.9739 O   0  0  0  0  0  0  0  0  0  0  0  0
  151.0449  139.4901  156.4802 N   0  0  0  0  0  0  0  0  0  0  0  0
  151.4266  140.4923  157.4678 C   0  0  0  0  0  0  0  0  0  0  0  0
  151.0176  141.9088  157.0291 C   0  0  0  0  0  0  0  0  0  0  0  0
  151.4144  142.9611  158.0455 C   0  0  0  0  0  0  0  0  0  0  0  0
  152.1989  142.6523  159.1779 C   0  0  0  0  0  0  0  0  0  0  0  0
  152.5390  143.6807  160.0814 C   0  0  0  0  0  0  0  0  0  0  0  0
  152.0891  144.9943  159.8332 C   0  0  0  0  0  0  0  0  0  0  0  0
  151.3105  145.2469  158.6852 C   0  0  0  0  0  0  0  0  0  0  0  0
  151.0066  144.2351  157.8430 N   0  3  0  0  0  0  0  0  0  0  0  0
  148.9642  137.0763  155.0973 C   0  0  0  0  0  0  0  0  0  0  0  0
  148.2190  137.7696  154.4047 O   0  0  0  0  0  0  0  0  0  0  0  0
  148.1215  138.4593  157.4440 H   0  0  0  0  0  0  0  0  0  0  0  0
  149.0307  137.3231  158.4383 H   0  0  0  0  0  0  0  0  0  0  0  0
  147.3734  137.7210  158.8511 H   0  0  0  0  0  0  0  0  0  0  0  0
  147.4541  135.5085  157.8239 H   0  0  0  0  0  0  0  0  0  0  0  0
  145.4501  136.8763  157.4686 H   0  0  0  0  0  0  0  0  0  0  0  0
  146.1076  137.5388  155.9987 H   0  0  0  0  0  0  0  0  0  0  0  0
  145.4109  134.6082  156.5230 H   0  0  0  0  0  0  0  0  0  0  0  0
  144.5480  135.7012  155.4689 H   0  0  0  0  0  0  0  0  0  0  0  0
  146.0571  134.1719  154.1891 H   0  0  0  0  0  0  0  0  0  0  0  0
  146.4728  135.8442  153.9383 H   0  0  0  0  0  0  0  0  0  0  0  0
  147.8675  133.8649  155.8038 H   0  0  0  0  0  0  0  0  0  0  0  0
  148.5220  134.5197  154.3301 H   0  0  0  0  0  0  0  0  0  0  0  0
  149.9109  134.7732  157.1720 H   0  0  0  0  0  0  0  0  0  0  0  0
  151.9312  137.6452  153.9342 H   0  0  0  0  0  0  0  0  0  0  0  0
  150.5022  138.5965  153.6502 H   0  0  0  0  0  0  0  0  0  0  0  0
  150.2321  138.9276  156.6879 H   0  0  0  0  0  0  0  0  0  0  0  0
  150.9824  140.2484  158.4344 H   0  0  0  0  0  0  0  0  0  0  0  0
  152.5075  140.4390  157.5999 H   0  0  0  0  0  0  0  0  0  0  0  0
  151.4779  142.1513  156.0702 H   0  0  0  0  0  0  0  0  0  0  0  0
  149.9391  141.9622  156.8733 H   0  0  0  0  0  0  0  0  0  0  0  0
  152.5382  141.6414  159.3525 H   0  0  0  0  0  0  0  0  0  0  0  0
  153.1383  143.4647  160.9538 H   0  0  0  0  0  0  0  0  0  0  0  0
  152.3386  145.7960  160.5129 H   0  0  0  0  0  0  0  0  0  0  0  0
  150.9245  146.2195  158.4170 H   0  0  0  0  0  0  0  0  0  0  0  0
  150.4418  144.4410  157.0187 H   0  0  0  0  0  0  0  0  0  0  0  0
  1  2  1  0  0  0  0
  1 26  1  0  0  0  0
  1 27  1  0  0  0  0
  1 28  1  0  0  0  0
  2  7  1  0  0  0  0
  2  3  1  0  0  0  0
  2 29  1  0  0  0  0
  3  4  1  0  0  0  0
  3 30  1  0  0  0  0
  3 31  1  0  0  0  0
  4  5  1  0  0  0  0
  4 32  1  0  0  0  0
  4 33  1  0  0  0  0
  5  6  1  0  0  0  0
  5 34  1  0  0  0  0
  5 35  1  0  0  0  0
  6  7  1  0  0  0  0
  6 36  1  0  0  0  0
  6 37  1  0  0  0  0
  7 24  1  0  0  0  0
  7  8  1  0  0  0  0
  8  9  1  0  0  0  0
  8 38  1  0  0  0  0
  9 10  2  0  0  0  0
  9 11  1  0  0  0  0
 11 12  1  0  0  0  0
 11 24  1  0  0  0  0
 12 13  1  0  0  0  0
 12 39  1  0  0  0  0
 12 40  1  0  0  0  0
 13 14  2  0  0  0  0
 13 15  1  0  0  0  0
 15 16  1  0  0  0  0
 15 41  1  0  0  0  0
 16 17  1  0  0  0  0
 16 42  1  0  0  0  0
 16 43  1  0  0  0  0
 17 18  1  0  0  0  0
 17 44  1  0  0  0  0
 17 45  1  0  0  0  0
 18 23  1  0  0  0  0
 18 19  2  0  0  0  0
 19 20  1  0  0  0  0
 19 46  1  0  0  0  0
 20 21  2  0  0  0  0
 20 47  1  0  0  0  0
 21 22  1  0  0  0  0
 21 48  1  0  0  0  0
 22 23  2  0  0  0  0
 22 49  1  0  0  0  0
 23 50  1  0  0  0  0
 24 25  2  0  0  0  0
M  CHG  1  23   1
M  END
> <s_m_source_file>
AV-unprocessed.smi

> <i_m_source_file_index>
2973

> <i_lp_mmshare_version>
43012

> <i_f3d_flags>
0

> <s_epik_input>
W0NIMl0xW0NIMl1bQ0gyXVtDSDJdW0NAQEhdKFtDSDNdKVtDQF0xMltOSF1DKD1PKU4oQzI9TylbQ0gyXUMoPU8pW05IXVtDSDJdW0NIMl1jM1tjSF1bY0hdW2NIXVtjSF1uMw==

> <s_epik_cmdline>
J2VwaWtfcHl0aG9uJywgJy1waCcsICc3LjAnLCAnLXRuJywgJzgnLCAnLW1hJywgJzIwMCcsICctbWV0YWxfYmluZGluZycsICctaW1hZScsICc8aW5maWxlLm1hZT4nLCAnLW9tYWUnLCAnPG91dGZpbGUubWFlPic=

> <r_lp_tautomer_probability>
1

> <r_epik_Ionization_Penalty>
1.90043

> <r_epik_Ionization_Penalty_Charging>
1.90039

> <r_epik_Ionization_Penalty_Neutral>
4.65525e-05

> <r_epik_State_Penalty>
2.02162

> <r_epik_Charging_Adjusted_Penalty>
3.922

> <i_epik_Tot_Q>
1

> <i_epik_Tot_abs_Q>
1

> <r_epik_Metal_State_Penalty>
2.06631

> <b_epik_Metal_Only>
0

> <s_lp_Force_Field>
OPLS_2005

> <r_lp_Energy>
22.9905

> <b_lp_Chiralities_Consistent>
1

> <s_lp_Variant>
AV-unprocessed.smi:2973-8

> <Gold.Version>
5.8.1

> <Gold.Id.Protein>
6NUR|6NUR_protein|mol2

> <Gold.PLP.Fitness>
48.8665

> <Gold.PLP.PLP>
-36.9264

> <Gold.PLP.part.hbond>
-4.0000

> <Gold.PLP.part.metal>
0.0000

> <Gold.PLP.part.buried>
-5.8243

> <Gold.PLP.part.nonpolar>
-28.1211

> <Gold.PLP.part.repulsive>
0.9747

> <Gold.PLP.ligand.clash>
0.0000

> <Gold.PLP.ligand.torsion>
0.5938

> <Gold.PLP.Chemscore.Hbond>
4.3584

> <Gold.PLP.Chemscore.CHOScore>
0.0000

> <Gold.PLP.Chemscore.Metal>
0.0000

> <Gold.Chemscore.Hbonds>
donor molecule, donor type, donor heavy atom, donor atom, acceptor molecule, acceptor atom, score
      L1  H    23    50       P1  8028  1.89
      P1  H  7989  7998       L1    14  0.36
      P1  H  7997  8010       L1    14  0.99
      P1  H 10752 10765       L1    10  1.00

> <Gold.PLP.Chemscore.Internal.Correction>
0.0525

> <Gold.Rescore>
     Score         DG    S(hbond)    S(metal)    S(lipo)     H(rot)  DE(clash)    DE(int)     intcor
     19.52     -20.13       2.88        0.00      86.02       1.96       0.05       0.56       ----

> <Gold.Chemscore.Fitness>
19.5232

> <Gold.Chemscore.DG>
-20.1340

> <Gold.Chemscore.ZeroCoef>
-5.4800

> <Gold.Chemscore.Hbond>
2.8794

> <Gold.Chemscore.Metal>
0.0000

> <Gold.Chemscore.Lipo>
86.0181

> <Gold.Chemscore.Internal_Hbond>
0.0000

> <Gold.Chemscore.DEClash>
0.0545

> <Gold.Chemscore.DEInternal>
0.5563

> <Gold.Chemscore.Rot>
1.9638

> <Gold.Chemscore.Internal.Correction>
   9.000000E+99

> <Gold.Chemscore.Hbonds>
donor molecule, donor type, donor heavy atom, donor atom, acceptor molecule, acceptor atom, score
      L1  H    23    50       P1  8028  0.77
      P1  H  7989  7998       L1    14  0.03
      P1  H  7997  8010       L1    14  0.92
      P1  H 10752 10765       L1    10  1.00

> <Gold.Chemscore.Hbond.Weighted>
-9.6173

> <Gold.Chemscore.Metal.Weighted>
-0.0000

> <Gold.Chemscore.Lipo.Weighted>
-10.0641

> <Gold.Chemscore.Internal_Hbond.Weighted>
0.0000

> <Gold.Chemscore.DEClash.Weighted>
0.0545

> <Gold.Chemscore.DEInternal.Weighted>
0.5563

> <Gold.Chemscore.Rot.Weighted>
5.0274

> <Gold.Chemscore.Internal.Correction.Weighted>
   9.000000E+99

> <Gold.Protein.RotatedTorsions>
[ 6907 6896 6895 6894 ] final  -94.61 input  -60.11 | X-H torsion
[ 7974 7965 7964 7962 ] final   53.45 input  175.53 | X-H torsion
[ 8008 7997 7996 7995 ] final   92.33 input   59.86 | X-H torsion
[ 10167 10162 10161 10158 ] final -177.82 input  -65.29 | X-H torsion
[ 10718 10713 10712 10709 ] final  138.29 input   66.30 | X-H torsion
[ 10763 10752 10751 10750 ] final -141.20 input  -60.55 | X-H torsion
[ 11005 11000 10999 10996 ] final  -67.49 input  -57.11 | X-H torsion

> <Gold.Protein.ActiveResidues>
 VAL166  LYS551  ARG553  GLY616  TRP617  ASP618  TYR619  PRO620  LYS621  CYS622 
 ASP623  PHE694  ASN695  SER759  ASP760  ASP761  ALA762  ILE779  LEU786  VAL792 
 PHE793  MET794  SER795  GLU796  ALA797  LYS798  CYS799  TRP800  GLU811  SER814 

> <Gold.Protein.RotatedAtoms>
  150.6945  134.1786  159.4239 H   0  0  0  0  0  0  0  0  0  0  0  0  # atno 6907 bound_to 6896
  151.9761  135.0050  160.0564 H   0  0  0  0  0  0  0  0  0  0  0  0  # atno 6908 bound_to 6896
  152.1797  133.4664  159.4989 H   0  0  0  0  0  0  0  0  0  0  0  0  # atno 6909 bound_to 6896
  145.9710  139.4149  143.0190 H   0  0  0  0  0  0  0  0  0  0  0  0  # atno 7974 bound_to 7965
  156.0341  140.3327  155.7172 H   0  0  0  0  0  0  0  0  0  0  0  0  # atno 8008 bound_to 7997
  155.5841  140.0640  157.2793 H   0  0  0  0  0  0  0  0  0  0  0  0  # atno 8009 bound_to 7997
  154.4365  140.1839  156.0995 H   0  0  0  0  0  0  0  0  0  0  0  0  # atno 8010 bound_to 7997
  139.5462  144.2230  152.0991 H   0  0  0  0  0  0  0  0  0  0  0  0  # atno 10167 bound_to 10162
  157.4269  131.1044  151.0293 H   0  0  0  0  0  0  0  0  0  0  0  0  # atno 10718 bound_to 10713
  154.8553  135.3531  154.5830 H   0  0  0  0  0  0  0  0  0  0  0  0  # atno 10763 bound_to 10752
  153.6441  135.6997  153.5236 H   0  0  0  0  0  0  0  0  0  0  0  0  # atno 10764 bound_to 10752
  153.2947  135.4224  155.1157 H   0  0  0  0  0  0  0  0  0  0  0  0  # atno 10765 bound_to 10752
  141.1509  133.6720  156.6300 H   0  0  0  0  0  0  0  0  0  0  0  0  # atno 11005 bound_to 11000
  145.7906  140.9816  143.1051 LP  0  0  0  0  0  0  0  0  0  0  0  0  # atno 17320 bound_to 7965
  144.6837  139.9678  143.7481 LP  0  0  0  0  0  0  0  0  0  0  0  0  # atno 17321 bound_to 7965
  140.1717  144.4929  150.6576 LP  0  0  0  0  0  0  0  0  0  0  0  0  # atno 17342 bound_to 10162
  140.6710  143.2286  151.5625 LP  0  0  0  0  0  0  0  0  0  0  0  0  # atno 17343 bound_to 10162
  157.1203  130.6059  149.5503 LP  0  0  0  0  0  0  0  0  0  0  0  0  # atno 17370 bound_to 10713
  155.9899  130.4949  150.7236 LP  0  0  0  0  0  0  0  0  0  0  0  0  # atno 17371 bound_to 10713
  140.3474  134.7797  157.4442 LP  0  0  0  0  0  0  0  0  0  0  0  0  # atno 17394 bound_to 11000
  140.0888  134.5629  155.8465 LP  0  0  0  0  0  0  0  0  0  0  0  0  # atno 17395 bound_to 11000

$$$$
