AV-unprocessed.smi:2310|AV-procd|sdf|9255|dock9
  -GOLD-   2272012473D 1   1.00000     0.00000
 Structure written by MMmdl.
 45 46  0  0  0  0  0  0  0  0  1 V2000
  150.7804  130.9125  155.9364 C   0  0  0  0  0  0  0  0  0  0  0  0
  150.9976  132.4293  156.0392 C   0  0  0  0  0  0  0  0  0  0  0  0
  149.8647  133.2603  155.4091 C   0  0  2  0  0  0  0  0  0  0  0  0
  149.4956  132.7348  154.0128 C   0  0  0  0  0  0  0  0  0  0  0  0
  148.2461  133.3064  153.4850 C   0  0  0  0  0  0  0  0  0  0  0  0
  147.2644  133.7561  153.0701 N   0  0  0  0  0  0  0  0  0  0  0  0
  150.2654  134.6645  155.3205 N   0  0  0  0  0  0  0  0  0  0  0  0
  150.4952  135.4833  156.3572 C   0  0  0  0  0  0  0  0  0  0  0  0
  150.3815  135.1432  157.5344 O   0  0  0  0  0  0  0  0  0  0  0  0
  150.8813  136.6986  155.9335 N   0  0  0  0  0  0  0  0  0  0  0  0
  151.2547  137.8295  156.7120 C   0  0  0  0  0  0  0  0  0  0  0  0
  150.7757  138.0641  158.0223 C   0  0  0  0  0  0  0  0  0  0  0  0
  151.1871  139.2233  158.7067 C   0  0  0  0  0  0  0  0  0  0  0  0
  152.0580  140.1318  158.0617 C   0  0  0  0  0  0  0  0  0  0  0  0
  152.4993  141.3024  158.7104 N   0  0  0  0  0  0  0  0  0  0  0  0
  153.1049  141.2662  160.0345 C   0  0  0  0  0  0  0  0  0  0  0  0
  152.8296  142.6417  160.6535 C   0  0  0  0  0  0  0  0  0  0  0  0
  152.5478  143.5442  159.4521 C   0  0  0  0  0  0  0  0  0  0  0  0
  151.8845  142.5960  158.4548 C   0  0  0  0  0  0  0  0  0  0  0  0
  152.5092  139.9114  156.8048 N   0  0  0  0  0  0  0  0  0  0  0  0
  152.1160  138.7991  156.1474 C   0  0  0  0  0  0  0  0  0  0  0  0
  152.6724  138.6441  154.7431 C   0  0  0  0  0  0  0  0  0  0  0  0
  151.6341  130.3711  156.3440 H   0  0  0  0  0  0  0  0  0  0  0  0
  150.6564  130.6036  154.8981 H   0  0  0  0  0  0  0  0  0  0  0  0
  149.8956  130.5950  156.4888 H   0  0  0  0  0  0  0  0  0  0  0  0
  151.1206  132.7067  157.0869 H   0  0  0  0  0  0  0  0  0  0  0  0
  151.9385  132.6798  155.5478 H   0  0  0  0  0  0  0  0  0  0  0  0
  148.9851  133.1542  156.0466 H   0  0  0  0  0  0  0  0  0  0  0  0
  150.2923  132.9437  153.2985 H   0  0  0  0  0  0  0  0  0  0  0  0
  149.3659  131.6527  154.0398 H   0  0  0  0  0  0  0  0  0  0  0  0
  150.3897  135.0385  154.3911 H   0  0  0  0  0  0  0  0  0  0  0  0
  151.0054  136.8011  154.9372 H   0  0  0  0  0  0  0  0  0  0  0  0
  150.0930  137.3863  158.5110 H   0  0  0  0  0  0  0  0  0  0  0  0
  150.8314  139.3958  159.7114 H   0  0  0  0  0  0  0  0  0  0  0  0
  152.6928  140.4709  160.6567 H   0  0  0  0  0  0  0  0  0  0  0  0
  154.1766  141.0975  159.9259 H   0  0  0  0  0  0  0  0  0  0  0  0
  151.9399  142.5875  161.2823 H   0  0  0  0  0  0  0  0  0  0  0  0
  153.6536  143.0005  161.2707 H   0  0  0  0  0  0  0  0  0  0  0  0
  151.9242  144.4039  159.6990 H   0  0  0  0  0  0  0  0  0  0  0  0
  153.4878  143.9151  159.0417 H   0  0  0  0  0  0  0  0  0  0  0  0
  152.0401  142.9211  157.4254 H   0  0  0  0  0  0  0  0  0  0  0  0
  150.8112  142.5319  158.6397 H   0  0  0  0  0  0  0  0  0  0  0  0
  153.2499  137.7226  154.6643 H   0  0  0  0  0  0  0  0  0  0  0  0
  153.3265  139.4755  154.4770 H   0  0  0  0  0  0  0  0  0  0  0  0
  151.8616  138.6078  154.0150 H   0  0  0  0  0  0  0  0  0  0  0  0
  1  2  1  0  0  0  0
  1 23  1  0  0  0  0
  1 24  1  0  0  0  0
  1 25  1  0  0  0  0
  2  3  1  0  0  0  0
  2 26  1  0  0  0  0
  2 27  1  0  0  0  0
  3  4  1  0  0  0  0
  3  7  1  0  0  0  0
  3 28  1  0  0  0  0
  4  5  1  0  0  0  0
  4 29  1  0  0  0  0
  4 30  1  0  0  0  0
  5  6  3  0  0  0  0
  7  8  1  0  0  0  0
  7 31  1  0  0  0  0
  8  9  2  0  0  0  0
  8 10  1  0  0  0  0
 10 11  1  0  0  0  0
 10 32  1  0  0  0  0
 11 21  1  0  0  0  0
 11 12  2  0  0  0  0
 12 13  1  0  0  0  0
 12 33  1  0  0  0  0
 13 14  2  0  0  0  0
 13 34  1  0  0  0  0
 14 15  1  0  0  0  0
 14 20  1  0  0  0  0
 15 19  1  0  0  0  0
 15 16  1  0  0  0  0
 16 17  1  0  0  0  0
 16 35  1  0  0  0  0
 16 36  1  0  0  0  0
 17 18  1  0  0  0  0
 17 37  1  0  0  0  0
 17 38  1  0  0  0  0
 18 19  1  0  0  0  0
 18 39  1  0  0  0  0
 18 40  1  0  0  0  0
 19 41  1  0  0  0  0
 19 42  1  0  0  0  0
 20 21  2  0  0  0  0
 21 22  1  0  0  0  0
 22 43  1  0  0  0  0
 22 44  1  0  0  0  0
 22 45  1  0  0  0  0
M  END
> <s_m_source_file>
AV-unprocessed.smi

> <i_m_source_file_index>
2310

> <i_lp_mmshare_version>
43012

> <i_f3d_flags>
0

> <s_epik_input>
TiNDW0NIMl1bQ0BASF0oW0NIMl1bQ0gzXSlbTkhdQyg9TylbTkhdYzFbY0hdW2NIXWMobmMxW0NIM10pTjJbQ0gyXVtDSDJdW0NIMl1bQ0gyXTI=

> <s_epik_cmdline>
J2VwaWtfcHl0aG9uJywgJy1waCcsICc3LjAnLCAnLXRuJywgJzgnLCAnLW1hJywgJzIwMCcsICctbWV0YWxfYmluZGluZycsICctaW1hZScsICc8aW5maWxlLm1hZT4nLCAnLW9tYWUnLCAnPG91dGZpbGUubWFlPic=

> <r_lp_tautomer_probability>
1

> <r_epik_Ionization_Penalty>
0.281354

> <r_epik_Ionization_Penalty_Charging>
0

> <r_epik_Ionization_Penalty_Neutral>
0.281354

> <r_epik_State_Penalty>
0.273364

> <r_epik_Charging_Adjusted_Penalty>
0.273364

> <i_epik_Tot_Q>
0

> <i_epik_Tot_abs_Q>
0

> <r_epik_Metal_State_Penalty>
0.18752

> <b_epik_Metal_Only>
0

> <s_lp_Force_Field>
OPLS_2005

> <r_lp_Energy>
30.6963

> <b_lp_Chiralities_Consistent>
1

> <s_lp_Variant>
AV-unprocessed.smi:2310-1

> <Gold.Version>
5.8.1

> <Gold.Id.Protein>
6NUR|6NUR_protein|mol2

> <Gold.PLP.Fitness>
42.2418

> <Gold.PLP.PLP>
-40.4448

> <Gold.PLP.part.hbond>
-2.0000

> <Gold.PLP.part.metal>
0.0000

> <Gold.PLP.part.buried>
-6.1583

> <Gold.PLP.part.nonpolar>
-33.3090

> <Gold.PLP.part.repulsive>
0.2918

> <Gold.PLP.ligand.clash>
0.0000

> <Gold.PLP.ligand.torsion>
1.5282

> <Gold.PLP.Chemscore.Hbond>
1.5483

> <Gold.PLP.Chemscore.CHOScore>
0.0000

> <Gold.PLP.Chemscore.Metal>
0.0000

> <Gold.Chemscore.Hbonds>
donor molecule, donor type, donor heavy atom, donor atom, acceptor molecule, acceptor atom, score
      P1  H  6896  6908       L1     9  0.55
      P1  H  7997  8008       L1    20  1.00

> <Gold.PLP.Chemscore.Internal.Correction>
0.2085

> <Gold.Rescore>
     Score         DG    S(hbond)    S(metal)    S(lipo)     H(rot)  DE(clash)    DE(int)     intcor
     15.40     -17.95       1.82        0.00      86.24       1.45       0.00       2.55       ----

> <Gold.Chemscore.Fitness>
15.4012

> <Gold.Chemscore.DG>
-17.9522

> <Gold.Chemscore.ZeroCoef>
-5.4800

> <Gold.Chemscore.Hbond>
1.8238

> <Gold.Chemscore.Metal>
0.0000

> <Gold.Chemscore.Lipo>
86.2447

> <Gold.Chemscore.Internal_Hbond>
0.0000

> <Gold.Chemscore.DEClash>
0.0038

> <Gold.Chemscore.DEInternal>
2.5472

> <Gold.Chemscore.Rot>
1.4492

> <Gold.Chemscore.Internal.Correction>
   9.000000E+99

> <Gold.Chemscore.Hbonds>
donor molecule, donor type, donor heavy atom, donor atom, acceptor molecule, acceptor atom, score
      P1  H  6896  6908       L1     9  0.53
      P1  H  7997  8008       L1    20  0.61

> <Gold.Chemscore.Hbond.Weighted>
-6.0916

> <Gold.Chemscore.Metal.Weighted>
-0.0000

> <Gold.Chemscore.Lipo.Weighted>
-10.0906

> <Gold.Chemscore.Internal_Hbond.Weighted>
0.0000

> <Gold.Chemscore.DEClash.Weighted>
0.0038

> <Gold.Chemscore.DEInternal.Weighted>
2.5472

> <Gold.Chemscore.Rot.Weighted>
3.7100

> <Gold.Chemscore.Internal.Correction.Weighted>
   9.000000E+99

> <Gold.Protein.RotatedTorsions>
[ 6907 6896 6895 6894 ] final  157.72 input  -60.11 | X-H torsion
[ 7974 7965 7964 7962 ] final  -37.02 input  175.53 | X-H torsion
[ 8008 7997 7996 7995 ] final  -59.90 input   59.86 | X-H torsion
[ 10167 10162 10161 10158 ] final  -65.33 input  -65.29 | X-H torsion
[ 10718 10713 10712 10709 ] final   16.62 input   66.30 | X-H torsion
[ 10763 10752 10751 10750 ] final  -51.09 input  -60.55 | X-H torsion
[ 11005 11000 10999 10996 ] final  -29.21 input  -57.11 | X-H torsion

> <Gold.Protein.ActiveResidues>
 VAL166  LYS551  ARG553  GLY616  TRP617  ASP618  TYR619  PRO620  LYS621  CYS622 
 ASP623  PHE694  ASN695  SER759  ASP760  ASP761  ALA762  ILE779  LEU786  VAL792 
 PHE793  MET794  SER795  GLU796  ALA797  LYS798  CYS799  TRP800  GLU811  SER814 

> <Gold.Protein.RotatedAtoms>
  152.0110  133.3861  159.4219 H   0  0  0  0  0  0  0  0  0  0  0  0  # atno 6907 bound_to 6896
  150.6899  134.3730  159.5010 H   0  0  0  0  0  0  0  0  0  0  0  0  # atno 6908 bound_to 6896
  152.1491  134.9002  160.0600 H   0  0  0  0  0  0  0  0  0  0  0  0  # atno 6909 bound_to 6896
  146.0611  140.6347  142.8996 H   0  0  0  0  0  0  0  0  0  0  0  0  # atno 7974 bound_to 7965
  154.4373  140.1051  156.6189 H   0  0  0  0  0  0  0  0  0  0  0  0  # atno 8008 bound_to 7997
  155.5729  140.3489  155.4501 H   0  0  0  0  0  0  0  0  0  0  0  0  # atno 8009 bound_to 7997
  156.0376  140.1274  157.0180 H   0  0  0  0  0  0  0  0  0  0  0  0  # atno 8010 bound_to 7997
  140.5737  143.2320  151.6486 H   0  0  0  0  0  0  0  0  0  0  0  0  # atno 10167 bound_to 10162
  157.0705  130.6346  149.5804 H   0  0  0  0  0  0  0  0  0  0  0  0  # atno 10718 bound_to 10713
  154.1210  135.6535  153.4903 H   0  0  0  0  0  0  0  0  0  0  0  0  # atno 10763 bound_to 10752
  153.0225  135.5270  154.7097 H   0  0  0  0  0  0  0  0  0  0  0  0  # atno 10764 bound_to 10752
  154.6305  135.2975  155.0192 H   0  0  0  0  0  0  0  0  0  0  0  0  # atno 10765 bound_to 10752
  140.9276  133.7358  156.0890 H   0  0  0  0  0  0  0  0  0  0  0  0  # atno 11005 bound_to 11000
  144.7176  140.4262  143.7033 LP  0  0  0  0  0  0  0  0  0  0  0  0  # atno 17320 bound_to 7965
  145.6558  139.1572  143.2836 LP  0  0  0  0  0  0  0  0  0  0  0  0  # atno 17321 bound_to 7965
  139.5131  144.3454  152.0702 LP  0  0  0  0  0  0  0  0  0  0  0  0  # atno 17342 bound_to 10162
  140.2595  144.4083  150.6191 LP  0  0  0  0  0  0  0  0  0  0  0  0  # atno 17343 bound_to 10162
  155.9952  130.5018  150.7448 LP  0  0  0  0  0  0  0  0  0  0  0  0  # atno 17370 bound_to 10713
  157.4882  131.0908  151.0458 LP  0  0  0  0  0  0  0  0  0  0  0  0  # atno 17371 bound_to 10713
  140.7905  134.3623  157.5466 LP  0  0  0  0  0  0  0  0  0  0  0  0  # atno 17394 bound_to 11000
  139.8789  134.9137  156.3090 LP  0  0  0  0  0  0  0  0  0  0  0  0  # atno 17395 bound_to 11000

$$$$
