AV-unprocessed.smi:1819|AV-procd|sdf|7382|dock8
  -GOLD-   22720 9 53D 1   1.00000     0.00000
 Structure written by MMmdl.
 29 29  0  0  0  0  0  0  0  0  1 V2000
  152.5593  137.1665  155.3574 O   0  0  0  0  0  0  0  0  0  0  0  0
  151.6673  137.3873  154.5370 C   0  0  0  0  0  0  0  0  0  0  0  0
  151.4601  138.7956  153.9611 C   0  0  0  0  0  0  0  0  0  0  0  0
  150.8210  139.7159  154.9128 N   0  0  0  0  0  0  0  0  0  0  0  0
  149.5558  140.2244  154.6545 C   0  0  0  0  0  0  0  0  0  0  0  0
  148.9053  141.0666  155.4918 C   0  0  0  0  0  0  0  0  0  0  0  0
  149.5258  141.4902  156.7425 C   0  0  0  0  0  0  0  0  0  0  0  0
  149.0188  142.2507  157.5641 O   0  0  0  0  0  0  0  0  0  0  0  0
  150.7970  140.9554  156.9677 N   0  0  0  0  0  0  0  0  0  0  0  0
  151.4722  140.0853  156.1100 C   0  0  0  0  0  0  0  0  0  0  0  0
  152.5910  139.6682  156.4075 O   0  0  0  0  0  0  0  0  0  0  0  0
  150.8160  136.4433  154.1114 N   0  0  0  0  0  0  0  0  0  0  0  0
  150.8474  135.0531  154.5431 C   0  0  0  0  0  0  0  0  0  0  0  0
  149.4419  134.4437  154.5033 C   0  0  0  0  0  0  0  0  0  0  0  0
  149.3179  133.1462  153.2421 S   0  0  0  0  0  0  0  0  0  0  0  0
  149.9458  131.7256  154.1775 C   0  0  0  0  0  0  0  0  0  0  0  0
  151.1318  132.0229  154.7058 F   0  0  0  0  0  0  0  0  0  0  0  0
  149.1053  131.4141  155.1632 F   0  0  0  0  0  0  0  0  0  0  0  0
  150.0880  130.6713  153.3756 F   0  0  0  0  0  0  0  0  0  0  0  0
  151.2651  141.2183  157.8229 H   0  0  0  0  0  0  0  0  0  0  0  0
  152.4159  139.2054  153.6278 H   0  0  0  0  0  0  0  0  0  0  0  0
  150.8554  138.7056  153.0574 H   0  0  0  0  0  0  0  0  0  0  0  0
  149.0557  139.9340  153.7414 H   0  0  0  0  0  0  0  0  0  0  0  0
  147.9199  141.4281  155.2354 H   0  0  0  0  0  0  0  0  0  0  0  0
  150.1067  136.7036  153.4413 H   0  0  0  0  0  0  0  0  0  0  0  0
  151.5184  134.4865  153.8953 H   0  0  0  0  0  0  0  0  0  0  0  0
  151.2515  134.9984  155.5552 H   0  0  0  0  0  0  0  0  0  0  0  0
  149.1887  134.0159  155.4737 H   0  0  0  0  0  0  0  0  0  0  0  0
  148.7028  135.2156  154.2872 H   0  0  0  0  0  0  0  0  0  0  0  0
  1  2  2  0  0  0  0
  2  3  1  0  0  0  0
  2 12  1  0  0  0  0
  3  4  1  0  0  0  0
  3 21  1  0  0  0  0
  3 22  1  0  0  0  0
  4 10  1  0  0  0  0
  4  5  1  0  0  0  0
  5  6  2  0  0  0  0
  5 23  1  0  0  0  0
  6  7  1  0  0  0  0
  6 24  1  0  0  0  0
  7  8  2  0  0  0  0
  7  9  1  0  0  0  0
  9 20  1  0  0  0  0
  9 10  1  0  0  0  0
 10 11  2  0  0  0  0
 12 13  1  0  0  0  0
 12 25  1  0  0  0  0
 13 14  1  0  0  0  0
 13 26  1  0  0  0  0
 13 27  1  0  0  0  0
 14 15  1  0  0  0  0
 14 28  1  0  0  0  0
 14 29  1  0  0  0  0
 15 16  1  0  0  0  0
 16 17  1  0  0  0  0
 16 18  1  0  0  0  0
 16 19  1  0  0  0  0
M  END
> <s_m_source_file>
AV-unprocessed.smi

> <i_m_source_file_index>
1819

> <i_lp_mmshare_version>
43012

> <i_f3d_flags>
0

> <s_epik_input>
RkMoRikoRilTW0NIMl1bQ0gyXVtOSF1DKD1PKVtDSDJdbjFbY0hdW2NIXWMoPU8pW25IXWMxPU8=

> <s_epik_cmdline>
J2VwaWtfcHl0aG9uJywgJy1waCcsICc3LjAnLCAnLXRuJywgJzgnLCAnLW1hJywgJzIwMCcsICctbWV0YWxfYmluZGluZycsICctaW1hZScsICc8aW5maWxlLm1hZT4nLCAnLW9tYWUnLCAnPG91dGZpbGUubWFlPic=

> <r_lp_tautomer_probability>
0.999537

> <r_epik_Ionization_Penalty>
0.00347617

> <r_epik_Ionization_Penalty_Charging>
0.00347613

> <r_epik_Ionization_Penalty_Neutral>
4.33222e-08

> <r_epik_State_Penalty>
0.00246522

> <r_epik_Charging_Adjusted_Penalty>
0.00594136

> <i_epik_Tot_Q>
0

> <i_epik_Tot_abs_Q>
0

> <r_epik_Metal_State_Penalty>
0.367629

> <b_epik_Metal_Only>
0

> <s_lp_Force_Field>
OPLS_2005

> <r_lp_Energy>
-0.213216

> <b_lp_Chiralities_Consistent>
1

> <s_lp_Variant>
AV-unprocessed.smi:1819-1

> <Gold.Version>
5.8.1

> <Gold.Id.Protein>
6NUR|6NUR_protein|mol2

> <Gold.PLP.Fitness>
41.1604

> <Gold.PLP.PLP>
-31.2516

> <Gold.PLP.part.hbond>
-4.0000

> <Gold.PLP.part.metal>
0.0000

> <Gold.PLP.part.buried>
-1.3266

> <Gold.PLP.part.nonpolar>
-27.0186

> <Gold.PLP.part.repulsive>
2.2427

> <Gold.PLP.ligand.clash>
0.0000

> <Gold.PLP.ligand.torsion>
0.9453

> <Gold.PLP.Chemscore.Hbond>
2.9200

> <Gold.PLP.Chemscore.CHOScore>
0.9873

> <Gold.PLP.Chemscore.Metal>
0.0000

> <Gold.Chemscore.Hbonds>
donor molecule, donor type, donor heavy atom, donor atom, acceptor molecule, acceptor atom, score
      L1  H    12    25       P1  7948  0.73
      P1  H  7997  8009       L1    11  1.00
      P1  H 10752 10763       L1     1  0.61
      L1  C     5    23       P1  7957  0.72

> <Gold.PLP.Chemscore.Internal.Correction>
0.0778

> <Gold.Rescore>
     Score         DG    S(hbond)    S(metal)    S(lipo)     H(rot)  DE(clash)    DE(int)     intcor
      8.17     -10.63       2.39        0.00      40.06       2.93       0.16       2.30       ----

> <Gold.Chemscore.Fitness>
8.1699

> <Gold.Chemscore.DG>
-10.6334

> <Gold.Chemscore.ZeroCoef>
-5.4800

> <Gold.Chemscore.Hbond>
2.3879

> <Gold.Chemscore.Metal>
0.0000

> <Gold.Chemscore.Lipo>
40.0570

> <Gold.Chemscore.Internal_Hbond>
0.0000

> <Gold.Chemscore.DEClash>
0.1610

> <Gold.Chemscore.DEInternal>
2.3025

> <Gold.Chemscore.Rot>
2.9332

> <Gold.Chemscore.Internal.Correction>
   9.000000E+99

> <Gold.Chemscore.Hbonds>
donor molecule, donor type, donor heavy atom, donor atom, acceptor molecule, acceptor atom, score
      L1  H    12    25       P1  7948  0.09
      P1  H  7997  8009       L1    11  1.00
      P1  H 10752 10763       L1     1  0.24

> <Gold.Chemscore.Hbond.Weighted>
-7.9756

> <Gold.Chemscore.Metal.Weighted>
-0.0000

> <Gold.Chemscore.Lipo.Weighted>
-4.6867

> <Gold.Chemscore.Internal_Hbond.Weighted>
0.0000

> <Gold.Chemscore.DEClash.Weighted>
0.1610

> <Gold.Chemscore.DEInternal.Weighted>
2.3025

> <Gold.Chemscore.Rot.Weighted>
7.5089

> <Gold.Chemscore.Internal.Correction.Weighted>
   9.000000E+99

> <Gold.Protein.RotatedTorsions>
[ 6907 6896 6895 6894 ] final -153.78 input  -60.11 | X-H torsion
[ 7974 7965 7964 7962 ] final  -59.57 input  175.53 | X-H torsion
[ 8008 7997 7996 7995 ] final -162.74 input   59.86 | X-H torsion
[ 10167 10162 10161 10158 ] final  107.82 input  -65.29 | X-H torsion
[ 10718 10713 10712 10709 ] final  100.05 input   66.30 | X-H torsion
[ 10763 10752 10751 10750 ] final   82.86 input  -60.55 | X-H torsion
[ 11005 11000 10999 10996 ] final  154.54 input  -57.11 | X-H torsion

> <Gold.Protein.ActiveResidues>
 VAL166  LYS551  ARG553  GLY616  TRP617  ASP618  TYR619  PRO620  LYS621  CYS622 
 ASP623  PHE694  ASN695  SER759  ASP760  ASP761  ALA762  ILE779  LEU786  VAL792 
 PHE793  MET794  SER795  GLU796  ALA797  LYS798  CYS799  TRP800  GLU811  SER814 

> <Gold.Protein.RotatedAtoms>
  151.2477  133.4366  159.2609 H   0  0  0  0  0  0  0  0  0  0  0  0  # atno 6907 bound_to 6896
  151.0646  134.9759  159.8288 H   0  0  0  0  0  0  0  0  0  0  0  0  # atno 6908 bound_to 6896
  152.5403  134.2426  159.8920 H   0  0  0  0  0  0  0  0  0  0  0  0  # atno 6909 bound_to 6896
  145.8259  140.8511  143.0108 H   0  0  0  0  0  0  0  0  0  0  0  0  # atno 7974 bound_to 7965
  155.8111  140.0906  157.1903 H   0  0  0  0  0  0  0  0  0  0  0  0  # atno 8008 bound_to 7997
  154.3980  140.1454  156.3448 H   0  0  0  0  0  0  0  0  0  0  0  0  # atno 8009 bound_to 7997
  155.8364  140.3440  155.5606 H   0  0  0  0  0  0  0  0  0  0  0  0  # atno 8010 bound_to 7997
  139.6896  144.7109  151.1372 H   0  0  0  0  0  0  0  0  0  0  0  0  # atno 10167 bound_to 10162
  157.6862  131.0687  150.5042 H   0  0  0  0  0  0  0  0  0  0  0  0  # atno 10718 bound_to 10713
  153.1240  135.4712  154.9242 H   0  0  0  0  0  0  0  0  0  0  0  0  # atno 10763 bound_to 10752
  154.7602  135.3129  154.8394 H   0  0  0  0  0  0  0  0  0  0  0  0  # atno 10764 bound_to 10752
  153.8952  135.6880  153.4812 H   0  0  0  0  0  0  0  0  0  0  0  0  # atno 10765 bound_to 10752
  140.1499  134.8682  157.2440 H   0  0  0  0  0  0  0  0  0  0  0  0  # atno 11005 bound_to 11000
  144.6743  140.0601  143.7476 LP  0  0  0  0  0  0  0  0  0  0  0  0  # atno 17320 bound_to 7965
  145.9624  139.2810  143.1148 LP  0  0  0  0  0  0  0  0  0  0  0  0  # atno 17321 bound_to 7965
  140.7678  143.5579  150.9131 LP  0  0  0  0  0  0  0  0  0  0  0  0  # atno 17342 bound_to 10162
  139.9256  143.6554  152.3087 LP  0  0  0  0  0  0  0  0  0  0  0  0  # atno 17343 bound_to 10162
  156.5362  130.4197  149.6176 LP  0  0  0  0  0  0  0  0  0  0  0  0  # atno 17370 bound_to 10713
  156.3025  130.7185  151.2060 LP  0  0  0  0  0  0  0  0  0  0  0  0  # atno 17371 bound_to 10713
  140.2618  134.3562  155.7404 LP  0  0  0  0  0  0  0  0  0  0  0  0  # atno 17394 bound_to 11000
  141.2197  133.7373  156.9091 LP  0  0  0  0  0  0  0  0  0  0  0  0  # atno 17395 bound_to 11000

$$$$
