#       Name:                AV-unprocessed.smi:54
#       Creating user name   scv26
#       Creation time:       Thu Mar 26 16:41:42 2020


#       File generated by GOLD software.
#

@<TRIPOS>MOLECULE
AV-unprocessed.smi:54
    58    60     1
SMALL
NO_CHARGES


@<TRIPOS>ATOM
      1 ****         0.5344   4.3219  -0.7383 C.3            1 S1                 0.0000
      2 ****        -0.7250   3.8901   0.0304 C.3            1 S1                 0.0000
      3 ****        -0.8314   4.6156   1.3815 C.3            1 S1                 0.0000
      4 ****        -0.7381   2.3710   0.2310 C.2            1 S1                 0.0000
      5 ****         0.1648   1.7796   0.8234 O.2            1 S1                 0.0000
      6 ****        -1.8895   1.6754  -0.3082 N.am           1 S1                 0.0000
      7 ****        -2.0974   0.3416  -0.2655 C.2            1 S1                 0.0000
      8 ****        -1.1079  -0.5313  -0.3827 N.2            1 S1                 0.0000
      9 ****        -1.4880  -1.8453  -0.3314 C.2            1 S1                 0.0000
     10 ****        -2.7817  -2.3060  -0.1771 C.2            1 S1                 0.0000
     11 ****        -2.8013  -3.6937  -0.1528 N.2            1 S1                 0.0000
     12 ****        -1.5509  -4.0267  -0.2953 C.2            1 S1                 0.0000
     13 ****        -0.6823  -2.9704  -0.4361 N.pl3          1 S1                 0.0000
     14 ****         0.8092  -3.0759  -0.6099 C.3            1 S1                 0.0000
     15 ****         1.4233  -2.8332   0.6158 O.3            1 S1                 0.0000
     16 ****         1.8608  -1.4836   0.6860 C.3            1 S1                 0.0000
     17 ****         3.0277  -1.3660   1.6782 C.3            1 S1                 0.0000
     18 ****         2.5378  -1.2861   2.9996 O.3            1 S1                 0.0000
     19 ****         2.2651  -1.1677  -0.7628 C.3            1 S1                 0.0000
     20 ****         2.0249   0.1939  -1.0544 O.3            1 S1                 0.0000
     21 ****         1.3790  -2.0706  -1.6249 C.3            1 S1                 0.0000
     22 ****         2.1619  -2.7230  -2.6046 O.3            1 S1                 0.0000
     23 ****        -3.8658  -1.3719  -0.0698 C.2            1 S1                 0.0000
     24 ****        -5.0652  -1.6086   0.0588 O.2            1 S1                 0.0000
     25 ****        -3.4284  -0.0442  -0.1300 N.am           1 S1                 0.0000
     26 ****         0.9632  -4.1159  -0.9016 H              1 S1                 0.0000
     27 ****         1.0320  -0.8526   1.0039 H              1 S1                 0.0000
     28 ****         3.3207  -1.3978  -0.9177 H              1 S1                 0.0000
     29 ****         0.5759  -1.5333  -2.1290 H              1 S1                 0.0000
     30 ****         0.6197   3.7953  -1.6897 H              1 S1                 0.0000
     31 ****         1.4418   4.1234  -0.1662 H              1 S1                 0.0000
     32 ****         0.5100   5.3896  -0.9571 H              1 S1                 0.0000
     33 ****        -1.5950   4.1612  -0.5695 H              1 S1                 0.0000
     34 ****        -1.7219   4.3059   1.9297 H              1 S1                 0.0000
     35 ****        -0.8951   5.6946   1.2393 H              1 S1                 0.0000
     36 ****         0.0351   4.4167   2.0136 H              1 S1                 0.0000
     37 ****        -2.6296   2.2494  -0.6847 H              1 S1                 0.0000
     38 ****        -1.2289  -5.0579  -0.3114 H              1 S1                 0.0000
     39 ****         3.7211  -2.2017   1.5782 H              1 S1                 0.0000
     40 ****         3.5904  -0.4522   1.4849 H              1 S1                 0.0000
     41 ****         3.2716  -1.1884   3.5869 H              1 S1                 0.0000
     42 ****         1.1247   0.3903  -0.8409 H              1 S1                 0.0000
     43 ****         2.8655  -3.1803  -2.1701 H              1 S1                 0.0000
     44 ****        -4.1378   0.6702  -0.0575 H              1 S1                 0.0000
     45 ****         0.9402   2.2920   1.1924 LP             1 S1                 0.0000
     46 ****         0.1228   0.7868   0.9355 LP             1 S1                 0.0000
     47 ****        -0.1550  -0.2514  -0.4999 LP             1 S1                 0.0000
     48 ****        -3.5920  -4.2973  -0.0498 LP             1 S1                 0.0000
     49 ****         2.2106  -3.4415   0.7171 LP             1 S1                 0.0000
     50 ****         0.7703  -3.0077   1.3528 LP             1 S1                 0.0000
     51 ****         2.0353  -2.1211   3.2239 LP             1 S1                 0.0000
     52 ****         1.9292  -0.4974   3.0863 LP             1 S1                 0.0000
     53 ****         2.1866   0.3648  -2.0264 LP             1 S1                 0.0000
     54 ****         2.6347   0.7688  -0.5089 LP             1 S1                 0.0000
     55 ****         2.5391  -2.0485  -3.2393 LP             1 S1                 0.0000
     56 ****         1.5963  -3.3754  -3.1091 LP             1 S1                 0.0000
     57 ****        -5.3865  -2.5547   0.1001 LP             1 S1                 0.0000
     58 ****        -5.7196  -0.8551   0.1220 LP             1 S1                 0.0000
@<TRIPOS>BOND
    1    1    2 1     
    2    1   30 1     
    3    1   31 1     
    4    1   32 1     
    5    2    3 1     
    6    2    4 1     
    7    2   33 1     
    8    3   34 1     
    9    3   35 1     
   10    3   36 1     
   11    4    5 2     
   12    4    6 am    
   13    6   37 1     
   14    6    7 1     
   15    7   25 1     
   16    7    8 2     
   17    8    9 1     
   18    9   13 1     
   19    9   10 2     
   20   10   11 1     
   21   10   23 1     
   22   11   12 2     
   23   12   13 1     
   24   12   38 1     
   25   13   14 1     
   26   14   26 1     
   27   14   21 1     
   28   14   15 1     
   29   15   16 1     
   30   16   27 1     
   31   16   17 1     
   32   16   19 1     
   33   17   18 1     
   34   17   39 1     
   35   17   40 1     
   36   18   41 1     
   37   19   28 1     
   38   19   20 1     
   39   19   21 1     
   40   20   42 1     
   41   21   29 1     
   42   21   22 1     
   43   22   43 1     
   44   23   24 2     
   45   23   25 am    
   46   25   44 1     
   47    5   45 1     
   48    5   46 1     
   49    8   47 1     
   50   11   48 1     
   51   15   49 1     
   52   15   50 1     
   53   18   51 1     
   54   18   52 1     
   55   20   53 1     
   56   20   54 1     
   57   22   55 1     
   58   22   56 1     
   59   24   57 1     
   60   24   58 1     
@<TRIPOS>SUBSTRUCTURE
      1 S1             1
@<TRIPOS>SET
LONE_PAIRS      STATIC     ATOMS    <user>   **** ""
14 45 46 47 48 49 50 51 52 53 54 55 56 57 58
DONOR_HYDROGENS      STATIC     ATOMS    <user>   **** ""
5 37 41 42 43 44
ATOM$BLUE        STATIC     ATOMS    COLORGROUP SYSTEM
14 45 46 47 48 49 50 51 52 53 54 55 56 57 58
ATOM$RED        STATIC     ATOMS    COLORGROUP SYSTEM
5 37 41 42 43 44
