#       Name:                AV-unprocessed.smi:2442
#       Creating user name   scv26
#       Creation time:       Fri Mar 27 13:26:11 2020


#       File generated by GOLD software.
#

@<TRIPOS>MOLECULE
AV-unprocessed.smi:2442
    51    52     1
SMALL
NO_CHARGES


@<TRIPOS>ATOM
      1 ****        -2.8559   0.1586  -2.6229 C.3            1 S1                 0.0000
      2 ****        -3.1703  -0.0442  -1.2544 O.3            1 S1                 0.0000
      3 ****        -2.8981   1.0769  -0.4184 C.3            1 S1                 0.0000
      4 ****        -4.0580   2.0939  -0.4762 C.3            1 S1                 0.0000
      5 ****        -5.3545   1.5155   0.1134 C.3            1 S1                 0.0000
      6 ****        -5.1372   1.0204   1.5513 C.3            1 S1                 0.0000
      7 ****        -3.9901   0.0001   1.6224 C.3            1 S1                 0.0000
      8 ****        -2.6876   0.5720   1.0291 C.3            1 S1                 0.0000
      9 ****        -1.6312  -0.4355   1.0888 N.am           1 S1                 0.0000
     10 ****        -0.3165  -0.1818   1.0389 C.2            1 S1                 0.0000
     11 ****         0.1675   0.9470   0.9484 O.2            1 S1                 0.0000
     12 ****         0.4112  -1.3062   1.0898 N.am           1 S1                 0.0000
     13 ****         1.8678  -1.3510   1.0464 C.3            1 S1                 0.0000
     14 ****         2.3951  -1.1972  -0.3908 C.3            1 S1                 0.0000
     15 ****         3.9146  -1.1641  -0.4454 C.ar           1 S1                 0.0000
     16 ****         4.6260  -2.3766  -0.5891 C.ar           1 S1                 0.0000
     17 ****         6.0340  -2.3545  -0.6363 C.ar           1 S1                 0.0000
     18 ****         6.6898  -1.1786  -0.5440 N.pl3          1 S1                 1.0000
     19 ****         6.0535   0.0043  -0.4044 C.ar           1 S1                 0.0000
     20 ****         4.6430   0.0508  -0.3492 C.ar           1 S1                 0.0000
     21 ****         3.9481   1.3922  -0.1906 C.3            1 S1                 0.0000
     22 ****        -3.0820  -0.7481  -3.1839 H              1 S1                 0.0000
     23 ****        -1.7952   0.3758  -2.7542 H              1 S1                 0.0000
     24 ****        -3.4365   0.9717  -3.0579 H              1 S1                 0.0000
     25 ****        -1.9805   1.5655  -0.7509 H              1 S1                 0.0000
     26 ****        -3.7783   2.9846   0.0879 H              1 S1                 0.0000
     27 ****        -4.2313   2.4314  -1.4975 H              1 S1                 0.0000
     28 ****        -6.1400   2.2715   0.0962 H              1 S1                 0.0000
     29 ****        -5.7053   0.6919  -0.5098 H              1 S1                 0.0000
     30 ****        -4.9124   1.8684   2.1994 H              1 S1                 0.0000
     31 ****        -6.0557   0.5741   1.9332 H              1 S1                 0.0000
     32 ****        -3.8292  -0.2955   2.6600 H              1 S1                 0.0000
     33 ****        -4.2779  -0.9049   1.0854 H              1 S1                 0.0000
     34 ****        -2.3870   1.4188   1.6493 H              1 S1                 0.0000
     35 ****        -1.9287  -1.3976   1.1566 H              1 S1                 0.0000
     36 ****        -0.0748  -2.1885   1.1622 H              1 S1                 0.0000
     37 ****         2.2778  -0.5748   1.6945 H              1 S1                 0.0000
     38 ****         2.1949  -2.3041   1.4631 H              1 S1                 0.0000
     39 ****         2.0379  -2.0277  -1.0014 H              1 S1                 0.0000
     40 ****         1.9909  -0.2984  -0.8565 H              1 S1                 0.0000
     41 ****         4.0988  -3.3170  -0.6612 H              1 S1                 0.0000
     42 ****         6.6502  -3.2354  -0.7437 H              1 S1                 0.0000
     43 ****         6.6908   0.8743  -0.3408 H              1 S1                 0.0000
     44 ****         4.6685   2.1912  -0.0127 H              1 S1                 0.0000
     45 ****         3.2561   1.3752   0.6514 H              1 S1                 0.0000
     46 ****         3.3889   1.6402  -1.0931 H              1 S1                 0.0000
     47 ****         7.7095  -1.1834  -0.5809 H              1 S1                 0.0000
     48 ****        -2.6349  -0.8205  -0.9217 LP             1 S1                 0.0000
     49 ****        -4.1449  -0.2574  -1.1851 LP             1 S1                 0.0000
     50 ****        -0.4321   1.7463   0.9074 LP             1 S1                 0.0000
     51 ****         1.1600   1.0643   0.9159 LP             1 S1                 0.0000
@<TRIPOS>BOND
    1    1    2 1     
    2    1   22 1     
    3    1   23 1     
    4    1   24 1     
    5    2    3 1     
    6    3    8 1     
    7    3    4 1     
    8    3   25 1     
    9    4    5 1     
   10    4   26 1     
   11    4   27 1     
   12    5    6 1     
   13    5   28 1     
   14    5   29 1     
   15    6    7 1     
   16    6   30 1     
   17    6   31 1     
   18    7    8 1     
   19    7   32 1     
   20    7   33 1     
   21    8    9 1     
   22    8   34 1     
   23    9   10 am    
   24    9   35 1     
   25   10   11 2     
   26   10   12 am    
   27   12   13 1     
   28   12   36 1     
   29   13   14 1     
   30   13   37 1     
   31   13   38 1     
   32   14   15 1     
   33   14   39 1     
   34   14   40 1     
   35   15   20 ar    
   36   15   16 ar    
   37   16   17 ar    
   38   16   41 1     
   39   17   18 ar    
   40   17   42 1     
   41   18   19 ar    
   42   18   47 1     
   43   19   20 ar    
   44   19   43 1     
   45   20   21 1     
   46   21   44 1     
   47   21   45 1     
   48   21   46 1     
   49    2   48 1     
   50    2   49 1     
   51   11   50 1     
   52   11   51 1     
@<TRIPOS>SUBSTRUCTURE
      1 S1             1
@<TRIPOS>SET
LONE_PAIRS      STATIC     ATOMS    <user>   **** ""
4 48 49 50 51
DONOR_HYDROGENS      STATIC     ATOMS    <user>   **** ""
3 35 36 47
ATOM$BLUE        STATIC     ATOMS    COLORGROUP SYSTEM
4 48 49 50 51
ATOM$RED        STATIC     ATOMS    COLORGROUP SYSTEM
3 35 36 47
