AV-unprocessed.smi:3089|AV-procd|sdf|11773|dock3
  -GOLD-   2272017153D 1   1.00000     0.00000
 Structure written by MMmdl.
 24 24  0  0  0  0  0  0  0  0  1 V2000
  141.0887  138.1675  153.3780 C   0  0  0  0  0  0  0  0  0  0  0  0
  142.0505  137.0896  153.2932 N   0  0  0  0  0  0  0  0  0  0  0  0
  143.2876  137.0863  152.6867 C   0  0  0  0  0  0  0  0  0  0  0  0
  143.8320  135.8434  152.8601 C   0  0  0  0  0  0  0  0  0  0  0  0
  145.1722  135.3254  152.3815 C   0  0  2  0  0  0  0  0  0  0  0  0
  145.4770  133.9743  153.0520 C   0  0  0  0  0  0  0  0  0  0  0  0
  146.2408  136.1763  152.7504 O   0  0  0  0  0  0  0  0  0  0  0  0
  145.2197  135.1751  150.8445 C   0  0  0  0  0  0  0  0  0  0  0  0
  145.4945  136.4361  150.1348 N   0  0  0  0  0  0  0  0  0  0  0  0
  142.8295  135.1536  153.6038 C   0  0  0  0  0  0  0  0  0  0  0  0
  141.7670  135.8996  153.8594 N   0  0  0  0  0  0  0  0  0  0  0  0
  141.4684  139.0489  152.8609 H   0  0  0  0  0  0  0  0  0  0  0  0
  140.9079  138.4202  154.4231 H   0  0  0  0  0  0  0  0  0  0  0  0
  140.1503  137.8619  152.9142 H   0  0  0  0  0  0  0  0  0  0  0  0
  143.6767  137.9595  152.1841 H   0  0  0  0  0  0  0  0  0  0  0  0
  144.7251  133.2260  152.7990 H   0  0  0  0  0  0  0  0  0  0  0  0
  145.4948  134.0655  154.1390 H   0  0  0  0  0  0  0  0  0  0  0  0
  146.4448  133.5811  152.7383 H   0  0  0  0  0  0  0  0  0  0  0  0
  147.0187  135.8960  152.2930 H   0  0  0  0  0  0  0  0  0  0  0  0
  145.9605  134.4239  150.5679 H   0  0  0  0  0  0  0  0  0  0  0  0
  144.2611  134.7881  150.4974 H   0  0  0  0  0  0  0  0  0  0  0  0
  145.6291  136.2599  149.1400 H   0  0  0  0  0  0  0  0  0  0  0  0
  144.7053  137.0746  150.2221 H   0  0  0  0  0  0  0  0  0  0  0  0
  142.8429  134.1351  153.9633 H   0  0  0  0  0  0  0  0  0  0  0  0
  1  2  1  0  0  0  0
  1 12  1  0  0  0  0
  1 13  1  0  0  0  0
  1 14  1  0  0  0  0
  2 11  1  0  0  0  0
  2  3  1  0  0  0  0
  3  4  2  0  0  0  0
  3 15  1  0  0  0  0
  4  5  1  0  0  0  0
  4 10  1  0  0  0  0
  5  6  1  0  0  0  0
  5  7  1  0  0  0  0
  5  8  1  0  0  0  0
  6 16  1  0  0  0  0
  6 17  1  0  0  0  0
  6 18  1  0  0  0  0
  7 19  1  0  0  0  0
  8  9  1  0  0  0  0
  8 20  1  0  0  0  0
  8 21  1  0  0  0  0
  9 22  1  0  0  0  0
  9 23  1  0  0  0  0
 10 11  2  0  0  0  0
 10 24  1  0  0  0  0
M  END
> <s_m_source_file>
AV-unprocessed.smi

> <i_m_source_file_index>
3089

> <i_lp_mmshare_version>
43012

> <i_f3d_flags>
0

> <s_epik_input>
W0NIM11uMVtjSF1jKFtjSF1uMSlbQ0BAXShbQ0gzXSkoW09IXSlbQ0gyXVtOSDJd

> <s_epik_cmdline>
J2VwaWtfcHl0aG9uJywgJy1waCcsICc3LjAnLCAnLXRuJywgJzgnLCAnLW1hJywgJzIwMCcsICctbWV0YWxfYmluZGluZycsICctaW1hZScsICc8aW5maWxlLm1hZT4nLCAnLW9tYWUnLCAnPG91dGZpbGUubWFlPic=

> <r_lp_tautomer_probability>
1

> <r_epik_Ionization_Penalty>
2.22427

> <r_epik_Ionization_Penalty_Charging>
0

> <r_epik_Ionization_Penalty_Neutral>
2.22427

> <r_epik_State_Penalty>
2.36938

> <r_epik_Charging_Adjusted_Penalty>
2.36938

> <i_epik_Tot_Q>
0

> <i_epik_Tot_abs_Q>
0

> <r_epik_Metal_State_Penalty>
2.36933

> <b_epik_Metal_Only>
0

> <s_lp_Force_Field>
OPLS_2005

> <r_lp_Energy>
8.30456

> <b_lp_Chiralities_Consistent>
1

> <s_lp_Variant>
AV-unprocessed.smi:3089-4

> <Gold.Version>
5.8.1

> <Gold.Id.Protein>
6NUR|6NUR_protein|mol2

> <Gold.PLP.Fitness>
36.8015

> <Gold.PLP.PLP>
-19.9696

> <Gold.PLP.part.hbond>
-3.0000

> <Gold.PLP.part.metal>
0.0000

> <Gold.PLP.part.buried>
-4.4435

> <Gold.PLP.part.nonpolar>
-12.9293

> <Gold.PLP.part.repulsive>
0.1073

> <Gold.PLP.ligand.clash>
0.0000

> <Gold.PLP.ligand.torsion>
0.5704

> <Gold.PLP.Chemscore.Hbond>
2.9840

> <Gold.PLP.Chemscore.CHOScore>
3.0000

> <Gold.PLP.Chemscore.Metal>
0.0000

> <Gold.Chemscore.Hbonds>
donor molecule, donor type, donor heavy atom, donor atom, acceptor molecule, acceptor atom, score
      L1  H     7    19       P1  7948  0.98
      L1  H     9    22       P1  7921  0.72
      L1  H     9    23       P1 10171  1.00
      L1  C     3    15       P1 10171  1.00
      L1  C     3    15       P1 10175  1.00
      L1  C    10    24       P1 10957  1.00

> <Gold.PLP.Chemscore.Internal.Correction>
0.0207

> <Gold.Rescore>
     Score         DG    S(hbond)    S(metal)    S(lipo)     H(rot)  DE(clash)    DE(int)     intcor
     13.14     -14.17       2.94        0.00      30.71       1.84       0.00       1.03       ----

> <Gold.Chemscore.Fitness>
13.1359

> <Gold.Chemscore.DG>
-14.1705

> <Gold.Chemscore.ZeroCoef>
-5.4800

> <Gold.Chemscore.Hbond>
2.9354

> <Gold.Chemscore.Metal>
0.0000

> <Gold.Chemscore.Lipo>
30.7124

> <Gold.Chemscore.Internal_Hbond>
0.0000

> <Gold.Chemscore.DEClash>
0.0004

> <Gold.Chemscore.DEInternal>
1.0342

> <Gold.Chemscore.Rot>
1.8386

> <Gold.Chemscore.Internal.Correction>
   9.000000E+99

> <Gold.Chemscore.Hbonds>
donor molecule, donor type, donor heavy atom, donor atom, acceptor molecule, acceptor atom, score
      L1  H     7    19       P1  7948  0.90
      L1  H     9    22       P1  7921  0.70
      L1  H     9    23       P1 10171  0.95

> <Gold.Chemscore.Hbond.Weighted>
-9.8041

> <Gold.Chemscore.Metal.Weighted>
-0.0000

> <Gold.Chemscore.Lipo.Weighted>
-3.5933

> <Gold.Chemscore.Internal_Hbond.Weighted>
0.0000

> <Gold.Chemscore.DEClash.Weighted>
0.0004

> <Gold.Chemscore.DEInternal.Weighted>
1.0342

> <Gold.Chemscore.Rot.Weighted>
4.7069

> <Gold.Chemscore.Internal.Correction.Weighted>
   9.000000E+99

> <Gold.Protein.RotatedTorsions>
[ 6907 6896 6895 6894 ] final  148.97 input  -60.11 | X-H torsion
[ 7974 7965 7964 7962 ] final  -93.75 input  175.53 | X-H torsion
[ 8008 7997 7996 7995 ] final   58.85 input   59.86 | X-H torsion
[ 10167 10162 10161 10158 ] final -104.85 input  -65.29 | X-H torsion
[ 10718 10713 10712 10709 ] final -110.77 input   66.30 | X-H torsion
[ 10763 10752 10751 10750 ] final   91.02 input  -60.55 | X-H torsion
[ 11005 11000 10999 10996 ] final   81.09 input  -57.11 | X-H torsion

> <Gold.Protein.ActiveResidues>
 VAL166  LYS551  ARG553  GLY616  TRP617  ASP618  TYR619  PRO620  LYS621  CYS622 
 ASP623  PHE694  ASN695  SER759  ASP760  ASP761  ALA762  ILE779  LEU786  VAL792 
 PHE793  MET794  SER795  GLU796  ALA797  LYS798  CYS799  TRP800  GLU811  SER814 

> <Gold.Protein.RotatedAtoms>
  152.1343  133.4426  159.4735 H   0  0  0  0  0  0  0  0  0  0  0  0  # atno 6907 bound_to 6896
  150.6880  134.2382  159.4471 H   0  0  0  0  0  0  0  0  0  0  0  0  # atno 6908 bound_to 6896
  152.0269  134.9790  160.0622 H   0  0  0  0  0  0  0  0  0  0  0  0  # atno 6909 bound_to 6896
  145.3824  140.9519  143.2386 H   0  0  0  0  0  0  0  0  0  0  0  0  # atno 7974 bound_to 7965
  155.5567  140.3487  155.4481 H   0  0  0  0  0  0  0  0  0  0  0  0  # atno 8008 bound_to 7997
  156.0544  140.1325  157.0039 H   0  0  0  0  0  0  0  0  0  0  0  0  # atno 8009 bound_to 7997
  154.4449  140.0998  156.6409 H   0  0  0  0  0  0  0  0  0  0  0  0  # atno 8010 bound_to 7997
  140.2049  143.3790  152.1099 H   0  0  0  0  0  0  0  0  0  0  0  0  # atno 10167 bound_to 10162
  156.0609  130.5833  150.8283 H   0  0  0  0  0  0  0  0  0  0  0  0  # atno 10718 bound_to 10713
  153.2038  135.4413  155.0298 H   0  0  0  0  0  0  0  0  0  0  0  0  # atno 10763 bound_to 10752
  154.8162  135.3316  154.7172 H   0  0  0  0  0  0  0  0  0  0  0  0  # atno 10764 bound_to 10752
  153.7615  135.6991  153.4980 H   0  0  0  0  0  0  0  0  0  0  0  0  # atno 10765 bound_to 10752
  139.9110  134.7970  156.1996 H   0  0  0  0  0  0  0  0  0  0  0  0  # atno 11005 bound_to 11000
  144.8498  139.5339  143.6861 LP  0  0  0  0  0  0  0  0  0  0  0  0  # atno 17320 bound_to 7965
  146.2836  139.6943  142.9211 LP  0  0  0  0  0  0  0  0  0  0  0  0  # atno 17321 bound_to 7965
  139.5202  144.7030  151.5437 LP  0  0  0  0  0  0  0  0  0  0  0  0  # atno 17342 bound_to 10162
  140.6364  143.8975  150.6652 LP  0  0  0  0  0  0  0  0  0  0  0  0  # atno 17343 bound_to 10162
  157.5617  131.0946  150.9549 LP  0  0  0  0  0  0  0  0  0  0  0  0  # atno 17370 bound_to 10713
  156.9785  130.5518  149.5295 LP  0  0  0  0  0  0  0  0  0  0  0  0  # atno 17371 bound_to 10713
  141.0533  133.6878  156.1813 LP  0  0  0  0  0  0  0  0  0  0  0  0  # atno 17394 bound_to 11000
  140.6776  134.4801  157.5588 LP  0  0  0  0  0  0  0  0  0  0  0  0  # atno 17395 bound_to 11000

$$$$
