#       Name:                AV-unprocessed.smi:3197
#       Creating user name   scv26
#       Creation time:       Fri Mar 27 18:05:56 2020


#       File generated by GOLD software.
#

@<TRIPOS>MOLECULE
AV-unprocessed.smi:3197
    39    40     1
SMALL
NO_CHARGES


@<TRIPOS>ATOM
      1 ****        -5.7513   1.1471  -0.6902 C.ar           1 S1                 0.0000
      2 ****        -4.7733   2.1342  -0.9246 C.ar           1 S1                 0.0000
      3 ****        -3.4779   1.8154  -1.1379 N.ar           1 S1                 0.0000
      4 ****        -3.1605   0.5183  -1.1171 C.ar           1 S1                 0.0000
      5 ****        -1.8273   0.2286  -1.3348 N.pl3          1 S1                 0.0000
      6 ****        -1.2631  -1.1117  -1.2862 C.3            1 S1                 0.0000
      7 ****         0.2553  -1.0890  -1.4872 C.3            1 S1                 0.0000
      8 ****         0.8611  -0.5163  -0.3404 O.3            1 S1                 0.0000
      9 ****         2.2716  -0.4277  -0.4479 C.3            1 S1                 0.0000
     10 ****         2.8261   0.2197   0.8287 C.3            1 S1                 0.0000
     11 ****         2.6774  -0.6286   2.0754 C.3            1 S1                 0.0000
     12 ****         3.6982   0.0109   3.0113 C.3            1 S1                 0.0000
     13 ****         4.7434   0.4944   2.1721 O.3            1 S1                 0.0000
     14 ****         4.3373   0.4461   0.8071 C.3            1 S1                 0.0000
     15 ****        -4.0037  -0.4997  -0.9063 N.ar           1 S1                 0.0000
     16 ****        -5.3005  -0.1881  -0.6921 C.ar           1 S1                 0.0000
     17 ****        -6.7873   1.3996  -0.5189 H              1 S1                 0.0000
     18 ****        -5.0310   3.1828  -0.9402 H              1 S1                 0.0000
     19 ****        -1.1992   1.0079  -1.4673 H              1 S1                 0.0000
     20 ****        -1.5111  -1.5858  -0.3357 H              1 S1                 0.0000
     21 ****        -1.7259  -1.7077  -2.0733 H              1 S1                 0.0000
     22 ****         0.6215  -2.1082  -1.6179 H              1 S1                 0.0000
     23 ****         0.5150  -0.5298  -2.3878 H              1 S1                 0.0000
     24 ****         2.7048  -1.4181  -0.5971 H              1 S1                 0.0000
     25 ****         2.5365   0.1805  -1.3139 H              1 S1                 0.0000
     26 ****         2.3331   1.1794   0.9932 H              1 S1                 0.0000
     27 ****         1.6656  -0.6207   2.4818 H              1 S1                 0.0000
     28 ****         2.9554  -1.6634   1.8700 H              1 S1                 0.0000
     29 ****         3.2542   0.8584   3.5351 H              1 S1                 0.0000
     30 ****         4.0759  -0.6885   3.7574 H              1 S1                 0.0000
     31 ****         4.8476  -0.3903   0.3274 H              1 S1                 0.0000
     32 ****         4.6134   1.3583   0.2777 H              1 S1                 0.0000
     33 ****        -5.9816  -1.0085  -0.5209 H              1 S1                 0.0000
     34 ****        -2.7874   2.5194  -1.3040 LP             1 S1                 0.0000
     35 ****         0.6365  -1.0801   0.4544 LP             1 S1                 0.0000
     36 ****         0.4925   0.4042  -0.2109 LP             1 S1                 0.0000
     37 ****         5.5566  -0.0743   2.2956 LP             1 S1                 0.0000
     38 ****         4.9567   1.4393   2.4205 LP             1 S1                 0.0000
     39 ****        -3.6877  -1.4485  -0.9073 LP             1 S1                 0.0000
@<TRIPOS>BOND
    1    1   16 ar    
    2    1    2 ar    
    3    1   17 1     
    4    2    3 ar    
    5    2   18 1     
    6    3    4 ar    
    7    4    5 1     
    8    4   15 ar    
    9    5    6 1     
   10    5   19 1     
   11    6    7 1     
   12    6   20 1     
   13    6   21 1     
   14    7    8 1     
   15    7   22 1     
   16    7   23 1     
   17    8    9 1     
   18    9   10 1     
   19    9   24 1     
   20    9   25 1     
   21   10   14 1     
   22   10   11 1     
   23   10   26 1     
   24   11   12 1     
   25   11   27 1     
   26   11   28 1     
   27   12   13 1     
   28   12   29 1     
   29   12   30 1     
   30   13   14 1     
   31   14   31 1     
   32   14   32 1     
   33   15   16 ar    
   34   16   33 1     
   35    3   34 1     
   36    8   35 1     
   37    8   36 1     
   38   13   37 1     
   39   13   38 1     
   40   15   39 1     
@<TRIPOS>SUBSTRUCTURE
      1 S1             1
@<TRIPOS>SET
LONE_PAIRS      STATIC     ATOMS    <user>   **** ""
6 34 35 36 37 38 39
DONOR_HYDROGENS      STATIC     ATOMS    <user>   **** ""
1 19
ATOM$BLUE        STATIC     ATOMS    COLORGROUP SYSTEM
6 34 35 36 37 38 39
ATOM$RED        STATIC     ATOMS    COLORGROUP SYSTEM
1 19
