#       Name:                AV-unprocessed.smi:639
#       Creating user name   scv26
#       Creation time:       Fri Mar 27 00:07:12 2020


#       File generated by GOLD software.
#

@<TRIPOS>MOLECULE
AV-unprocessed.smi:639
    29    30     1
SMALL
NO_CHARGES


@<TRIPOS>ATOM
      1 ****        -3.7648   1.0442   0.3812 C.3            1 S1                 0.0000
      2 ****        -2.5039   0.3690   0.1607 N.pl3          1 S1                 0.0000
      3 ****        -1.2332   0.8000   0.4718 C.2            1 S1                 0.0000
      4 ****        -0.3543  -0.1724   0.0786 C.2            1 S1                 0.0000
      5 ****         1.1575  -0.1823   0.1941 C.3            1 S1                 0.0000
      6 ****         1.6369   0.1400   1.6217 C.3            1 S1                 0.0000
      7 ****         1.7480  -1.4250  -0.2810 N.am           1 S1                 0.0000
      8 ****         2.4931  -1.2595  -1.3824 C.2            1 S1                 0.0000
      9 ****         3.0827  -2.1458  -1.9960 O.2            1 S1                 0.0000
     10 ****         2.4871   0.0410  -1.6905 N.am           1 S1                 0.0000
     11 ****         1.7631   0.7626  -0.8363 C.2            1 S1                 0.0000
     12 ****         1.5983   1.9815  -0.8583 O.2            1 S1                 0.0000
     13 ****        -1.2103  -1.1739  -0.4690 C.2            1 S1                 0.0000
     14 ****        -2.4913  -0.8488  -0.4166 N.2            1 S1                 0.0000
     15 ****        -3.5975   2.1148   0.5029 H              1 S1                 0.0000
     16 ****        -4.2371   0.6529   1.2827 H              1 S1                 0.0000
     17 ****        -4.4289   0.8861  -0.4694 H              1 S1                 0.0000
     18 ****        -1.0576   1.7567   0.9413 H              1 S1                 0.0000
     19 ****         1.2744   1.1128   1.9557 H              1 S1                 0.0000
     20 ****         2.7258   0.1570   1.6863 H              1 S1                 0.0000
     21 ****         1.2779  -0.6060   2.3314 H              1 S1                 0.0000
     22 ****         1.5881  -2.3142   0.1699 H              1 S1                 0.0000
     23 ****         2.9850   0.4341  -2.4758 H              1 S1                 0.0000
     24 ****        -0.9388  -2.1251  -0.9027 H              1 S1                 0.0000
     25 ****         3.0295  -3.0930  -1.6799 LP             1 S1                 0.0000
     26 ****         3.6158  -1.9199  -2.8113 LP             1 S1                 0.0000
     27 ****         1.0300   2.4219  -0.1633 LP             1 S1                 0.0000
     28 ****         2.0326   2.5320  -1.5713 LP             1 S1                 0.0000
     29 ****        -3.2735  -1.3852  -0.7337 LP             1 S1                 0.0000
@<TRIPOS>BOND
    1    1    2 1     
    2    1   15 1     
    3    1   16 1     
    4    1   17 1     
    5    2   14 1     
    6    2    3 1     
    7    3    4 2     
    8    3   18 1     
    9    4    5 1     
   10    4   13 1     
   11    5   11 1     
   12    5    6 1     
   13    5    7 1     
   14    6   19 1     
   15    6   20 1     
   16    6   21 1     
   17    7    8 am    
   18    7   22 1     
   19    8    9 2     
   20    8   10 am    
   21   10   11 am    
   22   10   23 1     
   23   11   12 2     
   24   13   14 2     
   25   13   24 1     
   26    9   25 1     
   27    9   26 1     
   28   12   27 1     
   29   12   28 1     
   30   14   29 1     
@<TRIPOS>SUBSTRUCTURE
      1 S1             1
@<TRIPOS>SET
LONE_PAIRS      STATIC     ATOMS    <user>   **** ""
5 25 26 27 28 29
DONOR_HYDROGENS      STATIC     ATOMS    <user>   **** ""
2 22 23
ATOM$BLUE        STATIC     ATOMS    COLORGROUP SYSTEM
5 25 26 27 28 29
ATOM$RED        STATIC     ATOMS    COLORGROUP SYSTEM
2 22 23
