AV-unprocessed.smi:607|AV-procd|sdf|3043|dock8
  -GOLD-   2262023563D 1   1.00000     0.00000
 Structure written by MMmdl.
 42 43  0  0  0  0  0  0  0  0  1 V2000
  153.0869  138.6661  158.0229 C   0  0  0  0  0  0  0  0  0  0  0  0
  152.1275  139.6690  157.4479 C   0  0  0  0  0  0  0  0  0  0  0  0
  151.8327  140.7522  158.1454 N   0  0  0  0  0  0  0  0  0  0  0  0
  150.9705  141.4364  157.3689 N   0  0  0  0  0  0  0  0  0  0  0  0
  150.4372  142.6990  157.8425 C   0  0  0  0  0  0  0  0  0  0  0  0
  150.7217  140.7868  156.1754 C   0  0  0  0  0  0  0  0  0  0  0  0
  149.7993  141.3644  155.1482 C   0  0  0  0  0  0  0  0  0  0  0  0
  151.4569  139.6271  156.1893 C   0  0  0  0  0  0  0  0  0  0  0  0
  151.5741  138.5371  155.1422 C   0  0  1  0  0  0  0  0  0  0  0  0
  152.9288  138.5913  154.4107 C   0  0  0  0  0  0  0  0  0  0  0  0
  151.2794  137.1685  155.7782 C   0  0  0  0  0  0  0  0  0  0  0  0
  152.1626  136.5374  156.3591 O   0  0  0  0  0  0  0  0  0  0  0  0
  150.0167  136.7240  155.6610 N   0  0  0  0  0  0  0  0  0  0  0  0
  149.4640  135.4949  156.2338 C   0  0  0  0  0  0  0  0  0  0  0  0
  149.3407  135.6083  157.6997 C   0  0  0  0  0  0  0  0  0  0  0  0
  149.2428  135.6977  158.8492 N   0  0  0  0  0  0  0  0  0  0  0  0
  148.0960  135.2265  155.5892 C   0  0  0  0  0  0  0  0  0  0  0  0
  148.3689  134.4542  154.2911 C   0  0  0  0  0  0  0  0  0  0  0  0
  149.8009  133.9147  154.3984 C   0  0  0  0  0  0  0  0  0  0  0  0
  150.2798  134.2613  155.8109 C   0  0  0  0  0  0  0  0  0  0  0  0
  154.0172  138.6494  157.4548 H   0  0  0  0  0  0  0  0  0  0  0  0
  152.6631  137.6622  157.9975 H   0  0  0  0  0  0  0  0  0  0  0  0
  153.3359  138.8915  159.0606 H   0  0  0  0  0  0  0  0  0  0  0  0
  150.7492  143.5020  157.1743 H   0  0  0  0  0  0  0  0  0  0  0  0
  150.7980  142.9178  158.8486 H   0  0  0  0  0  0  0  0  0  0  0  0
  149.3480  142.6527  157.8614 H   0  0  0  0  0  0  0  0  0  0  0  0
  149.8629  140.8291  154.2019 H   0  0  0  0  0  0  0  0  0  0  0  0
  150.0435  142.4079  154.9481 H   0  0  0  0  0  0  0  0  0  0  0  0
  148.7651  141.3177  155.4900 H   0  0  0  0  0  0  0  0  0  0  0  0
  150.8070  138.6746  154.3794 H   0  0  0  0  0  0  0  0  0  0  0  0
  153.7693  138.4591  155.0921 H   0  0  0  0  0  0  0  0  0  0  0  0
  153.0591  139.5521  153.9119 H   0  0  0  0  0  0  0  0  0  0  0  0
  152.9977  137.8171  153.6456 H   0  0  0  0  0  0  0  0  0  0  0  0
  149.3655  137.3142  155.1639 H   0  0  0  0  0  0  0  0  0  0  0  0
  147.5017  134.5951  156.2517 H   0  0  0  0  0  0  0  0  0  0  0  0
  147.5186  136.1364  155.4192 H   0  0  0  0  0  0  0  0  0  0  0  0
  147.6450  133.6496  154.1582 H   0  0  0  0  0  0  0  0  0  0  0  0
  148.2834  135.1148  153.4276 H   0  0  0  0  0  0  0  0  0  0  0  0
  149.8549  132.8432  154.2036 H   0  0  0  0  0  0  0  0  0  0  0  0
  150.4347  134.4125  153.6635 H   0  0  0  0  0  0  0  0  0  0  0  0
  151.3590  134.4078  155.8594 H   0  0  0  0  0  0  0  0  0  0  0  0
  150.0435  133.4293  156.4760 H   0  0  0  0  0  0  0  0  0  0  0  0
  1  2  1  0  0  0  0
  1 21  1  0  0  0  0
  1 22  1  0  0  0  0
  1 23  1  0  0  0  0
  2  8  1  0  0  0  0
  2  3  2  0  0  0  0
  3  4  1  0  0  0  0
  4  5  1  0  0  0  0
  4  6  1  0  0  0  0
  5 24  1  0  0  0  0
  5 25  1  0  0  0  0
  5 26  1  0  0  0  0
  6  7  1  0  0  0  0
  6  8  2  0  0  0  0
  7 27  1  0  0  0  0
  7 28  1  0  0  0  0
  7 29  1  0  0  0  0
  8  9  1  0  0  0  0
  9 10  1  0  0  0  0
  9 11  1  0  0  0  0
  9 30  1  0  0  0  0
 10 31  1  0  0  0  0
 10 32  1  0  0  0  0
 10 33  1  0  0  0  0
 11 12  2  0  0  0  0
 11 13  1  0  0  0  0
 13 14  1  0  0  0  0
 13 34  1  0  0  0  0
 14 20  1  0  0  0  0
 14 15  1  0  0  0  0
 14 17  1  0  0  0  0
 15 16  3  0  0  0  0
 17 18  1  0  0  0  0
 17 35  1  0  0  0  0
 17 36  1  0  0  0  0
 18 19  1  0  0  0  0
 18 37  1  0  0  0  0
 18 38  1  0  0  0  0
 19 20  1  0  0  0  0
 19 39  1  0  0  0  0
 19 40  1  0  0  0  0
 20 41  1  0  0  0  0
 20 42  1  0  0  0  0
M  END
> <s_m_source_file>
AV-unprocessed.smi

> <i_m_source_file_index>
607

> <i_lp_mmshare_version>
43012

> <i_f3d_flags>
0

> <s_epik_input>
W0NIM11jMW5uKFtDSDNdKWMoW0NIM10pYzFbQ0BIXShbQ0gzXSlDKD1PKVtOSF1DMihDI04pW0NIMl1bQ0gyXVtDSDJdW0NIMl0y

> <s_epik_cmdline>
J2VwaWtfcHl0aG9uJywgJy1waCcsICc3LjAnLCAnLXRuJywgJzgnLCAnLW1hJywgJzIwMCcsICctbWV0YWxfYmluZGluZycsICctaW1hZScsICc8aW5maWxlLm1hZT4nLCAnLW9tYWUnLCAnPG91dGZpbGUubWFlPic=

> <r_lp_tautomer_probability>
1

> <r_epik_Ionization_Penalty>
0.00342632

> <r_epik_Ionization_Penalty_Charging>
0

> <r_epik_Ionization_Penalty_Neutral>
0.00342632

> <r_epik_State_Penalty>
0.00242724

> <r_epik_Charging_Adjusted_Penalty>
0.00242724

> <i_epik_Tot_Q>
0

> <i_epik_Tot_abs_Q>
0

> <r_epik_Metal_State_Penalty>
-0

> <b_epik_Metal_Only>
0

> <s_lp_Force_Field>
OPLS_2005

> <r_lp_Energy>
13.7926

> <b_lp_Chiralities_Consistent>
1

> <s_lp_Variant>
AV-unprocessed.smi:607-2

> <Gold.Version>
5.8.1

> <Gold.Id.Protein>
6NUR|6NUR_protein|mol2

> <Gold.PLP.Fitness>
33.4643

> <Gold.PLP.PLP>
-29.2453

> <Gold.PLP.part.hbond>
-2.0000

> <Gold.PLP.part.metal>
0.0000

> <Gold.PLP.part.buried>
-2.2160

> <Gold.PLP.part.nonpolar>
-24.1659

> <Gold.PLP.part.repulsive>
0.0342

> <Gold.PLP.ligand.clash>
0.0000

> <Gold.PLP.ligand.torsion>
0.9483

> <Gold.PLP.Chemscore.Hbond>
2.0000

> <Gold.PLP.Chemscore.CHOScore>
0.0000

> <Gold.PLP.Chemscore.Metal>
0.0000

> <Gold.Chemscore.Hbonds>
donor molecule, donor type, donor heavy atom, donor atom, acceptor molecule, acceptor atom, score
      P1  H  6896  6909       L1    16  1.00
      P1  H 10752 10763       L1    12  1.00

> <Gold.PLP.Chemscore.Internal.Correction>
0.1156

> <Gold.Rescore>
     Score         DG    S(hbond)    S(metal)    S(lipo)     H(rot)  DE(clash)    DE(int)     intcor
     14.45     -16.72       1.97        0.00      69.96       1.37       0.16       2.12       ----

> <Gold.Chemscore.Fitness>
14.4452

> <Gold.Chemscore.DG>
-16.7184

> <Gold.Chemscore.ZeroCoef>
-5.4800

> <Gold.Chemscore.Hbond>
1.9656

> <Gold.Chemscore.Metal>
0.0000

> <Gold.Chemscore.Lipo>
69.9628

> <Gold.Chemscore.Internal_Hbond>
0.0000

> <Gold.Chemscore.DEClash>
0.1567

> <Gold.Chemscore.DEInternal>
2.1164

> <Gold.Chemscore.Rot>
1.3720

> <Gold.Chemscore.Internal.Correction>
   9.000000E+99

> <Gold.Chemscore.Hbonds>
donor molecule, donor type, donor heavy atom, donor atom, acceptor molecule, acceptor atom, score
      P1  H  6896  6909       L1    16  0.50
      P1  H 10752 10763       L1    12  0.64

> <Gold.Chemscore.Hbond.Weighted>
-6.5650

> <Gold.Chemscore.Metal.Weighted>
-0.0000

> <Gold.Chemscore.Lipo.Weighted>
-8.1857

> <Gold.Chemscore.Internal_Hbond.Weighted>
0.0000

> <Gold.Chemscore.DEClash.Weighted>
0.1567

> <Gold.Chemscore.DEInternal.Weighted>
2.1164

> <Gold.Chemscore.Rot.Weighted>
3.5123

> <Gold.Chemscore.Internal.Correction.Weighted>
   9.000000E+99

> <Gold.Protein.RotatedTorsions>
[ 6907 6896 6895 6894 ] final   49.50 input  -60.11 | X-H torsion
[ 7974 7965 7964 7962 ] final -170.59 input  175.53 | X-H torsion
[ 8008 7997 7996 7995 ] final -144.05 input   59.86 | X-H torsion
[ 10167 10162 10161 10158 ] final -170.37 input  -65.29 | X-H torsion
[ 10718 10713 10712 10709 ] final   53.17 input   66.30 | X-H torsion
[ 10763 10752 10751 10750 ] final   87.92 input  -60.55 | X-H torsion
[ 11005 11000 10999 10996 ] final -132.65 input  -57.11 | X-H torsion

> <Gold.Protein.ActiveResidues>
 VAL166  LYS551  ARG553  GLY616  TRP617  ASP618  TYR619  PRO620  LYS621  CYS622 
 ASP623  PHE694  ASN695  SER759  ASP760  ASP761  ALA762  ILE779  LEU786  VAL792 
 PHE793  MET794  SER795  GLU796  ALA797  LYS798  CYS799  TRP800  GLU811  SER814 

> <Gold.Protein.RotatedAtoms>
  152.2915  134.7716  160.0376 H   0  0  0  0  0  0  0  0  0  0  0  0  # atno 6907 bound_to 6896
  151.8261  133.3396  159.3607 H   0  0  0  0  0  0  0  0  0  0  0  0  # atno 6908 bound_to 6896
  150.7232  134.5457  159.5813 H   0  0  0  0  0  0  0  0  0  0  0  0  # atno 6909 bound_to 6896
  144.7168  140.2049  143.6334 H   0  0  0  0  0  0  0  0  0  0  0  0  # atno 7974 bound_to 7965
  155.5206  140.0591  157.2907 H   0  0  0  0  0  0  0  0  0  0  0  0  # atno 8008 bound_to 7997
  154.4519  140.1953  156.0440 H   0  0  0  0  0  0  0  0  0  0  0  0  # atno 8009 bound_to 7997
  156.0721  140.3258  155.7593 H   0  0  0  0  0  0  0  0  0  0  0  0  # atno 8010 bound_to 7997
  139.5866  144.1306  152.1582 H   0  0  0  0  0  0  0  0  0  0  0  0  # atno 10167 bound_to 10162
  157.5142  130.8521  149.8475 H   0  0  0  0  0  0  0  0  0  0  0  0  # atno 10718 bound_to 10713
  153.1716  135.4526  154.9910 H   0  0  0  0  0  0  0  0  0  0  0  0  # atno 10763 bound_to 10752
  154.7970  135.3241  154.7645 H   0  0  0  0  0  0  0  0  0  0  0  0  # atno 10764 bound_to 10752
  153.8121  135.6954  153.4894 H   0  0  0  0  0  0  0  0  0  0  0  0  # atno 10765 bound_to 10752
  140.9151  134.1518  157.4359 H   0  0  0  0  0  0  0  0  0  0  0  0  # atno 11005 bound_to 11000
  145.8645  139.2240  143.1697 LP  0  0  0  0  0  0  0  0  0  0  0  0  # atno 17320 bound_to 7965
  146.0142  140.8407  142.9955 LP  0  0  0  0  0  0  0  0  0  0  0  0  # atno 17321 bound_to 7965
  140.0870  144.5652  150.7081 LP  0  0  0  0  0  0  0  0  0  0  0  0  # atno 17342 bound_to 10162
  140.7136  143.2526  151.4503 LP  0  0  0  0  0  0  0  0  0  0  0  0  # atno 17343 bound_to 10162
  156.0309  130.3765  150.1690 LP  0  0  0  0  0  0  0  0  0  0  0  0  # atno 17370 bound_to 10713
  156.9879  130.9884  151.3422 LP  0  0  0  0  0  0  0  0  0  0  0  0  # atno 17371 bound_to 10713
  139.8764  134.9950  156.5723 LP  0  0  0  0  0  0  0  0  0  0  0  0  # atno 17394 bound_to 11000
  140.8060  133.8467  155.8768 LP  0  0  0  0  0  0  0  0  0  0  0  0  # atno 17395 bound_to 11000

$$$$
