AV-unprocessed.smi:1970|AV-procd|sdf|7961|dock9
  -GOLD-   2272010133D 1   1.00000     0.00000
 Structure written by MMmdl.
 34 35  0  0  0  0  0  0  0  0  2 V2000
  153.6395  138.6811  156.9504 O   0  0  0  0  0  0  0  0  0  0  0  0
  152.6633  138.6609  157.7013 C   0  0  0  0  0  0  0  0  0  0  0  0
  152.5261  137.5756  158.7768 C   0  0  0  0  0  0  0  0  0  0  0  0
  153.4668  137.7530  159.8863 N   0  0  0  0  0  0  0  0  0  0  0  0
  153.6622  139.0924  160.4304 C   0  0  0  0  0  0  0  0  0  0  0  0
  154.6059  138.9038  161.9645 S   0  0  0  0  0  0  0  0  0  0  0  0
  155.0767  137.2086  161.5799 C   0  0  0  0  0  0  0  0  0  0  0  0
  154.1852  136.7577  160.4356 C   0  0  0  0  0  0  0  0  0  0  0  0
  154.1493  135.5810  160.0764 O   0  0  0  0  0  0  0  0  0  0  0  0
  151.6643  139.5535  157.6294 N   0  0  0  0  0  0  0  0  0  0  0  0
  151.6128  140.6714  156.6949 C   0  0  0  0  0  0  0  0  0  0  0  0
  150.5335  141.6910  157.0970 C   0  0  0  0  0  0  0  0  0  0  0  0
  151.0778  142.7792  158.0015 C   0  0  0  0  0  0  0  0  0  0  0  0
  151.8168  142.4838  159.1677 C   0  0  0  0  0  0  0  0  0  0  0  0
  152.3001  143.5429  159.9639 C   0  0  0  0  0  0  0  0  0  0  0  0
  152.0359  144.8734  159.5772 C   0  0  0  0  0  0  0  0  0  0  0  0
  151.2942  145.1110  158.4019 C   0  0  0  0  0  0  0  0  0  0  0  0
  150.8479  144.0694  157.6658 N   0  3  0  0  0  0  0  0  0  0  0  0
  151.5055  137.5615  159.1643 H   0  0  0  0  0  0  0  0  0  0  0  0
  152.6885  136.6043  158.3082 H   0  0  0  0  0  0  0  0  0  0  0  0
  154.2244  139.7015  159.7220 H   0  0  0  0  0  0  0  0  0  0  0  0
  152.7093  139.5828  160.6323 H   0  0  0  0  0  0  0  0  0  0  0  0
  156.1211  137.1728  161.2697 H   0  0  0  0  0  0  0  0  0  0  0  0
  154.9487  136.5692  162.4535 H   0  0  0  0  0  0  0  0  0  0  0  0
  150.8949  139.4591  158.2766 H   0  0  0  0  0  0  0  0  0  0  0  0
  152.5907  141.1526  156.6366 H   0  0  0  0  0  0  0  0  0  0  0  0
  151.4024  140.2746  155.7014 H   0  0  0  0  0  0  0  0  0  0  0  0
  150.1037  142.1520  156.2066 H   0  0  0  0  0  0  0  0  0  0  0  0
  149.7110  141.1895  157.6089 H   0  0  0  0  0  0  0  0  0  0  0  0
  152.0129  141.4592  159.4494 H   0  0  0  0  0  0  0  0  0  0  0  0
  152.8669  143.3369  160.8601 H   0  0  0  0  0  0  0  0  0  0  0  0
  152.3973  145.6987  160.1733 H   0  0  0  0  0  0  0  0  0  0  0  0
  151.0465  146.0949  158.0312 H   0  0  0  0  0  0  0  0  0  0  0  0
  150.3130  144.2650  156.8193 H   0  0  0  0  0  0  0  0  0  0  0  0
  1  2  2  0  0  0  0
  2  3  1  0  0  0  0
  2 10  1  0  0  0  0
  3  4  1  0  0  0  0
  3 19  1  0  0  0  0
  3 20  1  0  0  0  0
  4  8  1  0  0  0  0
  4  5  1  0  0  0  0
  5  6  1  0  0  0  0
  5 21  1  0  0  0  0
  5 22  1  0  0  0  0
  6  7  1  0  0  0  0
  7  8  1  0  0  0  0
  7 23  1  0  0  0  0
  7 24  1  0  0  0  0
  8  9  2  0  0  0  0
 10 11  1  0  0  0  0
 10 25  1  0  0  0  0
 11 12  1  0  0  0  0
 11 26  1  0  0  0  0
 11 27  1  0  0  0  0
 12 13  1  0  0  0  0
 12 28  1  0  0  0  0
 12 29  1  0  0  0  0
 13 18  1  0  0  0  0
 13 14  2  0  0  0  0
 14 15  1  0  0  0  0
 14 30  1  0  0  0  0
 15 16  2  0  0  0  0
 15 31  1  0  0  0  0
 16 17  1  0  0  0  0
 16 32  1  0  0  0  0
 17 18  2  0  0  0  0
 17 33  1  0  0  0  0
 18 34  1  0  0  0  0
M  CHG  1  18   1
M  END
> <s_m_source_file>
AV-unprocessed.smi

> <i_m_source_file_index>
1970

> <i_lp_mmshare_version>
43012

> <i_f3d_flags>
0

> <s_epik_input>
Tz1DMVtDSDJdU1tDSDJdTjFbQ0gyXUMoPU8pW05IXVtDSDJdW0NIMl1jMltjSF1bY0hdW2NIXVtjSF1uMg==

> <s_epik_cmdline>
J2VwaWtfcHl0aG9uJywgJy1waCcsICc3LjAnLCAnLXRuJywgJzgnLCAnLW1hJywgJzIwMCcsICctbWV0YWxfYmluZGluZycsICctaW1hZScsICc8aW5maWxlLm1hZT4nLCAnLW9tYWUnLCAnPG91dGZpbGUubWFlPic=

> <r_epik_Ionization_Penalty>
1.87519

> <r_epik_Ionization_Penalty_Charging>
1.87519

> <r_epik_Ionization_Penalty_Neutral>
8.746e-08

> <r_epik_State_Penalty>
1.99452

> <r_epik_Charging_Adjusted_Penalty>
3.86972

> <i_epik_Tot_Q>
1

> <i_epik_Tot_abs_Q>
1

> <r_epik_Metal_State_Penalty>
2.01927

> <b_epik_Metal_Only>
0

> <s_epik_Chemistry_Notes>
This compound contains an acetal/aminal-like group ( X-CH(R)-Y where X, Y are N, S, or O) that may be acid/base labile, releasing an aldehyde.

> <s_lp_Force_Field>
OPLS_2005

> <r_lp_Energy>
10.5607

> <b_lp_Chiralities_Consistent>
1

> <s_lp_Variant>
AV-unprocessed.smi:1970-2

> <Gold.Version>
5.8.1

> <Gold.Id.Protein>
6NUR|6NUR_protein|mol2

> <Gold.PLP.Fitness>
44.4833

> <Gold.PLP.PLP>
-34.0011

> <Gold.PLP.part.hbond>
-3.0000

> <Gold.PLP.part.metal>
0.0000

> <Gold.PLP.part.buried>
-5.3160

> <Gold.PLP.part.nonpolar>
-25.6634

> <Gold.PLP.part.repulsive>
0.0844

> <Gold.PLP.ligand.clash>
0.0000

> <Gold.PLP.ligand.torsion>
0.6807

> <Gold.PLP.Chemscore.Hbond>
3.9440

> <Gold.PLP.Chemscore.CHOScore>
0.0000

> <Gold.PLP.Chemscore.Metal>
0.0000

> <Gold.Chemscore.Hbonds>
donor molecule, donor type, donor heavy atom, donor atom, acceptor molecule, acceptor atom, score
      L1  H    18    34       P1  8028  2.00
      P1  H  6896  6908       L1     9  1.00
      P1  H  7997  8010       L1     1  0.94

> <Gold.PLP.Chemscore.Internal.Correction>
0.0115

> <Gold.Rescore>
     Score         DG    S(hbond)    S(metal)    S(lipo)     H(rot)  DE(clash)    DE(int)     intcor
     19.58     -20.47       2.90        0.00      89.72       2.03       0.13       0.75       ----

> <Gold.Chemscore.Fitness>
19.5834

> <Gold.Chemscore.DG>
-20.4701

> <Gold.Chemscore.ZeroCoef>
-5.4800

> <Gold.Chemscore.Hbond>
2.9012

> <Gold.Chemscore.Metal>
0.0000

> <Gold.Chemscore.Lipo>
89.7168

> <Gold.Chemscore.Internal_Hbond>
0.0000

> <Gold.Chemscore.DEClash>
0.1334

> <Gold.Chemscore.DEInternal>
0.7533

> <Gold.Chemscore.Rot>
2.0300

> <Gold.Chemscore.Internal.Correction>
   9.000000E+99

> <Gold.Chemscore.Hbonds>
donor molecule, donor type, donor heavy atom, donor atom, acceptor molecule, acceptor atom, score
      L1  H    18    34       P1  8028  0.97
      P1  H  6896  6908       L1     9  0.99
      P1  H  7997  8010       L1     1  0.86

> <Gold.Chemscore.Hbond.Weighted>
-9.6899

> <Gold.Chemscore.Metal.Weighted>
-0.0000

> <Gold.Chemscore.Lipo.Weighted>
-10.4969

> <Gold.Chemscore.Internal_Hbond.Weighted>
0.0000

> <Gold.Chemscore.DEClash.Weighted>
0.1334

> <Gold.Chemscore.DEInternal.Weighted>
0.7533

> <Gold.Chemscore.Rot.Weighted>
5.1967

> <Gold.Chemscore.Internal.Correction.Weighted>
   9.000000E+99

> <Gold.Protein.RotatedTorsions>
[ 6907 6896 6895 6894 ] final  -50.15 input  -60.11 | X-H torsion
[ 7974 7965 7964 7962 ] final  -34.56 input  175.53 | X-H torsion
[ 8008 7997 7996 7995 ] final   48.75 input   59.86 | X-H torsion
[ 10167 10162 10161 10158 ] final   83.63 input  -65.29 | X-H torsion
[ 10718 10713 10712 10709 ] final   68.14 input   66.30 | X-H torsion
[ 10763 10752 10751 10750 ] final -106.41 input  -60.55 | X-H torsion
[ 11005 11000 10999 10996 ] final -105.28 input  -57.11 | X-H torsion

> <Gold.Protein.ActiveResidues>
 VAL166  LYS551  ARG553  GLY616  TRP617  ASP618  TYR619  PRO620  LYS621  CYS622 
 ASP623  PHE694  ASN695  SER759  ASP760  ASP761  ALA762  ILE779  LEU786  VAL792 
 PHE793  MET794  SER795  GLU796  ALA797  LYS798  CYS799  TRP800  GLU811  SER814 

> <Gold.Protein.RotatedAtoms>
  150.8736  134.8114  159.7172 H   0  0  0  0  0  0  0  0  0  0  0  0  # atno 6907 bound_to 6896
  152.4731  134.4908  159.9704 H   0  0  0  0  0  0  0  0  0  0  0  0  # atno 6908 bound_to 6896
  151.4993  133.3469  159.2902 H   0  0  0  0  0  0  0  0  0  0  0  0  # atno 6909 bound_to 6896
  146.0819  140.6053  142.8904 H   0  0  0  0  0  0  0  0  0  0  0  0  # atno 7974 bound_to 7965
  155.3908  140.3433  155.4251 H   0  0  0  0  0  0  0  0  0  0  0  0  # atno 8008 bound_to 7997
  156.1558  140.1585  156.8727 H   0  0  0  0  0  0  0  0  0  0  0  0  # atno 8009 bound_to 7997
  154.5094  140.0794  156.7940 H   0  0  0  0  0  0  0  0  0  0  0  0  # atno 8010 bound_to 7997
  139.9164  144.6240  150.8485 H   0  0  0  0  0  0  0  0  0  0  0  0  # atno 10167 bound_to 10162
  157.6272  130.9358  150.0338 H   0  0  0  0  0  0  0  0  0  0  0  0  # atno 10718 bound_to 10713
  154.8010  135.4713  154.0276 H   0  0  0  0  0  0  0  0  0  0  0  0  # atno 10763 bound_to 10752
  153.1781  135.6836  153.8522 H   0  0  0  0  0  0  0  0  0  0  0  0  # atno 10764 bound_to 10752
  153.8081  135.3220  155.3375 H   0  0  0  0  0  0  0  0  0  0  0  0  # atno 10765 bound_to 10752
  141.1061  133.8795  157.1715 H   0  0  0  0  0  0  0  0  0  0  0  0  # atno 11005 bound_to 11000
  144.7299  140.4641  143.6945 LP  0  0  0  0  0  0  0  0  0  0  0  0  # atno 17320 bound_to 7965
  145.6201  139.1523  143.3027 LP  0  0  0  0  0  0  0  0  0  0  0  0  # atno 17321 bound_to 7965
  140.7673  143.3328  151.2373 LP  0  0  0  0  0  0  0  0  0  0  0  0  # atno 17342 bound_to 10162
  139.6899  143.9710  152.2853 LP  0  0  0  0  0  0  0  0  0  0  0  0  # atno 17343 bound_to 10162
  156.1452  130.3642  149.9522 LP  0  0  0  0  0  0  0  0  0  0  0  0  # atno 17370 bound_to 10713
  156.7554  130.9131  151.3639 LP  0  0  0  0  0  0  0  0  0  0  0  0  # atno 17371 bound_to 10713
  139.9931  135.0057  157.0021 LP  0  0  0  0  0  0  0  0  0  0  0  0  # atno 17394 bound_to 11000
  140.4899  134.1203  155.7231 LP  0  0  0  0  0  0  0  0  0  0  0  0  # atno 17395 bound_to 11000

$$$$
