AV-unprocessed.smi:21|AV-procd|sdf|167|dock5
  -GOLD-   2262015413D 1   1.00000     0.00000
 Structure written by MMmdl.
 61 64  0  0  0  0  0  0  0  0  1 V2000
  148.0293  129.9543  153.6513 C   0  0  0  0  0  0  0  0  0  0  0  0
  148.7425  130.3739  154.8033 O   0  0  0  0  0  0  0  0  0  0  0  0
  149.9391  131.0778  154.5020 C   0  0  1  0  0  0  0  0  0  0  0  0
  149.6143  132.4934  154.0003 C   0  0  0  0  0  0  0  0  0  0  0  0
  150.2530  133.4312  155.0376 C   0  0  2  0  0  0  0  0  0  0  0  0
  150.6660  134.8013  154.4584 C   0  0  0  0  0  0  0  0  0  0  0  0
  150.1501  135.9215  155.2494 N   0  0  0  0  0  0  0  0  0  0  0  0
  148.7047  136.0506  155.3851 C   0  0  0  0  0  0  0  0  0  0  0  0
  150.9629  136.9661  155.5796 C   0  0  0  0  0  0  0  0  0  0  0  0
  152.0076  137.2513  154.7573 N   0  0  0  0  0  0  0  0  0  0  0  0
  152.8375  138.2621  155.0248 C   0  0  0  0  0  0  0  0  0  0  0  0
  152.8133  139.1082  156.0536 N   0  0  0  0  0  0  0  0  0  0  0  0
  151.7744  138.8346  156.8917 C   0  0  0  0  0  0  0  0  0  0  0  0
  150.8081  137.7972  156.7333 C   0  0  0  0  0  0  0  0  0  0  0  0
  149.8961  137.8574  157.7831 N   0  0  0  0  0  0  0  0  0  0  0  0
  150.3000  138.8584  158.5145 C   0  0  0  0  0  0  0  0  0  0  0  0
  151.4368  139.4879  158.0648 N   0  0  0  0  0  0  0  0  0  0  0  0
  152.0930  140.6299  158.6783 C   0  0  0  0  0  0  0  0  0  0  0  0
  151.8584  141.9904  157.9624 C   0  0  1  0  0  0  0  0  0  0  0  0
  150.3705  142.0922  157.5461 C   0  0  0  0  0  0  0  0  0  0  0  0
  150.2377  142.4719  156.1916 O   0  0  0  0  0  0  0  0  0  0  0  0
  152.2926  143.2218  158.8141 C   0  0  1  0  0  0  0  0  0  0  0  0
  152.0769  144.5862  158.1702 C   0  0  0  0  0  0  0  0  0  0  0  0
  152.0191  145.5525  159.3525 C   0  0  0  0  0  0  0  0  0  0  0  0
  151.7479  144.7618  160.5020 O   0  0  0  0  0  0  0  0  0  0  0  0
  151.4893  143.4247  160.1037 C   0  0  0  0  0  0  0  0  0  0  0  0
  151.3466  132.6579  155.6042 N   0  0  0  0  0  0  0  0  0  0  0  0
  151.8517  133.1867  156.8645 C   0  0  0  0  0  0  0  0  0  0  0  0
  150.7890  131.3283  155.7549 C   0  0  0  0  0  0  0  0  0  0  0  0
  150.5166  130.5532  153.7387 H   0  0  0  0  0  0  0  0  0  0  0  0
  149.5148  133.5978  155.8245 H   0  0  0  0  0  0  0  0  0  0  0  0
  147.1194  129.4370  153.9548 H   0  0  0  0  0  0  0  0  0  0  0  0
  148.6173  129.2663  153.0429 H   0  0  0  0  0  0  0  0  0  0  0  0
  147.7403  130.8065  153.0351 H   0  0  0  0  0  0  0  0  0  0  0  0
  150.0647  132.6385  153.0176 H   0  0  0  0  0  0  0  0  0  0  0  0
  148.5429  132.6716  153.9000 H   0  0  0  0  0  0  0  0  0  0  0  0
  151.7525  134.8857  154.4589 H   0  0  0  0  0  0  0  0  0  0  0  0
  150.3806  134.8676  153.4086 H   0  0  0  0  0  0  0  0  0  0  0  0
  148.4391  136.4413  156.3678 H   0  0  0  0  0  0  0  0  0  0  0  0
  148.2177  135.0815  155.2746 H   0  0  0  0  0  0  0  0  0  0  0  0
  148.3032  136.7141  154.6187 H   0  0  0  0  0  0  0  0  0  0  0  0
  153.6364  138.4127  154.3140 H   0  0  0  0  0  0  0  0  0  0  0  0
  149.7819  139.1581  159.4139 H   0  0  0  0  0  0  0  0  0  0  0  0
  151.7382  140.6737  159.7082 H   0  0  0  0  0  0  0  0  0  0  0  0
  153.1628  140.4247  158.7360 H   0  0  0  0  0  0  0  0  0  0  0  0
  152.4432  142.0057  157.0422 H   0  0  0  0  0  0  0  0  0  0  0  0
  149.8566  141.1444  157.7081 H   0  0  0  0  0  0  0  0  0  0  0  0
  149.8422  142.8467  158.1273 H   0  0  0  0  0  0  0  0  0  0  0  0
  149.8400  143.3285  156.1566 H   0  0  0  0  0  0  0  0  0  0  0  0
  153.3458  143.1228  159.0815 H   0  0  0  0  0  0  0  0  0  0  0  0
  152.8657  144.8676  157.4750 H   0  0  0  0  0  0  0  0  0  0  0  0
  151.1280  144.6061  157.6325 H   0  0  0  0  0  0  0  0  0  0  0  0
  152.9749  146.0575  159.4933 H   0  0  0  0  0  0  0  0  0  0  0  0
  151.2513  146.3139  159.2121 H   0  0  0  0  0  0  0  0  0  0  0  0
  150.4199  143.3124  159.9180 H   0  0  0  0  0  0  0  0  0  0  0  0
  151.7743  142.7330  160.8967 H   0  0  0  0  0  0  0  0  0  0  0  0
  152.6260  132.5347  157.2698 H   0  0  0  0  0  0  0  0  0  0  0  0
  151.0570  133.2702  157.6071 H   0  0  0  0  0  0  0  0  0  0  0  0
  152.2939  134.1731  156.7269 H   0  0  0  0  0  0  0  0  0  0  0  0
  150.1484  131.2955  156.6380 H   0  0  0  0  0  0  0  0  0  0  0  0
  151.5689  130.5774  155.8848 H   0  0  0  0  0  0  0  0  0  0  0  0
  1  2  1  0  0  0  0
  1 32  1  0  0  0  0
  1 33  1  0  0  0  0
  1 34  1  0  0  0  0
  2  3  1  0  0  0  0
  3 30  1  0  0  0  0
  3 29  1  0  0  0  0
  3  4  1  0  0  0  0
  4  5  1  0  0  0  0
  4 35  1  0  0  0  0
  4 36  1  0  0  0  0
  5 31  1  0  0  0  0
  5  6  1  0  0  0  0
  5 27  1  0  0  0  0
  6  7  1  0  0  0  0
  6 37  1  0  0  0  0
  6 38  1  0  0  0  0
  7  8  1  0  0  0  0
  7  9  1  0  0  0  0
  8 39  1  0  0  0  0
  8 40  1  0  0  0  0
  8 41  1  0  0  0  0
  9 14  1  0  0  0  0
  9 10  2  0  0  0  0
 10 11  1  0  0  0  0
 11 12  2  0  0  0  0
 11 42  1  0  0  0  0
 12 13  1  0  0  0  0
 13 17  1  0  0  0  0
 13 14  2  0  0  0  0
 14 15  1  0  0  0  0
 15 16  2  0  0  0  0
 16 17  1  0  0  0  0
 16 43  1  0  0  0  0
 17 18  1  0  0  0  0
 18 19  1  0  0  0  0
 18 44  1  0  0  0  0
 18 45  1  0  0  0  0
 19 20  1  0  0  0  0
 19 22  1  0  0  0  0
 19 46  1  0  0  0  0
 20 21  1  0  0  0  0
 20 47  1  0  0  0  0
 20 48  1  0  0  0  0
 21 49  1  0  0  0  0
 22 26  1  0  0  0  0
 22 23  1  0  0  0  0
 22 50  1  0  0  0  0
 23 24  1  0  0  0  0
 23 51  1  0  0  0  0
 23 52  1  0  0  0  0
 24 25  1  0  0  0  0
 24 53  1  0  0  0  0
 24 54  1  0  0  0  0
 25 26  1  0  0  0  0
 26 55  1  0  0  0  0
 26 56  1  0  0  0  0
 27 28  1  0  0  0  0
 27 29  1  0  0  0  0
 28 57  1  0  0  0  0
 28 58  1  0  0  0  0
 28 59  1  0  0  0  0
 29 60  1  0  0  0  0
 29 61  1  0  0  0  0
M  END
> <s_m_source_file>
AV-unprocessed.smi

> <i_m_source_file_index>
21

> <i_lp_mmshare_version>
43012

> <i_f3d_flags>
0

> <s_epik_input>
W0NIM11PW0NASF0xW0NIMl1bQ0BIXShOKFtDSDNdKVtDSDJdMSlbQ0gyXU4oW0NIM10pYyhuW2NIXW4yKWMoYzIzKW5bY0hdbjNbQ0gyXVtDQEhdKFtDSDJdW09IXSlbQ0BASF00W0NIMl1bQ0gyXU9bQ0gyXTQ=

> <s_epik_cmdline>
J2VwaWtfcHl0aG9uJywgJy1waCcsICc3LjAnLCAnLXRuJywgJzgnLCAnLW1hJywgJzIwMCcsICctbWV0YWxfYmluZGluZycsICctaW1hZScsICc8aW5maWxlLm1hZT4nLCAnLW9tYWUnLCAnPG91dGZpbGUubWFlPic=

> <r_lp_tautomer_probability>
1

> <r_epik_Ionization_Penalty>
2.17574

> <r_epik_Ionization_Penalty_Charging>
0

> <r_epik_Ionization_Penalty_Neutral>
2.17574

> <r_epik_State_Penalty>
2.31336

> <r_epik_Charging_Adjusted_Penalty>
2.31336

> <i_epik_Tot_Q>
0

> <i_epik_Tot_abs_Q>
0

> <r_epik_Metal_State_Penalty>
2.31025

> <b_epik_Metal_Only>
0

> <s_lp_Force_Field>
OPLS_2005

> <r_lp_Energy>
70.7714

> <b_lp_Chiralities_Consistent>
1

> <s_lp_Variant>
AV-unprocessed.smi:21-47

> <Gold.Version>
5.8.1

> <Gold.Id.Protein>
6NUR|6NUR_protein|mol2

> <Gold.PLP.Fitness>
51.7582

> <Gold.PLP.PLP>
-46.7602

> <Gold.PLP.part.hbond>
-3.0000

> <Gold.PLP.part.metal>
0.0000

> <Gold.PLP.part.buried>
-5.8357

> <Gold.PLP.part.nonpolar>
-37.9158

> <Gold.PLP.part.repulsive>
0.2739

> <Gold.PLP.ligand.clash>
0.0000

> <Gold.PLP.ligand.torsion>
2.3346

> <Gold.PLP.Chemscore.Hbond>
3.0000

> <Gold.PLP.Chemscore.CHOScore>
0.0000

> <Gold.PLP.Chemscore.Metal>
0.0000

> <Gold.Chemscore.Hbonds>
donor molecule, donor type, donor heavy atom, donor atom, acceptor molecule, acceptor atom, score
      L1  H    21    49       P1  8028  1.00
      P1  H  7997  8009       L1    12  1.00
      P1  H 10752 10764       L1    10  0.90

> <Gold.PLP.Chemscore.Internal.Correction>
0.6673

> <Gold.Rescore>
     Score         DG    S(hbond)    S(metal)    S(lipo)     H(rot)  DE(clash)    DE(int)     intcor
     16.31     -18.91       2.41        0.00     111.59       3.00       0.21       2.40       ----

> <Gold.Chemscore.Fitness>
16.3088

> <Gold.Chemscore.DG>
-18.9113

> <Gold.Chemscore.ZeroCoef>
-5.4800

> <Gold.Chemscore.Hbond>
2.4141

> <Gold.Chemscore.Metal>
0.0000

> <Gold.Chemscore.Lipo>
111.5920

> <Gold.Chemscore.Internal_Hbond>
0.0000

> <Gold.Chemscore.DEClash>
0.2051

> <Gold.Chemscore.DEInternal>
2.3973

> <Gold.Chemscore.Rot>
3.0031

> <Gold.Chemscore.Internal.Correction>
   9.000000E+99

> <Gold.Chemscore.Hbonds>
donor molecule, donor type, donor heavy atom, donor atom, acceptor molecule, acceptor atom, score
      L1  H    21    49       P1  8028  1.00
      P1  H  7997  8009       L1    12  0.96
      P1  H 10752 10764       L1    10  0.47

> <Gold.Chemscore.Hbond.Weighted>
-8.0630

> <Gold.Chemscore.Metal.Weighted>
-0.0000

> <Gold.Chemscore.Lipo.Weighted>
-13.0563

> <Gold.Chemscore.Internal_Hbond.Weighted>
0.0000

> <Gold.Chemscore.DEClash.Weighted>
0.2051

> <Gold.Chemscore.DEInternal.Weighted>
2.3973

> <Gold.Chemscore.Rot.Weighted>
7.6880

> <Gold.Chemscore.Internal.Correction.Weighted>
   9.000000E+99

> <Gold.Protein.RotatedTorsions>
[ 6907 6896 6895 6894 ] final   28.61 input  -60.11 | X-H torsion
[ 7974 7965 7964 7962 ] final  -32.45 input  175.53 | X-H torsion
[ 8008 7997 7996 7995 ] final -167.58 input   59.86 | X-H torsion
[ 10167 10162 10161 10158 ] final  121.74 input  -65.29 | X-H torsion
[ 10718 10713 10712 10709 ] final -112.94 input   66.30 | X-H torsion
[ 10763 10752 10751 10750 ] final  -70.84 input  -60.55 | X-H torsion
[ 11005 11000 10999 10996 ] final   39.22 input  -57.11 | X-H torsion

> <Gold.Protein.ActiveResidues>
 VAL166  LYS551  ARG553  GLY616  TRP617  ASP618  TYR619  PRO620  LYS621  CYS622 
 ASP623  PHE694  ASN695  SER759  ASP760  ASP761  ALA762  ILE779  LEU786  VAL792 
 PHE793  MET794  SER795  GLU796  ALA797  LYS798  CYS799  TRP800  GLU811  SER814 

> <Gold.Protein.RotatedAtoms>
  152.0195  134.9831  160.0570 H   0  0  0  0  0  0  0  0  0  0  0  0  # atno 6907 bound_to 6896
  152.1351  133.4426  159.4748 H   0  0  0  0  0  0  0  0  0  0  0  0  # atno 6908 bound_to 6896
  150.6860  134.2291  159.4470 H   0  0  0  0  0  0  0  0  0  0  0  0  # atno 6909 bound_to 6896
  146.0989  140.5793  142.8830 H   0  0  0  0  0  0  0  0  0  0  0  0  # atno 7974 bound_to 7965
  155.8796  140.1007  157.1494 H   0  0  0  0  0  0  0  0  0  0  0  0  # atno 8008 bound_to 7997
  154.4004  140.1331  156.4244 H   0  0  0  0  0  0  0  0  0  0  0  0  # atno 8009 bound_to 7997
  155.7657  140.3462  155.5223 H   0  0  0  0  0  0  0  0  0  0  0  0  # atno 8010 bound_to 7997
  139.5901  144.7022  151.3311 H   0  0  0  0  0  0  0  0  0  0  0  0  # atno 10167 bound_to 10162
  156.0736  130.5947  150.8576 H   0  0  0  0  0  0  0  0  0  0  0  0  # atno 10718 bound_to 10713
  154.4233  135.5981  153.6023 H   0  0  0  0  0  0  0  0  0  0  0  0  # atno 10763 bound_to 10752
  152.9795  135.5957  154.3928 H   0  0  0  0  0  0  0  0  0  0  0  0  # atno 10764 bound_to 10752
  154.3756  135.2841  155.2219 H   0  0  0  0  0  0  0  0  0  0  0  0  # atno 10765 bound_to 10752
  140.2049  134.3825  155.8077 H   0  0  0  0  0  0  0  0  0  0  0  0  # atno 11005 bound_to 11000
  144.7417  140.4960  143.6864 LP  0  0  0  0  0  0  0  0  0  0  0  0  # atno 17320 bound_to 7965
  145.5893  139.1494  143.3191 LP  0  0  0  0  0  0  0  0  0  0  0  0  # atno 17321 bound_to 7965
  140.7165  143.7251  150.7666 LP  0  0  0  0  0  0  0  0  0  0  0  0  # atno 17342 bound_to 10162
  140.0804  143.4974  152.2533 LP  0  0  0  0  0  0  0  0  0  0  0  0  # atno 17343 bound_to 10162
  157.5820  131.0946  150.9255 LP  0  0  0  0  0  0  0  0  0  0  0  0  # atno 17370 bound_to 10713
  156.9449  130.5398  149.5281 LP  0  0  0  0  0  0  0  0  0  0  0  0  # atno 17371 bound_to 10713
  141.2227  133.7113  156.8320 LP  0  0  0  0  0  0  0  0  0  0  0  0  # atno 17394 bound_to 11000
  140.2014  134.8894  157.3173 LP  0  0  0  0  0  0  0  0  0  0  0  0  # atno 17395 bound_to 11000

$$$$
