#       Name:                AV-unprocessed.smi:2124
#       Creating user name   scv26
#       Creation time:       Fri Mar 27 11:40:59 2020


#       File generated by GOLD software.
#

@<TRIPOS>MOLECULE
AV-unprocessed.smi:2124
    52    54     1
SMALL
NO_CHARGES


@<TRIPOS>ATOM
      1 ****        -4.0845   5.5220  -0.5527 C.3            1 S1                 0.0000
      2 ****        -3.5155   4.1196  -0.5541 C.2            1 S1                 0.0000
      3 ****        -3.1177   3.6823  -1.8067 N.pl3          1 S1                 0.0000
      4 ****        -2.5990   2.4039  -1.9119 C.2            1 S1                 0.0000
      5 ****        -2.1995   1.9989  -3.3200 C.3            1 S1                 0.0000
      6 ****        -2.4703   1.6066  -0.8211 C.2            1 S1                 0.0000
      7 ****        -1.9016   0.1897  -0.8914 C.3            1 S1                 0.0000
      8 ****        -0.3763   0.0652  -0.8440 C.2            1 S1                 0.0000
      9 ****         0.3361   1.0696  -0.8308 O.2            1 S1                 0.0000
     10 ****         0.1049  -1.1873  -0.8098 N.am           1 S1                 0.0000
     11 ****         1.5153  -1.5670  -0.7399 C.3            1 S1                 0.0000
     12 ****         1.8495  -2.4145  -1.9790 C.3            1 S1                 0.0000
     13 ****         1.8013  -2.3204   0.5833 C.3            1 S1                 0.0000
     14 ****         3.3012  -2.6391   0.8010 C.3            1 S1                 0.0000
     15 ****         3.5922  -2.0504   2.1927 C.3            1 S1                 0.0000
     16 ****         2.8759  -2.8877   3.2673 C.3            1 S1                 0.0000
     17 ****         1.3985  -2.5052   3.0625 C.3            1 S1                 0.0000
     18 ****         1.4615  -1.5278   1.8733 C.3            1 S1                 0.0000
     19 ****         2.7561  -0.7779   2.1676 C.3            1 S1                 0.0000
     20 ****        -2.8917   2.1384   0.4964 C.2            1 S1                 0.0000
     21 ****        -2.7748   1.4744   1.5257 O.2            1 S1                 0.0000
     22 ****        -3.4295   3.4349   0.5459 N.2            1 S1                 0.0000
     23 ****        -3.1929   4.2432  -2.6431 H              1 S1                 0.0000
     24 ****        -4.5260   5.7627   0.4153 H              1 S1                 0.0000
     25 ****        -4.8597   5.6215  -1.3133 H              1 S1                 0.0000
     26 ****        -3.2986   6.2485  -0.7608 H              1 S1                 0.0000
     27 ****        -2.7884   1.1440  -3.6526 H              1 S1                 0.0000
     28 ****        -1.1443   1.7261  -3.3532 H              1 S1                 0.0000
     29 ****        -2.3575   2.8104  -4.0316 H              1 S1                 0.0000
     30 ****        -2.2414  -0.2774  -1.8158 H              1 S1                 0.0000
     31 ****        -2.3277  -0.4253  -0.0977 H              1 S1                 0.0000
     32 ****        -0.5635  -1.9442  -0.8210 H              1 S1                 0.0000
     33 ****         2.1431  -0.6752  -0.7736 H              1 S1                 0.0000
     34 ****         2.9022  -2.6955  -2.0036 H              1 S1                 0.0000
     35 ****         1.6411  -1.8639  -2.8970 H              1 S1                 0.0000
     36 ****         1.2618  -3.3328  -2.0027 H              1 S1                 0.0000
     37 ****         1.2266  -3.2482   0.5710 H              1 S1                 0.0000
     38 ****         3.5102  -3.7082   0.7493 H              1 S1                 0.0000
     39 ****         3.9284  -2.1457   0.0576 H              1 S1                 0.0000
     40 ****         4.6540  -1.9007   2.3904 H              1 S1                 0.0000
     41 ****         3.0511  -3.9567   3.1416 H              1 S1                 0.0000
     42 ****         3.2101  -2.6074   4.2670 H              1 S1                 0.0000
     43 ****         0.7662  -3.3707   2.8612 H              1 S1                 0.0000
     44 ****         1.0068  -2.0071   3.9504 H              1 S1                 0.0000
     45 ****         0.5761  -0.8963   1.8042 H              1 S1                 0.0000
     46 ****         2.7425  -0.2501   3.1227 H              1 S1                 0.0000
     47 ****         3.0463  -0.0814   1.3793 H              1 S1                 0.0000
     48 ****        -0.0805   1.9785  -0.8511 LP             1 S1                 0.0000
     49 ****         1.3313   0.9764  -0.7997 LP             1 S1                 0.0000
     50 ****        -2.3879   0.5532   1.4852 LP             1 S1                 0.0000
     51 ****        -3.0667   1.8560   2.4028 LP             1 S1                 0.0000
     52 ****        -3.7407   3.8239   1.4130 LP             1 S1                 0.0000
@<TRIPOS>BOND
    1    1   24 1     
    2    1   25 1     
    3    1   26 1     
    4    1    2 1     
    5    2    3 1     
    6    2   22 2     
    7    3    4 1     
    8    3   23 1     
    9    4    6 2     
   10    4    5 1     
   11    5   27 1     
   12    5   28 1     
   13    5   29 1     
   14    6   20 1     
   15    6    7 1     
   16    7    8 1     
   17    7   30 1     
   18    7   31 1     
   19    8    9 2     
   20    8   10 am    
   21   10   11 1     
   22   10   32 1     
   23   11   12 1     
   24   11   13 1     
   25   11   33 1     
   26   12   34 1     
   27   12   35 1     
   28   12   36 1     
   29   13   18 1     
   30   13   14 1     
   31   13   37 1     
   32   14   15 1     
   33   14   38 1     
   34   14   39 1     
   35   15   19 1     
   36   15   16 1     
   37   15   40 1     
   38   16   17 1     
   39   16   41 1     
   40   16   42 1     
   41   17   18 1     
   42   17   43 1     
   43   17   44 1     
   44   18   19 1     
   45   18   45 1     
   46   19   46 1     
   47   19   47 1     
   48   20   21 2     
   49   20   22 1     
   50    9   48 1     
   51    9   49 1     
   52   21   50 1     
   53   21   51 1     
   54   22   52 1     
@<TRIPOS>SUBSTRUCTURE
      1 S1             1
@<TRIPOS>SET
LONE_PAIRS      STATIC     ATOMS    <user>   **** ""
5 48 49 50 51 52
DONOR_HYDROGENS      STATIC     ATOMS    <user>   **** ""
2 23 32
ATOM$BLUE        STATIC     ATOMS    COLORGROUP SYSTEM
5 48 49 50 51 52
ATOM$RED        STATIC     ATOMS    COLORGROUP SYSTEM
2 23 32
