#       Name:                AV-unprocessed.smi:1588
#       Creating user name   scv26
#       Creation time:       Fri Mar 27 07:02:44 2020


#       File generated by GOLD software.
#

@<TRIPOS>MOLECULE
AV-unprocessed.smi:1588
    40    41     1
SMALL
NO_CHARGES


@<TRIPOS>ATOM
      1 ****        -3.6915  -3.6191   1.7189 C.3            1 S1                 0.0000
      2 ****        -2.7270  -2.5021   2.1403 C.3            1 S1                 0.0000
      3 ****        -1.4639  -2.5301   1.3649 N.4            1 S1                 1.0000
      4 ****        -1.6111  -2.2359  -0.0788 C.3            1 S1                 0.0000
      5 ****        -0.2959  -1.5856  -0.4988 C.3            1 S1                 0.0000
      6 ****         0.0721  -0.7633   0.7340 C.3            1 S1                 0.0000
      7 ****         1.5553  -0.3545   0.8234 C.3            1 S1                 0.0000
      8 ****         1.9723   0.4666  -0.3086 N.am           1 S1                 0.0000
      9 ****         1.6882   1.7682  -0.4594 C.2            1 S1                 0.0000
     10 ****         1.0229   2.4158   0.3492 O.2            1 S1                 0.0000
     11 ****         2.2174   2.2568  -1.5930 N.am           1 S1                 0.0000
     12 ****         2.1290   3.5852  -2.0810 C.2            1 S1                 0.0000
     13 ****         2.7240   4.0459  -3.2870 C.2            1 S1                 0.0000
     14 ****         2.4750   5.3320  -3.4888 N.2            1 S1                 0.0000
     15 ****         1.7267   5.6966  -2.4231 N.pl3          1 S1                 0.0000
     16 ****         1.4909   4.6661  -1.5400 C.2            1 S1                 0.0000
     17 ****        -0.4018  -1.6433   1.8990 C.3            1 S1                 0.0000
     18 ****         1.3884   6.6422  -2.3134 H              1 S1                 0.0000
     19 ****        -4.5873  -3.6090   2.3405 H              1 S1                 0.0000
     20 ****        -3.2277  -4.6006   1.8232 H              1 S1                 0.0000
     21 ****        -4.0114  -3.5056   0.6829 H              1 S1                 0.0000
     22 ****        -3.2059  -1.5268   2.0393 H              1 S1                 0.0000
     23 ****        -2.4907  -2.6281   3.1978 H              1 S1                 0.0000
     24 ****        -1.8325  -3.1364  -0.6523 H              1 S1                 0.0000
     25 ****        -2.4282  -1.5293  -0.2342 H              1 S1                 0.0000
     26 ****         0.4578  -2.3521  -0.6852 H              1 S1                 0.0000
     27 ****        -0.3949  -0.9803  -1.4005 H              1 S1                 0.0000
     28 ****        -0.5464   0.1361   0.7302 H              1 S1                 0.0000
     29 ****         1.7443   0.1809   1.7554 H              1 S1                 0.0000
     30 ****         2.1881  -1.2422   0.8455 H              1 S1                 0.0000
     31 ****         2.5271   0.0148  -1.0211 H              1 S1                 0.0000
     32 ****         2.7441   1.6135  -2.1654 H              1 S1                 0.0000
     33 ****         3.3162   3.5013  -4.0077 H              1 S1                 0.0000
     34 ****         0.9094   4.7980  -0.6395 H              1 S1                 0.0000
     35 ****        -0.7432  -1.0327   2.7364 H              1 S1                 0.0000
     36 ****         0.4075  -2.2760   2.2654 H              1 S1                 0.0000
     37 ****        -1.0963  -3.4684   1.4333 H              1 S1                 0.0000
     38 ****         0.6634   1.9721   1.1701 LP             1 S1                 0.0000
     39 ****         0.8419   3.3855   0.1850 LP             1 S1                 0.0000
     40 ****         2.7725   5.9025  -4.2544 LP             1 S1                 0.0000
@<TRIPOS>BOND
    1    1    2 1     
    2    1   19 1     
    3    1   20 1     
    4    1   21 1     
    5    2    3 1     
    6    2   22 1     
    7    2   23 1     
    8    3   17 1     
    9    3    4 1     
   10    3   37 1     
   11    4    5 1     
   12    4   24 1     
   13    4   25 1     
   14    5    6 1     
   15    5   26 1     
   16    5   27 1     
   17    6    7 1     
   18    6   17 1     
   19    6   28 1     
   20    7    8 1     
   21    7   29 1     
   22    7   30 1     
   23    8    9 am    
   24    8   31 1     
   25    9   10 2     
   26    9   11 am    
   27   11   12 1     
   28   11   32 1     
   29   12   16 2     
   30   12   13 1     
   31   13   14 2     
   32   13   33 1     
   33   14   15 1     
   34   15   18 1     
   35   15   16 1     
   36   16   34 1     
   37   17   35 1     
   38   17   36 1     
   39   10   38 1     
   40   10   39 1     
   41   14   40 1     
@<TRIPOS>SUBSTRUCTURE
      1 S1             1
@<TRIPOS>SET
LONE_PAIRS      STATIC     ATOMS    <user>   **** ""
3 38 39 40
DONOR_HYDROGENS      STATIC     ATOMS    <user>   **** ""
4 37 31 32 18
ATOM$BLUE        STATIC     ATOMS    COLORGROUP SYSTEM
3 38 39 40
ATOM$RED        STATIC     ATOMS    COLORGROUP SYSTEM
4 37 31 32 18
