AV-unprocessed.smi:678|AV-procd|sdf|3318|dock10
  -GOLD-   22720 0283D 1   1.00000     0.00000
 Structure written by MMmdl.
 50 51  0  0  0  0  0  0  0  0  1 V2000
  154.2915  141.3594  160.6554 C   0  0  0  0  0  0  0  0  0  0  0  0
  153.2263  142.0219  159.7992 C   0  0  0  0  0  0  0  0  0  0  0  0
  152.7314  143.2407  160.1066 C   0  0  0  0  0  0  0  0  0  0  0  0
  151.7201  143.8631  159.2871 C   0  0  0  0  0  0  0  0  0  0  0  0
  151.2779  143.1967  158.2113 C   0  0  0  0  0  0  0  0  0  0  0  0
  151.7736  141.9242  157.8715 N   0  0  0  0  0  0  0  0  0  0  0  0
  151.2144  141.2899  156.6657 C   0  0  0  0  0  0  0  0  0  0  0  0
  150.3707  140.0449  156.9733 C   0  0  0  0  0  0  0  0  0  0  0  0
  149.1457  140.0670  156.8458 O   0  0  0  0  0  0  0  0  0  0  0  0
  151.0460  138.9695  157.4074 N   0  0  0  0  0  0  0  0  0  0  0  0
  150.4525  137.6861  157.7710 C   0  0  0  0  0  0  0  0  0  0  0  0
  149.9086  136.9293  156.5460 C   0  0  1  0  0  0  0  0  0  0  0  0
  150.0834  135.3973  156.6380 C   0  0  0  0  0  0  0  0  0  0  0  0
  149.4784  134.7034  155.5035 N   0  0  0  0  0  0  0  0  0  0  0  0
  149.6169  133.2484  155.5891 C   0  0  0  0  0  0  0  0  0  0  0  0
  149.7287  132.4993  154.2432 C   0  0  0  0  0  0  0  0  0  0  0  0
  148.4599  132.6622  153.3904 C   0  0  0  0  0  0  0  0  0  0  0  0
  150.0281  131.0124  154.4829 C   0  0  0  0  0  0  0  0  0  0  0  0
  148.0751  135.0869  155.4078 C   0  0  0  0  0  0  0  0  0  0  0  0
  147.9021  136.6111  155.3111 C   0  0  0  0  0  0  0  0  0  0  0  0
  148.5200  137.2303  156.4340 O   0  0  0  0  0  0  0  0  0  0  0  0
  152.7395  141.2959  158.6111 C   0  0  0  0  0  0  0  0  0  0  0  0
  153.1707  140.1853  158.2951 O   0  0  0  0  0  0  0  0  0  0  0  0
  154.5557  141.9789  161.5131 H   0  0  0  0  0  0  0  0  0  0  0  0
  155.1966  141.1873  160.0721 H   0  0  0  0  0  0  0  0  0  0  0  0
  153.9367  140.3991  161.0313 H   0  0  0  0  0  0  0  0  0  0  0  0
  153.0945  143.7652  160.9783 H   0  0  0  0  0  0  0  0  0  0  0  0
  151.3327  144.8411  159.5317 H   0  0  0  0  0  0  0  0  0  0  0  0
  150.5289  143.5944  157.5418 H   0  0  0  0  0  0  0  0  0  0  0  0
  150.6135  142.0097  156.1064 H   0  0  0  0  0  0  0  0  0  0  0  0
  152.0128  140.9962  155.9828 H   0  0  0  0  0  0  0  0  0  0  0  0
  152.0496  139.0441  157.4900 H   0  0  0  0  0  0  0  0  0  0  0  0
  151.1616  137.0636  158.3194 H   0  0  0  0  0  0  0  0  0  0  0  0
  149.6337  137.8900  158.4615 H   0  0  0  0  0  0  0  0  0  0  0  0
  150.4153  137.2983  155.6521 H   0  0  0  0  0  0  0  0  0  0  0  0
  151.1474  135.1716  156.6831 H   0  0  0  0  0  0  0  0  0  0  0  0
  149.6459  135.0354  157.5699 H   0  0  0  0  0  0  0  0  0  0  0  0
  150.4844  133.0079  156.2056 H   0  0  0  0  0  0  0  0  0  0  0  0
  148.7556  132.8438  156.1228 H   0  0  0  0  0  0  0  0  0  0  0  0
  150.5705  132.8977  153.6774 H   0  0  0  0  0  0  0  0  0  0  0  0
  147.5811  132.2794  153.9103 H   0  0  0  0  0  0  0  0  0  0  0  0
  148.5492  132.1241  152.4464 H   0  0  0  0  0  0  0  0  0  0  0  0
  148.2752  133.7096  153.1504 H   0  0  0  0  0  0  0  0  0  0  0  0
  149.2247  130.5309  155.0414 H   0  0  0  0  0  0  0  0  0  0  0  0
  150.9508  130.8839  155.0497 H   0  0  0  0  0  0  0  0  0  0  0  0
  150.1458  130.4768  153.5403 H   0  0  0  0  0  0  0  0  0  0  0  0
  147.6218  134.6185  154.5335 H   0  0  0  0  0  0  0  0  0  0  0  0
  147.5299  134.7169  156.2777 H   0  0  0  0  0  0  0  0  0  0  0  0
  148.3397  136.9932  154.3876 H   0  0  0  0  0  0  0  0  0  0  0  0
  146.8440  136.8724  155.2972 H   0  0  0  0  0  0  0  0  0  0  0  0
  1  2  1  0  0  0  0
  1 24  1  0  0  0  0
  1 25  1  0  0  0  0
  1 26  1  0  0  0  0
  2 22  1  0  0  0  0
  2  3  2  0  0  0  0
  3  4  1  0  0  0  0
  3 27  1  0  0  0  0
  4  5  2  0  0  0  0
  4 28  1  0  0  0  0
  5  6  1  0  0  0  0
  5 29  1  0  0  0  0
  6  7  1  0  0  0  0
  6 22  1  0  0  0  0
  7  8  1  0  0  0  0
  7 30  1  0  0  0  0
  7 31  1  0  0  0  0
  8  9  2  0  0  0  0
  8 10  1  0  0  0  0
 10 11  1  0  0  0  0
 10 32  1  0  0  0  0
 11 12  1  0  0  0  0
 11 33  1  0  0  0  0
 11 34  1  0  0  0  0
 12 21  1  0  0  0  0
 12 13  1  0  0  0  0
 12 35  1  0  0  0  0
 13 14  1  0  0  0  0
 13 36  1  0  0  0  0
 13 37  1  0  0  0  0
 14 15  1  0  0  0  0
 14 19  1  0  0  0  0
 15 16  1  0  0  0  0
 15 38  1  0  0  0  0
 15 39  1  0  0  0  0
 16 17  1  0  0  0  0
 16 18  1  0  0  0  0
 16 40  1  0  0  0  0
 17 41  1  0  0  0  0
 17 42  1  0  0  0  0
 17 43  1  0  0  0  0
 18 44  1  0  0  0  0
 18 45  1  0  0  0  0
 18 46  1  0  0  0  0
 19 20  1  0  0  0  0
 19 47  1  0  0  0  0
 19 48  1  0  0  0  0
 20 21  1  0  0  0  0
 20 49  1  0  0  0  0
 20 50  1  0  0  0  0
 22 23  2  0  0  0  0
M  END
> <s_m_source_file>
AV-unprocessed.smi

> <i_m_source_file_index>
678

> <i_lp_mmshare_version>
43012

> <i_f3d_flags>
0

> <s_epik_input>
W0NIM11jMVtjSF1bY0hdW2NIXW4oYzE9TylbQ0gyXUMoPU8pW05IXVtDSDJdW0NAQEhdMltDSDJdTihbQ0gyXVtDSDJdTzIpW0NIMl1bQ0hdKFtDSDNdKVtDSDNd

> <s_epik_cmdline>
J2VwaWtfcHl0aG9uJywgJy1waCcsICc3LjAnLCAnLXRuJywgJzgnLCAnLW1hJywgJzIwMCcsICctbWV0YWxfYmluZGluZycsICctaW1hZScsICc8aW5maWxlLm1hZT4nLCAnLW9tYWUnLCAnPG91dGZpbGUubWFlPic=

> <r_lp_tautomer_probability>
1

> <r_epik_Ionization_Penalty>
1.11669

> <r_epik_Ionization_Penalty_Charging>
7.32459e-07

> <r_epik_Ionization_Penalty_Neutral>
1.11669

> <r_epik_State_Penalty>
1.17516

> <r_epik_Charging_Adjusted_Penalty>
1.17516

> <i_epik_Tot_Q>
0

> <i_epik_Tot_abs_Q>
0

> <r_epik_Metal_State_Penalty>
1.17513

> <b_epik_Metal_Only>
0

> <s_lp_Force_Field>
OPLS_2005

> <r_lp_Energy>
33.1266

> <b_lp_Chiralities_Consistent>
1

> <s_lp_Variant>
AV-unprocessed.smi:678-6

> <Gold.Version>
5.8.1

> <Gold.Id.Protein>
6NUR|6NUR_protein|mol2

> <Gold.PLP.Fitness>
41.5088

> <Gold.PLP.PLP>
-37.7098

> <Gold.PLP.part.hbond>
-1.0000

> <Gold.PLP.part.metal>
0.0000

> <Gold.PLP.part.buried>
-4.9423

> <Gold.PLP.part.nonpolar>
-31.3766

> <Gold.PLP.part.repulsive>
0.1557

> <Gold.PLP.ligand.clash>
0.0000

> <Gold.PLP.ligand.torsion>
1.0757

> <Gold.PLP.Chemscore.Hbond>
0.9600

> <Gold.PLP.Chemscore.CHOScore>
0.9975

> <Gold.PLP.Chemscore.Metal>
0.0000

> <Gold.Chemscore.Hbonds>
donor molecule, donor type, donor heavy atom, donor atom, acceptor molecule, acceptor atom, score
      P1  H  7997  8008       L1    23  0.94
      L1  C     5    29       P1  8028  0.52

> <Gold.PLP.Chemscore.Internal.Correction>
0.0779

> <Gold.Rescore>
     Score         DG    S(hbond)    S(metal)    S(lipo)     H(rot)  DE(clash)    DE(int)     intcor
     11.21     -15.09       0.91        0.00      95.98       1.82       0.05       3.83       ----

> <Gold.Chemscore.Fitness>
11.2099

> <Gold.Chemscore.DG>
-15.0932

> <Gold.Chemscore.ZeroCoef>
-5.4800

> <Gold.Chemscore.Hbond>
0.9143

> <Gold.Chemscore.Metal>
0.0000

> <Gold.Chemscore.Lipo>
95.9794

> <Gold.Chemscore.Internal_Hbond>
0.0000

> <Gold.Chemscore.DEClash>
0.0487

> <Gold.Chemscore.DEInternal>
3.8346

> <Gold.Chemscore.Rot>
1.8243

> <Gold.Chemscore.Internal.Correction>
   9.000000E+99

> <Gold.Chemscore.Hbonds>
donor molecule, donor type, donor heavy atom, donor atom, acceptor molecule, acceptor atom, score
      P1  H  7997  8008       L1    23  0.88

> <Gold.Chemscore.Hbond.Weighted>
-3.0539

> <Gold.Chemscore.Metal.Weighted>
-0.0000

> <Gold.Chemscore.Lipo.Weighted>
-11.2296

> <Gold.Chemscore.Internal_Hbond.Weighted>
0.0000

> <Gold.Chemscore.DEClash.Weighted>
0.0487

> <Gold.Chemscore.DEInternal.Weighted>
3.8346

> <Gold.Chemscore.Rot.Weighted>
4.6703

> <Gold.Chemscore.Internal.Correction.Weighted>
   9.000000E+99

> <Gold.Protein.RotatedTorsions>
[ 6907 6896 6895 6894 ] final   70.93 input  -60.11 | X-H torsion
[ 7974 7965 7964 7962 ] final    0.03 input  175.53 | X-H torsion
[ 8008 7997 7996 7995 ] final  -78.67 input   59.86 | X-H torsion
[ 10167 10162 10161 10158 ] final -155.13 input  -65.29 | X-H torsion
[ 10718 10713 10712 10709 ] final   15.43 input   66.30 | X-H torsion
[ 10763 10752 10751 10750 ] final   43.91 input  -60.55 | X-H torsion
[ 11005 11000 10999 10996 ] final  -17.93 input  -57.11 | X-H torsion

> <Gold.Protein.ActiveResidues>
 VAL166  LYS551  ARG553  GLY616  TRP617  ASP618  TYR619  PRO620  LYS621  CYS622 
 ASP623  PHE694  ASN695  SER759  ASP760  ASP761  ALA762  ILE779  LEU786  VAL792 
 PHE793  MET794  SER795  GLU796  ALA797  LYS798  CYS799  TRP800  GLU811  SER814 

> <Gold.Protein.RotatedAtoms>
  152.4780  134.4795  159.9660 H   0  0  0  0  0  0  0  0  0  0  0  0  # atno 6907 bound_to 6896
  151.4807  133.3541  159.2845 H   0  0  0  0  0  0  0  0  0  0  0  0  # atno 6908 bound_to 6896
  150.8831  134.8251  159.7301 H   0  0  0  0  0  0  0  0  0  0  0  0  # atno 6909 bound_to 6896
  146.2431  140.1199  142.8341 H   0  0  0  0  0  0  0  0  0  0  0  0  # atno 7974 bound_to 7965
  154.5711  140.0690  156.8965 H   0  0  0  0  0  0  0  0  0  0  0  0  # atno 8008 bound_to 7997
  155.2633  140.3360  155.4253 H   0  0  0  0  0  0  0  0  0  0  0  0  # atno 8009 bound_to 7997
  156.2119  140.1762  156.7662 H   0  0  0  0  0  0  0  0  0  0  0  0  # atno 8010 bound_to 7997
  139.6956  143.9348  152.2405 H   0  0  0  0  0  0  0  0  0  0  0  0  # atno 10167 bound_to 10162
  157.0534  130.6279  149.5772 H   0  0  0  0  0  0  0  0  0  0  0  0  # atno 10718 bound_to 10713
  152.9851  135.6087  154.3188 H   0  0  0  0  0  0  0  0  0  0  0  0  # atno 10763 bound_to 10752
  154.2899  135.2775  155.2661 H   0  0  0  0  0  0  0  0  0  0  0  0  # atno 10764 bound_to 10752
  154.4961  135.5879  153.6552 H   0  0  0  0  0  0  0  0  0  0  0  0  # atno 10765 bound_to 10752
  140.8217  133.8063  155.9666 H   0  0  0  0  0  0  0  0  0  0  0  0  # atno 11005 bound_to 11000
  145.0415  140.8949  143.5049 LP  0  0  0  0  0  0  0  0  0  0  0  0  # atno 17320 bound_to 7965
  145.1280  139.2650  143.5554 LP  0  0  0  0  0  0  0  0  0  0  0  0  # atno 17321 bound_to 7965
  139.9176  144.6819  150.8496 LP  0  0  0  0  0  0  0  0  0  0  0  0  # atno 17342 bound_to 10162
  140.7695  143.3398  151.2232 LP  0  0  0  0  0  0  0  0  0  0  0  0  # atno 17343 bound_to 10162
  156.0000  130.5077  150.7628 LP  0  0  0  0  0  0  0  0  0  0  0  0  # atno 17370 bound_to 10713
  157.5012  131.0918  151.0312 LP  0  0  0  0  0  0  0  0  0  0  0  0  # atno 17371 bound_to 10713
  140.9092  134.2282  157.4996 LP  0  0  0  0  0  0  0  0  0  0  0  0  # atno 17394 bound_to 11000
  139.8708  134.9742  156.4838 LP  0  0  0  0  0  0  0  0  0  0  0  0  # atno 17395 bound_to 11000

$$$$
