AV-unprocessed.smi:1782|AV-procd|sdf|7191|dock10
  -GOLD-   22720 8433D 1   1.00000     0.00000
 Structure written by MMmdl.
 42 44  0  0  0  0  0  0  0  0  2 V2000
  152.9893  139.9182  157.0385 O   0  0  0  0  0  0  0  0  0  0  0  0
  152.0856  139.4245  157.7141 C   0  0  0  0  0  0  0  0  0  0  0  0
  152.3737  138.2673  158.6808 C   0  0  0  0  0  0  0  0  0  0  0  0
  153.1804  138.6795  159.8425 N   0  0  0  0  0  0  0  0  0  0  0  0
  153.4482  140.0534  159.9798 C   0  0  0  0  0  0  0  0  0  0  0  0
  154.1785  140.5312  160.9962 C   0  0  0  0  0  0  0  0  0  0  0  0
  154.6973  139.5949  161.9633 C   0  0  0  0  0  0  0  0  0  0  0  0
  154.4561  138.2674  161.8584 C   0  0  0  0  0  0  0  0  0  0  0  0
  155.0078  137.2615  162.8661 C   0  0  0  0  0  0  0  0  0  0  0  0
  155.7499  137.8810  163.7846 F   0  0  0  0  0  0  0  0  0  0  0  0
  154.0147  136.6277  163.4911 F   0  0  0  0  0  0  0  0  0  0  0  0
  155.7718  136.3397  162.2779 F   0  0  0  0  0  0  0  0  0  0  0  0
  153.6462  137.7517  160.7357 C   0  0  0  0  0  0  0  0  0  0  0  0
  153.3966  136.5525  160.5979 O   0  0  0  0  0  0  0  0  0  0  0  0
  150.8171  139.8577  157.6683 N   0  0  0  0  0  0  0  0  0  0  0  0
  150.3382  140.9247  156.7967 C   0  0  1  0  0  0  0  0  0  0  0  0
  150.6493  140.7138  155.3115 C   0  0  0  0  0  0  0  0  0  0  0  0
  149.4909  141.4017  154.5697 C   0  0  0  0  0  0  0  0  0  0  0  0
  148.5043  141.8069  155.5980 N   0  3  1  0  0  0  0  0  0  0  0  0
  147.0956  141.7101  155.1613 C   0  0  0  0  0  0  0  0  0  0  0  0
  146.8721  140.6913  154.0695 C   0  0  0  0  0  0  0  0  0  0  0  0
  146.8707  142.1686  153.7405 C   0  0  0  0  0  0  0  0  0  0  0  0
  148.8162  141.0280  156.8088 C   0  0  0  0  0  0  0  0  0  0  0  0
  151.4185  137.8485  159.0003 H   0  0  0  0  0  0  0  0  0  0  0  0
  152.8762  137.4570  158.1488 H   0  0  0  0  0  0  0  0  0  0  0  0
  153.0305  140.6864  159.2102 H   0  0  0  0  0  0  0  0  0  0  0  0
  154.3778  141.5889  161.0861 H   0  0  0  0  0  0  0  0  0  0  0  0
  155.2919  139.9776  162.7792 H   0  0  0  0  0  0  0  0  0  0  0  0
  150.1373  139.4037  158.2617 H   0  0  0  0  0  0  0  0  0  0  0  0
  150.7555  141.8801  157.1223 H   0  0  0  0  0  0  0  0  0  0  0  0
  151.6221  141.1205  155.0334 H   0  0  0  0  0  0  0  0  0  0  0  0
  150.6556  139.6497  155.0696 H   0  0  0  0  0  0  0  0  0  0  0  0
  149.8286  142.2830  154.0235 H   0  0  0  0  0  0  0  0  0  0  0  0
  149.0480  140.7135  153.8479 H   0  0  0  0  0  0  0  0  0  0  0  0
  146.3368  141.8773  155.9239 H   0  0  0  0  0  0  0  0  0  0  0  0
  147.7229  140.1014  153.7330 H   0  0  0  0  0  0  0  0  0  0  0  0
  145.9137  140.1759  154.0520 H   0  0  0  0  0  0  0  0  0  0  0  0
  145.9112  142.6256  153.5062 H   0  0  0  0  0  0  0  0  0  0  0  0
  147.7205  142.5606  153.1843 H   0  0  0  0  0  0  0  0  0  0  0  0
  148.3631  140.0370  156.7364 H   0  0  0  0  0  0  0  0  0  0  0  0
  148.4353  141.5139  157.7077 H   0  0  0  0  0  0  0  0  0  0  0  0
  148.6969  142.7735  155.8191 H   0  0  0  0  0  0  0  0  0  0  0  0
  1  2  2  0  0  0  0
  2  3  1  0  0  0  0
  2 15  1  0  0  0  0
  3  4  1  0  0  0  0
  3 24  1  0  0  0  0
  3 25  1  0  0  0  0
  4 13  1  0  0  0  0
  4  5  1  0  0  0  0
  5  6  2  0  0  0  0
  5 26  1  0  0  0  0
  6  7  1  0  0  0  0
  6 27  1  0  0  0  0
  7  8  2  0  0  0  0
  7 28  1  0  0  0  0
  8  9  1  0  0  0  0
  8 13  1  0  0  0  0
  9 10  1  0  0  0  0
  9 11  1  0  0  0  0
  9 12  1  0  0  0  0
 13 14  2  0  0  0  0
 15 16  1  0  0  0  0
 15 29  1  0  0  0  0
 16 23  1  0  0  0  0
 16 17  1  0  0  0  0
 16 30  1  0  0  0  0
 17 18  1  0  0  0  0
 17 31  1  0  0  0  0
 17 32  1  0  0  0  0
 18 19  1  0  0  0  0
 18 33  1  0  0  0  0
 18 34  1  0  0  0  0
 19 20  1  0  0  0  0
 19 23  1  0  0  0  0
 19 42  1  0  0  0  0
 20 22  1  0  0  0  0
 20 21  1  0  0  0  0
 20 35  1  0  0  0  0
 21 22  1  0  0  0  0
 21 36  1  0  0  0  0
 21 37  1  0  0  0  0
 22 38  1  0  0  0  0
 22 39  1  0  0  0  0
 23 40  1  0  0  0  0
 23 41  1  0  0  0  0
M  CHG  1  19   1
M  END
> <s_m_source_file>
AV-unprocessed.smi

> <i_m_source_file_index>
1782

> <i_lp_mmshare_version>
43012

> <i_f3d_flags>
0

> <s_epik_input>
W0NIMl0xW0NIMl1bQ0hdMU4oW0NIMl0yKVtDSDJdW0NIMl1bQ0BIXTJbTkhdQyg9TylbQ0gyXW4zW2NIXVtjSF1bY0hdYyhDKEYpKEYpRiljMz1P

> <s_epik_cmdline>
J2VwaWtfcHl0aG9uJywgJy1waCcsICc3LjAnLCAnLXRuJywgJzgnLCAnLW1hJywgJzIwMCcsICctbWV0YWxfYmluZGluZycsICctaW1hZScsICc8aW5maWxlLm1hZT4nLCAnLW9tYWUnLCAnPG91dGZpbGUubWFlPic=

> <r_lp_tautomer_probability>
1

> <r_epik_Ionization_Penalty>
0.00106789

> <r_epik_Ionization_Penalty_Charging>
0.00106781

> <r_epik_Ionization_Penalty_Neutral>
8.2288e-08

> <r_epik_State_Penalty>
0.000699156

> <r_epik_Charging_Adjusted_Penalty>
0.00176697

> <i_epik_Tot_Q>
1

> <i_epik_Tot_abs_Q>
1

> <r_epik_Metal_State_Penalty>
-0

> <b_epik_Metal_Only>
0

> <s_lp_Force_Field>
OPLS_2005

> <r_lp_Energy>
45.6714

> <b_lp_Chiralities_Consistent>
1

> <s_lp_Variant>
AV-unprocessed.smi:1782-4

> <Gold.Version>
5.8.1

> <Gold.Id.Protein>
6NUR|6NUR_protein|mol2

> <Gold.PLP.Fitness>
48.6027

> <Gold.PLP.PLP>
-39.1882

> <Gold.PLP.part.hbond>
-3.0000

> <Gold.PLP.part.metal>
0.0000

> <Gold.PLP.part.buried>
-3.0737

> <Gold.PLP.part.nonpolar>
-33.7362

> <Gold.PLP.part.repulsive>
0.1684

> <Gold.PLP.ligand.clash>
2.4932

> <Gold.PLP.ligand.torsion>
0.8417

> <Gold.PLP.Chemscore.Hbond>
4.0000

> <Gold.PLP.Chemscore.CHOScore>
0.0000

> <Gold.PLP.Chemscore.Metal>
0.0000

> <Gold.Chemscore.Hbonds>
donor molecule, donor type, donor heavy atom, donor atom, acceptor molecule, acceptor atom, score
      L1  H    19    42       P1  8028  2.00
      P1  H  6896  6907       L1    14  0.86
      P1  H  7997  8009       L1     1  0.83

> <Gold.PLP.Chemscore.Internal.Correction>
1.5912

> <Gold.Rescore>
     Score         DG    S(hbond)    S(metal)    S(lipo)     H(rot)  DE(clash)    DE(int)     intcor
     16.14     -20.06       2.99        0.00      78.83       1.81       0.00       3.92       ----

> <Gold.Chemscore.Fitness>
16.1411

> <Gold.Chemscore.DG>
-20.0601

> <Gold.Chemscore.ZeroCoef>
-5.4800

> <Gold.Chemscore.Hbond>
2.9911

> <Gold.Chemscore.Metal>
0.0000

> <Gold.Chemscore.Lipo>
78.8338

> <Gold.Chemscore.Internal_Hbond>
0.0000

> <Gold.Chemscore.DEClash>
0.0000

> <Gold.Chemscore.DEInternal>
3.9190

> <Gold.Chemscore.Rot>
1.8101

> <Gold.Chemscore.Internal.Correction>
   9.000000E+99

> <Gold.Chemscore.Hbonds>
donor molecule, donor type, donor heavy atom, donor atom, acceptor molecule, acceptor atom, score
      L1  H    19    42       P1  8028  0.98
      P1  H  6896  6907       L1    14  0.84
      P1  H  7997  8009       L1     1  0.80

> <Gold.Chemscore.Hbond.Weighted>
-9.9903

> <Gold.Chemscore.Metal.Weighted>
-0.0000

> <Gold.Chemscore.Lipo.Weighted>
-9.2236

> <Gold.Chemscore.Internal_Hbond.Weighted>
0.0000

> <Gold.Chemscore.DEClash.Weighted>
0.0000

> <Gold.Chemscore.DEInternal.Weighted>
3.9190

> <Gold.Chemscore.Rot.Weighted>
4.6338

> <Gold.Chemscore.Internal.Correction.Weighted>
   9.000000E+99

> <Gold.Protein.RotatedTorsions>
[ 6907 6896 6895 6894 ] final   28.79 input  -60.11 | X-H torsion
[ 7974 7965 7964 7962 ] final -132.78 input  175.53 | X-H torsion
[ 8008 7997 7996 7995 ] final -172.89 input   59.86 | X-H torsion
[ 10167 10162 10161 10158 ] final  -57.75 input  -65.29 | X-H torsion
[ 10718 10713 10712 10709 ] final  -35.31 input   66.30 | X-H torsion
[ 10763 10752 10751 10750 ] final -143.68 input  -60.55 | X-H torsion
[ 11005 11000 10999 10996 ] final -169.24 input  -57.11 | X-H torsion

> <Gold.Protein.ActiveResidues>
 VAL166  LYS551  ARG553  GLY616  TRP617  ASP618  TYR619  PRO620  LYS621  CYS622 
 ASP623  PHE694  ASN695  SER759  ASP760  ASP761  ALA762  ILE779  LEU786  VAL792 
 PHE793  MET794  SER795  GLU796  ALA797  LYS798  CYS799  TRP800  GLU811  SER814 

> <Gold.Protein.RotatedAtoms>
  152.0222  134.9816  160.0570 H   0  0  0  0  0  0  0  0  0  0  0  0  # atno 6907 bound_to 6896
  152.1326  133.4412  159.4736 H   0  0  0  0  0  0  0  0  0  0  0  0  # atno 6908 bound_to 6896
  150.6857  134.2320  159.4481 H   0  0  0  0  0  0  0  0  0  0  0  0  # atno 6909 bound_to 6896
  144.9254  140.7064  143.4939 H   0  0  0  0  0  0  0  0  0  0  0  0  # atno 7974 bound_to 7965
  155.9504  140.1125  157.0981 H   0  0  0  0  0  0  0  0  0  0  0  0  # atno 8008 bound_to 7997
  154.4108  140.1201  156.5111 H   0  0  0  0  0  0  0  0  0  0  0  0  # atno 8009 bound_to 7997
  155.6849  140.3473  155.4872 H   0  0  0  0  0  0  0  0  0  0  0  0  # atno 8010 bound_to 7997
  140.6239  143.2430  151.5412 H   0  0  0  0  0  0  0  0  0  0  0  0  # atno 10167 bound_to 10162
  156.3401  130.4292  149.7795 H   0  0  0  0  0  0  0  0  0  0  0  0  # atno 10718 bound_to 10713
  154.8460  135.3461  154.6225 H   0  0  0  0  0  0  0  0  0  0  0  0  # atno 10763 bound_to 10752
  153.6834  135.6979  153.5116 H   0  0  0  0  0  0  0  0  0  0  0  0  # atno 10764 bound_to 10752
  153.2650  135.4311  155.0888 H   0  0  0  0  0  0  0  0  0  0  0  0  # atno 10765 bound_to 10752
  140.5329  134.5598  157.5079 H   0  0  0  0  0  0  0  0  0  0  0  0  # atno 11005 bound_to 11000
  145.3228  139.1783  143.4578 LP  0  0  0  0  0  0  0  0  0  0  0  0  # atno 17320 bound_to 7965
  146.3223  140.3248  142.8636 LP  0  0  0  0  0  0  0  0  0  0  0  0  # atno 17321 bound_to 7965
  139.5462  144.2514  152.1447 LP  0  0  0  0  0  0  0  0  0  0  0  0  # atno 17342 bound_to 10162
  140.1740  144.4908  150.6564 LP  0  0  0  0  0  0  0  0  0  0  0  0  # atno 17343 bound_to 10162
  156.5035  130.8139  151.3141 LP  0  0  0  0  0  0  0  0  0  0  0  0  # atno 17370 bound_to 10713
  157.7445  130.9937  150.2681 LP  0  0  0  0  0  0  0  0  0  0  0  0  # atno 17371 bound_to 10713
  139.9544  134.7560  156.0374 LP  0  0  0  0  0  0  0  0  0  0  0  0  # atno 17394 bound_to 11000
  141.1271  133.6596  156.3365 LP  0  0  0  0  0  0  0  0  0  0  0  0  # atno 17395 bound_to 11000

$$$$
