AV-unprocessed.smi:2711|AV-procd|sdf|10472|dock3
  -GOLD-   2272014513D 1   1.00000     0.00000
 Structure written by MMmdl.
 34 35  0  0  0  0  0  0  0  0  1 V2000
  146.9364  138.3064  152.1937 C   0  0  0  0  0  0  0  0  0  0  0  0
  147.2546  139.5532  152.9473 C   0  0  0  0  0  0  0  0  0  0  0  0
  146.6029  140.7612  152.8839 C   0  0  0  0  0  0  0  0  0  0  0  0
  147.1456  141.7416  153.7175 N   0  0  0  0  0  0  0  0  0  0  0  0
  148.1959  141.2864  154.4087 C   0  0  0  0  0  0  0  0  0  0  0  0
  148.9452  142.0621  155.3321 N   0  0  0  0  0  0  0  0  0  0  0  0
  149.9980  141.6805  156.0761 C   0  0  0  0  0  0  0  0  0  0  0  0
  150.4981  140.5552  156.0787 O   0  0  0  0  0  0  0  0  0  0  0  0
  150.4526  142.6925  156.8305 N   0  0  0  0  0  0  0  0  0  0  0  0
  151.6013  142.6183  157.7320 C   0  0  0  0  0  0  0  0  0  0  0  0
  151.6363  143.7532  158.7729 C   0  0  0  0  0  0  0  0  0  0  0  0
  151.3310  144.9007  158.4426 O   0  0  0  0  0  0  0  0  0  0  0  0
  151.9918  143.4454  160.0376 N   0  0  0  0  0  0  0  0  0  0  0  0
  152.0810  144.3860  161.1547 C   0  0  0  0  0  0  0  0  0  0  0  0
  152.3367  143.5325  162.3978 C   0  0  0  0  0  0  0  0  0  0  0  0
  152.9802  142.2637  161.8563 C   0  0  0  0  0  0  0  0  0  0  0  0
  152.3683  142.0992  160.4652 C   0  0  0  0  0  0  0  0  0  0  0  0
  148.5874  139.6072  154.0731 S   0  0  0  0  0  0  0  0  0  0  0  0
  146.2541  138.5106  151.3680 H   0  0  0  0  0  0  0  0  0  0  0  0
  146.4660  137.5705  152.8461 H   0  0  0  0  0  0  0  0  0  0  0  0
  147.8411  137.8615  151.7790 H   0  0  0  0  0  0  0  0  0  0  0  0
  145.7469  141.0109  152.2744 H   0  0  0  0  0  0  0  0  0  0  0  0
  148.6487  143.0215  155.4327 H   0  0  0  0  0  0  0  0  0  0  0  0
  149.9863  143.5850  156.7624 H   0  0  0  0  0  0  0  0  0  0  0  0
  151.5578  141.6631  158.2554 H   0  0  0  0  0  0  0  0  0  0  0  0
  152.5226  142.6176  157.1477 H   0  0  0  0  0  0  0  0  0  0  0  0
  152.9144  145.0683  160.9824 H   0  0  0  0  0  0  0  0  0  0  0  0
  151.1728  144.9779  161.2740 H   0  0  0  0  0  0  0  0  0  0  0  0
  152.9569  144.0383  163.1383 H   0  0  0  0  0  0  0  0  0  0  0  0
  151.3862  143.2846  162.8721 H   0  0  0  0  0  0  0  0  0  0  0  0
  154.0573  142.4118  161.7659 H   0  0  0  0  0  0  0  0  0  0  0  0
  152.8147  141.3970  162.4970 H   0  0  0  0  0  0  0  0  0  0  0  0
  151.4715  141.4797  160.5106 H   0  0  0  0  0  0  0  0  0  0  0  0
  153.0718  141.6277  159.7770 H   0  0  0  0  0  0  0  0  0  0  0  0
  1  2  1  0  0  0  0
  1 19  1  0  0  0  0
  1 20  1  0  0  0  0
  1 21  1  0  0  0  0
  2 18  1  0  0  0  0
  2  3  2  0  0  0  0
  3  4  1  0  0  0  0
  3 22  1  0  0  0  0
  4  5  2  0  0  0  0
  5  6  1  0  0  0  0
  5 18  1  0  0  0  0
  6  7  1  0  0  0  0
  6 23  1  0  0  0  0
  7  8  2  0  0  0  0
  7  9  1  0  0  0  0
  9 10  1  0  0  0  0
  9 24  1  0  0  0  0
 10 11  1  0  0  0  0
 10 25  1  0  0  0  0
 10 26  1  0  0  0  0
 11 12  2  0  0  0  0
 11 13  1  0  0  0  0
 13 17  1  0  0  0  0
 13 14  1  0  0  0  0
 14 15  1  0  0  0  0
 14 27  1  0  0  0  0
 14 28  1  0  0  0  0
 15 16  1  0  0  0  0
 15 29  1  0  0  0  0
 15 30  1  0  0  0  0
 16 17  1  0  0  0  0
 16 31  1  0  0  0  0
 16 32  1  0  0  0  0
 17 33  1  0  0  0  0
 17 34  1  0  0  0  0
M  END
> <s_m_source_file>
AV-unprocessed.smi

> <i_m_source_file_index>
2711

> <i_lp_mmshare_version>
43012

> <i_f3d_flags>
0

> <s_epik_input>
W0NIM11jMVtjSF1uYyhzMSlbTkhdQyg9TylbTkhdW0NIMl1DKD1PKU4yW0NIMl1bQ0gyXVtDSDJdW0NIMl0y

> <s_epik_cmdline>
J2VwaWtfcHl0aG9uJywgJy1waCcsICc3LjAnLCAnLXRuJywgJzgnLCAnLW1hJywgJzIwMCcsICctbWV0YWxfYmluZGluZycsICctaW1hZScsICc8aW5maWxlLm1hZT4nLCAnLW9tYWUnLCAnPG91dGZpbGUubWFlPic=

> <r_lp_tautomer_probability>
1

> <r_epik_Ionization_Penalty>
0.000145478

> <r_epik_Ionization_Penalty_Charging>
0

> <r_epik_Ionization_Penalty_Neutral>
0.000145478

> <r_epik_State_Penalty>
-0

> <r_epik_Charging_Adjusted_Penalty>
0

> <i_epik_Tot_Q>
0

> <i_epik_Tot_abs_Q>
0

> <r_epik_Metal_State_Penalty>
0.0331427

> <b_epik_Metal_Only>
0

> <s_lp_Force_Field>
OPLS_2005

> <r_lp_Energy>
22.8553

> <b_lp_Chiralities_Consistent>
1

> <s_lp_Variant>
AV-unprocessed.smi:2711-1

> <Gold.Version>
5.8.1

> <Gold.Id.Protein>
6NUR|6NUR_protein|mol2

> <Gold.PLP.Fitness>
44.4887

> <Gold.PLP.PLP>
-37.6451

> <Gold.PLP.part.hbond>
-2.0000

> <Gold.PLP.part.metal>
0.0000

> <Gold.PLP.part.buried>
1.1470

> <Gold.PLP.part.nonpolar>
-37.2490

> <Gold.PLP.part.repulsive>
0.5335

> <Gold.PLP.ligand.clash>
0.0000

> <Gold.PLP.ligand.torsion>
0.3878

> <Gold.PLP.Chemscore.Hbond>
1.9120

> <Gold.PLP.Chemscore.CHOScore>
0.6270

> <Gold.PLP.Chemscore.Metal>
0.0000

> <Gold.Chemscore.Hbonds>
donor molecule, donor type, donor heavy atom, donor atom, acceptor molecule, acceptor atom, score
      L1  H     6    23       P1  8028  1.00
      L1  H     9    24       P1  8028  0.93
      L1  C     3    22       P1 10175  0.52

> <Gold.PLP.Chemscore.Internal.Correction>
0.0021

> <Gold.Rescore>
     Score         DG    S(hbond)    S(metal)    S(lipo)     H(rot)  DE(clash)    DE(int)     intcor
     15.05     -18.55       1.92        0.00      85.76       1.32       1.89       1.60       ----

> <Gold.Chemscore.Fitness>
15.0526

> <Gold.Chemscore.DG>
-18.5498

> <Gold.Chemscore.ZeroCoef>
-5.4800

> <Gold.Chemscore.Hbond>
1.9222

> <Gold.Chemscore.Metal>
0.0000

> <Gold.Chemscore.Lipo>
85.7601

> <Gold.Chemscore.Internal_Hbond>
0.0000

> <Gold.Chemscore.DEClash>
1.8937

> <Gold.Chemscore.DEInternal>
1.6036

> <Gold.Chemscore.Rot>
1.3219

> <Gold.Chemscore.Internal.Correction>
   9.000000E+99

> <Gold.Chemscore.Hbonds>
donor molecule, donor type, donor heavy atom, donor atom, acceptor molecule, acceptor atom, score
      L1  H     6    23       P1  8028  0.99
      L1  H     9    24       P1  8028  0.89

> <Gold.Chemscore.Hbond.Weighted>
-6.4200

> <Gold.Chemscore.Metal.Weighted>
-0.0000

> <Gold.Chemscore.Lipo.Weighted>
-10.0339

> <Gold.Chemscore.Internal_Hbond.Weighted>
0.0000

> <Gold.Chemscore.DEClash.Weighted>
1.8937

> <Gold.Chemscore.DEInternal.Weighted>
1.6036

> <Gold.Chemscore.Rot.Weighted>
3.3841

> <Gold.Chemscore.Internal.Correction.Weighted>
   9.000000E+99

> <Gold.Protein.RotatedTorsions>
[ 6907 6896 6895 6894 ] final -159.79 input  -60.11 | X-H torsion
[ 7974 7965 7964 7962 ] final  -10.23 input  175.53 | X-H torsion
[ 8008 7997 7996 7995 ] final   82.61 input   59.86 | X-H torsion
[ 10167 10162 10161 10158 ] final  -41.75 input  -65.29 | X-H torsion
[ 10718 10713 10712 10709 ] final  -48.73 input   66.30 | X-H torsion
[ 10763 10752 10751 10750 ] final -111.38 input  -60.55 | X-H torsion
[ 11005 11000 10999 10996 ] final   14.61 input  -57.11 | X-H torsion

> <Gold.Protein.ActiveResidues>
 VAL166  LYS551  ARG553  GLY616  TRP617  ASP618  TYR619  PRO620  LYS621  CYS622 
 ASP623  PHE694  ASN695  SER759  ASP760  ASP761  ALA762  ILE779  LEU786  VAL792 
 PHE793  MET794  SER795  GLU796  ALA797  LYS798  CYS799  TRP800  GLU811  SER814 

> <Gold.Protein.RotatedAtoms>
  151.3390  133.3970  159.2669 H   0  0  0  0  0  0  0  0  0  0  0  0  # atno 6907 bound_to 6896
  150.9893  134.9232  159.7900 H   0  0  0  0  0  0  0  0  0  0  0  0  # atno 6908 bound_to 6896
  152.5242  134.3355  159.9250 H   0  0  0  0  0  0  0  0  0  0  0  0  # atno 6909 bound_to 6896
  146.2227  140.2733  142.8358 H   0  0  0  0  0  0  0  0  0  0  0  0  # atno 7974 bound_to 7965
  155.9130  140.3426  155.6113 H   0  0  0  0  0  0  0  0  0  0  0  0  # atno 8008 bound_to 7997
  155.7365  140.0802  157.2284 H   0  0  0  0  0  0  0  0  0  0  0  0  # atno 8009 bound_to 7997
  154.4058  140.1578  156.2555 H   0  0  0  0  0  0  0  0  0  0  0  0  # atno 8010 bound_to 7997
  140.6992  143.3076  151.3112 H   0  0  0  0  0  0  0  0  0  0  0  0  # atno 10167 bound_to 10162
  156.1960  130.4154  149.9305 H   0  0  0  0  0  0  0  0  0  0  0  0  # atno 10718 bound_to 10713
  154.8297  135.4529  154.1031 H   0  0  0  0  0  0  0  0  0  0  0  0  # atno 10763 bound_to 10752
  153.2314  135.6906  153.7892 H   0  0  0  0  0  0  0  0  0  0  0  0  # atno 10764 bound_to 10752
  153.7273  135.3332  155.3255 H   0  0  0  0  0  0  0  0  0  0  0  0  # atno 10765 bound_to 10752
  140.4675  134.1064  155.7727 H   0  0  0  0  0  0  0  0  0  0  0  0  # atno 11005 bound_to 11000
  144.9252  140.7913  143.5724 LP  0  0  0  0  0  0  0  0  0  0  0  0  # atno 17320 bound_to 7965
  145.2672  139.1969  143.4860 LP  0  0  0  0  0  0  0  0  0  0  0  0  # atno 17321 bound_to 7965
  139.6488  144.0401  152.2611 LP  0  0  0  0  0  0  0  0  0  0  0  0  # atno 17342 bound_to 10162
  139.9931  144.6347  150.7796 LP  0  0  0  0  0  0  0  0  0  0  0  0  # atno 17343 bound_to 10162
  156.7030  130.8940  151.3601 LP  0  0  0  0  0  0  0  0  0  0  0  0  # atno 17370 bound_to 10713
  157.6958  130.9280  150.0640 LP  0  0  0  0  0  0  0  0  0  0  0  0  # atno 17371 bound_to 10713
  141.1592  133.8824  157.1894 LP  0  0  0  0  0  0  0  0  0  0  0  0  # atno 17394 bound_to 11000
  139.9906  135.0066  156.9965 LP  0  0  0  0  0  0  0  0  0  0  0  0  # atno 17395 bound_to 11000

$$$$
