AV-unprocessed.smi:750|AV-procd|sdf|3593|dock10
  -GOLD-   22720 0583D 1   1.00000     0.00000
 Structure written by MMmdl.
 22 23  0  0  0  0  0  0  0  0  2 V2000
  151.6522  140.8126  156.2208 C   0  0  0  0  0  0  0  0  0  0  0  0
  152.0227  139.9077  157.4159 C   0  0  2  0  0  0  0  0  0  0  0  0
  152.4444  140.7335  158.6466 C   0  0  0  0  0  0  0  0  0  0  0  0
  153.6669  140.5162  159.3297 C   0  0  0  0  0  0  0  0  0  0  0  0
  153.9841  141.3091  160.4492 C   0  0  0  0  0  0  0  0  0  0  0  0
  153.0684  142.2986  160.8517 C   0  0  0  0  0  0  0  0  0  0  0  0
  151.8996  142.5245  160.2184 N   0  0  0  0  0  0  0  0  0  0  0  0
  151.6038  141.7581  159.1466 C   0  0  0  0  0  0  0  0  0  0  0  0
  153.0218  138.9400  156.9767 N   0  5  0  0  0  0  0  0  0  0  0  0
  152.5206  137.6907  157.1201 C   0  0  0  0  0  0  0  0  0  0  0  0
  153.0753  136.6235  156.8682 O   0  0  0  0  0  0  0  0  0  0  0  0
  151.2726  137.7369  157.5937 N   0  0  0  0  0  0  0  0  0  0  0  0
  150.8642  138.9872  157.7849 C   0  0  0  0  0  0  0  0  0  0  0  0
  149.7568  139.3514  158.1801 O   0  0  0  0  0  0  0  0  0  0  0  0
  150.8193  141.4773  156.4497 H   0  0  0  0  0  0  0  0  0  0  0  0
  151.3599  140.2269  155.3477 H   0  0  0  0  0  0  0  0  0  0  0  0
  152.4971  141.4360  155.9261 H   0  0  0  0  0  0  0  0  0  0  0  0
  154.3660  139.7553  159.0170 H   0  0  0  0  0  0  0  0  0  0  0  0
  154.9090  141.1604  160.9863 H   0  0  0  0  0  0  0  0  0  0  0  0
  153.2802  142.9246  161.7059 H   0  0  0  0  0  0  0  0  0  0  0  0
  150.6551  141.9717  158.6777 H   0  0  0  0  0  0  0  0  0  0  0  0
  150.7038  136.9219  157.7676 H   0  0  0  0  0  0  0  0  0  0  0  0
  1  2  1  0  0  0  0
  1 15  1  0  0  0  0
  1 16  1  0  0  0  0
  1 17  1  0  0  0  0
  2 13  1  0  0  0  0
  2  3  1  0  0  0  0
  2  9  1  0  0  0  0
  3  8  1  0  0  0  0
  3  4  2  0  0  0  0
  4  5  1  0  0  0  0
  4 18  1  0  0  0  0
  5  6  2  0  0  0  0
  5 19  1  0  0  0  0
  6  7  1  0  0  0  0
  6 20  1  0  0  0  0
  7  8  2  0  0  0  0
  8 21  1  0  0  0  0
  9 10  1  0  0  0  0
 10 11  2  0  0  0  0
 10 12  1  0  0  0  0
 12 13  1  0  0  0  0
 12 22  1  0  0  0  0
 13 14  2  0  0  0  0
M  CHG  1   9  -1
M  END
> <s_m_source_file>
AV-unprocessed.smi

> <i_m_source_file_index>
750

> <i_lp_mmshare_version>
43012

> <i_f3d_flags>
0

> <s_epik_input>
Tz1DMVtOSF1DKD1PKVtOSF1bQ0BAXTEoW0NIM10pYzJbY0hdW2NIXVtjSF1uW2NIXTI=

> <s_epik_cmdline>
J2VwaWtfcHl0aG9uJywgJy1waCcsICc3LjAnLCAnLXRuJywgJzgnLCAnLW1hJywgJzIwMCcsICctbWV0YWxfYmluZGluZycsICctaW1hZScsICc8aW5maWxlLm1hZT4nLCAnLW9tYWUnLCAnPG91dGZpbGUubWFlPic=

> <r_lp_tautomer_probability>
1

> <r_epik_Ionization_Penalty>
4.84674

> <r_epik_Ionization_Penalty_Charging>
4.8337

> <r_epik_Ionization_Penalty_Neutral>
0.0130349

> <r_epik_State_Penalty>
4.85653

> <r_epik_Charging_Adjusted_Penalty>
9.69023

> <i_epik_Tot_Q>
-1

> <i_epik_Tot_abs_Q>
1

> <r_epik_Metal_State_Penalty>
1.3191

> <b_epik_Metal_Only>
1

> <s_lp_Force_Field>
OPLS_2005

> <r_lp_Energy>
14.3278

> <b_lp_Chiralities_Consistent>
1

> <s_lp_Variant>
AV-unprocessed.smi:750-6

> <Gold.Version>
5.8.1

> <Gold.Id.Protein>
6NUR|6NUR_protein|mol2

> <Gold.PLP.Fitness>
30.8272

> <Gold.PLP.PLP>
-22.0986

> <Gold.PLP.part.hbond>
-2.3688

> <Gold.PLP.part.metal>
0.0000

> <Gold.PLP.part.buried>
-3.0153

> <Gold.PLP.part.nonpolar>
-15.7033

> <Gold.PLP.part.repulsive>
0.0686

> <Gold.PLP.ligand.clash>
0.0000

> <Gold.PLP.ligand.torsion>
0.1631

> <Gold.PLP.Chemscore.Hbond>
3.0000

> <Gold.PLP.Chemscore.CHOScore>
0.0000

> <Gold.PLP.Chemscore.Metal>
0.0000

> <Gold.Chemscore.Hbonds>
donor molecule, donor type, donor heavy atom, donor atom, acceptor molecule, acceptor atom, score
      P1  H  7997  8009       L1     9  1.90
      P1  H 10752 10764       L1    11  1.00

> <Gold.PLP.Chemscore.Internal.Correction>
0.0547

> <Gold.Rescore>
     Score         DG    S(hbond)    S(metal)    S(lipo)     H(rot)  DE(clash)    DE(int)     intcor
     14.69     -15.01       1.74        0.00      53.61       1.00       0.00       0.31       ----

> <Gold.Chemscore.Fitness>
14.6949

> <Gold.Chemscore.DG>
-15.0072

> <Gold.Chemscore.ZeroCoef>
-5.4800

> <Gold.Chemscore.Hbond>
1.7408

> <Gold.Chemscore.Metal>
0.0000

> <Gold.Chemscore.Lipo>
53.6142

> <Gold.Chemscore.Internal_Hbond>
0.0000

> <Gold.Chemscore.DEClash>
0.0000

> <Gold.Chemscore.DEInternal>
0.3123

> <Gold.Chemscore.Rot>
1.0000

> <Gold.Chemscore.Internal.Correction>
   9.000000E+99

> <Gold.Chemscore.Hbonds>
donor molecule, donor type, donor heavy atom, donor atom, acceptor molecule, acceptor atom, score
      P1  H  7997  8009       L1     9  0.22
      P1  H 10752 10764       L1    11  0.92

> <Gold.Chemscore.Hbond.Weighted>
-5.8143

> <Gold.Chemscore.Metal.Weighted>
-0.0000

> <Gold.Chemscore.Lipo.Weighted>
-6.2729

> <Gold.Chemscore.Internal_Hbond.Weighted>
0.0000

> <Gold.Chemscore.DEClash.Weighted>
0.0000

> <Gold.Chemscore.DEInternal.Weighted>
0.3123

> <Gold.Chemscore.Rot.Weighted>
2.5600

> <Gold.Chemscore.Internal.Correction.Weighted>
   9.000000E+99

> <Gold.Protein.RotatedTorsions>
[ 6907 6896 6895 6894 ] final -135.88 input  -60.11 | X-H torsion
[ 7974 7965 7964 7962 ] final -168.49 input  175.53 | X-H torsion
[ 8008 7997 7996 7995 ] final  179.47 input   59.86 | X-H torsion
[ 10167 10162 10161 10158 ] final  -73.61 input  -65.29 | X-H torsion
[ 10718 10713 10712 10709 ] final  161.96 input   66.30 | X-H torsion
[ 10763 10752 10751 10750 ] final   -1.95 input  -60.55 | X-H torsion
[ 11005 11000 10999 10996 ] final  -93.93 input  -57.11 | X-H torsion

> <Gold.Protein.ActiveResidues>
 VAL166  LYS551  ARG553  GLY616  TRP617  ASP618  TYR619  PRO620  LYS621  CYS622 
 ASP623  PHE694  ASN695  SER759  ASP760  ASP761  ALA762  ILE779  LEU786  VAL792 
 PHE793  MET794  SER795  GLU796  ALA797  LYS798  CYS799  TRP800  GLU811  SER814 

> <Gold.Protein.RotatedAtoms>
  151.0033  133.6035  159.2691 H   0  0  0  0  0  0  0  0  0  0  0  0  # atno 6907 bound_to 6896
  151.3214  135.0818  159.9317 H   0  0  0  0  0  0  0  0  0  0  0  0  # atno 6908 bound_to 6896
  152.5280  133.9679  159.7802 H   0  0  0  0  0  0  0  0  0  0  0  0  # atno 6909 bound_to 6896
  144.7202  140.2362  143.6297 H   0  0  0  0  0  0  0  0  0  0  0  0  # atno 7974 bound_to 7965
  156.0430  140.1308  157.0135 H   0  0  0  0  0  0  0  0  0  0  0  0  # atno 8008 bound_to 7997
  154.4399  140.1026  156.6335 H   0  0  0  0  0  0  0  0  0  0  0  0  # atno 8009 bound_to 7997
  155.5639  140.3465  155.4500 H   0  0  0  0  0  0  0  0  0  0  0  0  # atno 8010 bound_to 7997
  140.5096  143.2347  151.7616 H   0  0  0  0  0  0  0  0  0  0  0  0  # atno 10167 bound_to 10162
  157.1292  131.0512  151.2379 H   0  0  0  0  0  0  0  0  0  0  0  0  # atno 10718 bound_to 10713
  153.3516  135.6986  153.6784 H   0  0  0  0  0  0  0  0  0  0  0  0  # atno 10763 bound_to 10752
  153.5508  135.3554  155.2759 H   0  0  0  0  0  0  0  0  0  0  0  0  # atno 10764 bound_to 10752
  154.8654  135.4226  154.2753 H   0  0  0  0  0  0  0  0  0  0  0  0  # atno 10765 bound_to 10752
  141.1484  133.7921  157.0227 H   0  0  0  0  0  0  0  0  0  0  0  0  # atno 11005 bound_to 11000
  145.8364  139.2109  143.1853 LP  0  0  0  0  0  0  0  0  0  0  0  0  # atno 17320 bound_to 7965
  146.0386  140.8188  142.9840 LP  0  0  0  0  0  0  0  0  0  0  0  0  # atno 17321 bound_to 7965
  139.4892  144.4409  151.9765 LP  0  0  0  0  0  0  0  0  0  0  0  0  # atno 17342 bound_to 10162
  140.3501  144.3099  150.5951 LP  0  0  0  0  0  0  0  0  0  0  0  0  # atno 17343 bound_to 10162
  157.4408  130.7543  149.7067 LP  0  0  0  0  0  0  0  0  0  0  0  0  # atno 17370 bound_to 10713
  155.9811  130.4022  150.3487 LP  0  0  0  0  0  0  0  0  0  0  0  0  # atno 17371 bound_to 10713
  140.0805  134.9651  157.1616 LP  0  0  0  0  0  0  0  0  0  0  0  0  # atno 17394 bound_to 11000
  140.3583  134.2522  155.7190 LP  0  0  0  0  0  0  0  0  0  0  0  0  # atno 17395 bound_to 11000

$$$$
