AV-unprocessed.smi:1145|AV-procd|sdf|4883|dock7
  -GOLD-   22720 3453D 1   1.00000     0.00000
 Structure written by MMmdl.
 36 37  0  0  0  0  0  0  0  0  1 V2000
  145.5870  136.1652  150.8963 C   0  0  0  0  0  0  0  0  0  0  0  0
  145.7173  135.7097  152.3561 C   0  0  1  0  0  0  0  0  0  0  0  0
  146.1046  134.2178  152.4461 C   0  0  0  0  0  0  0  0  0  0  0  0
  145.3437  133.3818  151.5344 N   0  0  0  0  0  0  0  0  0  0  0  0
  145.7972  132.3564  150.7312 C   0  0  0  0  0  0  0  0  0  0  0  0
  144.7166  131.8532  150.0658 C   0  0  0  0  0  0  0  0  0  0  0  0
  143.6331  132.6500  150.5305 C   0  0  0  0  0  0  0  0  0  0  0  0
  144.0121  133.5670  151.4061 N   0  0  0  0  0  0  0  0  0  0  0  0
  146.7132  136.5452  153.0266 N   0  0  0  0  0  0  0  0  0  0  0  0
  146.6322  137.0055  154.2855 C   0  0  0  0  0  0  0  0  0  0  0  0
  145.6685  136.7957  155.0229 O   0  0  0  0  0  0  0  0  0  0  0  0
  147.8359  137.8077  154.7962 C   0  0  2  0  0  0  0  0  0  0  0  0
  148.0886  139.0353  153.9062 C   0  0  0  0  0  0  0  0  0  0  0  0
  149.2545  139.8785  154.4468 C   0  0  0  0  0  0  0  0  0  0  0  0
  150.4823  139.0428  154.8386 C   0  0  0  0  0  0  0  0  0  0  0  0
  151.5709  139.5962  154.9761 O   0  0  0  0  0  0  0  0  0  0  0  0
  150.3312  137.7251  155.0598 N   0  0  0  0  0  0  0  0  0  0  0  0
  149.1135  136.9425  154.8460 C   0  0  0  0  0  0  0  0  0  0  0  0
  144.8294  135.5834  150.3703 H   0  0  0  0  0  0  0  0  0  0  0  0
  146.5280  136.0497  150.3573 H   0  0  0  0  0  0  0  0  0  0  0  0
  145.2946  137.2140  150.8368 H   0  0  0  0  0  0  0  0  0  0  0  0
  144.7406  135.8483  152.8233 H   0  0  0  0  0  0  0  0  0  0  0  0
  147.1632  134.0901  152.2153 H   0  0  0  0  0  0  0  0  0  0  0  0
  145.9618  133.8464  153.4619 H   0  0  0  0  0  0  0  0  0  0  0  0
  146.8379  132.0683  150.7072 H   0  0  0  0  0  0  0  0  0  0  0  0
  144.7014  131.0389  149.3566 H   0  0  0  0  0  0  0  0  0  0  0  0
  142.5893  132.5902  150.2592 H   0  0  0  0  0  0  0  0  0  0  0  0
  147.5434  136.7699  152.4976 H   0  0  0  0  0  0  0  0  0  0  0  0
  147.6184  138.1592  155.8067 H   0  0  0  0  0  0  0  0  0  0  0  0
  148.3116  138.7219  152.8848 H   0  0  0  0  0  0  0  0  0  0  0  0
  147.1911  139.6528  153.8480 H   0  0  0  0  0  0  0  0  0  0  0  0
  149.5445  140.6297  153.7115 H   0  0  0  0  0  0  0  0  0  0  0  0
  148.9294  140.4207  155.3351 H   0  0  0  0  0  0  0  0  0  0  0  0
  151.1505  137.2088  155.3462 H   0  0  0  0  0  0  0  0  0  0  0  0
  149.0336  136.1996  155.6402 H   0  0  0  0  0  0  0  0  0  0  0  0
  149.2446  136.3899  153.9144 H   0  0  0  0  0  0  0  0  0  0  0  0
  1  2  1  0  0  0  0
  1 19  1  0  0  0  0
  1 20  1  0  0  0  0
  1 21  1  0  0  0  0
  2  3  1  0  0  0  0
  2  9  1  0  0  0  0
  2 22  1  0  0  0  0
  3  4  1  0  0  0  0
  3 23  1  0  0  0  0
  3 24  1  0  0  0  0
  4  8  1  0  0  0  0
  4  5  1  0  0  0  0
  5  6  2  0  0  0  0
  5 25  1  0  0  0  0
  6  7  1  0  0  0  0
  6 26  1  0  0  0  0
  7  8  2  0  0  0  0
  7 27  1  0  0  0  0
  9 10  1  0  0  0  0
  9 28  1  0  0  0  0
 10 11  2  0  0  0  0
 10 12  1  0  0  0  0
 12 18  1  0  0  0  0
 12 13  1  0  0  0  0
 12 29  1  0  0  0  0
 13 14  1  0  0  0  0
 13 30  1  0  0  0  0
 13 31  1  0  0  0  0
 14 15  1  0  0  0  0
 14 32  1  0  0  0  0
 14 33  1  0  0  0  0
 15 16  2  0  0  0  0
 15 17  1  0  0  0  0
 17 18  1  0  0  0  0
 17 34  1  0  0  0  0
 18 35  1  0  0  0  0
 18 36  1  0  0  0  0
M  END
> <s_m_source_file>
AV-unprocessed.smi

> <i_m_source_file_index>
1145

> <i_lp_mmshare_version>
43012

> <i_f3d_flags>
0

> <s_epik_input>
bjFbY0hdW2NIXVtjSF1uMVtDSDJdW0NAQEhdKFtDSDNdKVtOSF1DKD1PKVtDQEBIXTJbQ0gyXVtDSDJdQyg9TylbTkhdW0NIMl0y

> <s_epik_cmdline>
J2VwaWtfcHl0aG9uJywgJy1waCcsICc3LjAnLCAnLXRuJywgJzgnLCAnLW1hJywgJzIwMCcsICctbWV0YWxfYmluZGluZycsICctaW1hZScsICc8aW5maWxlLm1hZT4nLCAnLW9tYWUnLCAnPG91dGZpbGUubWFlPic=

> <r_lp_tautomer_probability>
1

> <r_epik_Ionization_Penalty>
0.000314064

> <r_epik_Ionization_Penalty_Charging>
0

> <r_epik_Ionization_Penalty_Neutral>
0.000314064

> <r_epik_State_Penalty>
-0

> <r_epik_Charging_Adjusted_Penalty>
0

> <i_epik_Tot_Q>
0

> <i_epik_Tot_abs_Q>
0

> <r_epik_Metal_State_Penalty>
-0

> <b_epik_Metal_Only>
0

> <s_lp_Force_Field>
OPLS_2005

> <r_lp_Energy>
11.8785

> <b_lp_Chiralities_Consistent>
1

> <s_lp_Variant>
AV-unprocessed.smi:1145-2

> <Gold.Version>
5.8.1

> <Gold.Id.Protein>
6NUR|6NUR_protein|mol2

> <Gold.PLP.Fitness>
37.7831

> <Gold.PLP.PLP>
-26.9887

> <Gold.PLP.part.hbond>
-2.0000

> <Gold.PLP.part.metal>
0.0000

> <Gold.PLP.part.buried>
-3.7504

> <Gold.PLP.part.nonpolar>
-22.4740

> <Gold.PLP.part.repulsive>
0.2614

> <Gold.PLP.ligand.clash>
0.0000

> <Gold.PLP.ligand.torsion>
0.6583

> <Gold.PLP.Chemscore.Hbond>
2.0000

> <Gold.PLP.Chemscore.CHOScore>
2.0324

> <Gold.PLP.Chemscore.Metal>
0.0000

> <Gold.Chemscore.Hbonds>
donor molecule, donor type, donor heavy atom, donor atom, acceptor molecule, acceptor atom, score
      L1  H     9    28       P1  7948  0.94
      P1  H  7989  7998       L1    16  1.00
      L1  C     5    25       P1 10747  1.00
      L1  C     7    27       P1 10186  1.00
      L1  C     7    27       P1 10952  0.01

> <Gold.PLP.Chemscore.Internal.Correction>
0.0137

> <Gold.Rescore>
     Score         DG    S(hbond)    S(metal)    S(lipo)     H(rot)  DE(clash)    DE(int)     intcor
     14.18     -14.74       1.88        0.00      64.97       1.80       0.31       0.25       ----

> <Gold.Chemscore.Fitness>
14.1844

> <Gold.Chemscore.DG>
-14.7439

> <Gold.Chemscore.ZeroCoef>
-5.4800

> <Gold.Chemscore.Hbond>
1.8760

> <Gold.Chemscore.Metal>
0.0000

> <Gold.Chemscore.Lipo>
64.9715

> <Gold.Chemscore.Internal_Hbond>
0.0000

> <Gold.Chemscore.DEClash>
0.3081

> <Gold.Chemscore.DEInternal>
0.2514

> <Gold.Chemscore.Rot>
1.7982

> <Gold.Chemscore.Internal.Correction>
   9.000000E+99

> <Gold.Chemscore.Hbonds>
donor molecule, donor type, donor heavy atom, donor atom, acceptor molecule, acceptor atom, score
      L1  H     9    28       P1  7948  0.90
      P1  H  7989  7998       L1    16  0.44

> <Gold.Chemscore.Hbond.Weighted>
-6.2657

> <Gold.Chemscore.Metal.Weighted>
-0.0000

> <Gold.Chemscore.Lipo.Weighted>
-7.6017

> <Gold.Chemscore.Internal_Hbond.Weighted>
0.0000

> <Gold.Chemscore.DEClash.Weighted>
0.3081

> <Gold.Chemscore.DEInternal.Weighted>
0.2514

> <Gold.Chemscore.Rot.Weighted>
4.6035

> <Gold.Chemscore.Internal.Correction.Weighted>
   9.000000E+99

> <Gold.Protein.RotatedTorsions>
[ 6907 6896 6895 6894 ] final -125.00 input  -60.11 | X-H torsion
[ 7974 7965 7964 7962 ] final   89.49 input  175.53 | X-H torsion
[ 8008 7997 7996 7995 ] final -108.89 input   59.86 | X-H torsion
[ 10167 10162 10161 10158 ] final -133.74 input  -65.29 | X-H torsion
[ 10718 10713 10712 10709 ] final  118.37 input   66.30 | X-H torsion
[ 10763 10752 10751 10750 ] final -131.59 input  -60.55 | X-H torsion
[ 11005 11000 10999 10996 ] final  150.54 input  -57.11 | X-H torsion

> <Gold.Protein.ActiveResidues>
 VAL166  LYS551  ARG553  GLY616  TRP617  ASP618  TYR619  PRO620  LYS621  CYS622 
 ASP623  PHE694  ASN695  SER759  ASP760  ASP761  ALA762  ILE779  LEU786  VAL792 
 PHE793  MET794  SER795  GLU796  ALA797  LYS798  CYS799  TRP800  GLU811  SER814 

> <Gold.Protein.RotatedAtoms>
  150.8823  133.7355  159.2928 H   0  0  0  0  0  0  0  0  0  0  0  0  # atno 6907 bound_to 6896
  151.4932  135.1057  159.9818 H   0  0  0  0  0  0  0  0  0  0  0  0  # atno 6908 bound_to 6896
  152.4768  133.8111  159.7059 H   0  0  0  0  0  0  0  0  0  0  0  0  # atno 6909 bound_to 6896
  145.5317  139.2283  143.2615 H   0  0  0  0  0  0  0  0  0  0  0  0  # atno 7974 bound_to 7965
  154.9512  140.0401  157.2144 H   0  0  0  0  0  0  0  0  0  0  0  0  # atno 8008 bound_to 7997
  154.7977  140.2846  155.5922 H   0  0  0  0  0  0  0  0  0  0  0  0  # atno 8009 bound_to 7997
  156.2957  140.2561  156.2838 H   0  0  0  0  0  0  0  0  0  0  0  0  # atno 8010 bound_to 7997
  139.8952  143.6674  152.2605 H   0  0  0  0  0  0  0  0  0  0  0  0  # atno 10167 bound_to 10162
  157.6035  131.1047  150.7746 H   0  0  0  0  0  0  0  0  0  0  0  0  # atno 10718 bound_to 10713
  154.8749  135.3825  154.4272 H   0  0  0  0  0  0  0  0  0  0  0  0  # atno 10763 bound_to 10752
  153.4970  135.7030  153.5858 H   0  0  0  0  0  0  0  0  0  0  0  0  # atno 10764 bound_to 10752
  153.4207  135.3902  155.2076 H   0  0  0  0  0  0  0  0  0  0  0  0  # atno 10765 bound_to 10752
  140.1140  134.8906  157.1977 H   0  0  0  0  0  0  0  0  0  0  0  0  # atno 11005 bound_to 11000
  146.2040  140.6133  142.9089 LP  0  0  0  0  0  0  0  0  0  0  0  0  # atno 17320 bound_to 7965
  144.7622  140.5449  143.6727 LP  0  0  0  0  0  0  0  0  0  0  0  0  # atno 17321 bound_to 7965
  139.7074  144.7626  151.1170 LP  0  0  0  0  0  0  0  0  0  0  0  0  # atno 17342 bound_to 10162
  140.7718  143.5376  150.9350 LP  0  0  0  0  0  0  0  0  0  0  0  0  # atno 17343 bound_to 10162
  156.8139  130.4961  149.5352 LP  0  0  0  0  0  0  0  0  0  0  0  0  # atno 17370 bound_to 10713
  156.1114  130.6043  151.0054 LP  0  0  0  0  0  0  0  0  0  0  0  0  # atno 17371 bound_to 10713
  140.3053  134.3085  155.7280 LP  0  0  0  0  0  0  0  0  0  0  0  0  # atno 17394 bound_to 11000
  141.2137  133.7617  156.9699 LP  0  0  0  0  0  0  0  0  0  0  0  0  # atno 17395 bound_to 11000

$$$$
