#       Name:                AV-unprocessed.smi:2996
#       Creating user name   scv26
#       Creation time:       Fri Mar 27 16:33:25 2020


#       File generated by GOLD software.
#

@<TRIPOS>MOLECULE
AV-unprocessed.smi:2996
    53    54     1
SMALL
NO_CHARGES


@<TRIPOS>ATOM
      1 ****        -3.9023   1.6624  -3.0275 C.3            1 S1                 0.0000
      2 ****        -4.3819   0.7538  -1.8897 C.3            1 S1                 0.0000
      3 ****        -4.2095   1.4006  -0.5428 C.2            1 S1                 0.0000
      4 ****        -5.0917   2.2896  -0.1143 N.2            1 S1                 0.0000
      5 ****        -4.6560   2.6960   1.1562 O.3            1 S1                 0.0000
      6 ****        -3.5065   2.0384   1.4682 C.2            1 S1                 0.0000
      7 ****        -2.9340   2.3183   2.8185 C.3            1 S1                 0.0000
      8 ****        -3.1751   1.2294   0.4142 C.2            1 S1                 0.0000
      9 ****        -2.0862   0.3324   0.2702 N.am           1 S1                 0.0000
     10 ****        -0.8361   0.4941   0.7299 C.2            1 S1                 0.0000
     11 ****        -0.4350   1.4766   1.3525 O.2            1 S1                 0.0000
     12 ****        -0.0577  -0.5447   0.3978 N.am           1 S1                 0.0000
     13 ****         1.3692  -0.6546   0.6944 C.3            1 S1                 0.0000
     14 ****         1.8069  -2.1008   0.8171 C.3            1 S1                 0.0000
     15 ****         3.3099  -2.0365   0.5161 C.3            1 S1                 0.0000
     16 ****         4.1434  -1.8305   1.7923 C.3            1 S1                 0.0000
     17 ****         3.8002  -3.2627  -0.2694 C.3            1 S1                 0.0000
     18 ****         3.4878  -0.8767  -0.2965 O.3            1 S1                 0.0000
     19 ****         2.2823  -0.1262  -0.4328 C.3            1 S1                 0.0000
     20 ****         1.7550  -0.3964  -1.8581 C.3            1 S1                 0.0000
     21 ****         2.6290   1.3604  -0.2557 C.3            1 S1                 0.0000
     22 ****        -4.0281   1.1741  -3.9941 H              1 S1                 0.0000
     23 ****        -2.8465   1.9105  -2.9137 H              1 S1                 0.0000
     24 ****        -4.4655   2.5958  -3.0509 H              1 S1                 0.0000
     25 ****        -5.4297   0.4964  -2.0492 H              1 S1                 0.0000
     26 ****        -3.8334  -0.1877  -1.9248 H              1 S1                 0.0000
     27 ****        -2.4940   1.4189   3.2490 H              1 S1                 0.0000
     28 ****        -3.7049   2.6723   3.5032 H              1 S1                 0.0000
     29 ****        -2.1606   3.0841   2.7599 H              1 S1                 0.0000
     30 ****        -2.2487  -0.4663  -0.3250 H              1 S1                 0.0000
     31 ****        -0.4737  -1.3059  -0.1183 H              1 S1                 0.0000
     32 ****         1.6032  -0.1509   1.6345 H              1 S1                 0.0000
     33 ****         1.5825  -2.5297   1.7944 H              1 S1                 0.0000
     34 ****         1.2960  -2.7099   0.0695 H              1 S1                 0.0000
     35 ****         4.0430  -2.6785   2.4703 H              1 S1                 0.0000
     36 ****         3.8336  -0.9356   2.3327 H              1 S1                 0.0000
     37 ****         5.2021  -1.7190   1.5560 H              1 S1                 0.0000
     38 ****         3.6676  -4.1787   0.3069 H              1 S1                 0.0000
     39 ****         4.8587  -3.1743  -0.5161 H              1 S1                 0.0000
     40 ****         3.2548  -3.3764  -1.2068 H              1 S1                 0.0000
     41 ****         0.8508   0.1756  -2.0675 H              1 S1                 0.0000
     42 ****         1.5248  -1.4511  -2.0098 H              1 S1                 0.0000
     43 ****         2.4964  -0.1158  -2.6068 H              1 S1                 0.0000
     44 ****         1.7435   1.9884  -0.3548 H              1 S1                 0.0000
     45 ****         3.3517   1.6875  -1.0038 H              1 S1                 0.0000
     46 ****         3.0643   1.5512   0.7258 H              1 S1                 0.0000
     47 ****        -5.9062   2.6081  -0.5993 LP             1 S1                 0.0000
     48 ****        -5.3585   2.4815   1.8348 LP             1 S1                 0.0000
     49 ****        -4.4866   3.6816   1.1519 LP             1 S1                 0.0000
     50 ****        -1.0593   2.2324   1.5501 LP             1 S1                 0.0000
     51 ****         0.5153   1.5194   1.6610 LP             1 S1                 0.0000
     52 ****         3.7936  -1.1631  -1.2045 LP             1 S1                 0.0000
     53 ****         4.1848  -0.2940   0.1215 LP             1 S1                 0.0000
@<TRIPOS>BOND
    1    1    2 1     
    2    1   22 1     
    3    1   23 1     
    4    1   24 1     
    5    2    3 1     
    6    2   25 1     
    7    2   26 1     
    8    3    8 1     
    9    3    4 2     
   10    4    5 1     
   11    5    6 1     
   12    6    7 1     
   13    6    8 2     
   14    7   27 1     
   15    7   28 1     
   16    7   29 1     
   17    8    9 1     
   18    9   10 am    
   19    9   30 1     
   20   10   11 2     
   21   10   12 am    
   22   12   13 1     
   23   12   31 1     
   24   13   19 1     
   25   13   14 1     
   26   13   32 1     
   27   14   15 1     
   28   14   33 1     
   29   14   34 1     
   30   15   16 1     
   31   15   17 1     
   32   15   18 1     
   33   16   35 1     
   34   16   36 1     
   35   16   37 1     
   36   17   38 1     
   37   17   39 1     
   38   17   40 1     
   39   18   19 1     
   40   19   20 1     
   41   19   21 1     
   42   20   41 1     
   43   20   42 1     
   44   20   43 1     
   45   21   44 1     
   46   21   45 1     
   47   21   46 1     
   48    4   47 1     
   49    5   48 1     
   50    5   49 1     
   51   11   50 1     
   52   11   51 1     
   53   18   52 1     
   54   18   53 1     
@<TRIPOS>SUBSTRUCTURE
      1 S1             1
@<TRIPOS>SET
LONE_PAIRS      STATIC     ATOMS    <user>   **** ""
7 47 48 49 50 51 52 53
DONOR_HYDROGENS      STATIC     ATOMS    <user>   **** ""
2 30 31
ATOM$BLUE        STATIC     ATOMS    COLORGROUP SYSTEM
7 47 48 49 50 51 52 53
ATOM$RED        STATIC     ATOMS    COLORGROUP SYSTEM
2 30 31
