#       Name:                AV-unprocessed.smi:1554
#       Creating user name   scv26
#       Creation time:       Fri Mar 27 06:42:22 2020


#       File generated by GOLD software.
#

@<TRIPOS>MOLECULE
AV-unprocessed.smi:1554
    53    55     1
SMALL
NO_CHARGES


@<TRIPOS>ATOM
      1 ****        -2.9794   5.1157  -3.5041 C.3            1 S1                 0.0000
      2 ****        -2.7094   3.9503  -2.5689 C.ar           1 S1                 0.0000
      3 ****        -3.0556   4.0696  -1.2040 C.ar           1 S1                 0.0000
      4 ****        -2.8207   3.0090  -0.3017 C.ar           1 S1                 0.0000
      5 ****        -3.0756   2.9112   1.0555 N.2            1 S1                 0.0000
      6 ****        -2.6352   1.6852   1.3226 C.2            1 S1                 0.0000
      7 ****        -2.1251   0.9757   0.2980 N.pl3          1 S1                 0.0000
      8 ****        -1.5893  -0.3732   0.3524 C.3            1 S1                 0.0000
      9 ****        -0.1111  -0.4056   0.7851 C.3            1 S1                 0.0000
     10 ****         0.6668   0.3093  -0.1551 O.3            1 S1                 0.0000
     11 ****         0.4235  -1.8497   0.8609 C.3            1 S1                 0.0000
     12 ****         1.7722  -1.9973   1.4120 N.3            1 S1                 0.0000
     13 ****         1.8385  -1.6909   2.8399 C.3            1 S1                 0.0000
     14 ****         3.2576  -1.8816   3.4011 C.3            1 S1                 0.0000
     15 ****         3.7000  -3.2099   3.1432 O.3            1 S1                 0.0000
     16 ****         3.6990  -3.5366   1.7564 C.3            1 S1                 0.0000
     17 ****         4.1986  -4.9767   1.6001 C.3            1 S1                 0.0000
     18 ****         2.2747  -3.3503   1.1979 C.3            1 S1                 0.0000
     19 ****        -2.2261   1.8155  -0.8062 C.ar           1 S1                 0.0000
     20 ****        -1.8764   1.6852  -2.1619 C.ar           1 S1                 0.0000
     21 ****        -2.1177   2.7545  -3.0498 C.ar           1 S1                 0.0000
     22 ****        -1.7377   2.6031  -4.5120 C.3            1 S1                 0.0000
     23 ****        -3.4414   5.9508  -2.9766 H              1 S1                 0.0000
     24 ****        -3.6525   4.8136  -4.3069 H              1 S1                 0.0000
     25 ****        -2.0495   5.4734  -3.9468 H              1 S1                 0.0000
     26 ****        -3.5054   4.9803  -0.8371 H              1 S1                 0.0000
     27 ****        -2.6861   1.2777   2.3217 H              1 S1                 0.0000
     28 ****        -2.1964  -0.9509   1.0506 H              1 S1                 0.0000
     29 ****        -1.7142  -0.8393  -0.6259 H              1 S1                 0.0000
     30 ****        -0.0269   0.0906   1.7512 H              1 S1                 0.0000
     31 ****         1.5715   0.2671   0.1152 H              1 S1                 0.0000
     32 ****        -0.2673  -2.4568   1.4481 H              1 S1                 0.0000
     33 ****         0.3990  -2.2689  -0.1463 H              1 S1                 0.0000
     34 ****         1.5310  -0.6629   3.0259 H              1 S1                 0.0000
     35 ****         1.1453  -2.3300   3.3890 H              1 S1                 0.0000
     36 ****         3.9494  -1.1669   2.9526 H              1 S1                 0.0000
     37 ****         3.2672  -1.7053   4.4767 H              1 S1                 0.0000
     38 ****         4.3866  -2.8679   1.2355 H              1 S1                 0.0000
     39 ****         4.2262  -5.2711   0.5507 H              1 S1                 0.0000
     40 ****         3.5516  -5.6781   2.1278 H              1 S1                 0.0000
     41 ****         5.2060  -5.0854   2.0024 H              1 S1                 0.0000
     42 ****         1.6034  -4.0710   1.6682 H              1 S1                 0.0000
     43 ****         2.2759  -3.5772   0.1310 H              1 S1                 0.0000
     44 ****        -1.4231   0.7701  -2.5133 H              1 S1                 0.0000
     45 ****        -1.2699   1.6369  -4.7035 H              1 S1                 0.0000
     46 ****        -1.0320   3.3800  -4.8071 H              1 S1                 0.0000
     47 ****        -2.6220   2.6787  -5.1452 H              1 S1                 0.0000
     48 ****        -3.4832   3.5847   1.6722 LP             1 S1                 0.0000
     49 ****         0.3674   1.2629  -0.1865 LP             1 S1                 0.0000
     50 ****         0.5650  -0.1020  -1.0609 LP             1 S1                 0.0000
     51 ****         2.3422  -1.3354   0.9252 LP             1 S1                 0.0000
     52 ****         3.0944  -3.8461   3.6211 LP             1 S1                 0.0000
     53 ****         4.6314  -3.3095   3.4936 LP             1 S1                 0.0000
@<TRIPOS>BOND
    1    1    2 1     
    2    1   23 1     
    3    1   24 1     
    4    1   25 1     
    5    2   21 ar    
    6    2    3 ar    
    7    3    4 ar    
    8    3   26 1     
    9    4   19 ar    
   10    4    5 1     
   11    5    6 2     
   12    6    7 1     
   13    6   27 1     
   14    7    8 1     
   15    7   19 1     
   16    8    9 1     
   17    8   28 1     
   18    8   29 1     
   19    9   10 1     
   20    9   11 1     
   21    9   30 1     
   22   10   31 1     
   23   11   12 1     
   24   11   32 1     
   25   11   33 1     
   26   12   18 1     
   27   12   13 1     
   28   13   14 1     
   29   13   34 1     
   30   13   35 1     
   31   14   15 1     
   32   14   36 1     
   33   14   37 1     
   34   15   16 1     
   35   16   17 1     
   36   16   18 1     
   37   16   38 1     
   38   17   39 1     
   39   17   40 1     
   40   17   41 1     
   41   18   42 1     
   42   18   43 1     
   43   19   20 ar    
   44   20   21 ar    
   45   20   44 1     
   46   21   22 1     
   47   22   45 1     
   48   22   46 1     
   49   22   47 1     
   50    5   48 1     
   51   10   49 1     
   52   10   50 1     
   53   12   51 1     
   54   15   52 1     
   55   15   53 1     
@<TRIPOS>SUBSTRUCTURE
      1 S1             1
@<TRIPOS>SET
LONE_PAIRS      STATIC     ATOMS    <user>   **** ""
6 48 49 50 51 52 53
DONOR_HYDROGENS      STATIC     ATOMS    <user>   **** ""
1 31
ATOM$BLUE        STATIC     ATOMS    COLORGROUP SYSTEM
6 48 49 50 51 52 53
ATOM$RED        STATIC     ATOMS    COLORGROUP SYSTEM
1 31
