#       Name:                AV-unprocessed.smi:884
#       Creating user name   scv26
#       Creation time:       Fri Mar 27 01:53:19 2020


#       File generated by GOLD software.
#

@<TRIPOS>MOLECULE
AV-unprocessed.smi:884
    50    52     1
SMALL
NO_CHARGES


@<TRIPOS>ATOM
      1 ****         1.8262   1.4598   1.1019 O.2            1 S1                 0.0000
      2 ****         1.5270   0.3702   1.5925 C.2            1 S1                 0.0000
      3 ****         2.3925  -0.6580   1.6367 N.am           1 S1                 0.0000
      4 ****         3.7400  -0.6663   1.0719 C.3            1 S1                 0.0000
      5 ****         3.8556  -1.5969  -0.1504 C.3            1 S1                 0.0000
      6 ****         2.8342  -1.3171  -1.2414 C.ar           1 S1                 0.0000
      7 ****         3.0567  -0.2929  -2.1860 C.ar           1 S1                 0.0000
      8 ****         2.0736  -0.0598  -3.1672 C.ar           1 S1                 0.0000
      9 ****         0.9133  -0.8577  -3.1682 C.ar           1 S1                 0.0000
     10 ****         0.7848  -1.8546  -2.1809 C.ar           1 S1                 0.0000
     11 ****         1.7178  -2.0812  -1.2311 N.ar           1 S1                 0.0000
     12 ****         0.3010   0.1056   2.1137 N.am           1 S1                 0.0000
     13 ****        -0.1612  -1.1923   2.6289 C.3            1 S1                 0.0000
     14 ****        -1.0475  -1.8599   1.5694 C.3            1 S1                 0.0000
     15 ****        -2.5318  -0.8603   1.2404 S.3            1 S1                 0.0000
     16 ****        -1.8093   0.8018   0.9583 C.3            1 S1                 0.0000
     17 ****        -1.1405   0.8773  -0.4405 C.3            1 S1                 0.0000
     18 ****        -2.1412   0.7920  -1.6060 C.3            1 S1                 0.0000
     19 ****        -3.2256   1.8704  -1.4878 C.3            1 S1                 0.0000
     20 ****        -3.9375   1.7834  -0.1314 C.3            1 S1                 0.0000
     21 ****        -2.9334   1.8656   1.0332 C.3            1 S1                 0.0000
     22 ****        -0.7863   1.0958   2.0900 C.3            1 S1                 0.0000
     23 ****         2.0730  -1.5191   2.0556 H              1 S1                 0.0000
     24 ****         4.0528   0.3404   0.7901 H              1 S1                 0.0000
     25 ****         4.4352  -0.9911   1.8461 H              1 S1                 0.0000
     26 ****         4.8563  -1.5180  -0.5765 H              1 S1                 0.0000
     27 ****         3.7503  -2.6336   0.1737 H              1 S1                 0.0000
     28 ****         3.9560   0.3049  -2.1561 H              1 S1                 0.0000
     29 ****         2.2073   0.7172  -3.9055 H              1 S1                 0.0000
     30 ****         0.1380  -0.7067  -3.9047 H              1 S1                 0.0000
     31 ****        -0.0954  -2.4795  -2.1464 H              1 S1                 0.0000
     32 ****         0.6524  -1.8622   2.9075 H              1 S1                 0.0000
     33 ****        -0.7283  -1.0459   3.5492 H              1 S1                 0.0000
     34 ****        -0.4948  -2.0041   0.6414 H              1 S1                 0.0000
     35 ****        -1.3626  -2.8472   1.9072 H              1 S1                 0.0000
     36 ****        -0.5901   1.8154  -0.5253 H              1 S1                 0.0000
     37 ****        -0.3999   0.0885  -0.5549 H              1 S1                 0.0000
     38 ****        -1.6126   0.9038  -2.5527 H              1 S1                 0.0000
     39 ****        -2.6032  -0.1954  -1.6302 H              1 S1                 0.0000
     40 ****        -2.7749   2.8569  -1.6020 H              1 S1                 0.0000
     41 ****        -3.9485   1.7635  -2.2970 H              1 S1                 0.0000
     42 ****        -4.6662   2.5900  -0.0463 H              1 S1                 0.0000
     43 ****        -4.5052   0.8542  -0.0729 H              1 S1                 0.0000
     44 ****        -3.4680   1.7786   1.9801 H              1 S1                 0.0000
     45 ****        -2.4884   2.8618   1.0315 H              1 S1                 0.0000
     46 ****        -1.2924   1.0930   3.0567 H              1 S1                 0.0000
     47 ****        -0.3972   2.1101   1.9871 H              1 S1                 0.0000
     48 ****         2.7390   1.6020   0.7191 LP             1 S1                 0.0000
     49 ****         1.1562   2.2021   1.0864 LP             1 S1                 0.0000
     50 ****         1.5873  -2.7927  -0.5407 LP             1 S1                 0.0000
@<TRIPOS>BOND
    1    1    2 2     
    2    2    3 am    
    3    2   12 am    
    4    3    4 1     
    5    3   23 1     
    6    4    5 1     
    7    4   24 1     
    8    4   25 1     
    9    5    6 1     
   10    5   26 1     
   11    5   27 1     
   12    6   11 ar    
   13    6    7 ar    
   14    7    8 ar    
   15    7   28 1     
   16    8    9 ar    
   17    8   29 1     
   18    9   10 ar    
   19    9   30 1     
   20   10   11 ar    
   21   10   31 1     
   22   12   22 1     
   23   12   13 1     
   24   13   14 1     
   25   13   32 1     
   26   13   33 1     
   27   14   15 1     
   28   14   34 1     
   29   14   35 1     
   30   15   16 1     
   31   16   21 1     
   32   16   17 1     
   33   16   22 1     
   34   17   18 1     
   35   17   36 1     
   36   17   37 1     
   37   18   19 1     
   38   18   38 1     
   39   18   39 1     
   40   19   20 1     
   41   19   40 1     
   42   19   41 1     
   43   20   21 1     
   44   20   42 1     
   45   20   43 1     
   46   21   44 1     
   47   21   45 1     
   48   22   46 1     
   49   22   47 1     
   50    1   48 1     
   51    1   49 1     
   52   11   50 1     
@<TRIPOS>SUBSTRUCTURE
      1 S1             1
@<TRIPOS>SET
LONE_PAIRS      STATIC     ATOMS    <user>   **** ""
3 48 49 50
DONOR_HYDROGENS      STATIC     ATOMS    <user>   **** ""
1 23
ATOM$BLUE        STATIC     ATOMS    COLORGROUP SYSTEM
3 48 49 50
ATOM$RED        STATIC     ATOMS    COLORGROUP SYSTEM
1 23
