AV-unprocessed.smi:3181|AV-procd|sdf|12150|dock2
  -GOLD-   2272017583D 1   1.00000     0.00000
 Structure written by MMmdl.
 42 43  0  0  0  0  0  0  0  0  2 V2000
  149.5910  134.1327  154.3910 C   0  0  0  0  0  0  0  0  0  0  0  0
  148.5635  133.3883  153.5227 C   0  0  1  0  0  0  0  0  0  0  0  0
  148.1105  132.0495  154.1436 C   0  0  0  0  0  0  0  0  0  0  0  0
  149.2050  131.1148  154.3291 N   0  0  0  0  0  0  0  0  0  0  0  0
  150.2967  131.1990  155.0910 C   0  0  0  0  0  0  0  0  0  0  0  0
  151.0883  130.1390  155.0101 N   0  0  0  0  0  0  0  0  0  0  0  0
  150.3779  129.3906  154.1144 C   0  0  0  0  0  0  0  0  0  0  0  0
  149.2413  129.9309  153.6742 N   0  0  0  0  0  0  0  0  0  0  0  0
  147.3882  134.2601  153.2967 N   0  3  0  0  0  0  0  0  0  0  0  0
  146.2859  133.6797  152.4956 C   0  0  1  0  0  0  0  0  0  0  0  0
  145.4019  134.7703  151.8561 C   0  0  0  0  0  0  0  0  0  0  0  0
  144.3048  134.1619  150.9682 C   0  0  0  0  0  0  0  0  0  0  0  0
  144.8972  133.2384  149.8858 C   0  0  2  0  0  0  0  0  0  0  0  0
  143.8119  132.6936  148.9427 C   0  0  0  0  0  0  0  0  0  0  0  0
  145.7858  132.1300  150.5063 C   0  0  2  0  0  0  0  0  0  0  0  0
  145.0013  131.0293  151.2485 C   0  0  0  0  0  0  0  0  0  0  0  0
  146.8708  132.7605  151.4046 C   0  0  0  0  0  0  0  0  0  0  0  0
  150.5095  133.5570  154.5090 H   0  0  0  0  0  0  0  0  0  0  0  0
  149.1959  134.3374  155.3865 H   0  0  0  0  0  0  0  0  0  0  0  0
  149.8668  135.0863  153.9394 H   0  0  0  0  0  0  0  0  0  0  0  0
  149.0456  133.1804  152.5663 H   0  0  0  0  0  0  0  0  0  0  0  0
  147.6312  132.2234  155.1086 H   0  0  0  0  0  0  0  0  0  0  0  0
  147.3639  131.5668  153.5125 H   0  0  0  0  0  0  0  0  0  0  0  0
  150.5157  132.0507  155.7182 H   0  0  0  0  0  0  0  0  0  0  0  0
  150.7083  128.4195  153.7763 H   0  0  0  0  0  0  0  0  0  0  0  0
  147.0268  134.5652  154.1891 H   0  0  0  0  0  0  0  0  0  0  0  0
  145.6760  133.0734  153.1663 H   0  0  0  0  0  0  0  0  0  0  0  0
  144.9315  135.3838  152.6247 H   0  0  0  0  0  0  0  0  0  0  0  0
  146.0193  135.4426  151.2589 H   0  0  0  0  0  0  0  0  0  0  0  0
  143.5959  133.6103  151.5865 H   0  0  0  0  0  0  0  0  0  0  0  0
  143.7358  134.9650  150.4984 H   0  0  0  0  0  0  0  0  0  0  0  0
  145.5521  133.8554  149.2684 H   0  0  0  0  0  0  0  0  0  0  0  0
  143.0500  132.1321  149.4835 H   0  0  0  0  0  0  0  0  0  0  0  0
  144.2415  132.0354  148.1872 H   0  0  0  0  0  0  0  0  0  0  0  0
  143.3066  133.5064  148.4201 H   0  0  0  0  0  0  0  0  0  0  0  0
  146.3049  131.6325  149.6856 H   0  0  0  0  0  0  0  0  0  0  0  0
  144.3892  131.4303  152.0556 H   0  0  0  0  0  0  0  0  0  0  0  0
  145.6802  130.2960  151.6847 H   0  0  0  0  0  0  0  0  0  0  0  0
  144.3420  130.4847  150.5729 H   0  0  0  0  0  0  0  0  0  0  0  0
  147.5533  133.3377  150.7787 H   0  0  0  0  0  0  0  0  0  0  0  0
  147.4757  131.9754  151.8606 H   0  0  0  0  0  0  0  0  0  0  0  0
  147.7175  135.0738  152.7971 H   0  0  0  0  0  0  0  0  0  0  0  0
  1  2  1  0  0  0  0
  1 18  1  0  0  0  0
  1 19  1  0  0  0  0
  1 20  1  0  0  0  0
  2  3  1  0  0  0  0
  2  9  1  0  0  0  0
  2 21  1  0  0  0  0
  3  4  1  0  0  0  0
  3 22  1  0  0  0  0
  3 23  1  0  0  0  0
  4  8  1  0  0  0  0
  4  5  1  0  0  0  0
  5  6  2  0  0  0  0
  5 24  1  0  0  0  0
  6  7  1  0  0  0  0
  7  8  2  0  0  0  0
  7 25  1  0  0  0  0
  9 10  1  0  0  0  0
  9 26  1  0  0  0  0
  9 42  1  0  0  0  0
 10 17  1  0  0  0  0
 10 11  1  0  0  0  0
 10 27  1  0  0  0  0
 11 12  1  0  0  0  0
 11 28  1  0  0  0  0
 11 29  1  0  0  0  0
 12 13  1  0  0  0  0
 12 30  1  0  0  0  0
 12 31  1  0  0  0  0
 13 14  1  0  0  0  0
 13 15  1  0  0  0  0
 13 32  1  0  0  0  0
 14 33  1  0  0  0  0
 14 34  1  0  0  0  0
 14 35  1  0  0  0  0
 15 16  1  0  0  0  0
 15 17  1  0  0  0  0
 15 36  1  0  0  0  0
 16 37  1  0  0  0  0
 16 38  1  0  0  0  0
 16 39  1  0  0  0  0
 17 40  1  0  0  0  0
 17 41  1  0  0  0  0
M  CHG  1   9   1
M  END
> <s_m_source_file>
AV-unprocessed.smi

> <i_m_source_file_index>
3181

> <i_lp_mmshare_version>
43012

> <i_f3d_flags>
0

> <s_epik_input>
bjFbY0hdbltjSF1uMVtDSDJdW0NAQEhdKFtDSDNdKVtOSF1bQ0BASF0yW0NIMl1bQ0gyXVtDQEBIXShbQ0gzXSlbQ0BASF0oW0NIM10pW0NIMl0y

> <s_epik_cmdline>
J2VwaWtfcHl0aG9uJywgJy1waCcsICc3LjAnLCAnLXRuJywgJzgnLCAnLW1hJywgJzIwMCcsICctbWV0YWxfYmluZGluZycsICctaW1hZScsICc8aW5maWxlLm1hZT4nLCAnLW9tYWUnLCAnPG91dGZpbGUubWFlPic=

> <r_lp_tautomer_probability>
1

> <r_epik_Ionization_Penalty>
0.000617007

> <r_epik_Ionization_Penalty_Charging>
0.000616215

> <r_epik_Ionization_Penalty_Neutral>
7.92544e-07

> <r_epik_State_Penalty>
0.000388807

> <r_epik_Charging_Adjusted_Penalty>
0.00100502

> <i_epik_Tot_Q>
1

> <i_epik_Tot_abs_Q>
1

> <r_epik_Metal_State_Penalty>
-0

> <b_epik_Metal_Only>
0

> <s_lp_Force_Field>
OPLS_2005

> <r_lp_Energy>
21.8546

> <b_lp_Chiralities_Consistent>
1

> <s_lp_Variant>
AV-unprocessed.smi:3181-16

> <Gold.Version>
5.8.1

> <Gold.Id.Protein>
6NUR|6NUR_protein|mol2

> <Gold.PLP.Fitness>
42.1311

> <Gold.PLP.PLP>
-33.6553

> <Gold.PLP.part.hbond>
-1.0000

> <Gold.PLP.part.metal>
0.0000

> <Gold.PLP.part.buried>
-1.3583

> <Gold.PLP.part.nonpolar>
-30.3938

> <Gold.PLP.part.repulsive>
0.1738

> <Gold.PLP.ligand.clash>
0.0000

> <Gold.PLP.ligand.torsion>
0.2758

> <Gold.PLP.Chemscore.Hbond>
2.0000

> <Gold.PLP.Chemscore.CHOScore>
0.9997

> <Gold.PLP.Chemscore.Metal>
0.0000

> <Gold.Chemscore.Hbonds>
donor molecule, donor type, donor heavy atom, donor atom, acceptor molecule, acceptor atom, score
      L1  H     9    42       P1  7948  2.00
      L1  C     7    25       P1 10737  0.97

> <Gold.PLP.Chemscore.Internal.Correction>
0.0283

> <Gold.Rescore>
     Score         DG    S(hbond)    S(metal)    S(lipo)     H(rot)  DE(clash)    DE(int)     intcor
     11.60     -11.95       0.99        0.00      73.07       2.11       0.04       0.30       ----

> <Gold.Chemscore.Fitness>
11.6007

> <Gold.Chemscore.DG>
-11.9489

> <Gold.Chemscore.ZeroCoef>
-5.4800

> <Gold.Chemscore.Hbond>
0.9939

> <Gold.Chemscore.Metal>
0.0000

> <Gold.Chemscore.Lipo>
73.0748

> <Gold.Chemscore.Internal_Hbond>
0.0000

> <Gold.Chemscore.DEClash>
0.0446

> <Gold.Chemscore.DEInternal>
0.3036

> <Gold.Chemscore.Rot>
2.1095

> <Gold.Chemscore.Internal.Correction>
   9.000000E+99

> <Gold.Chemscore.Hbonds>
donor molecule, donor type, donor heavy atom, donor atom, acceptor molecule, acceptor atom, score
      L1  H     9    42       P1  7948  0.98

> <Gold.Chemscore.Hbond.Weighted>
-3.3195

> <Gold.Chemscore.Metal.Weighted>
-0.0000

> <Gold.Chemscore.Lipo.Weighted>
-8.5497

> <Gold.Chemscore.Internal_Hbond.Weighted>
0.0000

> <Gold.Chemscore.DEClash.Weighted>
0.0446

> <Gold.Chemscore.DEInternal.Weighted>
0.3036

> <Gold.Chemscore.Rot.Weighted>
5.4003

> <Gold.Chemscore.Internal.Correction.Weighted>
   9.000000E+99

> <Gold.Protein.RotatedTorsions>
[ 6907 6896 6895 6894 ] final   -5.70 input  -60.11 | X-H torsion
[ 7974 7965 7964 7962 ] final -135.97 input  175.53 | X-H torsion
[ 8008 7997 7996 7995 ] final  -65.89 input   59.86 | X-H torsion
[ 10167 10162 10161 10158 ] final  113.78 input  -65.29 | X-H torsion
[ 10718 10713 10712 10709 ] final   -5.30 input   66.30 | X-H torsion
[ 10763 10752 10751 10750 ] final -133.08 input  -60.55 | X-H torsion
[ 11005 11000 10999 10996 ] final   74.59 input  -57.11 | X-H torsion

> <Gold.Protein.ActiveResidues>
 VAL166  LYS551  ARG553  GLY616  TRP617  ASP618  TYR619  PRO620  LYS621  CYS622 
 ASP623  PHE694  ASN695  SER759  ASP760  ASP761  ALA762  ILE779  LEU786  VAL792 
 PHE793  MET794  SER795  GLU796  ALA797  LYS798  CYS799  TRP800  GLU811  SER814 

> <Gold.Protein.RotatedAtoms>
  151.4775  135.1050  159.9768 H   0  0  0  0  0  0  0  0  0  0  0  0  # atno 6907 bound_to 6896
  152.4792  133.8209  159.7064 H   0  0  0  0  0  0  0  0  0  0  0  0  # atno 6908 bound_to 6896
  150.8852  133.7256  159.2947 H   0  0  0  0  0  0  0  0  0  0  0  0  # atno 6909 bound_to 6896
  144.8967  140.6716  143.5111 H   0  0  0  0  0  0  0  0  0  0  0  0  # atno 7974 bound_to 7965
  154.4700  140.0924  156.7120 H   0  0  0  0  0  0  0  0  0  0  0  0  # atno 8008 bound_to 7997
  155.4751  140.3465  155.4313 H   0  0  0  0  0  0  0  0  0  0  0  0  # atno 8009 bound_to 7997
  156.1023  140.1425  156.9440 H   0  0  0  0  0  0  0  0  0  0  0  0  # atno 8010 bound_to 7997
  139.6436  144.7125  151.2187 H   0  0  0  0  0  0  0  0  0  0  0  0  # atno 10167 bound_to 10162
  156.7486  130.5232  149.5809 H   0  0  0  0  0  0  0  0  0  0  0  0  # atno 10718 bound_to 10713
  154.8736  135.3777  154.4514 H   0  0  0  0  0  0  0  0  0  0  0  0  # atno 10763 bound_to 10752
  153.5190  135.7029  153.5746 H   0  0  0  0  0  0  0  0  0  0  0  0  # atno 10764 bound_to 10752
  153.4002  135.3950  155.1948 H   0  0  0  0  0  0  0  0  0  0  0  0  # atno 10765 bound_to 10752
  139.9384  134.7446  156.1167 H   0  0  0  0  0  0  0  0  0  0  0  0  # atno 11005 bound_to 11000
  145.3687  139.1664  143.4344 LP  0  0  0  0  0  0  0  0  0  0  0  0  # atno 17320 bound_to 7965
  146.3085  140.3757  142.8678 LP  0  0  0  0  0  0  0  0  0  0  0  0  # atno 17321 bound_to 7965
  140.7503  143.6269  150.8460 LP  0  0  0  0  0  0  0  0  0  0  0  0  # atno 17342 bound_to 10162
  139.9909  143.5848  152.2910 LP  0  0  0  0  0  0  0  0  0  0  0  0  # atno 17343 bound_to 10162
  156.1416  130.6248  151.0475 LP  0  0  0  0  0  0  0  0  0  0  0  0  # atno 17370 bound_to 10713
  157.6787  131.0844  150.7427 LP  0  0  0  0  0  0  0  0  0  0  0  0  # atno 17371 bound_to 10713
  141.1008  133.6678  156.2749 LP  0  0  0  0  0  0  0  0  0  0  0  0  # atno 17394 bound_to 11000
  140.6016  134.5549  157.5518 LP  0  0  0  0  0  0  0  0  0  0  0  0  # atno 17395 bound_to 11000

$$$$
