AV-unprocessed.smi:1890|AV-procd|sdf|7663|dock1
  -GOLD-   22720 9393D 1   1.00000     0.00000
 Structure written by MMmdl.
 52 53  0  0  0  0  0  0  0  0  2 V2000
  151.8648  144.5030  158.2855 C   0  0  0  0  0  0  0  0  0  0  0  0
  150.9916  143.6088  157.3941 C   0  0  0  0  0  0  0  0  0  0  0  0
  151.4873  142.2326  157.2844 N   0  0  0  0  0  0  0  0  0  0  0  0
  152.0789  141.5899  158.4609 C   0  0  0  0  0  0  0  0  0  0  0  0
  151.1079  140.6328  159.1680 C   0  0  0  0  0  0  0  0  0  0  0  0
  150.8069  141.3684  156.3959 C   0  0  0  0  0  0  0  0  0  0  0  0
  151.2883  140.0777  156.0703 C   0  0  0  0  0  0  0  0  0  0  0  0
  150.5606  139.2596  155.1817 C   0  0  0  0  0  0  0  0  0  0  0  0
  149.3514  139.7267  154.6256 C   0  0  0  0  0  0  0  0  0  0  0  0
  148.6629  138.8692  153.7238 N   0  0  0  0  0  0  0  0  0  0  0  0
  147.3395  138.7528  153.5161 C   0  0  0  0  0  0  0  0  0  0  0  0
  146.4688  139.3626  154.1353 O   0  0  0  0  0  0  0  0  0  0  0  0
  147.0812  137.8640  152.5430 N   0  0  0  0  0  0  0  0  0  0  0  0
  145.7703  137.4669  152.0241 C   0  0  0  0  0  0  0  0  0  0  0  0
  144.6893  137.3916  153.1299 C   0  0  0  0  0  0  0  0  0  0  0  0
  143.3452  136.9168  152.5497 C   0  0  0  0  0  0  0  0  0  0  0  0
  143.5509  135.6278  151.8757 N   0  0  0  0  0  0  0  0  0  0  0  0
  143.1243  134.4268  152.3350 C   0  0  0  0  0  0  0  0  0  0  0  0
  143.4744  133.1589  151.5527 C   0  0  0  0  0  0  0  0  0  0  0  0
  142.4550  134.3064  153.3610 O   0  0  0  0  0  0  0  0  0  0  0  0
  144.4250  135.7620  150.7037 C   0  0  0  0  0  0  0  0  0  0  0  0
  145.8308  136.1707  151.1804 C   0  0  0  0  0  0  0  0  0  0  0  0
  148.9168  141.0280  154.9733 C   0  0  0  0  0  0  0  0  0  0  0  0
  149.6461  141.7780  155.8271 N   0  3  0  0  0  0  0  0  0  0  0  0
  151.5138  145.5344  158.2495 H   0  0  0  0  0  0  0  0  0  0  0  0
  152.9042  144.4968  157.9559 H   0  0  0  0  0  0  0  0  0  0  0  0
  151.8353  144.1904  159.3292 H   0  0  0  0  0  0  0  0  0  0  0  0
  149.9660  143.5991  157.7645 H   0  0  0  0  0  0  0  0  0  0  0  0
  150.9634  144.0664  156.4046 H   0  0  0  0  0  0  0  0  0  0  0  0
  152.9865  141.0505  158.1960 H   0  0  0  0  0  0  0  0  0  0  0  0
  152.4063  142.3554  159.1630 H   0  0  0  0  0  0  0  0  0  0  0  0
  151.5872  140.1678  160.0296 H   0  0  0  0  0  0  0  0  0  0  0  0
  150.7795  139.8339  158.5025 H   0  0  0  0  0  0  0  0  0  0  0  0
  150.2223  141.1560  159.5295 H   0  0  0  0  0  0  0  0  0  0  0  0
  152.2175  139.7085  156.4772 H   0  0  0  0  0  0  0  0  0  0  0  0
  150.9345  138.2775  154.9308 H   0  0  0  0  0  0  0  0  0  0  0  0
  149.2494  138.2500  153.1839 H   0  0  0  0  0  0  0  0  0  0  0  0
  147.8746  137.4162  152.1084 H   0  0  0  0  0  0  0  0  0  0  0  0
  145.4748  138.2700  151.3475 H   0  0  0  0  0  0  0  0  0  0  0  0
  144.9900  136.7024  153.9194 H   0  0  0  0  0  0  0  0  0  0  0  0
  144.5667  138.3671  153.6015 H   0  0  0  0  0  0  0  0  0  0  0  0
  142.5921  136.8835  153.3356 H   0  0  0  0  0  0  0  0  0  0  0  0
  142.9752  137.6441  151.8256 H   0  0  0  0  0  0  0  0  0  0  0  0
  143.0917  133.2152  150.5332 H   0  0  0  0  0  0  0  0  0  0  0  0
  143.0314  132.2818  152.0254 H   0  0  0  0  0  0  0  0  0  0  0  0
  144.5540  133.0098  151.5198 H   0  0  0  0  0  0  0  0  0  0  0  0
  144.4842  134.8469  150.1131 H   0  0  0  0  0  0  0  0  0  0  0  0
  144.0192  136.5212  150.0334 H   0  0  0  0  0  0  0  0  0  0  0  0
  146.4884  136.3112  150.3221 H   0  0  0  0  0  0  0  0  0  0  0  0
  146.2529  135.3508  151.7622 H   0  0  0  0  0  0  0  0  0  0  0  0
  148.0262  141.5109  154.6016 H   0  0  0  0  0  0  0  0  0  0  0  0
  149.3009  142.7098  156.0574 H   0  0  0  0  0  0  0  0  0  0  0  0
  1  2  1  0  0  0  0
  1 25  1  0  0  0  0
  1 26  1  0  0  0  0
  1 27  1  0  0  0  0
  2  3  1  0  0  0  0
  2 28  1  0  0  0  0
  2 29  1  0  0  0  0
  3  4  1  0  0  0  0
  3  6  1  0  0  0  0
  4  5  1  0  0  0  0
  4 30  1  0  0  0  0
  4 31  1  0  0  0  0
  5 32  1  0  0  0  0
  5 33  1  0  0  0  0
  5 34  1  0  0  0  0
  6 24  1  0  0  0  0
  6  7  2  0  0  0  0
  7  8  1  0  0  0  0
  7 35  1  0  0  0  0
  8  9  2  0  0  0  0
  8 36  1  0  0  0  0
  9 10  1  0  0  0  0
  9 23  1  0  0  0  0
 10 11  1  0  0  0  0
 10 37  1  0  0  0  0
 11 12  2  0  0  0  0
 11 13  1  0  0  0  0
 13 14  1  0  0  0  0
 13 38  1  0  0  0  0
 14 22  1  0  0  0  0
 14 15  1  0  0  0  0
 14 39  1  0  0  0  0
 15 16  1  0  0  0  0
 15 40  1  0  0  0  0
 15 41  1  0  0  0  0
 16 17  1  0  0  0  0
 16 42  1  0  0  0  0
 16 43  1  0  0  0  0
 17 18  1  0  0  0  0
 17 21  1  0  0  0  0
 18 19  1  0  0  0  0
 18 20  2  0  0  0  0
 19 44  1  0  0  0  0
 19 45  1  0  0  0  0
 19 46  1  0  0  0  0
 21 22  1  0  0  0  0
 21 47  1  0  0  0  0
 21 48  1  0  0  0  0
 22 49  1  0  0  0  0
 22 50  1  0  0  0  0
 23 24  2  0  0  0  0
 23 51  1  0  0  0  0
 24 52  1  0  0  0  0
M  CHG  1  24   1
M  END
> <s_m_source_file>
AV-unprocessed.smi

> <i_m_source_file_index>
1890

> <i_lp_mmshare_version>
43012

> <i_f3d_flags>
0

> <s_epik_input>
W0NIM11bQ0gyXU4oW0NIMl1bQ0gzXSljMVtjSF1bY0hdYyhbY0hdbjEpW05IXUMoPU8pW05IXVtDSF0yW0NIMl1bQ0gyXU4oQyg9TylbQ0gzXSlbQ0gyXVtDSDJdMg==

> <s_epik_cmdline>
J2VwaWtfcHl0aG9uJywgJy1waCcsICc3LjAnLCAnLXRuJywgJzgnLCAnLW1hJywgJzIwMCcsICctbWV0YWxfYmluZGluZycsICctaW1hZScsICc8aW5maWxlLm1hZT4nLCAnLW9tYWUnLCAnPG91dGZpbGUubWFlPic=

> <r_lp_tautomer_probability>
0.999994

> <r_epik_Ionization_Penalty>
0.22788

> <r_epik_Ionization_Penalty_Charging>
0.227859

> <r_epik_Ionization_Penalty_Neutral>
2.12958e-05

> <r_epik_State_Penalty>
0.0148833

> <r_epik_Charging_Adjusted_Penalty>
0.242742

> <i_epik_Tot_Q>
1

> <i_epik_Tot_abs_Q>
1

> <r_epik_Metal_State_Penalty>
0.0452648

> <b_epik_Metal_Only>
0

> <s_lp_Force_Field>
OPLS_2005

> <r_lp_Energy>
37.6565

> <b_lp_Chiralities_Consistent>
1

> <s_lp_Variant>
AV-unprocessed.smi:1890-1

> <Gold.Version>
5.8.1

> <Gold.Id.Protein>
6NUR|6NUR_protein|mol2

> <Gold.PLP.Fitness>
50.8350

> <Gold.PLP.PLP>
-42.7489

> <Gold.PLP.part.hbond>
-3.4420

> <Gold.PLP.part.metal>
0.0000

> <Gold.PLP.part.buried>
-0.7876

> <Gold.PLP.part.nonpolar>
-40.8323

> <Gold.PLP.part.repulsive>
1.7417

> <Gold.PLP.ligand.clash>
0.0000

> <Gold.PLP.ligand.torsion>
1.1855

> <Gold.PLP.Chemscore.Hbond>
3.1521

> <Gold.PLP.Chemscore.CHOScore>
0.0000

> <Gold.PLP.Chemscore.Metal>
0.0000

> <Gold.Chemscore.Hbonds>
donor molecule, donor type, donor heavy atom, donor atom, acceptor molecule, acceptor atom, score
      L1  H    10    37       P1  7948  0.06
      L1  H    13    38       P1  7948  1.00
      L1  H    24    52       P1  8028  1.69

> <Gold.PLP.Chemscore.Internal.Correction>
1.0008

> <Gold.Rescore>
     Score         DG    S(hbond)    S(metal)    S(lipo)     H(rot)  DE(clash)    DE(int)     intcor
     15.11     -19.93       1.83        0.00     100.81       1.35       2.24       2.57       ----

> <Gold.Chemscore.Fitness>
15.1129

> <Gold.Chemscore.DG>
-19.9273

> <Gold.Chemscore.ZeroCoef>
-5.4800

> <Gold.Chemscore.Hbond>
1.8271

> <Gold.Chemscore.Metal>
0.0000

> <Gold.Chemscore.Lipo>
100.8115

> <Gold.Chemscore.Internal_Hbond>
0.0000

> <Gold.Chemscore.DEClash>
2.2413

> <Gold.Chemscore.DEInternal>
2.5730

> <Gold.Chemscore.Rot>
1.3477

> <Gold.Chemscore.Internal.Correction>
   9.000000E+99

> <Gold.Chemscore.Hbonds>
donor molecule, donor type, donor heavy atom, donor atom, acceptor molecule, acceptor atom, score
      L1  H    10    37       P1  7948  0.08
      L1  H    13    38       P1  7948  0.98
      L1  H    24    52       P1  8028  0.82

> <Gold.Chemscore.Hbond.Weighted>
-6.1025

> <Gold.Chemscore.Metal.Weighted>
-0.0000

> <Gold.Chemscore.Lipo.Weighted>
-11.7949

> <Gold.Chemscore.Internal_Hbond.Weighted>
0.0000

> <Gold.Chemscore.DEClash.Weighted>
2.2413

> <Gold.Chemscore.DEInternal.Weighted>
2.5730

> <Gold.Chemscore.Rot.Weighted>
3.4502

> <Gold.Chemscore.Internal.Correction.Weighted>
   9.000000E+99

> <Gold.Protein.RotatedTorsions>
[ 6907 6896 6895 6894 ] final  -81.40 input  -60.11 | X-H torsion
[ 7974 7965 7964 7962 ] final  136.16 input  175.53 | X-H torsion
[ 8008 7997 7996 7995 ] final  -15.44 input   59.86 | X-H torsion
[ 10167 10162 10161 10158 ] final  129.53 input  -65.29 | X-H torsion
[ 10718 10713 10712 10709 ] final  -96.70 input   66.30 | X-H torsion
[ 10763 10752 10751 10750 ] final   22.67 input  -60.55 | X-H torsion
[ 11005 11000 10999 10996 ] final  136.55 input  -57.11 | X-H torsion

> <Gold.Protein.ActiveResidues>
 VAL166  LYS551  ARG553  GLY616  TRP617  ASP618  TYR619  PRO620  LYS621  CYS622 
 ASP623  PHE694  ASN695  SER759  ASP760  ASP761  ALA762  ILE779  LEU786  VAL792 
 PHE793  MET794  SER795  GLU796  ALA797  LYS798  CYS799  TRP800  GLU811  SER814 

> <Gold.Protein.RotatedAtoms>
  150.6913  134.3824  159.5039 H   0  0  0  0  0  0  0  0  0  0  0  0  # atno 6907 bound_to 6896
  152.1624  134.8899  160.0550 H   0  0  0  0  0  0  0  0  0  0  0  0  # atno 6908 bound_to 6896
  151.9955  133.3771  159.4198 H   0  0  0  0  0  0  0  0  0  0  0  0  # atno 6909 bound_to 6896
  144.9592  139.4729  143.5488 H   0  0  0  0  0  0  0  0  0  0  0  0  # atno 7974 bound_to 7965
  154.5130  140.2196  155.9120 H   0  0  0  0  0  0  0  0  0  0  0  0  # atno 8008 bound_to 7997
  156.1574  140.3149  155.8715 H   0  0  0  0  0  0  0  0  0  0  0  0  # atno 8009 bound_to 7997
  155.3819  140.0473  157.3034 H   0  0  0  0  0  0  0  0  0  0  0  0  # atno 8010 bound_to 7997
  139.5473  144.6784  151.4432 H   0  0  0  0  0  0  0  0  0  0  0  0  # atno 10167 bound_to 10162
  156.0067  130.5162  150.6265 H   0  0  0  0  0  0  0  0  0  0  0  0  # atno 10718 bound_to 10713
  153.0897  135.6643  153.9878 H   0  0  0  0  0  0  0  0  0  0  0  0  # atno 10763 bound_to 10752
  153.9478  135.2987  155.3441 H   0  0  0  0  0  0  0  0  0  0  0  0  # atno 10764 bound_to 10752
  154.7310  135.5123  153.9037 H   0  0  0  0  0  0  0  0  0  0  0  0  # atno 10765 bound_to 10752
  140.0053  134.9461  157.0162 H   0  0  0  0  0  0  0  0  0  0  0  0  # atno 11005 bound_to 11000
  146.3347  139.8730  142.8837 LP  0  0  0  0  0  0  0  0  0  0  0  0  # atno 17320 bound_to 7965
  145.2726  141.0113  143.3763 LP  0  0  0  0  0  0  0  0  0  0  0  0  # atno 17321 bound_to 7965
  140.6725  143.8261  150.7017 LP  0  0  0  0  0  0  0  0  0  0  0  0  # atno 17342 bound_to 10162
  140.1690  143.4210  152.2014 LP  0  0  0  0  0  0  0  0  0  0  0  0  # atno 17343 bound_to 10162
  157.4071  131.0818  151.1255 LP  0  0  0  0  0  0  0  0  0  0  0  0  # atno 17370 bound_to 10713
  157.1899  130.6347  149.5700 LP  0  0  0  0  0  0  0  0  0  0  0  0  # atno 17371 bound_to 10713
  140.4652  134.1443  155.7196 LP  0  0  0  0  0  0  0  0  0  0  0  0  # atno 17394 bound_to 11000
  141.1672  133.8679  157.1678 LP  0  0  0  0  0  0  0  0  0  0  0  0  # atno 17395 bound_to 11000

$$$$
