AV-unprocessed.smi:685|AV-procd|sdf|3334|dock2
  -GOLD-   22720 0303D 1   1.00000     0.00000
 Structure written by MMmdl.
 50 51  0  0  0  0  0  0  0  0  1 V2000
  144.0759  144.2138  162.4369 C   0  0  0  0  0  0  0  0  0  0  0  0
  143.5206  144.9285  161.2378 C   0  0  0  0  0  0  0  0  0  0  0  0
  142.2161  144.9138  161.0197 N   0  0  0  0  0  0  0  0  0  0  0  0
  142.0490  145.6256  159.8872 N   0  0  0  0  0  0  0  0  0  0  0  0
  140.7133  145.8114  159.3545 C   0  0  0  0  0  0  0  0  0  0  0  0
  143.2503  146.0883  159.3867 C   0  0  0  0  0  0  0  0  0  0  0  0
  143.3286  146.8984  158.1327 C   0  0  0  0  0  0  0  0  0  0  0  0
  144.2314  145.6556  160.2386 C   0  0  0  0  0  0  0  0  0  0  0  0
  145.7204  145.8771  160.1641 C   0  0  0  0  0  0  0  0  0  0  0  0
  146.5122  144.5529  160.1097 C   0  0  1  0  0  0  0  0  0  0  0  0
  145.7574  143.4381  159.3680 C   0  0  0  0  0  0  0  0  0  0  0  0
  147.8043  144.7632  159.4625 N   0  0  0  0  0  0  0  0  0  0  0  0
  149.0005  144.5186  160.0204 C   0  0  0  0  0  0  0  0  0  0  0  0
  149.1349  144.0779  161.1624 O   0  0  0  0  0  0  0  0  0  0  0  0
  150.2277  144.8148  159.1533 C   0  0  0  0  0  0  0  0  0  0  0  0
  151.5546  144.5006  159.8701 C   0  0  0  0  0  0  0  0  0  0  0  0
  151.7257  143.0077  160.2033 C   0  0  0  0  0  0  0  0  0  0  0  0
  152.6803  142.7516  161.3718 C   0  0  0  0  0  0  0  0  0  0  0  0
  153.0798  141.2786  161.2404 C   0  0  0  0  0  0  0  0  0  0  0  0
  152.8893  140.9136  159.7605 C   0  0  0  0  0  0  0  0  0  0  0  0
  152.3308  142.1664  159.0749 C   0  0  0  0  0  0  0  0  0  0  0  0
  144.8590  144.8014  162.9164 H   0  0  0  0  0  0  0  0  0  0  0  0
  144.5090  143.2550  162.1512 H   0  0  0  0  0  0  0  0  0  0  0  0
  143.3056  144.0211  163.1845 H   0  0  0  0  0  0  0  0  0  0  0  0
  140.6442  145.3477  158.3702 H   0  0  0  0  0  0  0  0  0  0  0  0
  140.5001  146.8767  159.2630 H   0  0  0  0  0  0  0  0  0  0  0  0
  139.9690  145.3583  160.0111 H   0  0  0  0  0  0  0  0  0  0  0  0
  144.3623  147.0724  157.8350 H   0  0  0  0  0  0  0  0  0  0  0  0
  142.8509  147.8686  158.2695 H   0  0  0  0  0  0  0  0  0  0  0  0
  142.8296  146.3874  157.3090 H   0  0  0  0  0  0  0  0  0  0  0  0
  145.9824  146.4908  159.3018 H   0  0  0  0  0  0  0  0  0  0  0  0
  146.0445  146.4559  161.0295 H   0  0  0  0  0  0  0  0  0  0  0  0
  146.6923  144.2079  161.1296 H   0  0  0  0  0  0  0  0  0  0  0  0
  144.8165  143.1955  159.8620 H   0  0  0  0  0  0  0  0  0  0  0  0
  146.3480  142.5220  159.3320 H   0  0  0  0  0  0  0  0  0  0  0  0
  145.5288  143.7280  158.3418 H   0  0  0  0  0  0  0  0  0  0  0  0
  147.7872  145.1213  158.5188 H   0  0  0  0  0  0  0  0  0  0  0  0
  150.1496  144.2252  158.2394 H   0  0  0  0  0  0  0  0  0  0  0  0
  150.2096  145.8630  158.8515 H   0  0  0  0  0  0  0  0  0  0  0  0
  152.3934  144.8404  159.2607 H   0  0  0  0  0  0  0  0  0  0  0  0
  151.6058  145.0683  160.8004 H   0  0  0  0  0  0  0  0  0  0  0  0
  150.7533  142.5868  160.4649 H   0  0  0  0  0  0  0  0  0  0  0  0
  153.5682  143.3778  161.2698 H   0  0  0  0  0  0  0  0  0  0  0  0
  152.2278  142.9753  162.3383 H   0  0  0  0  0  0  0  0  0  0  0  0
  154.1036  141.1102  161.5764 H   0  0  0  0  0  0  0  0  0  0  0  0
  152.4278  140.6595  161.8579 H   0  0  0  0  0  0  0  0  0  0  0  0
  153.8235  140.5945  159.2974 H   0  0  0  0  0  0  0  0  0  0  0  0
  152.1833  140.0868  159.6723 H   0  0  0  0  0  0  0  0  0  0  0  0
  151.6048  141.9219  158.2992 H   0  0  0  0  0  0  0  0  0  0  0  0
  153.1473  142.7130  158.6008 H   0  0  0  0  0  0  0  0  0  0  0  0
  1  2  1  0  0  0  0
  1 22  1  0  0  0  0
  1 23  1  0  0  0  0
  1 24  1  0  0  0  0
  2  8  1  0  0  0  0
  2  3  2  0  0  0  0
  3  4  1  0  0  0  0
  4  5  1  0  0  0  0
  4  6  1  0  0  0  0
  5 25  1  0  0  0  0
  5 26  1  0  0  0  0
  5 27  1  0  0  0  0
  6  7  1  0  0  0  0
  6  8  2  0  0  0  0
  7 28  1  0  0  0  0
  7 29  1  0  0  0  0
  7 30  1  0  0  0  0
  8  9  1  0  0  0  0
  9 10  1  0  0  0  0
  9 31  1  0  0  0  0
  9 32  1  0  0  0  0
 10 11  1  0  0  0  0
 10 12  1  0  0  0  0
 10 33  1  0  0  0  0
 11 34  1  0  0  0  0
 11 35  1  0  0  0  0
 11 36  1  0  0  0  0
 12 13  1  0  0  0  0
 12 37  1  0  0  0  0
 13 14  2  0  0  0  0
 13 15  1  0  0  0  0
 15 16  1  0  0  0  0
 15 38  1  0  0  0  0
 15 39  1  0  0  0  0
 16 17  1  0  0  0  0
 16 40  1  0  0  0  0
 16 41  1  0  0  0  0
 17 21  1  0  0  0  0
 17 18  1  0  0  0  0
 17 42  1  0  0  0  0
 18 19  1  0  0  0  0
 18 43  1  0  0  0  0
 18 44  1  0  0  0  0
 19 20  1  0  0  0  0
 19 45  1  0  0  0  0
 19 46  1  0  0  0  0
 20 21  1  0  0  0  0
 20 47  1  0  0  0  0
 20 48  1  0  0  0  0
 21 49  1  0  0  0  0
 21 50  1  0  0  0  0
M  END
> <s_m_source_file>
AV-unprocessed.smi

> <i_m_source_file_index>
685

> <i_lp_mmshare_version>
43012

> <i_f3d_flags>
0

> <s_epik_input>
W0NIM11jMW5uKFtDSDNdKWMoW0NIM10pYzFbQ0gyXVtDQEhdKFtDSDNdKVtOSF1DKD1PKVtDSDJdW0NIMl1bQ0hdMltDSDJdW0NIMl1bQ0gyXVtDSDJdMg==

> <s_epik_cmdline>
J2VwaWtfcHl0aG9uJywgJy1waCcsICc3LjAnLCAnLXRuJywgJzgnLCAnLW1hJywgJzIwMCcsICctbWV0YWxfYmluZGluZycsICctaW1hZScsICc8aW5maWxlLm1hZT4nLCAnLW9tYWUnLCAnPG91dGZpbGUubWFlPic=

> <r_lp_tautomer_probability>
1

> <r_epik_Ionization_Penalty>
0.0131144

> <r_epik_Ionization_Penalty_Charging>
0

> <r_epik_Ionization_Penalty_Neutral>
0.0131144

> <r_epik_State_Penalty>
0.0101889

> <r_epik_Charging_Adjusted_Penalty>
0.0101889

> <i_epik_Tot_Q>
0

> <i_epik_Tot_abs_Q>
0

> <r_epik_Metal_State_Penalty>
0.00996794

> <b_epik_Metal_Only>
0

> <s_lp_Force_Field>
OPLS_2005

> <r_lp_Energy>
16.0397

> <b_lp_Chiralities_Consistent>
1

> <s_lp_Variant>
AV-unprocessed.smi:685-2

> <Gold.Version>
5.8.1

> <Gold.Id.Protein>
6NUR|6NUR_protein|mol2

> <Gold.PLP.Fitness>
46.3726

> <Gold.PLP.PLP>
-43.0114

> <Gold.PLP.part.hbond>
-2.0000

> <Gold.PLP.part.metal>
0.0000

> <Gold.PLP.part.buried>
-8.2435

> <Gold.PLP.part.nonpolar>
-34.7114

> <Gold.PLP.part.repulsive>
0.4736

> <Gold.PLP.ligand.clash>
0.0000

> <Gold.PLP.ligand.torsion>
0.6024

> <Gold.PLP.Chemscore.Hbond>
1.4960

> <Gold.PLP.Chemscore.CHOScore>
0.0000

> <Gold.PLP.Chemscore.Metal>
0.0000

> <Gold.Chemscore.Hbonds>
donor molecule, donor type, donor heavy atom, donor atom, acceptor molecule, acceptor atom, score
      L1  H    12    37       P1  8029  0.89
      P1  H  6933  6944       L1    14  0.53

> <Gold.PLP.Chemscore.Internal.Correction>
0.0781

> <Gold.Rescore>
     Score         DG    S(hbond)    S(metal)    S(lipo)     H(rot)  DE(clash)    DE(int)     intcor
     18.77     -19.48       1.36        0.00     114.36       1.53       0.05       0.66       ----

> <Gold.Chemscore.Fitness>
18.7709

> <Gold.Chemscore.DG>
-19.4823

> <Gold.Chemscore.ZeroCoef>
-5.4800

> <Gold.Chemscore.Hbond>
1.3566

> <Gold.Chemscore.Metal>
0.0000

> <Gold.Chemscore.Lipo>
114.3585

> <Gold.Chemscore.Internal_Hbond>
0.0000

> <Gold.Chemscore.DEClash>
0.0475

> <Gold.Chemscore.DEInternal>
0.6640

> <Gold.Chemscore.Rot>
1.5268

> <Gold.Chemscore.Internal.Correction>
   9.000000E+99

> <Gold.Chemscore.Hbonds>
donor molecule, donor type, donor heavy atom, donor atom, acceptor molecule, acceptor atom, score
      L1  H    12    37       P1  8029  0.87
      P1  H  6933  6944       L1    14  0.49

> <Gold.Chemscore.Hbond.Weighted>
-4.5309

> <Gold.Chemscore.Metal.Weighted>
-0.0000

> <Gold.Chemscore.Lipo.Weighted>
-13.3799

> <Gold.Chemscore.Internal_Hbond.Weighted>
0.0000

> <Gold.Chemscore.DEClash.Weighted>
0.0475

> <Gold.Chemscore.DEInternal.Weighted>
0.6640

> <Gold.Chemscore.Rot.Weighted>
3.9086

> <Gold.Chemscore.Internal.Correction.Weighted>
   9.000000E+99

> <Gold.Protein.RotatedTorsions>
[ 6907 6896 6895 6894 ] final -122.44 input  -60.11 | X-H torsion
[ 7974 7965 7964 7962 ] final  -64.59 input  175.53 | X-H torsion
[ 8008 7997 7996 7995 ] final -173.24 input   59.86 | X-H torsion
[ 10167 10162 10161 10158 ] final   11.06 input  -65.29 | X-H torsion
[ 10718 10713 10712 10709 ] final   17.95 input   66.30 | X-H torsion
[ 10763 10752 10751 10750 ] final  -61.75 input  -60.55 | X-H torsion
[ 11005 11000 10999 10996 ] final   87.97 input  -57.11 | X-H torsion

> <Gold.Protein.ActiveResidues>
 VAL166  LYS551  ARG553  GLY616  TRP617  ASP618  TYR619  PRO620  LYS621  CYS622 
 ASP623  PHE694  ASN695  SER759  ASP760  ASP761  ALA762  ILE779  LEU786  VAL792 
 PHE793  MET794  SER795  GLU796  ALA797  LYS798  CYS799  TRP800  GLU811  SER814 

> <Gold.Protein.RotatedAtoms>
  150.8576  133.7692  159.3003 H   0  0  0  0  0  0  0  0  0  0  0  0  # atno 6907 bound_to 6896
  151.5344  135.1067  159.9920 H   0  0  0  0  0  0  0  0  0  0  0  0  # atno 6908 bound_to 6896
  152.4602  133.7762  159.6881 H   0  0  0  0  0  0  0  0  0  0  0  0  # atno 6909 bound_to 6896
  145.7648  140.8843  143.0411 H   0  0  0  0  0  0  0  0  0  0  0  0  # atno 7974 bound_to 7965
  155.9549  140.1133  157.0945 H   0  0  0  0  0  0  0  0  0  0  0  0  # atno 8008 bound_to 7997
  154.4118  140.1193  156.5168 H   0  0  0  0  0  0  0  0  0  0  0  0  # atno 8009 bound_to 7997
  155.6795  140.3473  155.4852 H   0  0  0  0  0  0  0  0  0  0  0  0  # atno 8010 bound_to 7997
  140.6155  143.8317  150.7114 H   0  0  0  0  0  0  0  0  0  0  0  0  # atno 10167 bound_to 10162
  157.0894  130.6421  149.5845 H   0  0  0  0  0  0  0  0  0  0  0  0  # atno 10718 bound_to 10713
  154.2894  135.6256  153.5379 H   0  0  0  0  0  0  0  0  0  0  0  0  # atno 10763 bound_to 10752
  152.9854  135.5652  154.5406 H   0  0  0  0  0  0  0  0  0  0  0  0  # atno 10764 bound_to 10752
  154.5014  135.2872  155.1393 H   0  0  0  0  0  0  0  0  0  0  0  0  # atno 10765 bound_to 10752
  139.8907  134.8457  156.2934 H   0  0  0  0  0  0  0  0  0  0  0  0  # atno 11005 bound_to 11000
  144.6823  139.9773  143.7483 LP  0  0  0  0  0  0  0  0  0  0  0  0  # atno 17320 bound_to 7965
  146.0228  139.3266  143.0802 LP  0  0  0  0  0  0  0  0  0  0  0  0  # atno 17321 bound_to 7965
  140.1895  143.4048  152.1874 LP  0  0  0  0  0  0  0  0  0  0  0  0  # atno 17342 bound_to 10162
  139.5395  144.7243  151.4780 LP  0  0  0  0  0  0  0  0  0  0  0  0  # atno 17343 bound_to 10162
  155.9902  130.4952  150.7247 LP  0  0  0  0  0  0  0  0  0  0  0  0  # atno 17370 bound_to 10713
  157.4734  131.0895  151.0617 LP  0  0  0  0  0  0  0  0  0  0  0  0  # atno 17371 bound_to 10713
  140.9961  133.7179  156.0888 LP  0  0  0  0  0  0  0  0  0  0  0  0  # atno 17394 bound_to 11000
  140.7560  134.3992  157.5533 LP  0  0  0  0  0  0  0  0  0  0  0  0  # atno 17395 bound_to 11000

$$$$
