AV-unprocessed.smi:1726|AV-procd|sdf|6962|dock7
  -GOLD-   22720 8173D 1   1.00000     0.00000
 Structure written by MMmdl.
 42 43  0  0  0  0  0  0  0  0  3 V2000
  149.1136  141.5194  154.6584 C   0  0  0  0  0  0  0  0  0  0  0  0
  148.8924  140.0306  154.3529 C   0  0  0  0  0  0  0  0  0  0  0  0
  149.6865  139.1495  155.2447 N   0  3  2  0  0  0  0  0  0  0  0  0
  151.0823  139.6276  155.4230 C   0  0  0  0  0  0  0  0  0  0  0  0
  151.8281  138.7868  156.4742 C   0  0  0  0  0  0  0  0  0  0  0  0
  151.7778  137.2869  156.1356 C   0  0  0  0  0  0  0  0  0  0  0  0
  150.3294  136.8226  155.8987 C   0  0  1  0  0  0  0  0  0  0  0  0
  149.5891  136.8358  157.1611 N   0  0  0  0  0  0  0  0  0  0  0  0
  149.3281  135.7617  157.9203 C   0  0  0  0  0  0  0  0  0  0  0  0
  149.7015  134.6267  157.6265 O   0  0  0  0  0  0  0  0  0  0  0  0
  148.6221  136.1082  159.0114 N   0  0  0  0  0  0  0  0  0  0  0  0
  148.0968  135.3011  160.0355 C   0  0  0  0  0  0  0  0  0  0  0  0
  148.0100  133.9419  159.9948 C   0  0  0  0  0  0  0  0  0  0  0  0
  147.4402  133.1651  161.0890 C   0  0  0  0  0  0  0  0  0  0  0  0
  147.3316  131.6511  161.1000 C   0  0  0  0  0  0  0  0  0  0  0  0
  147.6033  131.1611  159.8909 F   0  0  0  0  0  0  0  0  0  0  0  0
  148.2068  131.1328  161.9609 F   0  0  0  0  0  0  0  0  0  0  0  0
  146.1090  131.2520  161.4512 F   0  0  0  0  0  0  0  0  0  0  0  0
  147.0057  133.9615  162.1293 C   0  0  0  0  0  0  0  0  0  0  0  0
  147.0448  135.3069  162.2439 N   0  5  0  0  0  0  0  0  0  0  0  0
  147.5835  136.0240  161.2179 C   0  0  0  0  0  0  0  0  0  0  0  0
  147.6482  137.2534  161.2558 O   0  0  0  0  0  0  0  0  0  0  0  0
  149.6611  137.7207  154.8340 C   0  0  0  0  0  0  0  0  0  0  0  0
  148.5781  142.1415  153.9407 H   0  0  0  0  0  0  0  0  0  0  0  0
  150.1704  141.7810  154.5967 H   0  0  0  0  0  0  0  0  0  0  0  0
  148.7580  141.7940  155.6509 H   0  0  0  0  0  0  0  0  0  0  0  0
  147.8338  139.7748  154.4164 H   0  0  0  0  0  0  0  0  0  0  0  0
  149.1896  139.8585  153.3177 H   0  0  0  0  0  0  0  0  0  0  0  0
  151.6064  139.5874  154.4667 H   0  0  0  0  0  0  0  0  0  0  0  0
  151.0794  140.6716  155.7391 H   0  0  0  0  0  0  0  0  0  0  0  0
  152.8652  139.1159  156.5450 H   0  0  0  0  0  0  0  0  0  0  0  0
  151.3864  138.9579  157.4566 H   0  0  0  0  0  0  0  0  0  0  0  0
  152.3673  137.1020  155.2365 H   0  0  0  0  0  0  0  0  0  0  0  0
  152.2426  136.7031  156.9311 H   0  0  0  0  0  0  0  0  0  0  0  0
  150.3540  135.7946  155.5331 H   0  0  0  0  0  0  0  0  0  0  0  0
  149.2592  137.7331  157.4860 H   0  0  0  0  0  0  0  0  0  0  0  0
  148.4483  137.0947  159.1385 H   0  0  0  0  0  0  0  0  0  0  0  0
  148.3504  133.3904  159.1352 H   0  0  0  0  0  0  0  0  0  0  0  0
  146.5596  133.4351  163.0002 H   0  0  0  0  0  0  0  0  0  0  0  0
  148.6373  137.3908  154.6636 H   0  0  0  0  0  0  0  0  0  0  0  0
  150.1759  137.6103  153.8780 H   0  0  0  0  0  0  0  0  0  0  0  0
  149.2513  139.2013  156.1547 H   0  0  0  0  0  0  0  0  0  0  0  0
  1  2  1  0  0  0  0
  1 24  1  0  0  0  0
  1 25  1  0  0  0  0
  1 26  1  0  0  0  0
  2  3  1  0  0  0  0
  2 27  1  0  0  0  0
  2 28  1  0  0  0  0
  3 23  1  0  0  0  0
  3  4  1  0  0  0  0
  3 42  1  0  0  0  0
  4  5  1  0  0  0  0
  4 29  1  0  0  0  0
  4 30  1  0  0  0  0
  5  6  1  0  0  0  0
  5 31  1  0  0  0  0
  5 32  1  0  0  0  0
  6  7  1  0  0  0  0
  6 33  1  0  0  0  0
  6 34  1  0  0  0  0
  7  8  1  0  0  0  0
  7 23  1  0  0  0  0
  7 35  1  0  0  0  0
  8  9  1  0  0  0  0
  8 36  1  0  0  0  0
  9 10  2  0  0  0  0
  9 11  1  0  0  0  0
 11 12  1  0  0  0  0
 11 37  1  0  0  0  0
 12 21  1  0  0  0  0
 12 13  2  0  0  0  0
 13 14  1  0  0  0  0
 13 38  1  0  0  0  0
 14 15  1  0  0  0  0
 14 19  2  0  0  0  0
 15 16  1  0  0  0  0
 15 17  1  0  0  0  0
 15 18  1  0  0  0  0
 19 20  1  0  0  0  0
 19 39  1  0  0  0  0
 20 21  1  0  0  0  0
 21 22  2  0  0  0  0
 23 40  1  0  0  0  0
 23 41  1  0  0  0  0
M  CHG  1   3   1
M  CHG  1  20  -1
M  END
> <s_m_source_file>
AV-unprocessed.smi

> <i_m_source_file_index>
1726

> <i_lp_mmshare_version>
43012

> <i_f3d_flags>
0

> <s_epik_input>
W0NIM11bQ0gyXU4xW0NIMl1bQ0gyXVtDSDJdW0NASF0oW0NIMl0xKVtOSF1DKD1PKVtOSF1jMltjSF1jKEMoRikoRilGKVtjSF1bbkhdYzI9Tw==

> <s_epik_cmdline>
J2VwaWtfcHl0aG9uJywgJy1waCcsICc3LjAnLCAnLXRuJywgJzgnLCAnLW1hJywgJzIwMCcsICctbWV0YWxfYmluZGluZycsICctaW1hZScsICc8aW5maWxlLm1hZT4nLCAnLW9tYWUnLCAnPG91dGZpbGUubWFlPic=

> <r_lp_tautomer_probability>
1

> <r_epik_Ionization_Penalty>
3.01007

> <r_epik_Ionization_Penalty_Charging>
0.14897

> <r_epik_Ionization_Penalty_Neutral>
2.8611

> <r_epik_State_Penalty>
2.85632

> <r_epik_Charging_Adjusted_Penalty>
3.00529

> <i_epik_Tot_Q>
0

> <i_epik_Tot_abs_Q>
2

> <r_epik_Metal_State_Penalty>
0.443826

> <b_epik_Metal_Only>
1

> <s_lp_Force_Field>
OPLS_2005

> <r_lp_Energy>
34.8935

> <b_lp_Chiralities_Consistent>
1

> <s_lp_Variant>
AV-unprocessed.smi:1726-6

> <Gold.Version>
5.8.1

> <Gold.Id.Protein>
6NUR|6NUR_protein|mol2

> <Gold.PLP.Fitness>
38.7986

> <Gold.PLP.PLP>
-31.9926

> <Gold.PLP.part.hbond>
-3.0000

> <Gold.PLP.part.metal>
0.0000

> <Gold.PLP.part.buried>
-3.7193

> <Gold.PLP.part.nonpolar>
-27.0150

> <Gold.PLP.part.repulsive>
0.2162

> <Gold.PLP.ligand.clash>
0.0000

> <Gold.PLP.ligand.torsion>
0.7281

> <Gold.PLP.Chemscore.Hbond>
2.7440

> <Gold.PLP.Chemscore.CHOScore>
0.0000

> <Gold.PLP.Chemscore.Metal>
0.0000

> <Gold.Chemscore.Hbonds>
donor molecule, donor type, donor heavy atom, donor atom, acceptor molecule, acceptor atom, score
      P1  H  6896  6908       L1    10  0.99
      P1  H  6931  6943       L1    22  0.91
      P1  H  6934  6947       L1    22  0.85

> <Gold.PLP.Chemscore.Internal.Correction>
0.0301

> <Gold.Rescore>
     Score         DG    S(hbond)    S(metal)    S(lipo)     H(rot)  DE(clash)    DE(int)     intcor
     16.69     -18.12       2.38        0.00      68.13       1.28       0.01       1.43       ----

> <Gold.Chemscore.Fitness>
16.6885

> <Gold.Chemscore.DG>
-18.1234

> <Gold.Chemscore.ZeroCoef>
-5.4800

> <Gold.Chemscore.Hbond>
2.3796

> <Gold.Chemscore.Metal>
0.0000

> <Gold.Chemscore.Lipo>
68.1302

> <Gold.Chemscore.Internal_Hbond>
0.0000

> <Gold.Chemscore.DEClash>
0.0092

> <Gold.Chemscore.DEInternal>
1.4257

> <Gold.Chemscore.Rot>
1.2796

> <Gold.Chemscore.Internal.Correction>
   9.000000E+99

> <Gold.Chemscore.Hbonds>
donor molecule, donor type, donor heavy atom, donor atom, acceptor molecule, acceptor atom, score
      P1  H  6896  6908       L1    10  0.22
      P1  H  6931  6943       L1    22  0.89
      P1  H  6934  6947       L1    22  0.85

> <Gold.Chemscore.Hbond.Weighted>
-7.9480

> <Gold.Chemscore.Metal.Weighted>
-0.0000

> <Gold.Chemscore.Lipo.Weighted>
-7.9712

> <Gold.Chemscore.Internal_Hbond.Weighted>
0.0000

> <Gold.Chemscore.DEClash.Weighted>
0.0092

> <Gold.Chemscore.DEInternal.Weighted>
1.4257

> <Gold.Chemscore.Rot.Weighted>
3.2759

> <Gold.Chemscore.Internal.Correction.Weighted>
   9.000000E+99

> <Gold.Protein.RotatedTorsions>
[ 6907 6896 6895 6894 ] final  139.95 input  -60.11 | X-H torsion
[ 7974 7965 7964 7962 ] final  177.19 input  175.53 | X-H torsion
[ 8008 7997 7996 7995 ] final  -16.11 input   59.86 | X-H torsion
[ 10167 10162 10161 10158 ] final -144.01 input  -65.29 | X-H torsion
[ 10718 10713 10712 10709 ] final -154.56 input   66.30 | X-H torsion
[ 10763 10752 10751 10750 ] final   91.39 input  -60.55 | X-H torsion
[ 11005 11000 10999 10996 ] final -137.11 input  -57.11 | X-H torsion

> <Gold.Protein.ActiveResidues>
 VAL166  LYS551  ARG553  GLY616  TRP617  ASP618  TYR619  PRO620  LYS621  CYS622 
 ASP623  PHE694  ASN695  SER759  ASP760  ASP761  ALA762  ILE779  LEU786  VAL792 
 PHE793  MET794  SER795  GLU796  ALA797  LYS798  CYS799  TRP800  GLU811  SER814 

> <Gold.Protein.RotatedAtoms>
  152.2489  133.5198  159.5313 H   0  0  0  0  0  0  0  0  0  0  0  0  # atno 6907 bound_to 6896
  150.7087  134.0987  159.3967 H   0  0  0  0  0  0  0  0  0  0  0  0  # atno 6908 bound_to 6896
  151.8907  135.0417  160.0548 H   0  0  0  0  0  0  0  0  0  0  0  0  # atno 6909 bound_to 6896
  144.7173  140.0209  143.6440 H   0  0  0  0  0  0  0  0  0  0  0  0  # atno 7974 bound_to 7965
  154.5078  140.2178  155.9217 H   0  0  0  0  0  0  0  0  0  0  0  0  # atno 8008 bound_to 7997
  156.1515  140.3160  155.8622 H   0  0  0  0  0  0  0  0  0  0  0  0  # atno 8009 bound_to 7997
  155.3930  140.0479  157.3030 H   0  0  0  0  0  0  0  0  0  0  0  0  # atno 8010 bound_to 7997
  139.7939  143.7928  152.2652 H   0  0  0  0  0  0  0  0  0  0  0  0  # atno 10167 bound_to 10162
  156.5010  130.8391  151.2609 H   0  0  0  0  0  0  0  0  0  0  0  0  # atno 10718 bound_to 10713
  153.2077  135.4399  155.0343 H   0  0  0  0  0  0  0  0  0  0  0  0  # atno 10763 bound_to 10752
  154.8183  135.3325  154.7116 H   0  0  0  0  0  0  0  0  0  0  0  0  # atno 10764 bound_to 10752
  153.7556  135.6995  153.4992 H   0  0  0  0  0  0  0  0  0  0  0  0  # atno 10765 bound_to 10752
  140.8742  134.2013  157.4632 H   0  0  0  0  0  0  0  0  0  0  0  0  # atno 11005 bound_to 11000
  146.0181  139.3227  143.0829 LP  0  0  0  0  0  0  0  0  0  0  0  0  # atno 17320 bound_to 7965
  145.8601  140.9480  143.0704 LP  0  0  0  0  0  0  0  0  0  0  0  0  # atno 17321 bound_to 7965
  139.8027  144.7367  150.9803 LP  0  0  0  0  0  0  0  0  0  0  0  0  # atno 17342 bound_to 10162
  140.7820  143.4329  151.0668 LP  0  0  0  0  0  0  0  0  0  0  0  0  # atno 17343 bound_to 10162
  157.7463  130.9982  150.2843 LP  0  0  0  0  0  0  0  0  0  0  0  0  # atno 17370 bound_to 10713
  156.3333  130.3804  149.7472 LP  0  0  0  0  0  0  0  0  0  0  0  0  # atno 17371 bound_to 10713
  139.8714  134.9788  156.5011 LP  0  0  0  0  0  0  0  0  0  0  0  0  # atno 17394 bound_to 11000
  140.8538  133.8112  155.9195 LP  0  0  0  0  0  0  0  0  0  0  0  0  # atno 17395 bound_to 11000

$$$$
