AV-unprocessed.smi:2849|AV-procd|sdf|10964|dock2
  -GOLD-   2272015413D 1   1.00000     0.00000
 Structure written by MMmdl.
 56 59  0  0  0  0  0  0  0  0  3 V2000
  143.1908  134.0179  151.9583 C   0  0  0  0  0  0  0  0  0  0  0  0
  144.4791  134.0519  152.6905 N   0  3  2  0  0  0  0  0  0  0  0  0
  144.5457  135.0463  153.7877 C   0  0  1  0  0  0  0  0  0  0  0  0
  145.7255  134.6901  154.7207 C   0  0  0  0  0  0  0  0  0  0  0  0
  147.0709  134.5217  153.9892 C   0  0  0  0  0  0  0  0  0  0  0  0
  146.9291  133.7622  152.6552 C   0  0  0  0  0  0  0  0  0  0  0  0
  145.6821  134.1612  151.8314 C   0  0  2  0  0  0  0  0  0  0  0  0
  145.7609  135.5462  151.1404 C   0  0  0  0  0  0  0  0  0  0  0  0
  145.5151  136.7722  152.0540 C   0  0  2  0  0  0  0  0  0  0  0  0
  146.7734  137.3922  152.4638 N   0  0  0  0  0  0  0  0  0  0  0  0
  146.9013  138.4522  153.2753 C   0  0  0  0  0  0  0  0  0  0  0  0
  145.9445  139.0507  153.7649 O   0  0  0  0  0  0  0  0  0  0  0  0
  148.1959  138.7611  153.4632 N   0  0  0  0  0  0  0  0  0  0  0  0
  148.7699  139.7407  154.3193 C   0  0  0  0  0  0  0  0  0  0  0  0
  149.9417  139.3836  155.0209 C   0  0  0  0  0  0  0  0  0  0  0  0
  150.5396  140.3053  155.9042 C   0  0  0  0  0  0  0  0  0  0  0  0
  149.9512  141.5792  156.0793 C   0  0  0  0  0  0  0  0  0  0  0  0
  150.4608  142.5628  156.9386 N   0  0  0  0  0  0  0  0  0  0  0  0
  151.7919  143.0372  156.5989 C   0  0  0  0  0  0  0  0  0  0  0  0
  152.3137  143.7399  157.8553 C   0  0  0  0  0  0  0  0  0  0  0  0
  151.4602  143.1862  159.0023 C   0  0  0  0  0  0  0  0  0  0  0  0
  150.5178  142.1790  158.3395 C   0  0  0  0  0  0  0  0  0  0  0  0
  148.8293  141.8837  155.3920 N   0  3  0  0  0  0  0  0  0  0  0  0
  148.2256  141.0310  154.5354 C   0  0  0  0  0  0  0  0  0  0  0  0
  144.5528  136.4962  153.2416 C   0  0  0  0  0  0  0  0  0  0  0  0
  142.9910  134.9496  151.4294 H   0  0  0  0  0  0  0  0  0  0  0  0
  142.3665  133.8390  152.6491 H   0  0  0  0  0  0  0  0  0  0  0  0
  143.1900  133.2083  151.2281 H   0  0  0  0  0  0  0  0  0  0  0  0
  143.6419  134.9357  154.3890 H   0  0  0  0  0  0  0  0  0  0  0  0
  145.8210  135.4309  155.5152 H   0  0  0  0  0  0  0  0  0  0  0  0
  145.4911  133.7485  155.2192 H   0  0  0  0  0  0  0  0  0  0  0  0
  147.5355  135.4885  153.8281 H   0  0  0  0  0  0  0  0  0  0  0  0
  147.7701  133.9909  154.6361 H   0  0  0  0  0  0  0  0  0  0  0  0
  147.8347  133.8797  152.0592 H   0  0  0  0  0  0  0  0  0  0  0  0
  146.8587  132.6971  152.8802 H   0  0  0  0  0  0  0  0  0  0  0  0
  145.5920  133.4149  151.0406 H   0  0  0  0  0  0  0  0  0  0  0  0
  146.7051  135.6468  150.6037 H   0  0  0  0  0  0  0  0  0  0  0  0
  145.0005  135.5650  150.3587 H   0  0  0  0  0  0  0  0  0  0  0  0
  145.0319  137.5224  151.4246 H   0  0  0  0  0  0  0  0  0  0  0  0
  147.6181  136.9733  152.1031 H   0  0  0  0  0  0  0  0  0  0  0  0
  148.8584  138.2157  152.9318 H   0  0  0  0  0  0  0  0  0  0  0  0
  150.3839  138.4070  154.8868 H   0  0  0  0  0  0  0  0  0  0  0  0
  151.4364  140.0301  156.4397 H   0  0  0  0  0  0  0  0  0  0  0  0
  152.4436  142.2021  156.3386 H   0  0  0  0  0  0  0  0  0  0  0  0
  151.7587  143.7157  155.7460 H   0  0  0  0  0  0  0  0  0  0  0  0
  153.3780  143.5537  158.0034 H   0  0  0  0  0  0  0  0  0  0  0  0
  152.1736  144.8186  157.7747 H   0  0  0  0  0  0  0  0  0  0  0  0
  152.0629  142.7203  159.7824 H   0  0  0  0  0  0  0  0  0  0  0  0
  150.8887  143.9936  159.4620 H   0  0  0  0  0  0  0  0  0  0  0  0
  149.5263  142.2004  158.7931 H   0  0  0  0  0  0  0  0  0  0  0  0
  150.9147  141.1687  158.4474 H   0  0  0  0  0  0  0  0  0  0  0  0
  147.3301  141.4188  154.0754 H   0  0  0  0  0  0  0  0  0  0  0  0
  143.5429  136.7181  152.8953 H   0  0  0  0  0  0  0  0  0  0  0  0
  144.7180  137.1999  154.0580 H   0  0  0  0  0  0  0  0  0  0  0  0
  144.5442  133.1482  153.1374 H   0  0  0  0  0  0  0  0  0  0  0  0
  148.4125  142.8048  155.5295 H   0  0  0  0  0  0  0  0  0  0  0  0
  1  2  1  0  0  0  0
  1 26  1  0  0  0  0
  1 27  1  0  0  0  0
  1 28  1  0  0  0  0
  2  7  1  0  0  0  0
  2  3  1  0  0  0  0
  2 55  1  0  0  0  0
  3 25  1  0  0  0  0
  3  4  1  0  0  0  0
  3 29  1  0  0  0  0
  4  5  1  0  0  0  0
  4 30  1  0  0  0  0
  4 31  1  0  0  0  0
  5  6  1  0  0  0  0
  5 32  1  0  0  0  0
  5 33  1  0  0  0  0
  6  7  1  0  0  0  0
  6 34  1  0  0  0  0
  6 35  1  0  0  0  0
  7  8  1  0  0  0  0
  7 36  1  0  0  0  0
  8  9  1  0  0  0  0
  8 37  1  0  0  0  0
  8 38  1  0  0  0  0
  9 10  1  0  0  0  0
  9 25  1  0  0  0  0
  9 39  1  0  0  0  0
 10 11  1  0  0  0  0
 10 40  1  0  0  0  0
 11 12  2  0  0  0  0
 11 13  1  0  0  0  0
 13 14  1  0  0  0  0
 13 41  1  0  0  0  0
 14 24  1  0  0  0  0
 14 15  2  0  0  0  0
 15 16  1  0  0  0  0
 15 42  1  0  0  0  0
 16 17  2  0  0  0  0
 16 43  1  0  0  0  0
 17 18  1  0  0  0  0
 17 23  1  0  0  0  0
 18 22  1  0  0  0  0
 18 19  1  0  0  0  0
 19 20  1  0  0  0  0
 19 44  1  0  0  0  0
 19 45  1  0  0  0  0
 20 21  1  0  0  0  0
 20 46  1  0  0  0  0
 20 47  1  0  0  0  0
 21 22  1  0  0  0  0
 21 48  1  0  0  0  0
 21 49  1  0  0  0  0
 22 50  1  0  0  0  0
 22 51  1  0  0  0  0
 23 24  2  0  0  0  0
 23 56  1  0  0  0  0
 24 52  1  0  0  0  0
 25 53  1  0  0  0  0
 25 54  1  0  0  0  0
M  CHG  1   2   1
M  CHG  1  23   1
M  END
> <s_m_source_file>
AV-unprocessed.smi

> <i_m_source_file_index>
2849

> <i_lp_mmshare_version>
43012

> <i_f3d_flags>
0

> <s_epik_input>
W0NIMl0xW0NIMl1bQ0gyXVtDQEhdKE4oW0NIM10pW0NIXTEyKVtDSDJdW0NASF0oW0NIMl0yKVtOSF1DKD1PKVtOSF1jM1tjSF1bY0hdYyhuW2NIXTMpTjRbQ0gyXVtDSDJdW0NIMl1bQ0gyXTQ=

> <s_epik_cmdline>
J2VwaWtfcHl0aG9uJywgJy1waCcsICc3LjAnLCAnLXRuJywgJzgnLCAnLW1hJywgJzIwMCcsICctbWV0YWxfYmluZGluZycsICctaW1hZScsICc8aW5maWxlLm1hZT4nLCAnLW9tYWUnLCAnPG91dGZpbGUubWFlPic=

> <r_lp_tautomer_probability>
0.999994

> <r_epik_Ionization_Penalty>
1.2404

> <r_epik_Ionization_Penalty_Charging>
1.24038

> <r_epik_Ionization_Penalty_Neutral>
1.86921e-05

> <r_epik_State_Penalty>
1.30821

> <r_epik_Charging_Adjusted_Penalty>
2.54859

> <i_epik_Tot_Q>
2

> <i_epik_Tot_abs_Q>
2

> <r_epik_Metal_State_Penalty>
1.37823

> <b_epik_Metal_Only>
0

> <s_lp_Force_Field>
OPLS_2005

> <r_lp_Energy>
74.5771

> <b_lp_Chiralities_Consistent>
1

> <s_lp_Variant>
AV-unprocessed.smi:2849-8

> <Gold.Version>
5.8.1

> <Gold.Id.Protein>
6NUR|6NUR_protein|mol2

> <Gold.PLP.Fitness>
40.8489

> <Gold.PLP.PLP>
-32.1636

> <Gold.PLP.part.hbond>
-3.8631

> <Gold.PLP.part.metal>
0.0000

> <Gold.PLP.part.buried>
-6.6691

> <Gold.PLP.part.nonpolar>
-25.3726

> <Gold.PLP.part.repulsive>
2.4738

> <Gold.PLP.ligand.clash>
0.0000

> <Gold.PLP.ligand.torsion>
0.3814

> <Gold.PLP.Chemscore.Hbond>
3.1269

> <Gold.PLP.Chemscore.CHOScore>
0.0000

> <Gold.PLP.Chemscore.Metal>
0.0000

> <Gold.Chemscore.Hbonds>
donor molecule, donor type, donor heavy atom, donor atom, acceptor molecule, acceptor atom, score
      L1  H    10    40       P1  7948  0.99
      L1  H    13    41       P1  7948  0.40
      L1  H    23    56       P1  8028  1.70

> <Gold.PLP.Chemscore.Internal.Correction>
0.0674

> <Gold.Rescore>
     Score         DG    S(hbond)    S(metal)    S(lipo)     H(rot)  DE(clash)    DE(int)     intcor
     17.42     -20.97       2.12        0.00      97.98       1.19       2.06       1.49       ----

> <Gold.Chemscore.Fitness>
17.4214

> <Gold.Chemscore.DG>
-20.9693

> <Gold.Chemscore.ZeroCoef>
-5.4800

> <Gold.Chemscore.Hbond>
2.1159

> <Gold.Chemscore.Metal>
0.0000

> <Gold.Chemscore.Lipo>
97.9775

> <Gold.Chemscore.Internal_Hbond>
0.0000

> <Gold.Chemscore.DEClash>
2.0553

> <Gold.Chemscore.DEInternal>
1.4927

> <Gold.Chemscore.Rot>
1.1879

> <Gold.Chemscore.Internal.Correction>
   9.000000E+99

> <Gold.Chemscore.Hbonds>
donor molecule, donor type, donor heavy atom, donor atom, acceptor molecule, acceptor atom, score
      L1  H    10    40       P1  7948  0.93
      L1  H    13    41       P1  7948  0.40
      L1  H    23    56       P1  8028  0.83

> <Gold.Chemscore.Hbond.Weighted>
-7.0670

> <Gold.Chemscore.Metal.Weighted>
-0.0000

> <Gold.Chemscore.Lipo.Weighted>
-11.4634

> <Gold.Chemscore.Internal_Hbond.Weighted>
0.0000

> <Gold.Chemscore.DEClash.Weighted>
2.0553

> <Gold.Chemscore.DEInternal.Weighted>
1.4927

> <Gold.Chemscore.Rot.Weighted>
3.0410

> <Gold.Chemscore.Internal.Correction.Weighted>
   9.000000E+99

> <Gold.Protein.RotatedTorsions>
[ 6907 6896 6895 6894 ] final  -93.78 input  -60.11 | X-H torsion
[ 7974 7965 7964 7962 ] final -135.08 input  175.53 | X-H torsion
[ 8008 7997 7996 7995 ] final  -98.43 input   59.86 | X-H torsion
[ 10167 10162 10161 10158 ] final  -50.88 input  -65.29 | X-H torsion
[ 10718 10713 10712 10709 ] final -171.08 input   66.30 | X-H torsion
[ 10763 10752 10751 10750 ] final   89.95 input  -60.55 | X-H torsion
[ 11005 11000 10999 10996 ] final  108.23 input  -57.11 | X-H torsion

> <Gold.Protein.ActiveResidues>
 VAL166  LYS551  ARG553  GLY616  TRP617  ASP618  TYR619  PRO620  LYS621  CYS622 
 ASP623  PHE694  ASN695  SER759  ASP760  ASP761  ALA762  ILE779  LEU786  VAL792 
 PHE793  MET794  SER795  GLU796  ALA797  LYS798  CYS799  TRP800  GLU811  SER814 

> <Gold.Protein.RotatedAtoms>
  150.6929  134.1913  159.4286 H   0  0  0  0  0  0  0  0  0  0  0  0  # atno 6907 bound_to 6896
  151.9884  134.9990  160.0570 H   0  0  0  0  0  0  0  0  0  0  0  0  # atno 6908 bound_to 6896
  152.1690  133.4596  159.4936 H   0  0  0  0  0  0  0  0  0  0  0  0  # atno 6909 bound_to 6896
  144.9045  140.6815  143.5064 H   0  0  0  0  0  0  0  0  0  0  0  0  # atno 7974 bound_to 7965
  154.8012  140.0455  157.1274 H   0  0  0  0  0  0  0  0  0  0  0  0  # atno 8008 bound_to 7997
  154.9477  140.3061  155.5070 H   0  0  0  0  0  0  0  0  0  0  0  0  # atno 8009 bound_to 7997
  156.2962  140.2294  156.4552 H   0  0  0  0  0  0  0  0  0  0  0  0  # atno 8010 bound_to 7997
  140.6616  143.2640  151.4424 H   0  0  0  0  0  0  0  0  0  0  0  0  # atno 10167 bound_to 10162
  156.7356  130.9323  151.3107 H   0  0  0  0  0  0  0  0  0  0  0  0  # atno 10718 bound_to 10713
  153.1924  135.4452  155.0166 H   0  0  0  0  0  0  0  0  0  0  0  0  # atno 10763 bound_to 10752
  154.8098  135.3289  154.7337 H   0  0  0  0  0  0  0  0  0  0  0  0  # atno 10764 bound_to 10752
  153.7790  135.6979  153.4947 H   0  0  0  0  0  0  0  0  0  0  0  0  # atno 10765 bound_to 10752
  139.8841  134.9424  156.5941 H   0  0  0  0  0  0  0  0  0  0  0  0  # atno 11005 bound_to 11000
  145.3559  139.1694  143.4409 LP  0  0  0  0  0  0  0  0  0  0  0  0  # atno 17320 bound_to 7965
  146.3126  140.3616  142.8665 LP  0  0  0  0  0  0  0  0  0  0  0  0  # atno 17321 bound_to 7965
  139.5851  144.1622  152.2019 LP  0  0  0  0  0  0  0  0  0  0  0  0  # atno 17342 bound_to 10162
  140.0959  144.5581  150.7022 LP  0  0  0  0  0  0  0  0  0  0  0  0  # atno 17343 bound_to 10162
  157.6840  130.9167  150.0339 LP  0  0  0  0  0  0  0  0  0  0  0  0  # atno 17370 bound_to 10713
  156.1499  130.3642  149.9454 LP  0  0  0  0  0  0  0  0  0  0  0  0  # atno 17371 bound_to 10713
  140.7933  133.8564  155.8665 LP  0  0  0  0  0  0  0  0  0  0  0  0  # atno 17394 bound_to 11000
  140.9657  134.1597  157.4617 LP  0  0  0  0  0  0  0  0  0  0  0  0  # atno 17395 bound_to 11000

$$$$
