AV-unprocessed.smi:3033|AV-procd|sdf|11574|dock5
  -GOLD-   2272016543D 1   1.00000     0.00000
 Structure written by MMmdl.
 33 34  0  0  0  0  0  0  0  0  1 V2000
  154.7797  140.5851  161.3370 C   0  0  0  0  0  0  0  0  0  0  0  0
  153.6627  140.3538  160.4908 O   0  0  0  0  0  0  0  0  0  0  0  0
  152.9436  141.4453  160.0532 C   0  0  0  0  0  0  0  0  0  0  0  0
  152.9576  142.5919  160.8727 C   0  0  0  0  0  0  0  0  0  0  0  0
  152.2608  143.7545  160.4953 C   0  0  0  0  0  0  0  0  0  0  0  0
  151.5398  143.7828  159.2880 C   0  0  0  0  0  0  0  0  0  0  0  0
  151.5104  142.6441  158.4536 C   0  0  0  0  0  0  0  0  0  0  0  0
  150.7717  142.6598  157.1178 C   0  0  1  0  0  0  0  0  0  0  0  0
  151.1553  143.7226  156.2677 O   0  0  0  0  0  0  0  0  0  0  0  0
  150.8304  141.3203  156.3351 C   0  0  0  0  0  0  0  0  0  0  0  0
  149.7620  141.1112  155.3837 N   0  0  0  0  0  0  0  0  0  0  0  0
  148.6203  141.8989  155.3512 C   0  0  0  0  0  0  0  0  0  0  0  0
  147.5900  141.6785  154.4998 C   0  0  0  0  0  0  0  0  0  0  0  0
  146.1942  142.6957  154.5321 Cl  0  0  0  0  0  0  0  0  0  0  0  0
  147.6500  140.5676  153.5509 C   0  0  0  0  0  0  0  0  0  0  0  0
  146.7756  140.2786  152.7364 O   0  0  0  0  0  0  0  0  0  0  0  0
  148.8181  139.8020  153.6186 N   0  0  0  0  0  0  0  0  0  0  0  0
  149.8820  140.0190  154.4948 C   0  0  0  0  0  0  0  0  0  0  0  0
  150.8580  139.2695  154.4732 O   0  0  0  0  0  0  0  0  0  0  0  0
  152.2083  141.4805  158.8418 C   0  0  0  0  0  0  0  0  0  0  0  0
  148.8964  139.0223  152.9821 H   0  0  0  0  0  0  0  0  0  0  0  0
  155.2264  139.6300  161.6127 H   0  0  0  0  0  0  0  0  0  0  0  0
  154.4845  141.0888  162.2586 H   0  0  0  0  0  0  0  0  0  0  0  0
  155.5462  141.1743  160.8316 H   0  0  0  0  0  0  0  0  0  0  0  0
  153.5131  142.5816  161.7992 H   0  0  0  0  0  0  0  0  0  0  0  0
  152.2850  144.6281  161.1299 H   0  0  0  0  0  0  0  0  0  0  0  0
  151.0237  144.6877  159.0021 H   0  0  0  0  0  0  0  0  0  0  0  0
  149.7229  142.8619  157.3393 H   0  0  0  0  0  0  0  0  0  0  0  0
  150.3965  144.0056  155.7806 H   0  0  0  0  0  0  0  0  0  0  0  0
  151.7367  141.3120  155.7273 H   0  0  0  0  0  0  0  0  0  0  0  0
  150.9094  140.4347  156.9703 H   0  0  0  0  0  0  0  0  0  0  0  0
  148.5373  142.7229  156.0457 H   0  0  0  0  0  0  0  0  0  0  0  0
  152.1780  140.6267  158.1822 H   0  0  0  0  0  0  0  0  0  0  0  0
  1  2  1  0  0  0  0
  1 22  1  0  0  0  0
  1 23  1  0  0  0  0
  1 24  1  0  0  0  0
  2  3  1  0  0  0  0
  3 20  1  0  0  0  0
  3  4  2  0  0  0  0
  4  5  1  0  0  0  0
  4 25  1  0  0  0  0
  5  6  2  0  0  0  0
  5 26  1  0  0  0  0
  6  7  1  0  0  0  0
  6 27  1  0  0  0  0
  7  8  1  0  0  0  0
  7 20  2  0  0  0  0
  8  9  1  0  0  0  0
  8 10  1  0  0  0  0
  8 28  1  0  0  0  0
  9 29  1  0  0  0  0
 10 11  1  0  0  0  0
 10 30  1  0  0  0  0
 10 31  1  0  0  0  0
 11 18  1  0  0  0  0
 11 12  1  0  0  0  0
 12 13  2  0  0  0  0
 12 32  1  0  0  0  0
 13 14  1  0  0  0  0
 13 15  1  0  0  0  0
 15 16  2  0  0  0  0
 15 17  1  0  0  0  0
 17 21  1  0  0  0  0
 17 18  1  0  0  0  0
 18 19  2  0  0  0  0
 20 33  1  0  0  0  0
M  END
> <s_m_source_file>
AV-unprocessed.smi

> <i_m_source_file_index>
3033

> <i_lp_mmshare_version>
43012

> <i_f3d_flags>
0

> <s_epik_input>
W0NIM11PYzFbY0hdW2NIXVtjSF1jKFtjSF0xKVtDQEhdKFtPSF0pW0NIMl1uMltjSF1jKENsKWMoPU8pW25IXWMyPU8=

> <s_epik_cmdline>
J2VwaWtfcHl0aG9uJywgJy1waCcsICc3LjAnLCAnLXRuJywgJzgnLCAnLW1hJywgJzIwMCcsICctbWV0YWxfYmluZGluZycsICctaW1hZScsICc8aW5maWxlLm1hZT4nLCAnLW9tYWUnLCAnPG91dGZpbGUubWFlPic=

> <r_lp_tautomer_probability>
0.999537

> <r_epik_Ionization_Penalty>
0.0292058

> <r_epik_Ionization_Penalty_Charging>
0.0292057

> <r_epik_Ionization_Penalty_Neutral>
7.1713e-08

> <r_epik_State_Penalty>
0.0240115

> <r_epik_Charging_Adjusted_Penalty>
0.0532172

> <i_epik_Tot_Q>
0

> <i_epik_Tot_abs_Q>
0

> <r_epik_Metal_State_Penalty>
2.21956

> <b_epik_Metal_Only>
0

> <s_lp_Force_Field>
OPLS_2005

> <r_lp_Energy>
15.9701

> <b_lp_Chiralities_Consistent>
1

> <s_lp_Variant>
AV-unprocessed.smi:3033-2

> <Gold.Version>
5.8.1

> <Gold.Id.Protein>
6NUR|6NUR_protein|mol2

> <Gold.PLP.Fitness>
47.3120

> <Gold.PLP.PLP>
-42.4177

> <Gold.PLP.part.hbond>
-2.8663

> <Gold.PLP.part.metal>
0.0000

> <Gold.PLP.part.buried>
0.7912

> <Gold.PLP.part.nonpolar>
-41.5051

> <Gold.PLP.part.repulsive>
0.5273

> <Gold.PLP.ligand.clash>
0.0000

> <Gold.PLP.ligand.torsion>
0.6961

> <Gold.PLP.Chemscore.Hbond>
1.1241

> <Gold.PLP.Chemscore.CHOScore>
0.9353

> <Gold.PLP.Chemscore.Metal>
0.0000

> <Gold.Chemscore.Hbonds>
donor molecule, donor type, donor heavy atom, donor atom, acceptor molecule, acceptor atom, score
      L1  H     9    29       P1  8028  1.00
      L1  H    17    21       P1  7957  0.02
      P1  H  7989  7998       L1    19  0.05
      L1  C    12    32       P1  8028  0.95

> <Gold.PLP.Chemscore.Internal.Correction>
0.1084

> <Gold.Rescore>
     Score         DG    S(hbond)    S(metal)    S(lipo)     H(rot)  DE(clash)    DE(int)     intcor
     12.84     -14.75       1.03        0.00     104.81       2.51       1.45       0.45       ----

> <Gold.Chemscore.Fitness>
12.8443

> <Gold.Chemscore.DG>
-14.7456

> <Gold.Chemscore.ZeroCoef>
-5.4800

> <Gold.Chemscore.Hbond>
1.0270

> <Gold.Chemscore.Metal>
0.0000

> <Gold.Chemscore.Lipo>
104.8115

> <Gold.Chemscore.Internal_Hbond>
0.0000

> <Gold.Chemscore.DEClash>
1.4490

> <Gold.Chemscore.DEInternal>
0.4522

> <Gold.Chemscore.Rot>
2.5107

> <Gold.Chemscore.Internal.Correction>
   9.000000E+99

> <Gold.Chemscore.Hbonds>
donor molecule, donor type, donor heavy atom, donor atom, acceptor molecule, acceptor atom, score
      L1  H     9    29       P1  8028  0.97
      L1  H    17    21       P1  7957  0.05

> <Gold.Chemscore.Hbond.Weighted>
-3.4300

> <Gold.Chemscore.Metal.Weighted>
-0.0000

> <Gold.Chemscore.Lipo.Weighted>
-12.2629

> <Gold.Chemscore.Internal_Hbond.Weighted>
0.0000

> <Gold.Chemscore.DEClash.Weighted>
1.4490

> <Gold.Chemscore.DEInternal.Weighted>
0.4522

> <Gold.Chemscore.Rot.Weighted>
6.4274

> <Gold.Chemscore.Internal.Correction.Weighted>
   9.000000E+99

> <Gold.Protein.RotatedTorsions>
[ 6907 6896 6895 6894 ] final  -18.79 input  -60.11 | X-H torsion
[ 7974 7965 7964 7962 ] final   97.63 input  175.53 | X-H torsion
[ 8008 7997 7996 7995 ] final  116.08 input   59.86 | X-H torsion
[ 10167 10162 10161 10158 ] final  165.20 input  -65.29 | X-H torsion
[ 10718 10713 10712 10709 ] final -136.67 input   66.30 | X-H torsion
[ 10763 10752 10751 10750 ] final -173.36 input  -60.55 | X-H torsion
[ 11005 11000 10999 10996 ] final   53.73 input  -57.11 | X-H torsion

> <Gold.Protein.ActiveResidues>
 VAL166  LYS551  ARG553  GLY616  TRP617  ASP618  TYR619  PRO620  LYS621  CYS622 
 ASP623  PHE694  ASN695  SER759  ASP760  ASP761  ALA762  ILE779  LEU786  VAL792 
 PHE793  MET794  SER795  GLU796  ALA797  LYS798  CYS799  TRP800  GLU811  SER814 

> <Gold.Protein.RotatedAtoms>
  151.2729  135.0690  159.9140 H   0  0  0  0  0  0  0  0  0  0  0  0  # atno 6907 bound_to 6896
  152.5347  134.0112  159.7949 H   0  0  0  0  0  0  0  0  0  0  0  0  # atno 6908 bound_to 6896
  151.0353  133.5704  159.2687 H   0  0  0  0  0  0  0  0  0  0  0  0  # atno 6909 bound_to 6896
  145.4229  139.2319  143.3186 H   0  0  0  0  0  0  0  0  0  0  0  0  # atno 7974 bound_to 7965
  156.2419  140.2925  156.0468 H   0  0  0  0  0  0  0  0  0  0  0  0  # atno 8008 bound_to 7997
  155.1926  140.0407  157.2920 H   0  0  0  0  0  0  0  0  0  0  0  0  # atno 8009 bound_to 7997
  154.6184  140.2469  155.7587 H   0  0  0  0  0  0  0  0  0  0  0  0  # atno 8010 bound_to 7997
  139.4902  144.4156  151.9247 H   0  0  0  0  0  0  0  0  0  0  0  0  # atno 10167 bound_to 10162
  156.2796  130.7313  151.1306 H   0  0  0  0  0  0  0  0  0  0  0  0  # atno 10718 bound_to 10713
  154.6087  135.2862  155.0456 H   0  0  0  0  0  0  0  0  0  0  0  0  # atno 10763 bound_to 10752
  154.1693  135.6475  153.5009 H   0  0  0  0  0  0  0  0  0  0  0  0  # atno 10764 bound_to 10752
  153.0186  135.5397  154.6833 H   0  0  0  0  0  0  0  0  0  0  0  0  # atno 10765 bound_to 10752
  140.0743  134.5426  155.9013 H   0  0  0  0  0  0  0  0  0  0  0  0  # atno 11005 bound_to 11000
  146.2647  140.4956  142.8839 LP  0  0  0  0  0  0  0  0  0  0  0  0  # atno 17320 bound_to 7965
  144.8233  140.6586  143.6338 LP  0  0  0  0  0  0  0  0  0  0  0  0  # atno 17321 bound_to 7965
  140.3599  144.2986  150.5935 LP  0  0  0  0  0  0  0  0  0  0  0  0  # atno 17342 bound_to 10162
  140.5412  143.2223  151.8081 LP  0  0  0  0  0  0  0  0  0  0  0  0  # atno 17343 bound_to 10162
  157.7310  131.0612  150.5699 LP  0  0  0  0  0  0  0  0  0  0  0  0  # atno 17370 bound_to 10713
  156.5803  130.4303  149.5980 LP  0  0  0  0  0  0  0  0  0  0  0  0  # atno 17371 bound_to 10713
  141.2024  133.6624  156.6002 LP  0  0  0  0  0  0  0  0  0  0  0  0  # atno 17394 bound_to 11000
  140.3580  134.7712  157.4514 LP  0  0  0  0  0  0  0  0  0  0  0  0  # atno 17395 bound_to 11000

$$$$
