AV-unprocessed.smi:173|AV-procd|sdf|1423|dock5
  -GOLD-   2262019193D 1   1.00000     0.00000
 Structure written by MMmdl.
 60 64  0  0  0  0  0  0  0  0  1 V2000
  147.6862  133.2787  151.7876 O   0  0  0  0  0  0  0  0  0  0  0  0
  146.5475  132.7575  152.4512 C   0  0  0  0  0  0  0  0  0  0  0  0
  146.8858  132.6366  153.9586 C   0  0  0  0  0  0  0  0  0  0  0  0
  147.3904  133.8664  154.5489 N   0  0  0  0  0  0  0  0  0  0  0  0
  146.7897  135.1054  154.5160 C   0  0  0  0  0  0  0  0  0  0  0  0
  147.4336  136.0543  155.1397 N   0  0  0  0  0  0  0  0  0  0  0  0
  148.5690  135.4214  155.6282 C   0  0  0  0  0  0  0  0  0  0  0  0
  149.6772  135.8470  156.4046 C   0  0  0  0  0  0  0  0  0  0  0  0
  149.7898  137.1178  156.8526 N   0  0  0  0  0  0  0  0  0  0  0  0
  149.6419  137.2792  158.3022 C   0  0  0  0  0  0  0  0  0  0  0  0
  148.5191  136.4016  158.8884 C   0  0  2  0  0  0  0  0  0  0  0  0
  148.2441  136.6693  160.3652 C   0  0  0  0  0  0  0  0  0  0  0  0
  147.5703  135.3892  160.8319 C   0  0  0  0  0  0  0  0  0  0  0  0
  147.9688  134.3555  159.7741 C   0  0  0  0  0  0  0  0  0  0  0  0
  148.8801  135.0289  158.9170 O   0  0  0  0  0  0  0  0  0  0  0  0
  150.7955  137.8838  156.1109 C   0  0  0  0  0  0  0  0  0  0  0  0
  150.9832  139.3328  156.5750 C   0  0  0  0  0  0  0  0  0  0  0  0
  151.6836  140.0289  155.3999 C   0  0  0  0  0  0  0  0  0  0  0  0
  151.4677  139.1353  154.1658 C   0  0  0  0  0  0  0  0  0  0  0  0
  150.5281  138.0101  154.6093 C   0  0  0  0  0  0  0  0  0  0  0  0
  150.6372  134.9325  156.7032 N   0  0  0  0  0  0  0  0  0  0  0  0
  150.5117  133.6726  156.2758 C   0  0  0  0  0  0  0  0  0  0  0  0
  149.5275  133.1289  155.5554 N   0  0  0  0  0  0  0  0  0  0  0  0
  148.5662  134.0494  155.2549 C   0  0  0  0  0  0  0  0  0  0  0  0
  145.3726  133.7335  152.2406 C   0  0  0  0  0  0  0  0  0  0  0  0
  144.8881  133.7522  150.7798 C   0  0  0  0  0  0  0  0  0  0  0  0
  144.5454  132.4358  150.3649 O   0  0  0  0  0  0  0  0  0  0  0  0
  145.6588  131.5507  150.3773 C   0  0  0  0  0  0  0  0  0  0  0  0
  146.1972  131.3962  151.8108 C   0  0  0  0  0  0  0  0  0  0  0  0
  147.9589  132.6612  151.1262 H   0  0  0  0  0  0  0  0  0  0  0  0
  146.0060  132.3221  154.5219 H   0  0  0  0  0  0  0  0  0  0  0  0
  147.6360  131.8592  154.1111 H   0  0  0  0  0  0  0  0  0  0  0  0
  145.8448  135.2810  154.0225 H   0  0  0  0  0  0  0  0  0  0  0  0
  150.5857  137.0725  158.8083 H   0  0  0  0  0  0  0  0  0  0  0  0
  149.4093  138.3199  158.5197 H   0  0  0  0  0  0  0  0  0  0  0  0
  147.5976  136.5258  158.3156 H   0  0  0  0  0  0  0  0  0  0  0  0
  149.1842  136.8038  160.9021 H   0  0  0  0  0  0  0  0  0  0  0  0
  147.6325  137.5568  160.5285 H   0  0  0  0  0  0  0  0  0  0  0  0
  147.9050  135.1061  161.8304 H   0  0  0  0  0  0  0  0  0  0  0  0
  146.4862  135.5039  160.8603 H   0  0  0  0  0  0  0  0  0  0  0  0
  148.4312  133.4691  160.2087 H   0  0  0  0  0  0  0  0  0  0  0  0
  147.0986  134.0384  159.1977 H   0  0  0  0  0  0  0  0  0  0  0  0
  151.7580  137.3781  156.2159 H   0  0  0  0  0  0  0  0  0  0  0  0
  150.0184  139.8112  156.7459 H   0  0  0  0  0  0  0  0  0  0  0  0
  151.5542  139.4034  157.5013 H   0  0  0  0  0  0  0  0  0  0  0  0
  151.2799  141.0300  155.2457 H   0  0  0  0  0  0  0  0  0  0  0  0
  152.7504  140.1363  155.5995 H   0  0  0  0  0  0  0  0  0  0  0  0
  151.0614  139.6913  153.3205 H   0  0  0  0  0  0  0  0  0  0  0  0
  152.4226  138.7140  153.8493 H   0  0  0  0  0  0  0  0  0  0  0  0
  150.7102  137.0780  154.0734 H   0  0  0  0  0  0  0  0  0  0  0  0
  149.5002  138.3105  154.4098 H   0  0  0  0  0  0  0  0  0  0  0  0
  151.3119  133.0032  156.5547 H   0  0  0  0  0  0  0  0  0  0  0  0
  144.5375  133.4346  152.8755 H   0  0  0  0  0  0  0  0  0  0  0  0
  145.6496  134.7404  152.5556 H   0  0  0  0  0  0  0  0  0  0  0  0
  144.0074  134.3881  150.6882 H   0  0  0  0  0  0  0  0  0  0  0  0
  145.6479  134.1696  150.1175 H   0  0  0  0  0  0  0  0  0  0  0  0
  145.3393  130.5816  149.9943 H   0  0  0  0  0  0  0  0  0  0  0  0
  146.4357  131.9145  149.7028 H   0  0  0  0  0  0  0  0  0  0  0  0
  147.0641  130.7343  151.8031 H   0  0  0  0  0  0  0  0  0  0  0  0
  145.4371  130.9000  152.4155 H   0  0  0  0  0  0  0  0  0  0  0  0
  1  2  1  0  0  0  0
  1 30  1  0  0  0  0
  2 29  1  0  0  0  0
  2  3  1  0  0  0  0
  2 25  1  0  0  0  0
  3  4  1  0  0  0  0
  3 31  1  0  0  0  0
  3 32  1  0  0  0  0
  4 24  1  0  0  0  0
  4  5  1  0  0  0  0
  5  6  2  0  0  0  0
  5 33  1  0  0  0  0
  6  7  1  0  0  0  0
  7 24  2  0  0  0  0
  7  8  1  0  0  0  0
  8  9  1  0  0  0  0
  8 21  2  0  0  0  0
  9 10  1  0  0  0  0
  9 16  1  0  0  0  0
 10 11  1  0  0  0  0
 10 34  1  0  0  0  0
 10 35  1  0  0  0  0
 11 15  1  0  0  0  0
 11 12  1  0  0  0  0
 11 36  1  0  0  0  0
 12 13  1  0  0  0  0
 12 37  1  0  0  0  0
 12 38  1  0  0  0  0
 13 14  1  0  0  0  0
 13 39  1  0  0  0  0
 13 40  1  0  0  0  0
 14 15  1  0  0  0  0
 14 41  1  0  0  0  0
 14 42  1  0  0  0  0
 16 20  1  0  0  0  0
 16 17  1  0  0  0  0
 16 43  1  0  0  0  0
 17 18  1  0  0  0  0
 17 44  1  0  0  0  0
 17 45  1  0  0  0  0
 18 19  1  0  0  0  0
 18 46  1  0  0  0  0
 18 47  1  0  0  0  0
 19 20  1  0  0  0  0
 19 48  1  0  0  0  0
 19 49  1  0  0  0  0
 20 50  1  0  0  0  0
 20 51  1  0  0  0  0
 21 22  1  0  0  0  0
 22 23  2  0  0  0  0
 22 52  1  0  0  0  0
 23 24  1  0  0  0  0
 25 26  1  0  0  0  0
 25 53  1  0  0  0  0
 25 54  1  0  0  0  0
 26 27  1  0  0  0  0
 26 55  1  0  0  0  0
 26 56  1  0  0  0  0
 27 28  1  0  0  0  0
 28 29  1  0  0  0  0
 28 57  1  0  0  0  0
 28 58  1  0  0  0  0
 29 59  1  0  0  0  0
 29 60  1  0  0  0  0
M  END
> <s_m_source_file>
AV-unprocessed.smi

> <i_m_source_file_index>
173

> <i_lp_mmshare_version>
43012

> <i_f3d_flags>
0

> <s_epik_input>
W0NIMl0xW0NIMl1PW0NIMl1bQ0gyXUMxKFtPSF0pW0NIMl1uKFtjSF1uMiljKGMyMyluW2NIXW5jM04oW0NIMl1bQ0BASF00W0NIMl1bQ0gyXVtDSDJdTzQpW0NIXTVbQ0gyXVtDSDJdW0NIMl1bQ0gyXTU=

> <s_epik_cmdline>
J2VwaWtfcHl0aG9uJywgJy1waCcsICc3LjAnLCAnLXRuJywgJzgnLCAnLW1hJywgJzIwMCcsICctbWV0YWxfYmluZGluZycsICctaW1hZScsICc8aW5maWxlLm1hZT4nLCAnLW9tYWUnLCAnPG91dGZpbGUubWFlPic=

> <r_lp_tautomer_probability>
1

> <r_epik_Ionization_Penalty>
0.0053129

> <r_epik_Ionization_Penalty_Charging>
0

> <r_epik_Ionization_Penalty_Neutral>
0.0053129

> <r_epik_State_Penalty>
0.00367355

> <r_epik_Charging_Adjusted_Penalty>
0.00367355

> <i_epik_Tot_Q>
0

> <i_epik_Tot_abs_Q>
0

> <r_epik_Metal_State_Penalty>
-0

> <b_epik_Metal_Only>
0

> <s_lp_Force_Field>
OPLS_2005

> <r_lp_Energy>
56.2303

> <b_lp_Chiralities_Consistent>
1

> <s_lp_Variant>
AV-unprocessed.smi:173-1

> <Gold.Version>
5.8.1

> <Gold.Id.Protein>
6NUR|6NUR_protein|mol2

> <Gold.PLP.Fitness>
43.2471

> <Gold.PLP.PLP>
-37.4437

> <Gold.PLP.part.hbond>
-2.2592

> <Gold.PLP.part.metal>
0.0000

> <Gold.PLP.part.buried>
-6.5810

> <Gold.PLP.part.nonpolar>
-28.9378

> <Gold.PLP.part.repulsive>
0.2381

> <Gold.PLP.ligand.clash>
0.0000

> <Gold.PLP.ligand.torsion>
0.6669

> <Gold.PLP.Chemscore.Hbond>
2.0000

> <Gold.PLP.Chemscore.CHOScore>
0.0000

> <Gold.PLP.Chemscore.Metal>
0.0000

> <Gold.Chemscore.Hbonds>
donor molecule, donor type, donor heavy atom, donor atom, acceptor molecule, acceptor atom, score
      L1  H     1    30       P1 10747  0.50
      P1  H  6896  6908       L1    15  0.92

> <Gold.PLP.Chemscore.Internal.Correction>
1.1373

> <Gold.Rescore>
     Score         DG    S(hbond)    S(metal)    S(lipo)     H(rot)  DE(clash)    DE(int)     intcor
     13.10     -16.66       1.89        0.00      98.21       2.59       0.06       3.50       ----

> <Gold.Chemscore.Fitness>
13.0950

> <Gold.Chemscore.DG>
-16.6551

> <Gold.Chemscore.ZeroCoef>
-5.4800

> <Gold.Chemscore.Hbond>
1.8919

> <Gold.Chemscore.Metal>
0.0000

> <Gold.Chemscore.Lipo>
98.2106

> <Gold.Chemscore.Internal_Hbond>
0.0000

> <Gold.Chemscore.DEClash>
0.0647

> <Gold.Chemscore.DEInternal>
3.4954

> <Gold.Chemscore.Rot>
2.5916

> <Gold.Chemscore.Internal.Correction>
   9.000000E+99

> <Gold.Chemscore.Hbonds>
donor molecule, donor type, donor heavy atom, donor atom, acceptor molecule, acceptor atom, score
      L1  H     1    30       P1 10747  0.49
      P1  H  6896  6908       L1    15  0.29

> <Gold.Chemscore.Hbond.Weighted>
-6.3191

> <Gold.Chemscore.Metal.Weighted>
-0.0000

> <Gold.Chemscore.Lipo.Weighted>
-11.4906

> <Gold.Chemscore.Internal_Hbond.Weighted>
0.0000

> <Gold.Chemscore.DEClash.Weighted>
0.0647

> <Gold.Chemscore.DEInternal.Weighted>
3.4954

> <Gold.Chemscore.Rot.Weighted>
6.6346

> <Gold.Chemscore.Internal.Correction.Weighted>
   9.000000E+99

> <Gold.Protein.RotatedTorsions>
[ 6907 6896 6895 6894 ] final  139.62 input  -60.11 | X-H torsion
[ 7974 7965 7964 7962 ] final  175.98 input  175.53 | X-H torsion
[ 8008 7997 7996 7995 ] final  145.48 input   59.86 | X-H torsion
[ 10167 10162 10161 10158 ] final  -52.41 input  -65.29 | X-H torsion
[ 10718 10713 10712 10709 ] final  -64.75 input   66.30 | X-H torsion
[ 10763 10752 10751 10750 ] final   39.02 input  -60.55 | X-H torsion
[ 11005 11000 10999 10996 ] final   88.28 input  -57.11 | X-H torsion

> <Gold.Protein.ActiveResidues>
 VAL166  LYS551  ARG553  GLY616  TRP617  ASP618  TYR619  PRO620  LYS621  CYS622 
 ASP623  PHE694  ASN695  SER759  ASP760  ASP761  ALA762  ILE779  LEU786  VAL792 
 PHE793  MET794  SER795  GLU796  ALA797  LYS798  CYS799  TRP800  GLU811  SER814 

> <Gold.Protein.RotatedAtoms>
  152.2528  133.5229  159.5335 H   0  0  0  0  0  0  0  0  0  0  0  0  # atno 6907 bound_to 6896
  150.7099  134.0937  159.3950 H   0  0  0  0  0  0  0  0  0  0  0  0  # atno 6908 bound_to 6896
  151.8856  135.0436  160.0544 H   0  0  0  0  0  0  0  0  0  0  0  0  # atno 6909 bound_to 6896
  144.7192  140.0028  143.6440 H   0  0  0  0  0  0  0  0  0  0  0  0  # atno 7974 bound_to 7965
  156.2882  140.2208  156.5222 H   0  0  0  0  0  0  0  0  0  0  0  0  # atno 8008 bound_to 7997
  154.7519  140.0479  157.0922 H   0  0  0  0  0  0  0  0  0  0  0  0  # atno 8009 bound_to 7997
  155.0099  140.3111  155.4837 H   0  0  0  0  0  0  0  0  0  0  0  0  # atno 8010 bound_to 7997
  140.6539  143.2585  151.4644 H   0  0  0  0  0  0  0  0  0  0  0  0  # atno 10167 bound_to 10162
  156.0710  130.4238  150.1465 H   0  0  0  0  0  0  0  0  0  0  0  0  # atno 10718 bound_to 10713
  152.9981  135.6233  154.2397 H   0  0  0  0  0  0  0  0  0  0  0  0  # atno 10763 bound_to 10752
  154.2138  135.2799  155.2951 H   0  0  0  0  0  0  0  0  0  0  0  0  # atno 10764 bound_to 10752
  154.5585  135.5712  153.7044 H   0  0  0  0  0  0  0  0  0  0  0  0  # atno 10765 bound_to 10752
  139.8900  134.8478  156.2979 H   0  0  0  0  0  0  0  0  0  0  0  0  # atno 11005 bound_to 11000
  146.0321  139.3345  143.0748 LP  0  0  0  0  0  0  0  0  0  0  0  0  # atno 17320 bound_to 7965
  145.8439  140.9566  143.0785 LP  0  0  0  0  0  0  0  0  0  0  0  0  # atno 17321 bound_to 7965
  139.5758  144.1823  152.1901 LP  0  0  0  0  0  0  0  0  0  0  0  0  # atno 17342 bound_to 10162
  140.1133  144.5438  150.6911 LP  0  0  0  0  0  0  0  0  0  0  0  0  # atno 17343 bound_to 10162
  156.9516  130.9776  151.3497 LP  0  0  0  0  0  0  0  0  0  0  0  0  # atno 17370 bound_to 10713
  157.5781  130.8357  149.8483 LP  0  0  0  0  0  0  0  0  0  0  0  0  # atno 17371 bound_to 10713
  140.9933  133.7195  156.0847 LP  0  0  0  0  0  0  0  0  0  0  0  0  # atno 17394 bound_to 11000
  140.7596  134.3954  157.5528 LP  0  0  0  0  0  0  0  0  0  0  0  0  # atno 17395 bound_to 11000

$$$$
