AV-unprocessed.smi:290|AV-procd|sdf|2242|dock9
  -GOLD-   2262022123D 1   1.00000     0.00000
 Structure written by MMmdl.
 59 62  0  0  0  0  0  0  0  0  2 V2000
  152.8125  142.0201  160.6533 C   0  0  0  0  0  0  0  0  0  0  0  0
  151.7481  143.0119  160.1578 C   0  0  1  0  0  0  0  0  0  0  0  0
  152.3871  144.2720  159.9717 O   0  0  0  0  0  0  0  0  0  0  0  0
  151.7247  144.9720  158.9338 C   0  0  0  0  0  0  0  0  0  0  0  0
  151.4488  143.8700  157.9223 C   0  0  0  0  0  0  0  0  0  0  0  0
  151.0594  142.6844  158.8019 C   0  0  2  0  0  0  0  0  0  0  0  0
  149.6580  142.7407  159.0084 O   0  0  0  0  0  0  0  0  0  0  0  0
  151.3968  141.3065  158.1738 C   0  0  0  0  0  0  0  0  0  0  0  0
  150.5021  140.9247  157.0914 N   0  0  0  0  0  0  0  0  0  0  0  0
  150.1676  141.6852  155.9948 C   0  0  0  0  0  0  0  0  0  0  0  0
  149.3454  141.1182  155.1555 N   0  0  0  0  0  0  0  0  0  0  0  0
  149.1029  139.8639  155.7045 C   0  0  0  0  0  0  0  0  0  0  0  0
  148.3151  138.7395  155.3195 C   0  0  0  0  0  0  0  0  0  0  0  0
  147.5756  138.6752  154.1823 N   0  0  0  0  0  0  0  0  0  0  0  0
  147.2988  139.8366  153.3612 C   0  0  0  0  0  0  0  0  0  0  0  0
  146.8308  139.2297  152.0460 C   0  0  0  0  0  0  0  0  0  0  0  0
  146.0477  137.9741  152.4742 C   0  0  1  0  0  0  0  0  0  0  0  0
  146.0099  136.9180  151.4144 N   0  3  2  0  0  0  0  0  0  0  0  0
  145.8849  137.5040  150.0537 C   0  0  0  0  0  0  0  0  0  0  0  0
  144.9960  135.8507  151.6543 C   0  0  0  0  0  0  0  0  0  0  0  0
  144.7355  134.9608  150.4241 C   0  0  0  0  0  0  0  0  0  0  0  0
  143.5445  134.2231  150.6023 O   0  0  0  0  0  0  0  0  0  0  0  0
  146.7278  137.5472  153.8066 C   0  0  2  0  0  0  0  0  0  0  0  0
  145.6831  137.2479  154.9055 C   0  0  0  0  0  0  0  0  0  0  0  0
  148.3068  137.6685  156.1555 N   0  0  0  0  0  0  0  0  0  0  0  0
  149.0323  137.6784  157.2771 C   0  0  0  0  0  0  0  0  0  0  0  0
  149.8204  138.6444  157.7512 N   0  0  0  0  0  0  0  0  0  0  0  0
  149.8208  139.7310  156.9279 C   0  0  0  0  0  0  0  0  0  0  0  0
  145.0215  138.2825  152.6844 H   0  0  0  0  0  0  0  0  0  0  0  0
  147.3730  136.6858  153.6346 H   0  0  0  0  0  0  0  0  0  0  0  0
  152.3883  141.0299  160.8201 H   0  0  0  0  0  0  0  0  0  0  0  0
  153.2378  142.3551  161.5996 H   0  0  0  0  0  0  0  0  0  0  0  0
  153.6343  141.9262  159.9429 H   0  0  0  0  0  0  0  0  0  0  0  0
  151.0003  143.1339  160.9437 H   0  0  0  0  0  0  0  0  0  0  0  0
  150.7968  145.4042  159.3113 H   0  0  0  0  0  0  0  0  0  0  0  0
  152.3431  145.7735  158.5294 H   0  0  0  0  0  0  0  0  0  0  0  0
  150.6921  144.1426  157.1853 H   0  0  0  0  0  0  0  0  0  0  0  0
  152.3724  143.6505  157.3851 H   0  0  0  0  0  0  0  0  0  0  0  0
  149.4585  142.3255  159.8336 H   0  0  0  0  0  0  0  0  0  0  0  0
  152.4094  141.3103  157.7699 H   0  0  0  0  0  0  0  0  0  0  0  0
  151.3705  140.5236  158.9330 H   0  0  0  0  0  0  0  0  0  0  0  0
  150.5531  142.6821  155.8370 H   0  0  0  0  0  0  0  0  0  0  0  0
  146.5124  140.4338  153.8247 H   0  0  0  0  0  0  0  0  0  0  0  0
  148.1797  140.4643  153.2209 H   0  0  0  0  0  0  0  0  0  0  0  0
  146.2359  139.9305  151.4594 H   0  0  0  0  0  0  0  0  0  0  0  0
  147.7022  138.9468  151.4531 H   0  0  0  0  0  0  0  0  0  0  0  0
  144.9273  138.0132  149.9365 H   0  0  0  0  0  0  0  0  0  0  0  0
  145.9635  136.7471  149.2755 H   0  0  0  0  0  0  0  0  0  0  0  0
  146.6763  138.2232  149.8457 H   0  0  0  0  0  0  0  0  0  0  0  0
  145.3179  135.1815  152.4488 H   0  0  0  0  0  0  0  0  0  0  0  0
  144.0654  136.3066  151.9953 H   0  0  0  0  0  0  0  0  0  0  0  0
  144.6142  135.5891  149.5413 H   0  0  0  0  0  0  0  0  0  0  0  0
  145.5619  134.2862  150.2056 H   0  0  0  0  0  0  0  0  0  0  0  0
  142.8678  134.6074  150.0648 H   0  0  0  0  0  0  0  0  0  0  0  0
  144.9822  136.4708  154.6049 H   0  0  0  0  0  0  0  0  0  0  0  0
  145.0968  138.1368  155.1413 H   0  0  0  0  0  0  0  0  0  0  0  0
  146.1502  136.9134  155.8309 H   0  0  0  0  0  0  0  0  0  0  0  0
  148.9748  136.7838  157.8795 H   0  0  0  0  0  0  0  0  0  0  0  0
  146.9080  136.4565  151.4517 H   0  0  0  0  0  0  0  0  0  0  0  0
  1  2  1  0  0  0  0
  1 31  1  0  0  0  0
  1 32  1  0  0  0  0
  1 33  1  0  0  0  0
  2  6  1  0  0  0  0
  2  3  1  0  0  0  0
  2 34  1  0  0  0  0
  3  4  1  0  0  0  0
  4  5  1  0  0  0  0
  4 35  1  0  0  0  0
  4 36  1  0  0  0  0
  5  6  1  0  0  0  0
  5 37  1  0  0  0  0
  5 38  1  0  0  0  0
  6  7  1  0  0  0  0
  6  8  1  0  0  0  0
  7 39  1  0  0  0  0
  8  9  1  0  0  0  0
  8 40  1  0  0  0  0
  8 41  1  0  0  0  0
  9 28  1  0  0  0  0
  9 10  1  0  0  0  0
 10 11  2  0  0  0  0
 10 42  1  0  0  0  0
 11 12  1  0  0  0  0
 12 28  2  0  0  0  0
 12 13  1  0  0  0  0
 13 14  1  0  0  0  0
 13 25  2  0  0  0  0
 14 23  1  0  0  0  0
 14 15  1  0  0  0  0
 15 16  1  0  0  0  0
 15 43  1  0  0  0  0
 15 44  1  0  0  0  0
 16 17  1  0  0  0  0
 16 45  1  0  0  0  0
 16 46  1  0  0  0  0
 17 29  1  0  0  0  0
 17 18  1  0  0  0  0
 17 23  1  0  0  0  0
 18 19  1  0  0  0  0
 18 20  1  0  0  0  0
 18 59  1  0  0  0  0
 19 47  1  0  0  0  0
 19 48  1  0  0  0  0
 19 49  1  0  0  0  0
 20 21  1  0  0  0  0
 20 50  1  0  0  0  0
 20 51  1  0  0  0  0
 21 22  1  0  0  0  0
 21 52  1  0  0  0  0
 21 53  1  0  0  0  0
 22 54  1  0  0  0  0
 23 30  1  0  0  0  0
 23 24  1  0  0  0  0
 24 55  1  0  0  0  0
 24 56  1  0  0  0  0
 24 57  1  0  0  0  0
 25 26  1  0  0  0  0
 26 27  2  0  0  0  0
 26 58  1  0  0  0  0
 27 28  1  0  0  0  0
M  CHG  1  18   1
M  END
> <s_m_source_file>
AV-unprocessed.smi

> <i_m_source_file_index>
290

> <i_lp_mmshare_version>
43012

> <i_f3d_flags>
0

> <s_epik_input>
W0NIMl0xW0NIMl1PW0NAQEhdKFtDSDNdKVtDQEBdMShbT0hdKVtDSDJdbihbY0hdbjIpYyhjMjMpbltjSF1uYzNONFtDSDJdW0NIMl1bQ0BIXShbQ0BIXTRbQ0gzXSlOKFtDSDNdKVtDSDJdW0NIMl1bT0hd

> <s_epik_cmdline>
J2VwaWtfcHl0aG9uJywgJy1waCcsICc3LjAnLCAnLXRuJywgJzgnLCAnLW1hJywgJzIwMCcsICctbWV0YWxfYmluZGluZycsICctaW1hZScsICc8aW5maWxlLm1hZT4nLCAnLW9tYWUnLCAnPG91dGZpbGUubWFlPic=

> <r_lp_tautomer_probability>
1

> <r_epik_Ionization_Penalty>
0.0036983

> <r_epik_Ionization_Penalty_Charging>
0.0032725

> <r_epik_Ionization_Penalty_Neutral>
0.000425798

> <r_epik_State_Penalty>
-0

> <r_epik_Charging_Adjusted_Penalty>
0.0032725

> <i_epik_Tot_Q>
1

> <i_epik_Tot_abs_Q>
1

> <r_epik_Metal_State_Penalty>
-0

> <b_epik_Metal_Only>
0

> <s_lp_Force_Field>
OPLS_2005

> <r_lp_Energy>
64.6527

> <b_lp_Chiralities_Consistent>
1

> <s_lp_Variant>
AV-unprocessed.smi:290-28

> <Gold.Version>
5.8.1

> <Gold.Id.Protein>
6NUR|6NUR_protein|mol2

> <Gold.PLP.Fitness>
53.0257

> <Gold.PLP.PLP>
-43.5001

> <Gold.PLP.part.hbond>
-2.9473

> <Gold.PLP.part.metal>
0.0000

> <Gold.PLP.part.buried>
2.9278

> <Gold.PLP.part.nonpolar>
-43.9071

> <Gold.PLP.part.repulsive>
0.2387

> <Gold.PLP.ligand.clash>
0.0000

> <Gold.PLP.ligand.torsion>
0.8204

> <Gold.PLP.Chemscore.Hbond>
3.0000

> <Gold.PLP.Chemscore.CHOScore>
0.6648

> <Gold.PLP.Chemscore.Metal>
0.0000

> <Gold.Chemscore.Hbonds>
donor molecule, donor type, donor heavy atom, donor atom, acceptor molecule, acceptor atom, score
      L1  H    18    59       P1  7948  1.85
      L1  H    22    54       P1 10186  0.88
      L1  C    10    42       P1  8028  0.60

> <Gold.PLP.Chemscore.Internal.Correction>
0.1722

> <Gold.Rescore>
     Score         DG    S(hbond)    S(metal)    S(lipo)     H(rot)  DE(clash)    DE(int)     intcor
     11.21     -16.66       1.78        0.00     118.18       3.35       2.29       3.16       ----

> <Gold.Chemscore.Fitness>
11.2099

> <Gold.Chemscore.DG>
-16.6589

> <Gold.Chemscore.ZeroCoef>
-5.4800

> <Gold.Chemscore.Hbond>
1.7761

> <Gold.Chemscore.Metal>
0.0000

> <Gold.Chemscore.Lipo>
118.1812

> <Gold.Chemscore.Internal_Hbond>
0.0000

> <Gold.Chemscore.DEClash>
2.2928

> <Gold.Chemscore.DEInternal>
3.1562

> <Gold.Chemscore.Rot>
3.3518

> <Gold.Chemscore.Internal.Correction>
   9.000000E+99

> <Gold.Chemscore.Hbonds>
donor molecule, donor type, donor heavy atom, donor atom, acceptor molecule, acceptor atom, score
      L1  H    18    59       P1  7948  0.88
      L1  H    22    54       P1 10186  0.64

> <Gold.Chemscore.Hbond.Weighted>
-5.9323

> <Gold.Chemscore.Metal.Weighted>
-0.0000

> <Gold.Chemscore.Lipo.Weighted>
-13.8272

> <Gold.Chemscore.Internal_Hbond.Weighted>
0.0000

> <Gold.Chemscore.DEClash.Weighted>
2.2928

> <Gold.Chemscore.DEInternal.Weighted>
3.1562

> <Gold.Chemscore.Rot.Weighted>
8.5806

> <Gold.Chemscore.Internal.Correction.Weighted>
   9.000000E+99

> <Gold.Protein.RotatedTorsions>
[ 6907 6896 6895 6894 ] final -154.35 input  -60.11 | X-H torsion
[ 7974 7965 7964 7962 ] final  144.28 input  175.53 | X-H torsion
[ 8008 7997 7996 7995 ] final  -53.90 input   59.86 | X-H torsion
[ 10167 10162 10161 10158 ] final    7.34 input  -65.29 | X-H torsion
[ 10718 10713 10712 10709 ] final   69.90 input   66.30 | X-H torsion
[ 10763 10752 10751 10750 ] final   31.91 input  -60.55 | X-H torsion
[ 11005 11000 10999 10996 ] final  119.89 input  -57.11 | X-H torsion

> <Gold.Protein.ActiveResidues>
 VAL166  LYS551  ARG553  GLY616  TRP617  ASP618  TYR619  PRO620  LYS621  CYS622 
 ASP623  PHE694  ASN695  SER759  ASP760  ASP761  ALA762  ILE779  LEU786  VAL792 
 PHE793  MET794  SER795  GLU796  ALA797  LYS798  CYS799  TRP800  GLU811  SER814 

> <Gold.Protein.RotatedAtoms>
  151.2562  133.4325  159.2613 H   0  0  0  0  0  0  0  0  0  0  0  0  # atno 6907 bound_to 6896
  151.0572  134.9713  159.8252 H   0  0  0  0  0  0  0  0  0  0  0  0  # atno 6908 bound_to 6896
  152.5392  134.2513  159.8952 H   0  0  0  0  0  0  0  0  0  0  0  0  # atno 6909 bound_to 6896
  144.8849  139.5644  143.5825 H   0  0  0  0  0  0  0  0  0  0  0  0  # atno 7974 bound_to 7965
  154.4146  140.1189  156.5229 H   0  0  0  0  0  0  0  0  0  0  0  0  # atno 8008 bound_to 7997
  155.6684  140.3496  155.4790 H   0  0  0  0  0  0  0  0  0  0  0  0  # atno 8009 bound_to 7997
  155.9653  140.1131  157.0849 H   0  0  0  0  0  0  0  0  0  0  0  0  # atno 8010 bound_to 7997
  140.6377  143.7848  150.7383 H   0  0  0  0  0  0  0  0  0  0  0  0  # atno 10167 bound_to 10162
  157.6371  130.9449  150.0576 H   0  0  0  0  0  0  0  0  0  0  0  0  # atno 10718 bound_to 10713
  153.0290  135.6427  154.1273 H   0  0  0  0  0  0  0  0  0  0  0  0  # atno 10763 bound_to 10752
  154.0998  135.2860  155.3255 H   0  0  0  0  0  0  0  0  0  0  0  0  # atno 10764 bound_to 10752
  154.6407  135.5461  153.7849 H   0  0  0  0  0  0  0  0  0  0  0  0  # atno 10765 bound_to 10752
  139.9164  134.9631  156.7723 H   0  0  0  0  0  0  0  0  0  0  0  0  # atno 11005 bound_to 11000
  146.3018  139.7450  142.9086 LP  0  0  0  0  0  0  0  0  0  0  0  0  # atno 17320 bound_to 7965
  145.3887  141.0369  143.3136 LP  0  0  0  0  0  0  0  0  0  0  0  0  # atno 17321 bound_to 7965
  140.1473  143.4389  152.2155 LP  0  0  0  0  0  0  0  0  0  0  0  0  # atno 17342 bound_to 10162
  139.5587  144.7390  151.4219 LP  0  0  0  0  0  0  0  0  0  0  0  0  # atno 17343 bound_to 10162
  156.1619  130.3644  149.9287 LP  0  0  0  0  0  0  0  0  0  0  0  0  # atno 17370 bound_to 10713
  156.7283  130.9033  151.3624 LP  0  0  0  0  0  0  0  0  0  0  0  0  # atno 17371 bound_to 10713
  140.6610  133.9645  155.7805 LP  0  0  0  0  0  0  0  0  0  0  0  0  # atno 17394 bound_to 11000
  141.0643  134.0300  157.3615 LP  0  0  0  0  0  0  0  0  0  0  0  0  # atno 17395 bound_to 11000

$$$$
