AV-unprocessed.smi:1956|AV-procd|sdf|7903|dock9
  -GOLD-   2272010 63D 1   1.00000     0.00000
 Structure written by MMmdl.
 46 47  0  0  0  0  0  0  0  0  2 V2000
  145.8947  131.8344  149.0512 C   0  0  0  0  0  0  0  0  0  0  0  0
  144.6596  131.9249  149.7530 O   0  0  0  0  0  0  0  0  0  0  0  0
  144.3591  133.1054  150.4011 C   0  0  0  0  0  0  0  0  0  0  0  0
  143.5526  133.0544  151.5552 C   0  0  0  0  0  0  0  0  0  0  0  0
  143.2393  134.2545  152.2214 C   0  0  0  0  0  0  0  0  0  0  0  0
  143.7377  135.4747  151.7051 C   0  0  0  0  0  0  0  0  0  0  0  0
  143.5063  136.7474  152.2947 N   0  0  0  0  0  0  0  0  0  0  0  0
  143.1489  137.0296  153.5593 C   0  0  0  0  0  0  0  0  0  0  0  0
  142.9200  136.1985  154.4380 O   0  0  0  0  0  0  0  0  0  0  0  0
  143.0444  138.3520  153.7552 N   0  0  0  0  0  0  0  0  0  0  0  0
  142.6757  138.9770  155.0207 C   0  0  0  0  0  0  0  0  0  0  0  0
  143.9138  139.5058  155.7715 C   0  0  0  0  0  0  0  0  0  0  0  0
  144.5754  140.6309  155.0631 N   0  3  2  0  0  0  0  0  0  0  0  0
  146.0567  140.5152  155.0970 C   0  0  0  0  0  0  0  0  0  0  0  0
  146.7190  141.6054  154.2405 C   0  0  0  0  0  0  0  0  0  0  0  0
  146.2733  143.0019  154.6899 C   0  0  0  0  0  0  0  0  0  0  0  0
  144.7387  143.1006  154.6764 C   0  0  2  0  0  0  0  0  0  0  0  0
  144.2625  144.4822  155.1470 C   0  0  0  0  0  0  0  0  0  0  0  0
  144.1215  141.9704  155.5255 C   0  0  0  0  0  0  0  0  0  0  0  0
  144.5487  135.4156  150.5527 C   0  0  0  0  0  0  0  0  0  0  0  0
  144.8522  134.2688  149.9088 N   0  0  0  0  0  0  0  0  0  0  0  0
  145.9778  130.8485  148.5940 H   0  0  0  0  0  0  0  0  0  0  0  0
  146.7458  131.9599  149.7220 H   0  0  0  0  0  0  0  0  0  0  0  0
  145.9552  132.5750  148.2526 H   0  0  0  0  0  0  0  0  0  0  0  0
  143.1836  132.1097  151.9270 H   0  0  0  0  0  0  0  0  0  0  0  0
  142.6385  134.2115  153.1164 H   0  0  0  0  0  0  0  0  0  0  0  0
  143.5737  137.5332  151.6645 H   0  0  0  0  0  0  0  0  0  0  0  0
  143.2445  138.9675  152.9800 H   0  0  0  0  0  0  0  0  0  0  0  0
  141.9617  139.7833  154.8438 H   0  0  0  0  0  0  0  0  0  0  0  0
  142.1543  138.2245  155.6107 H   0  0  0  0  0  0  0  0  0  0  0  0
  143.6509  139.8098  156.7859 H   0  0  0  0  0  0  0  0  0  0  0  0
  144.6286  138.6877  155.8720 H   0  0  0  0  0  0  0  0  0  0  0  0
  146.4046  140.5831  156.1289 H   0  0  0  0  0  0  0  0  0  0  0  0
  146.3608  139.5369  154.7226 H   0  0  0  0  0  0  0  0  0  0  0  0
  147.8043  141.5226  154.3067 H   0  0  0  0  0  0  0  0  0  0  0  0
  146.4603  141.4564  153.1912 H   0  0  0  0  0  0  0  0  0  0  0  0
  146.6518  143.2024  155.6932 H   0  0  0  0  0  0  0  0  0  0  0  0
  146.7082  143.7579  154.0352 H   0  0  0  0  0  0  0  0  0  0  0  0
  144.4009  142.9704  153.6470 H   0  0  0  0  0  0  0  0  0  0  0  0
  144.5701  144.6792  156.1744 H   0  0  0  0  0  0  0  0  0  0  0  0
  143.1757  144.5593  155.1040 H   0  0  0  0  0  0  0  0  0  0  0  0
  144.6732  145.2738  154.5192 H   0  0  0  0  0  0  0  0  0  0  0  0
  143.0363  142.0395  155.4632 H   0  0  0  0  0  0  0  0  0  0  0  0
  144.3849  142.1008  156.5767 H   0  0  0  0  0  0  0  0  0  0  0  0
  144.9637  136.3182  150.1279 H   0  0  0  0  0  0  0  0  0  0  0  0
  144.3110  140.5491  154.0916 H   0  0  0  0  0  0  0  0  0  0  0  0
  1  2  1  0  0  0  0
  1 22  1  0  0  0  0
  1 23  1  0  0  0  0
  1 24  1  0  0  0  0
  2  3  1  0  0  0  0
  3 21  1  0  0  0  0
  3  4  2  0  0  0  0
  4  5  1  0  0  0  0
  4 25  1  0  0  0  0
  5  6  2  0  0  0  0
  5 26  1  0  0  0  0
  6  7  1  0  0  0  0
  6 20  1  0  0  0  0
  7  8  1  0  0  0  0
  7 27  1  0  0  0  0
  8  9  2  0  0  0  0
  8 10  1  0  0  0  0
 10 11  1  0  0  0  0
 10 28  1  0  0  0  0
 11 12  1  0  0  0  0
 11 29  1  0  0  0  0
 11 30  1  0  0  0  0
 12 13  1  0  0  0  0
 12 31  1  0  0  0  0
 12 32  1  0  0  0  0
 13 19  1  0  0  0  0
 13 14  1  0  0  0  0
 13 46  1  0  0  0  0
 14 15  1  0  0  0  0
 14 33  1  0  0  0  0
 14 34  1  0  0  0  0
 15 16  1  0  0  0  0
 15 35  1  0  0  0  0
 15 36  1  0  0  0  0
 16 17  1  0  0  0  0
 16 37  1  0  0  0  0
 16 38  1  0  0  0  0
 17 18  1  0  0  0  0
 17 19  1  0  0  0  0
 17 39  1  0  0  0  0
 18 40  1  0  0  0  0
 18 41  1  0  0  0  0
 18 42  1  0  0  0  0
 19 43  1  0  0  0  0
 19 44  1  0  0  0  0
 20 21  2  0  0  0  0
 20 45  1  0  0  0  0
M  CHG  1  13   1
M  END
> <s_m_source_file>
AV-unprocessed.smi

> <i_m_source_file_index>
1956

> <i_lp_mmshare_version>
43012

> <i_f3d_flags>
0

> <s_epik_input>
W0NIM11PYzFbY0hdW2NIXWMoW2NIXW4xKVtOSF1DKD1PKVtOSF1bQ0gyXVtDSDJdTjJbQ0gyXVtDSDJdW0NIMl1bQ0BASF0oW0NIM10pW0NIMl0y

> <s_epik_cmdline>
J2VwaWtfcHl0aG9uJywgJy1waCcsICc3LjAnLCAnLXRuJywgJzgnLCAnLW1hJywgJzIwMCcsICctbWV0YWxfYmluZGluZycsICctaW1hZScsICc8aW5maWxlLm1hZT4nLCAnLW9tYWUnLCAnPG91dGZpbGUubWFlPic=

> <r_lp_tautomer_probability>
1

> <r_epik_Ionization_Penalty>
0.00179545

> <r_epik_Ionization_Penalty_Charging>
0.00171832

> <r_epik_Ionization_Penalty_Neutral>
7.7124e-05

> <r_epik_State_Penalty>
0.0011618

> <r_epik_Charging_Adjusted_Penalty>
0.00288012

> <i_epik_Tot_Q>
1

> <i_epik_Tot_abs_Q>
1

> <r_epik_Metal_State_Penalty>
-0

> <b_epik_Metal_Only>
0

> <s_lp_Force_Field>
OPLS_2005

> <r_lp_Energy>
19.732

> <b_lp_Chiralities_Consistent>
1

> <s_lp_Variant>
AV-unprocessed.smi:1956-4

> <Gold.Version>
5.8.1

> <Gold.Id.Protein>
6NUR|6NUR_protein|mol2

> <Gold.PLP.Fitness>
43.0054

> <Gold.PLP.PLP>
-31.2687

> <Gold.PLP.part.hbond>
-3.2102

> <Gold.PLP.part.metal>
0.0000

> <Gold.PLP.part.buried>
-6.0969

> <Gold.PLP.part.nonpolar>
-25.6133

> <Gold.PLP.part.repulsive>
3.2311

> <Gold.PLP.ligand.clash>
0.0000

> <Gold.PLP.ligand.torsion>
1.1457

> <Gold.PLP.Chemscore.Hbond>
3.7073

> <Gold.PLP.Chemscore.CHOScore>
0.9596

> <Gold.PLP.Chemscore.Metal>
0.0000

> <Gold.Chemscore.Hbonds>
donor molecule, donor type, donor heavy atom, donor atom, acceptor molecule, acceptor atom, score
      L1  H     7    27       P1 10171  0.73
      L1  H    10    28       P1 10175  0.98
      L1  H    13    46       P1 10175  2.00
      L1  C    20    45       P1 10171  0.98

> <Gold.PLP.Chemscore.Internal.Correction>
0.0277

> <Gold.Rescore>
     Score         DG    S(hbond)    S(metal)    S(lipo)     H(rot)  DE(clash)    DE(int)     intcor
     14.57     -18.42       2.84        0.00      66.90       1.71       1.58       2.28       ----

> <Gold.Chemscore.Fitness>
14.5678

> <Gold.Chemscore.DG>
-18.4223

> <Gold.Chemscore.ZeroCoef>
-5.4800

> <Gold.Chemscore.Hbond>
2.8427

> <Gold.Chemscore.Metal>
0.0000

> <Gold.Chemscore.Lipo>
66.8989

> <Gold.Chemscore.Internal_Hbond>
0.0000

> <Gold.Chemscore.DEClash>
1.5764

> <Gold.Chemscore.DEInternal>
2.2781

> <Gold.Chemscore.Rot>
1.7107

> <Gold.Chemscore.Internal.Correction>
   9.000000E+99

> <Gold.Chemscore.Hbonds>
donor molecule, donor type, donor heavy atom, donor atom, acceptor molecule, acceptor atom, score
      L1  H     7    27       P1 10171  0.71
      L1  H    10    28       P1 10175  0.91
      L1  H    13    46       P1 10175  1.00

> <Gold.Chemscore.Hbond.Weighted>
-9.4946

> <Gold.Chemscore.Metal.Weighted>
-0.0000

> <Gold.Chemscore.Lipo.Weighted>
-7.8272

> <Gold.Chemscore.Internal_Hbond.Weighted>
0.0000

> <Gold.Chemscore.DEClash.Weighted>
1.5764

> <Gold.Chemscore.DEInternal.Weighted>
2.2781

> <Gold.Chemscore.Rot.Weighted>
4.3794

> <Gold.Chemscore.Internal.Correction.Weighted>
   9.000000E+99

> <Gold.Protein.RotatedTorsions>
[ 6907 6896 6895 6894 ] final   20.72 input  -60.11 | X-H torsion
[ 7974 7965 7964 7962 ] final -134.21 input  175.53 | X-H torsion
[ 8008 7997 7996 7995 ] final -171.74 input   59.86 | X-H torsion
[ 10167 10162 10161 10158 ] final  -69.14 input  -65.29 | X-H torsion
[ 10718 10713 10712 10709 ] final   45.01 input   66.30 | X-H torsion
[ 10763 10752 10751 10750 ] final -133.22 input  -60.55 | X-H torsion
[ 11005 11000 10999 10996 ] final -114.40 input  -57.11 | X-H torsion

> <Gold.Protein.ActiveResidues>
 VAL166  LYS551  ARG553  GLY616  TRP617  ASP618  TYR619  PRO620  LYS621  CYS622 
 ASP623  PHE694  ASN695  SER759  ASP760  ASP761  ALA762  ILE779  LEU786  VAL792 
 PHE793  MET794  SER795  GLU796  ALA797  LYS798  CYS799  TRP800  GLU811  SER814 

> <Gold.Protein.RotatedAtoms>
  151.9008  135.0379  160.0505 H   0  0  0  0  0  0  0  0  0  0  0  0  # atno 6907 bound_to 6896
  152.2360  133.5092  159.5251 H   0  0  0  0  0  0  0  0  0  0  0  0  # atno 6908 bound_to 6896
  150.7039  134.1069  159.4029 H   0  0  0  0  0  0  0  0  0  0  0  0  # atno 6909 bound_to 6896
  144.9123  140.6910  143.5017 H   0  0  0  0  0  0  0  0  0  0  0  0  # atno 7974 bound_to 7965
  155.9355  140.1099  157.1098 H   0  0  0  0  0  0  0  0  0  0  0  0  # atno 8008 bound_to 7997
  154.4079  140.1229  156.4924 H   0  0  0  0  0  0  0  0  0  0  0  0  # atno 8009 bound_to 7997
  155.7027  140.3471  155.4942 H   0  0  0  0  0  0  0  0  0  0  0  0  # atno 8010 bound_to 7997
  140.5453  143.2313  151.7013 H   0  0  0  0  0  0  0  0  0  0  0  0  # atno 10167 bound_to 10162
  157.4330  130.8036  149.7621 H   0  0  0  0  0  0  0  0  0  0  0  0  # atno 10718 bound_to 10713
  154.8735  135.3773  154.4537 H   0  0  0  0  0  0  0  0  0  0  0  0  # atno 10763 bound_to 10752
  153.5211  135.7029  153.5736 H   0  0  0  0  0  0  0  0  0  0  0  0  # atno 10764 bound_to 10752
  153.3982  135.3955  155.1935 H   0  0  0  0  0  0  0  0  0  0  0  0  # atno 10765 bound_to 10752
  141.0554  133.9620  157.2763 H   0  0  0  0  0  0  0  0  0  0  0  0  # atno 11005 bound_to 11000
  145.3434  139.1726  143.4473 LP  0  0  0  0  0  0  0  0  0  0  0  0  # atno 17320 bound_to 7965
  146.3164  140.3477  142.8653 LP  0  0  0  0  0  0  0  0  0  0  0  0  # atno 17321 bound_to 7965
  139.5005  144.3904  152.0285 LP  0  0  0  0  0  0  0  0  0  0  0  0  # atno 17342 bound_to 10162
  140.3016  144.3640  150.6058 LP  0  0  0  0  0  0  0  0  0  0  0  0  # atno 17343 bound_to 10162
  155.9920  130.3934  150.2960 LP  0  0  0  0  0  0  0  0  0  0  0  0  # atno 17370 bound_to 10713
  157.1118  131.0223  151.3045 LP  0  0  0  0  0  0  0  0  0  0  0  0  # atno 17371 bound_to 10713
  139.9386  135.0194  156.8635 LP  0  0  0  0  0  0  0  0  0  0  0  0  # atno 17394 bound_to 11000
  140.5974  134.0204  155.7523 LP  0  0  0  0  0  0  0  0  0  0  0  0  # atno 17395 bound_to 11000

$$$$
