AV-unprocessed.smi:788|AV-procd|sdf|3736|dock4
  -GOLD-   22720 1173D 1   1.00000     0.00000
 Structure written by MMmdl.
 34 35  0  0  0  0  0  0  0  0  2 V2000
  152.2418  144.6093  158.0753 C   0  0  0  0  0  0  0  0  0  0  0  0
  152.8036  144.0277  159.3838 C   0  0  1  0  0  0  0  0  0  0  0  0
  151.8903  144.3519  160.5838 C   0  0  0  0  0  0  0  0  0  0  0  0
  152.4793  143.8207  161.8996 C   0  0  0  0  0  0  0  0  0  0  0  0
  152.7687  142.3139  161.8190 C   0  0  0  0  0  0  0  0  0  0  0  0
  153.6858  141.9768  160.6251 C   0  0  1  0  0  0  0  0  0  0  0  0
  154.0130  140.4741  160.5745 C   0  0  0  0  0  0  0  0  0  0  0  0
  153.0936  142.5077  159.2953 C   0  0  1  0  0  0  0  0  0  0  0  0
  151.8828  141.7624  158.9424 N   0  0  0  0  0  0  0  0  0  0  0  0
  151.7845  140.6611  158.1724 C   0  0  0  0  0  0  0  0  0  0  0  0
  152.7993  140.1943  157.6577 O   0  0  0  0  0  0  0  0  0  0  0  0
  150.5479  140.1215  158.0065 N   0  5  0  0  0  0  0  0  0  0  0  0
  150.0633  139.7907  156.7949 C   0  0  0  0  0  0  0  0  0  0  0  0
  148.8083  139.3472  156.6174 N   0  0  0  0  0  0  0  0  0  0  0  0
  148.5187  139.0450  155.2940 N   0  0  0  0  0  0  0  0  0  0  0  0
  149.5643  139.2801  154.5017 C   0  0  0  0  0  0  0  0  0  0  0  0
  150.9982  139.8900  155.3001 S   0  0  0  0  0  0  0  0  0  0  0  0
  151.2473  144.2200  157.8550 H   0  0  0  0  0  0  0  0  0  0  0  0
  152.8880  144.3690  157.2307 H   0  0  0  0  0  0  0  0  0  0  0  0
  152.1637  145.6951  158.1320 H   0  0  0  0  0  0  0  0  0  0  0  0
  153.7585  144.5252  159.5601 H   0  0  0  0  0  0  0  0  0  0  0  0
  151.7451  145.4299  160.6605 H   0  0  0  0  0  0  0  0  0  0  0  0
  150.9004  143.9209  160.4268 H   0  0  0  0  0  0  0  0  0  0  0  0
  153.4007  144.3570  162.1290 H   0  0  0  0  0  0  0  0  0  0  0  0
  151.7919  144.0227  162.7215 H   0  0  0  0  0  0  0  0  0  0  0  0
  153.2325  141.9837  162.7490 H   0  0  0  0  0  0  0  0  0  0  0  0
  151.8291  141.7660  161.7351 H   0  0  0  0  0  0  0  0  0  0  0  0
  154.6311  142.4974  160.7854 H   0  0  0  0  0  0  0  0  0  0  0  0
  153.1117  139.8669  160.4825 H   0  0  0  0  0  0  0  0  0  0  0  0
  154.5315  140.1566  161.4795 H   0  0  0  0  0  0  0  0  0  0  0  0
  154.6582  140.2421  159.7268 H   0  0  0  0  0  0  0  0  0  0  0  0
  153.8505  142.3608  158.5233 H   0  0  0  0  0  0  0  0  0  0  0  0
  151.0218  142.1156  159.3331 H   0  0  0  0  0  0  0  0  0  0  0  0
  149.4905  139.0940  153.4408 H   0  0  0  0  0  0  0  0  0  0  0  0
  1  2  1  0  0  0  0
  1 18  1  0  0  0  0
  1 19  1  0  0  0  0
  1 20  1  0  0  0  0
  2  8  1  0  0  0  0
  2  3  1  0  0  0  0
  2 21  1  0  0  0  0
  3  4  1  0  0  0  0
  3 22  1  0  0  0  0
  3 23  1  0  0  0  0
  4  5  1  0  0  0  0
  4 24  1  0  0  0  0
  4 25  1  0  0  0  0
  5  6  1  0  0  0  0
  5 26  1  0  0  0  0
  5 27  1  0  0  0  0
  6  7  1  0  0  0  0
  6  8  1  0  0  0  0
  6 28  1  0  0  0  0
  7 29  1  0  0  0  0
  7 30  1  0  0  0  0
  7 31  1  0  0  0  0
  8  9  1  0  0  0  0
  8 32  1  0  0  0  0
  9 10  1  0  0  0  0
  9 33  1  0  0  0  0
 10 11  2  0  0  0  0
 10 12  1  0  0  0  0
 12 13  1  0  0  0  0
 13 17  1  0  0  0  0
 13 14  2  0  0  0  0
 14 15  1  0  0  0  0
 15 16  2  0  0  0  0
 16 17  1  0  0  0  0
 16 34  1  0  0  0  0
M  CHG  1  12  -1
M  END
> <s_m_source_file>
AV-unprocessed.smi

> <i_m_source_file_index>
788

> <i_lp_mmshare_version>
43012

> <i_f3d_flags>
0

> <s_epik_input>
W0NIM11bQ0BASF0xW0NIMl1bQ0gyXVtDSDJdW0NAQEhdKFtDSDNdKVtDQEhdMVtOSF1DKD1PKVtOSF1jMm5uW2NIXXMy

> <s_epik_cmdline>
J2VwaWtfcHl0aG9uJywgJy1waCcsICc3LjAnLCAnLXRuJywgJzgnLCAnLW1hJywgJzIwMCcsICctbWV0YWxfYmluZGluZycsICctaW1hZScsICc8aW5maWxlLm1hZT4nLCAnLW9tYWUnLCAnPG91dGZpbGUubWFlPic=

> <r_lp_tautomer_probability>
1

> <r_epik_Ionization_Penalty>
4.58638

> <r_epik_Ionization_Penalty_Charging>
4.53816

> <r_epik_Ionization_Penalty_Neutral>
0.048215

> <r_epik_State_Penalty>
4.53788

> <r_epik_Charging_Adjusted_Penalty>
9.07605

> <i_epik_Tot_Q>
-1

> <i_epik_Tot_abs_Q>
1

> <r_epik_Metal_State_Penalty>
0.838628

> <b_epik_Metal_Only>
1

> <s_lp_Force_Field>
OPLS_2005

> <r_lp_Energy>
10.1282

> <b_lp_Chiralities_Consistent>
1

> <s_lp_Variant>
AV-unprocessed.smi:788-6

> <Gold.Version>
5.8.1

> <Gold.Id.Protein>
6NUR|6NUR_protein|mol2

> <Gold.PLP.Fitness>
45.1352

> <Gold.PLP.PLP>
-40.6996

> <Gold.PLP.part.hbond>
-1.0000

> <Gold.PLP.part.metal>
0.0000

> <Gold.PLP.part.buried>
-2.5131

> <Gold.PLP.part.nonpolar>
-35.2585

> <Gold.PLP.part.repulsive>
0.1625

> <Gold.PLP.ligand.clash>
0.0000

> <Gold.PLP.ligand.torsion>
0.7877

> <Gold.PLP.Chemscore.Hbond>
1.0000

> <Gold.PLP.Chemscore.CHOScore>
1.0000

> <Gold.PLP.Chemscore.Metal>
0.0000

> <Gold.Chemscore.Hbonds>
donor molecule, donor type, donor heavy atom, donor atom, acceptor molecule, acceptor atom, score
      P1  H  7997  8008       L1    11  1.00
      L1  C    16    34       P1  7957  1.00

> <Gold.PLP.Chemscore.Internal.Correction>
0.0109

> <Gold.Rescore>
     Score         DG    S(hbond)    S(metal)    S(lipo)     H(rot)  DE(clash)    DE(int)     intcor
     17.97     -18.85       0.96        0.00     108.70       1.00       0.02       0.86       ----

> <Gold.Chemscore.Fitness>
17.9730

> <Gold.Chemscore.DG>
-18.8469

> <Gold.Chemscore.ZeroCoef>
-5.4800

> <Gold.Chemscore.Hbond>
0.9609

> <Gold.Chemscore.Metal>
0.0000

> <Gold.Chemscore.Lipo>
108.6957

> <Gold.Chemscore.Internal_Hbond>
0.0000

> <Gold.Chemscore.DEClash>
0.0189

> <Gold.Chemscore.DEInternal>
0.8550

> <Gold.Chemscore.Rot>
1.0000

> <Gold.Chemscore.Internal.Correction>
   9.000000E+99

> <Gold.Chemscore.Hbonds>
donor molecule, donor type, donor heavy atom, donor atom, acceptor molecule, acceptor atom, score
      P1  H  7997  8008       L1    11  0.94

> <Gold.Chemscore.Hbond.Weighted>
-3.2095

> <Gold.Chemscore.Metal.Weighted>
-0.0000

> <Gold.Chemscore.Lipo.Weighted>
-12.7174

> <Gold.Chemscore.Internal_Hbond.Weighted>
0.0000

> <Gold.Chemscore.DEClash.Weighted>
0.0189

> <Gold.Chemscore.DEInternal.Weighted>
0.8550

> <Gold.Chemscore.Rot.Weighted>
2.5600

> <Gold.Chemscore.Internal.Correction.Weighted>
   9.000000E+99

> <Gold.Protein.RotatedTorsions>
[ 6907 6896 6895 6894 ] final  -99.67 input  -60.11 | X-H torsion
[ 7974 7965 7964 7962 ] final    4.44 input  175.53 | X-H torsion
[ 8008 7997 7996 7995 ] final  -73.21 input   59.86 | X-H torsion
[ 10167 10162 10161 10158 ] final  110.10 input  -65.29 | X-H torsion
[ 10718 10713 10712 10709 ] final  -36.86 input   66.30 | X-H torsion
[ 10763 10752 10751 10750 ] final -116.80 input  -60.55 | X-H torsion
[ 11005 11000 10999 10996 ] final -171.77 input  -57.11 | X-H torsion

> <Gold.Protein.ActiveResidues>
 VAL166  LYS551  ARG553  GLY616  TRP617  ASP618  TYR619  PRO620  LYS621  CYS622 
 ASP623  PHE694  ASN695  SER759  ASP760  ASP761  ALA762  ILE779  LEU786  VAL792 
 PHE793  MET794  SER795  GLU796  ALA797  LYS798  CYS799  TRP800  GLU811  SER814 

> <Gold.Protein.RotatedAtoms>
  150.7088  134.1005  159.3963 H   0  0  0  0  0  0  0  0  0  0  0  0  # atno 6907 bound_to 6896
  151.8991  135.0383  160.0514 H   0  0  0  0  0  0  0  0  0  0  0  0  # atno 6908 bound_to 6896
  152.2428  133.5114  159.5317 H   0  0  0  0  0  0  0  0  0  0  0  0  # atno 6909 bound_to 6896
  146.2444  140.0534  142.8373 H   0  0  0  0  0  0  0  0  0  0  0  0  # atno 7974 bound_to 7965
  154.5228  140.0783  156.8204 H   0  0  0  0  0  0  0  0  0  0  0  0  # atno 8008 bound_to 7997
  155.3539  140.3414  155.4221 H   0  0  0  0  0  0  0  0  0  0  0  0  # atno 8009 bound_to 7997
  156.1700  140.1616  156.8451 H   0  0  0  0  0  0  0  0  0  0  0  0  # atno 8010 bound_to 7997
  139.6714  144.7125  151.1681 H   0  0  0  0  0  0  0  0  0  0  0  0  # atno 10167 bound_to 10162
  156.3220  130.4267  149.7952 H   0  0  0  0  0  0  0  0  0  0  0  0  # atno 10718 bound_to 10713
  154.8532  135.4332  154.1879 H   0  0  0  0  0  0  0  0  0  0  0  0  # atno 10763 bound_to 10752
  153.2954  135.6965  153.7259 H   0  0  0  0  0  0  0  0  0  0  0  0  # atno 10764 bound_to 10752
  153.6410  135.3468  155.3046 H   0  0  0  0  0  0  0  0  0  0  0  0  # atno 10765 bound_to 10752
  140.5044  134.5862  157.4998 H   0  0  0  0  0  0  0  0  0  0  0  0  # atno 11005 bound_to 11000
  145.0964  140.9318  143.4738 LP  0  0  0  0  0  0  0  0  0  0  0  0  # atno 17320 bound_to 7965
  145.0717  139.3026  143.5828 LP  0  0  0  0  0  0  0  0  0  0  0  0  # atno 17321 bound_to 7965
  140.7619  143.5838  150.8867 LP  0  0  0  0  0  0  0  0  0  0  0  0  # atno 17342 bound_to 10162
  139.9504  143.6279  152.3030 LP  0  0  0  0  0  0  0  0  0  0  0  0  # atno 17343 bound_to 10162
  156.5256  130.8234  151.3219 LP  0  0  0  0  0  0  0  0  0  0  0  0  # atno 17370 bound_to 10713
  157.7413  130.9868  150.2440 LP  0  0  0  0  0  0  0  0  0  0  0  0  # atno 17371 bound_to 10713
  139.9694  134.7318  156.0071 LP  0  0  0  0  0  0  0  0  0  0  0  0  # atno 17394 bound_to 11000
  141.1418  133.6563  156.3753 LP  0  0  0  0  0  0  0  0  0  0  0  0  # atno 17395 bound_to 11000

$$$$
