AV-unprocessed.smi:3044|AV-procd|sdf|11608|dock1
  -GOLD-   2272016583D 1   1.00000     0.00000
 Structure written by MMmdl.
 41 42  0  0  0  0  0  0  0  0  1 V2000
  147.0203  141.7760  157.6628 C   0  0  0  0  0  0  0  0  0  0  0  0
  147.3510  141.5390  156.1995 C   0  0  0  0  0  0  0  0  0  0  0  0
  146.2982  141.5932  155.3533 N   0  0  0  0  0  0  0  0  0  0  0  0
  146.5228  141.3870  154.0394 C   0  0  0  0  0  0  0  0  0  0  0  0
  147.7969  141.1116  153.5101 C   0  0  0  0  0  0  0  0  0  0  0  0
  148.8925  141.0554  154.3919 C   0  0  0  0  0  0  0  0  0  0  0  0
  148.6788  141.2857  155.7734 C   0  0  0  0  0  0  0  0  0  0  0  0
  149.7173  141.2310  156.7462 N   0  0  0  0  0  0  0  0  0  0  0  0
  151.0261  140.9710  156.5695 C   0  0  0  0  0  0  0  0  0  0  0  0
  151.5617  140.7664  155.4808 O   0  0  0  0  0  0  0  0  0  0  0  0
  151.8832  140.9715  157.8329 C   0  0  0  0  0  0  0  0  0  0  0  0
  151.5544  142.1237  158.5949 O   0  0  0  0  0  0  0  0  0  0  0  0
  152.6050  143.0760  158.7194 C   0  0  1  0  0  0  0  0  0  0  0  0
  152.0550  144.4954  158.9744 C   0  0  0  0  0  0  0  0  0  0  0  0
  151.3347  144.5890  160.3285 C   0  0  0  0  0  0  0  0  0  0  0  0
  152.2541  144.1479  161.4777 C   0  0  0  0  0  0  0  0  0  0  0  0
  152.8015  142.7260  161.2503 C   0  0  2  0  0  0  0  0  0  0  0  0
  153.7299  142.2937  162.3943 C   0  0  0  0  0  0  0  0  0  0  0  0
  153.5100  142.6291  159.8827 C   0  0  0  0  0  0  0  0  0  0  0  0
  147.5445  142.6579  158.0312 H   0  0  0  0  0  0  0  0  0  0  0  0
  147.3200  140.9182  158.2651 H   0  0  0  0  0  0  0  0  0  0  0  0
  145.9512  141.9329  157.8127 H   0  0  0  0  0  0  0  0  0  0  0  0
  145.6603  141.4356  153.3914 H   0  0  0  0  0  0  0  0  0  0  0  0
  147.9302  140.9414  152.4521 H   0  0  0  0  0  0  0  0  0  0  0  0
  149.8670  140.8219  153.9929 H   0  0  0  0  0  0  0  0  0  0  0  0
  149.4418  141.4759  157.6862 H   0  0  0  0  0  0  0  0  0  0  0  0
  151.7065  140.0665  158.4169 H   0  0  0  0  0  0  0  0  0  0  0  0
  152.9325  140.9762  157.5387 H   0  0  0  0  0  0  0  0  0  0  0  0
  153.2023  143.0735  157.8061 H   0  0  0  0  0  0  0  0  0  0  0  0
  152.8837  145.2045  158.9638 H   0  0  0  0  0  0  0  0  0  0  0  0
  151.3871  144.8095  158.1735 H   0  0  0  0  0  0  0  0  0  0  0  0
  150.9944  145.6109  160.4978 H   0  0  0  0  0  0  0  0  0  0  0  0
  150.4405  143.9647  160.3125 H   0  0  0  0  0  0  0  0  0  0  0  0
  153.0821  144.8521  161.5705 H   0  0  0  0  0  0  0  0  0  0  0  0
  151.7063  144.1911  162.4197 H   0  0  0  0  0  0  0  0  0  0  0  0
  151.9542  142.0388  161.2415 H   0  0  0  0  0  0  0  0  0  0  0  0
  154.6051  142.9410  162.4613 H   0  0  0  0  0  0  0  0  0  0  0  0
  154.0817  141.2718  162.2501 H   0  0  0  0  0  0  0  0  0  0  0  0
  153.2137  142.3315  163.3540 H   0  0  0  0  0  0  0  0  0  0  0  0
  153.8505  141.6075  159.7093 H   0  0  0  0  0  0  0  0  0  0  0  0
  154.4064  143.2505  159.8958 H   0  0  0  0  0  0  0  0  0  0  0  0
  1  2  1  0  0  0  0
  1 20  1  0  0  0  0
  1 21  1  0  0  0  0
  1 22  1  0  0  0  0
  2  7  1  0  0  0  0
  2  3  2  0  0  0  0
  3  4  1  0  0  0  0
  4  5  2  0  0  0  0
  4 23  1  0  0  0  0
  5  6  1  0  0  0  0
  5 24  1  0  0  0  0
  6  7  2  0  0  0  0
  6 25  1  0  0  0  0
  7  8  1  0  0  0  0
  8  9  1  0  0  0  0
  8 26  1  0  0  0  0
  9 10  2  0  0  0  0
  9 11  1  0  0  0  0
 11 12  1  0  0  0  0
 11 27  1  0  0  0  0
 11 28  1  0  0  0  0
 12 13  1  0  0  0  0
 13 19  1  0  0  0  0
 13 14  1  0  0  0  0
 13 29  1  0  0  0  0
 14 15  1  0  0  0  0
 14 30  1  0  0  0  0
 14 31  1  0  0  0  0
 15 16  1  0  0  0  0
 15 32  1  0  0  0  0
 15 33  1  0  0  0  0
 16 17  1  0  0  0  0
 16 34  1  0  0  0  0
 16 35  1  0  0  0  0
 17 18  1  0  0  0  0
 17 19  1  0  0  0  0
 17 36  1  0  0  0  0
 18 37  1  0  0  0  0
 18 38  1  0  0  0  0
 18 39  1  0  0  0  0
 19 40  1  0  0  0  0
 19 41  1  0  0  0  0
M  END
> <s_m_source_file>
AV-unprocessed.smi

> <i_m_source_file_index>
3044

> <i_lp_mmshare_version>
43012

> <i_f3d_flags>
0

> <s_epik_input>
W0NIM11jMW5bY0hdW2NIXVtjSF1jMVtOSF1DKD1PKVtDSDJdT1tDQEBIXTJbQ0gyXVtDSDJdW0NIMl1bQ0BASF0oW0NIM10pW0NIMl0y

> <s_epik_cmdline>
J2VwaWtfcHl0aG9uJywgJy1waCcsICc3LjAnLCAnLXRuJywgJzgnLCAnLW1hJywgJzIwMCcsICctbWV0YWxfYmluZGluZycsICctaW1hZScsICc8aW5maWxlLm1hZT4nLCAnLW9tYWUnLCAnPG91dGZpbGUubWFlPic=

> <r_epik_Ionization_Penalty>
0.0077122

> <r_epik_Ionization_Penalty_Charging>
0

> <r_epik_Ionization_Penalty_Neutral>
0.0077122

> <r_epik_State_Penalty>
0.00577497

> <r_epik_Charging_Adjusted_Penalty>
0.00577497

> <i_epik_Tot_Q>
0

> <i_epik_Tot_abs_Q>
0

> <r_epik_Metal_State_Penalty>
-0

> <b_epik_Metal_Only>
0

> <s_lp_Force_Field>
OPLS_2005

> <r_lp_Energy>
18.191

> <b_lp_Chiralities_Consistent>
1

> <s_lp_Variant>
AV-unprocessed.smi:3044-4

> <Gold.Version>
5.8.1

> <Gold.Id.Protein>
6NUR|6NUR_protein|mol2

> <Gold.PLP.Fitness>
47.8392

> <Gold.PLP.PLP>
-45.5956

> <Gold.PLP.part.hbond>
-1.0000

> <Gold.PLP.part.metal>
0.0000

> <Gold.PLP.part.buried>
-5.6237

> <Gold.PLP.part.nonpolar>
-39.6716

> <Gold.PLP.part.repulsive>
0.1679

> <Gold.PLP.ligand.clash>
0.0000

> <Gold.PLP.ligand.torsion>
0.7863

> <Gold.PLP.Chemscore.Hbond>
0.6339

> <Gold.PLP.Chemscore.CHOScore>
0.6229

> <Gold.PLP.Chemscore.Metal>
0.0000

> <Gold.Chemscore.Hbonds>
donor molecule, donor type, donor heavy atom, donor atom, acceptor molecule, acceptor atom, score
      P1  H  7989  7998       L1    10  0.69
      L1  C     4    23       P1 10175  0.87

> <Gold.PLP.Chemscore.Internal.Correction>
0.0460

> <Gold.Rescore>
     Score         DG    S(hbond)    S(metal)    S(lipo)     H(rot)  DE(clash)    DE(int)     intcor
     16.97     -18.92       0.93        0.00     116.95       1.31       0.05       1.89       ----

> <Gold.Chemscore.Fitness>
16.9746

> <Gold.Chemscore.DG>
-18.9181

> <Gold.Chemscore.ZeroCoef>
-5.4800

> <Gold.Chemscore.Hbond>
0.9280

> <Gold.Chemscore.Metal>
0.0000

> <Gold.Chemscore.Lipo>
116.9478

> <Gold.Chemscore.Internal_Hbond>
0.0000

> <Gold.Chemscore.DEClash>
0.0523

> <Gold.Chemscore.DEInternal>
1.8912

> <Gold.Chemscore.Rot>
1.3064

> <Gold.Chemscore.Internal.Correction>
   9.000000E+99

> <Gold.Chemscore.Hbonds>
donor molecule, donor type, donor heavy atom, donor atom, acceptor molecule, acceptor atom, score
      P1  H  7989  7998       L1    10  0.67

> <Gold.Chemscore.Hbond.Weighted>
-3.0995

> <Gold.Chemscore.Metal.Weighted>
-0.0000

> <Gold.Chemscore.Lipo.Weighted>
-13.6829

> <Gold.Chemscore.Internal_Hbond.Weighted>
0.0000

> <Gold.Chemscore.DEClash.Weighted>
0.0523

> <Gold.Chemscore.DEInternal.Weighted>
1.8912

> <Gold.Chemscore.Rot.Weighted>
3.3443

> <Gold.Chemscore.Internal.Correction.Weighted>
   9.000000E+99

> <Gold.Protein.RotatedTorsions>
[ 6907 6896 6895 6894 ] final -124.32 input  -60.11 | X-H torsion
[ 7974 7965 7964 7962 ] final  157.17 input  175.53 | X-H torsion
[ 8008 7997 7996 7995 ] final  175.98 input   59.86 | X-H torsion
[ 10167 10162 10161 10158 ] final  -17.35 input  -65.29 | X-H torsion
[ 10718 10713 10712 10709 ] final    6.17 input   66.30 | X-H torsion
[ 10763 10752 10751 10750 ] final  -78.60 input  -60.55 | X-H torsion
[ 11005 11000 10999 10996 ] final -138.52 input  -57.11 | X-H torsion

> <Gold.Protein.ActiveResidues>
 VAL166  LYS551  ARG553  GLY616  TRP617  ASP618  TYR619  PRO620  LYS621  CYS622 
 ASP623  PHE694  ASN695  SER759  ASP760  ASP761  ALA762  ILE779  LEU786  VAL792 
 PHE793  MET794  SER795  GLU796  ALA797  LYS798  CYS799  TRP800  GLU811  SER814 

> <Gold.Protein.RotatedAtoms>
  150.8756  133.7443  159.2947 H   0  0  0  0  0  0  0  0  0  0  0  0  # atno 6907 bound_to 6896
  151.5041  135.1061  159.9846 H   0  0  0  0  0  0  0  0  0  0  0  0  # atno 6908 bound_to 6896
  152.4725  133.8017  159.7012 H   0  0  0  0  0  0  0  0  0  0  0  0  # atno 6909 bound_to 6896
  144.7919  139.7304  143.6218 H   0  0  0  0  0  0  0  0  0  0  0  0  # atno 7974 bound_to 7965
  156.0813  140.1395  156.9709 H   0  0  0  0  0  0  0  0  0  0  0  0  # atno 8008 bound_to 7997
  154.4587  140.0951  156.6880 H   0  0  0  0  0  0  0  0  0  0  0  0  # atno 8009 bound_to 7997
  155.5071  140.3452  155.4384 H   0  0  0  0  0  0  0  0  0  0  0  0  # atno 8010 bound_to 7997
  140.7246  143.5024  150.9852 H   0  0  0  0  0  0  0  0  0  0  0  0  # atno 10167 bound_to 10162
  156.9182  130.5781  149.5647 H   0  0  0  0  0  0  0  0  0  0  0  0  # atno 10718 bound_to 10713
  154.5279  135.5724  153.6735 H   0  0  0  0  0  0  0  0  0  0  0  0  # atno 10763 bound_to 10752
  152.9932  135.6197  154.2667 H   0  0  0  0  0  0  0  0  0  0  0  0  # atno 10764 bound_to 10752
  154.2592  135.2856  155.2764 H   0  0  0  0  0  0  0  0  0  0  0  0  # atno 10765 bound_to 10752
  140.8608  134.2171  157.4708 H   0  0  0  0  0  0  0  0  0  0  0  0  # atno 11005 bound_to 11000
  146.2174  139.5573  142.9641 LP  0  0  0  0  0  0  0  0  0  0  0  0  # atno 17320 bound_to 7965
  145.5773  141.0387  143.2141 LP  0  0  0  0  0  0  0  0  0  0  0  0  # atno 17321 bound_to 7965
  139.8734  143.7163  152.3164 LP  0  0  0  0  0  0  0  0  0  0  0  0  # atno 17342 bound_to 10162
  139.7420  144.7557  151.0638 LP  0  0  0  0  0  0  0  0  0  0  0  0  # atno 17343 bound_to 10162
  156.0503  130.5573  150.8974 LP  0  0  0  0  0  0  0  0  0  0  0  0  # atno 17370 bound_to 10713
  157.5924  131.0944  150.9096 LP  0  0  0  0  0  0  0  0  0  0  0  0  # atno 17371 bound_to 10713
  139.8707  134.9729  156.4788 LP  0  0  0  0  0  0  0  0  0  0  0  0  # atno 17394 bound_to 11000
  140.8684  133.8006  155.9339 LP  0  0  0  0  0  0  0  0  0  0  0  0  # atno 17395 bound_to 11000

$$$$
