AV-unprocessed.smi:1803|AV-procd|sdf|7289|dock3
  -GOLD-   22720 8543D 1   1.00000     0.00000
 Structure written by MMmdl.
 35 37  0  0  0  0  0  0  0  0  3 V2000
  150.6199  134.5656  156.1872 O   0  0  0  0  0  0  0  0  0  0  0  0
  150.4771  135.2041  155.1455 C   0  0  0  0  0  0  0  0  0  0  0  0
  151.2461  136.2730  154.8117 N   0  5  0  0  0  0  0  0  0  0  0  0
  150.7640  137.5293  154.7711 C   0  0  0  0  0  0  0  0  0  0  0  0
  151.5616  138.6057  154.6797 N   0  0  0  0  0  0  0  0  0  0  0  0
  150.8600  139.8031  154.6442 N   0  0  0  0  0  0  0  0  0  0  0  0
  149.5452  139.5986  154.7207 C   0  0  0  0  0  0  0  0  0  0  0  0
  149.0447  137.9247  154.8370 S   0  0  0  0  0  0  0  0  0  0  0  0
  149.5131  134.8322  154.2829 N   0  0  0  0  0  0  0  0  0  0  0  0
  148.5874  133.7209  154.4629 C   0  0  2  0  0  0  0  0  0  0  0  0
  149.2736  132.3491  154.6112 C   0  0  0  0  0  0  0  0  0  0  0  0
  148.3783  131.3600  153.8391 C   0  0  0  0  0  0  0  0  0  0  0  0
  147.2171  132.1530  153.3916 N   0  3  2  0  0  0  0  0  0  0  0  0
  146.4804  131.6642  152.2060 C   0  0  0  0  0  0  0  0  0  0  0  0
  145.2669  132.5806  151.9473 C   0  0  0  0  0  0  0  0  0  0  0  0
  145.6791  134.0642  151.8490 C   0  0  0  0  0  0  0  0  0  0  0  0
  146.5204  134.4894  153.0679 C   0  0  0  0  0  0  0  0  0  0  0  0
  147.7093  133.5287  153.2293 C   0  0  1  0  0  0  0  0  0  0  0  0
  148.8663  140.4381  154.7093 H   0  0  0  0  0  0  0  0  0  0  0  0
  149.4215  135.3697  153.4332 H   0  0  0  0  0  0  0  0  0  0  0  0
  147.9505  133.9041  155.3309 H   0  0  0  0  0  0  0  0  0  0  0  0
  150.2748  132.3567  154.1778 H   0  0  0  0  0  0  0  0  0  0  0  0
  149.3743  132.0735  155.6616 H   0  0  0  0  0  0  0  0  0  0  0  0
  148.9176  130.9629  152.9777 H   0  0  0  0  0  0  0  0  0  0  0  0
  148.0583  130.5198  154.4556 H   0  0  0  0  0  0  0  0  0  0  0  0
  147.1409  131.6502  151.3376 H   0  0  0  0  0  0  0  0  0  0  0  0
  146.1493  130.6394  152.3773 H   0  0  0  0  0  0  0  0  0  0  0  0
  144.7546  132.2737  151.0350 H   0  0  0  0  0  0  0  0  0  0  0  0
  144.5473  132.4622  152.7583 H   0  0  0  0  0  0  0  0  0  0  0  0
  146.2578  134.2196  150.9374 H   0  0  0  0  0  0  0  0  0  0  0  0
  144.7941  134.6956  151.7646 H   0  0  0  0  0  0  0  0  0  0  0  0
  146.8755  135.5128  152.9420 H   0  0  0  0  0  0  0  0  0  0  0  0
  145.9028  134.4794  153.9671 H   0  0  0  0  0  0  0  0  0  0  0  0
  148.3345  133.5702  152.3339 H   0  0  0  0  0  0  0  0  0  0  0  0
  146.5683  132.1732  154.1653 H   0  0  0  0  0  0  0  0  0  0  0  0
  1  2  2  0  0  0  0
  2  3  1  0  0  0  0
  2  9  1  0  0  0  0
  3  4  1  0  0  0  0
  4  8  1  0  0  0  0
  4  5  2  0  0  0  0
  5  6  1  0  0  0  0
  6  7  2  0  0  0  0
  7  8  1  0  0  0  0
  7 19  1  0  0  0  0
  9 10  1  0  0  0  0
  9 20  1  0  0  0  0
 10 18  1  0  0  0  0
 10 11  1  0  0  0  0
 10 21  1  0  0  0  0
 11 12  1  0  0  0  0
 11 22  1  0  0  0  0
 11 23  1  0  0  0  0
 12 13  1  0  0  0  0
 12 24  1  0  0  0  0
 12 25  1  0  0  0  0
 13 18  1  0  0  0  0
 13 14  1  0  0  0  0
 13 35  1  0  0  0  0
 14 15  1  0  0  0  0
 14 26  1  0  0  0  0
 14 27  1  0  0  0  0
 15 16  1  0  0  0  0
 15 28  1  0  0  0  0
 15 29  1  0  0  0  0
 16 17  1  0  0  0  0
 16 30  1  0  0  0  0
 16 31  1  0  0  0  0
 17 18  1  0  0  0  0
 17 32  1  0  0  0  0
 17 33  1  0  0  0  0
 18 34  1  0  0  0  0
M  CHG  1   3  -1
M  CHG  1  13   1
M  END
> <s_m_source_file>
AV-unprocessed.smi

> <i_m_source_file_index>
1803

> <i_lp_mmshare_version>
43012

> <i_f3d_flags>
0

> <s_epik_input>
czFbY0hdbm5jMVtOSF1DKD1PKVtOSF1bQ0BIXShbQ0gyXVtDSDJdMilbQ0BASF0oTjIzKVtDSDJdW0NIMl1bQ0gyXVtDSDJdMw==

> <s_epik_cmdline>
J2VwaWtfcHl0aG9uJywgJy1waCcsICc3LjAnLCAnLXRuJywgJzgnLCAnLW1hJywgJzIwMCcsICctbWV0YWxfYmluZGluZycsICctaW1hZScsICc8aW5maWxlLm1hZT4nLCAnLW9tYWUnLCAnPG91dGZpbGUubWFlPic=

> <r_lp_tautomer_probability>
1

> <r_epik_Ionization_Penalty>
3.78828

> <r_epik_Ionization_Penalty_Charging>
3.7591

> <r_epik_Ionization_Penalty_Neutral>
0.0291838

> <r_epik_State_Penalty>
3.757

> <r_epik_Charging_Adjusted_Penalty>
7.51609

> <i_epik_Tot_Q>
0

> <i_epik_Tot_abs_Q>
2

> <r_epik_Metal_State_Penalty>
0.558016

> <b_epik_Metal_Only>
1

> <s_lp_Force_Field>
OPLS_2005

> <r_lp_Energy>
28.5802

> <b_lp_Chiralities_Consistent>
1

> <s_lp_Variant>
AV-unprocessed.smi:1803-11

> <Gold.Version>
5.8.1

> <Gold.Id.Protein>
6NUR|6NUR_protein|mol2

> <Gold.PLP.Fitness>
36.8841

> <Gold.PLP.PLP>
-26.8654

> <Gold.PLP.part.hbond>
-3.0000

> <Gold.PLP.part.metal>
0.0000

> <Gold.PLP.part.buried>
-3.0600

> <Gold.PLP.part.nonpolar>
-21.1954

> <Gold.PLP.part.repulsive>
0.4482

> <Gold.PLP.ligand.clash>
0.0000

> <Gold.PLP.ligand.torsion>
0.6956

> <Gold.PLP.Chemscore.Hbond>
3.8000

> <Gold.PLP.Chemscore.CHOScore>
0.0000

> <Gold.PLP.Chemscore.Metal>
0.0000

> <Gold.Chemscore.Hbonds>
donor molecule, donor type, donor heavy atom, donor atom, acceptor molecule, acceptor atom, score
      L1  H     9    20       P1  7948  0.80
      P1  H  7989  7998       L1     6  1.00
      P1  H 10752 10764       L1     3  2.00

> <Gold.PLP.Chemscore.Internal.Correction>
0.0099

> <Gold.Rescore>
     Score         DG    S(hbond)    S(metal)    S(lipo)     H(rot)  DE(clash)    DE(int)     intcor
     14.16     -15.65       1.97        0.00      52.39       1.00       0.07       1.42       ----

> <Gold.Chemscore.Fitness>
14.1635

> <Gold.Chemscore.DG>
-15.6461

> <Gold.Chemscore.ZeroCoef>
-5.4800

> <Gold.Chemscore.Hbond>
1.9749

> <Gold.Chemscore.Metal>
0.0000

> <Gold.Chemscore.Lipo>
52.3930

> <Gold.Chemscore.Internal_Hbond>
0.0000

> <Gold.Chemscore.DEClash>
0.0669

> <Gold.Chemscore.DEInternal>
1.4157

> <Gold.Chemscore.Rot>
1.0000

> <Gold.Chemscore.Internal.Correction>
   9.000000E+99

> <Gold.Chemscore.Hbonds>
donor molecule, donor type, donor heavy atom, donor atom, acceptor molecule, acceptor atom, score
      L1  H     9    20       P1  7948  0.12
      P1  H  7989  7998       L1     6  0.65
      P1  H 10752 10764       L1     3  0.45

> <Gold.Chemscore.Hbond.Weighted>
-6.5961

> <Gold.Chemscore.Metal.Weighted>
-0.0000

> <Gold.Chemscore.Lipo.Weighted>
-6.1300

> <Gold.Chemscore.Internal_Hbond.Weighted>
0.0000

> <Gold.Chemscore.DEClash.Weighted>
0.0669

> <Gold.Chemscore.DEInternal.Weighted>
1.4157

> <Gold.Chemscore.Rot.Weighted>
2.5600

> <Gold.Chemscore.Internal.Correction.Weighted>
   9.000000E+99

> <Gold.Protein.RotatedTorsions>
[ 6907 6896 6895 6894 ] final  130.49 input  -60.11 | X-H torsion
[ 7974 7965 7964 7962 ] final -113.92 input  175.53 | X-H torsion
[ 8008 7997 7996 7995 ] final  163.64 input   59.86 | X-H torsion
[ 10167 10162 10161 10158 ] final  -11.49 input  -65.29 | X-H torsion
[ 10718 10713 10712 10709 ] final  -92.89 input   66.30 | X-H torsion
[ 10763 10752 10751 10750 ] final  -55.21 input  -60.55 | X-H torsion
[ 11005 11000 10999 10996 ] final   -1.27 input  -57.11 | X-H torsion

> <Gold.Protein.ActiveResidues>
 VAL166  LYS551  ARG553  GLY616  TRP617  ASP618  TYR619  PRO620  LYS621  CYS622 
 ASP623  PHE694  ASN695  SER759  ASP760  ASP761  ALA762  ILE779  LEU786  VAL792 
 PHE793  MET794  SER795  GLU796  ALA797  LYS798  CYS799  TRP800  GLU811  SER814 

> <Gold.Protein.RotatedAtoms>
  152.3520  133.6191  159.5951 H   0  0  0  0  0  0  0  0  0  0  0  0  # atno 6907 bound_to 6896
  150.7544  133.9559  159.3509 H   0  0  0  0  0  0  0  0  0  0  0  0  # atno 6908 bound_to 6896
  151.7409  135.0855  160.0366 H   0  0  0  0  0  0  0  0  0  0  0  0  # atno 6909 bound_to 6896
  145.1263  140.8698  143.3784 H   0  0  0  0  0  0  0  0  0  0  0  0  # atno 7974 bound_to 7965
  156.1942  140.1718  156.8032 H   0  0  0  0  0  0  0  0  0  0  0  0  # atno 8008 bound_to 7997
  154.5508  140.0718  156.8697 H   0  0  0  0  0  0  0  0  0  0  0  0  # atno 8009 bound_to 7997
  155.3032  140.3363  155.4249 H   0  0  0  0  0  0  0  0  0  0  0  0  # atno 8010 bound_to 7997
  140.7140  143.5633  150.9171 H   0  0  0  0  0  0  0  0  0  0  0  0  # atno 10167 bound_to 10162
  156.0007  130.5005  150.5693 H   0  0  0  0  0  0  0  0  0  0  0  0  # atno 10718 bound_to 10713
  154.1872  135.6433  153.5050 H   0  0  0  0  0  0  0  0  0  0  0  0  # atno 10763 bound_to 10752
  153.0044  135.5420  154.6453 H   0  0  0  0  0  0  0  0  0  0  0  0  # atno 10764 bound_to 10752
  154.5832  135.2927  155.0684 H   0  0  0  0  0  0  0  0  0  0  0  0  # atno 10765 bound_to 10752
  140.6455  133.9451  155.8350 H   0  0  0  0  0  0  0  0  0  0  0  0  # atno 11005 bound_to 11000
  145.0685  139.3050  143.5844 LP  0  0  0  0  0  0  0  0  0  0  0  0  # atno 17320 bound_to 7965
  146.3517  140.0151  142.8663 LP  0  0  0  0  0  0  0  0  0  0  0  0  # atno 17321 bound_to 7965
  139.9359  143.6439  152.3065 LP  0  0  0  0  0  0  0  0  0  0  0  0  # atno 17342 bound_to 10162
  139.6906  144.7647  151.1446 LP  0  0  0  0  0  0  0  0  0  0  0  0  # atno 17343 bound_to 10162
  157.3591  131.0746  151.1651 LP  0  0  0  0  0  0  0  0  0  0  0  0  # atno 17370 bound_to 10713
  157.2442  130.6583  149.5903 LP  0  0  0  0  0  0  0  0  0  0  0  0  # atno 17371 bound_to 10713
  141.0575  134.0395  157.3703 LP  0  0  0  0  0  0  0  0  0  0  0  0  # atno 17394 bound_to 11000
  139.9064  135.0180  156.7505 LP  0  0  0  0  0  0  0  0  0  0  0  0  # atno 17395 bound_to 11000

$$$$
