AV-unprocessed.smi:1492|AV-procd|sdf|6043|dock5
  -GOLD-   22720 6153D 1   1.00000     0.00000
 Structure written by MMmdl.
 53 54  0  0  0  0  0  0  0  0  2 V2000
  144.2857  135.4583  150.9718 C   0  0  0  0  0  0  0  0  0  0  0  0
  145.7414  135.3624  151.4591 C   0  0  0  0  0  0  0  0  0  0  0  0
  145.9377  135.4409  153.0075 C   0  0  2  0  0  0  0  0  0  0  0  0
  144.7802  134.6480  153.6669 C   0  0  0  0  0  0  0  0  0  0  0  0
  145.8401  136.9291  153.4747 C   0  0  0  0  0  0  0  0  0  0  0  0
  147.0493  137.6942  153.1865 N   0  0  0  0  0  0  0  0  0  0  0  0
  147.5808  138.6436  153.9702 C   0  0  0  0  0  0  0  0  0  0  0  0
  147.0171  139.1107  154.9589 O   0  0  0  0  0  0  0  0  0  0  0  0
  148.9933  139.0950  153.6030 C   0  0  0  0  0  0  0  0  0  0  0  0
  149.5829  140.1415  154.5483 C   0  0  0  0  0  0  0  0  0  0  0  0
  149.0129  141.3574  154.7460 C   0  0  0  0  0  0  0  0  0  0  0  0
  147.7463  141.8327  154.0558 C   0  0  0  0  0  0  0  0  0  0  0  0
  149.5607  142.2697  155.6301 N   0  0  0  0  0  0  0  0  0  0  0  0
  150.7063  141.9012  156.3153 C   0  0  0  0  0  0  0  0  0  0  0  0
  151.2176  142.9668  157.2601 C   0  0  0  0  0  0  0  0  0  0  0  0
  151.3205  140.7633  156.1997 N   0  0  0  0  0  0  0  0  0  0  0  0
  150.8067  139.8031  155.3135 C   0  0  0  0  0  0  0  0  0  0  0  0
  151.3567  138.7088  155.1965 O   0  0  0  0  0  0  0  0  0  0  0  0
  147.2767  134.8582  153.3968 N   0  3  0  0  0  0  0  0  0  0  0  0
  147.6775  135.0273  154.8237 C   0  0  0  0  0  0  0  0  0  0  0  0
  149.1222  134.5482  155.0480 C   0  0  0  0  0  0  0  0  0  0  0  0
  149.2528  133.1943  154.6412 O   0  0  0  0  0  0  0  0  0  0  0  0
  148.9741  133.0379  153.2581 C   0  0  0  0  0  0  0  0  0  0  0  0
  147.5194  133.4466  152.9787 C   0  0  0  0  0  0  0  0  0  0  0  0
  149.1059  143.1642  155.7451 H   0  0  0  0  0  0  0  0  0  0  0  0
  144.2441  135.3905  149.8846 H   0  0  0  0  0  0  0  0  0  0  0  0
  143.8254  136.4043  151.2570 H   0  0  0  0  0  0  0  0  0  0  0  0
  143.6708  134.6509  151.3678 H   0  0  0  0  0  0  0  0  0  0  0  0
  146.1647  134.4349  151.0738 H   0  0  0  0  0  0  0  0  0  0  0  0
  146.3312  136.1272  150.9559 H   0  0  0  0  0  0  0  0  0  0  0  0
  143.8084  135.0566  153.3878 H   0  0  0  0  0  0  0  0  0  0  0  0
  144.8330  134.6748  154.7550 H   0  0  0  0  0  0  0  0  0  0  0  0
  144.7674  133.6025  153.3611 H   0  0  0  0  0  0  0  0  0  0  0  0
  145.0436  137.4514  152.9456 H   0  0  0  0  0  0  0  0  0  0  0  0
  145.5846  136.9763  154.5343 H   0  0  0  0  0  0  0  0  0  0  0  0
  147.5876  137.3997  152.3842 H   0  0  0  0  0  0  0  0  0  0  0  0
  149.6392  138.2185  153.5381 H   0  0  0  0  0  0  0  0  0  0  0  0
  148.9764  139.5024  152.5919 H   0  0  0  0  0  0  0  0  0  0  0  0
  147.8797  141.8425  152.9739 H   0  0  0  0  0  0  0  0  0  0  0  0
  147.4729  142.8416  154.3677 H   0  0  0  0  0  0  0  0  0  0  0  0
  146.9118  141.1738  154.2963 H   0  0  0  0  0  0  0  0  0  0  0  0
  152.1824  142.6835  157.6829 H   0  0  0  0  0  0  0  0  0  0  0  0
  150.5149  143.1135  158.0809 H   0  0  0  0  0  0  0  0  0  0  0  0
  151.3420  143.9149  156.7358 H   0  0  0  0  0  0  0  0  0  0  0  0
  147.6401  136.0694  155.1336 H   0  0  0  0  0  0  0  0  0  0  0  0
  147.0018  134.4703  155.4731 H   0  0  0  0  0  0  0  0  0  0  0  0
  149.8289  135.1753  154.5020 H   0  0  0  0  0  0  0  0  0  0  0  0
  149.3820  134.6241  156.1039 H   0  0  0  0  0  0  0  0  0  0  0  0
  149.6688  133.6302  152.6601 H   0  0  0  0  0  0  0  0  0  0  0  0
  149.1291  131.9940  152.9839 H   0  0  0  0  0  0  0  0  0  0  0  0
  146.8511  132.7720  153.5140 H   0  0  0  0  0  0  0  0  0  0  0  0
  147.3399  133.3021  151.9158 H   0  0  0  0  0  0  0  0  0  0  0  0
  147.9467  135.4044  152.8741 H   0  0  0  0  0  0  0  0  0  0  0  0
  1  2  1  0  0  0  0
  1 26  1  0  0  0  0
  1 27  1  0  0  0  0
  1 28  1  0  0  0  0
  2  3  1  0  0  0  0
  2 29  1  0  0  0  0
  2 30  1  0  0  0  0
  3  4  1  0  0  0  0
  3  5  1  0  0  0  0
  3 19  1  0  0  0  0
  4 31  1  0  0  0  0
  4 32  1  0  0  0  0
  4 33  1  0  0  0  0
  5  6  1  0  0  0  0
  5 34  1  0  0  0  0
  5 35  1  0  0  0  0
  6  7  1  0  0  0  0
  6 36  1  0  0  0  0
  7  8  2  0  0  0  0
  7  9  1  0  0  0  0
  9 37  1  0  0  0  0
  9 38  1  0  0  0  0
  9 10  1  0  0  0  0
 10 17  1  0  0  0  0
 10 11  2  0  0  0  0
 11 12  1  0  0  0  0
 11 13  1  0  0  0  0
 12 39  1  0  0  0  0
 12 40  1  0  0  0  0
 12 41  1  0  0  0  0
 13 25  1  0  0  0  0
 13 14  1  0  0  0  0
 14 15  1  0  0  0  0
 14 16  2  0  0  0  0
 15 42  1  0  0  0  0
 15 43  1  0  0  0  0
 15 44  1  0  0  0  0
 16 17  1  0  0  0  0
 17 18  2  0  0  0  0
 19 24  1  0  0  0  0
 19 20  1  0  0  0  0
 19 53  1  0  0  0  0
 20 21  1  0  0  0  0
 20 45  1  0  0  0  0
 20 46  1  0  0  0  0
 21 22  1  0  0  0  0
 21 47  1  0  0  0  0
 21 48  1  0  0  0  0
 22 23  1  0  0  0  0
 23 24  1  0  0  0  0
 23 49  1  0  0  0  0
 23 50  1  0  0  0  0
 24 51  1  0  0  0  0
 24 52  1  0  0  0  0
M  CHG  1  19   1
M  END
> <s_m_source_file>
AV-unprocessed.smi

> <i_m_source_file_index>
1492

> <i_lp_mmshare_version>
43012

> <i_f3d_flags>
0

> <s_epik_input>
W0NIMl0xW0NIMl1PW0NIMl1bQ0gyXU4xW0NAQF0oW0NIM10pKFtDSDJdW0NIM10pW0NIMl1bTkhdQyg9TylbQ0gyXWMyYyhbQ0gzXSluYyhbQ0gzXSlbbkhdYzI9Tw==

> <s_epik_cmdline>
J2VwaWtfcHl0aG9uJywgJy1waCcsICc3LjAnLCAnLXRuJywgJzgnLCAnLW1hJywgJzIwMCcsICctbWV0YWxfYmluZGluZycsICctaW1hZScsICc8aW5maWxlLm1hZT4nLCAnLW9tYWUnLCAnPG91dGZpbGUubWFlPic=

> <r_lp_tautomer_probability>
0.156392

> <r_epik_Ionization_Penalty>
0.523233

> <r_epik_Ionization_Penalty_Charging>
0.523147

> <r_epik_Ionization_Penalty_Neutral>
8.52784e-05

> <r_epik_State_Penalty>
1.66677

> <r_epik_Charging_Adjusted_Penalty>
2.18991

> <i_epik_Tot_Q>
1

> <i_epik_Tot_abs_Q>
1

> <r_epik_Metal_State_Penalty>
1.84524

> <b_epik_Metal_Only>
0

> <s_lp_Force_Field>
OPLS_2005

> <r_lp_Energy>
32.5308

> <b_lp_Chiralities_Consistent>
1

> <s_lp_Variant>
AV-unprocessed.smi:1492-8

> <Gold.Version>
5.8.1

> <Gold.Id.Protein>
6NUR|6NUR_protein|mol2

> <Gold.PLP.Fitness>
47.7751

> <Gold.PLP.PLP>
-37.3131

> <Gold.PLP.part.hbond>
-3.0000

> <Gold.PLP.part.metal>
0.0000

> <Gold.PLP.part.buried>
-3.5222

> <Gold.PLP.part.nonpolar>
-32.4080

> <Gold.PLP.part.repulsive>
0.3851

> <Gold.PLP.ligand.clash>
0.0000

> <Gold.PLP.ligand.torsion>
0.6791

> <Gold.PLP.Chemscore.Hbond>
3.8640

> <Gold.PLP.Chemscore.CHOScore>
0.0000

> <Gold.PLP.Chemscore.Metal>
0.0000

> <Gold.Chemscore.Hbonds>
donor molecule, donor type, donor heavy atom, donor atom, acceptor molecule, acceptor atom, score
      L1  H     6    36       P1  7948  0.88
      L1  H    13    25       P1  8028  1.00
      L1  H    19    53       P1  7948  2.00

> <Gold.PLP.Chemscore.Internal.Correction>
0.2282

> <Gold.Rescore>
     Score         DG    S(hbond)    S(metal)    S(lipo)     H(rot)  DE(clash)    DE(int)     intcor
     16.50     -18.55       2.86        0.00      78.03       2.19       1.44       0.61       ----

> <Gold.Chemscore.Fitness>
16.5045

> <Gold.Chemscore.DG>
-18.5521

> <Gold.Chemscore.ZeroCoef>
-5.4800

> <Gold.Chemscore.Hbond>
2.8609

> <Gold.Chemscore.Metal>
0.0000

> <Gold.Chemscore.Lipo>
78.0309

> <Gold.Chemscore.Internal_Hbond>
0.0000

> <Gold.Chemscore.DEClash>
1.4356

> <Gold.Chemscore.DEInternal>
0.6121

> <Gold.Chemscore.Rot>
2.1926

> <Gold.Chemscore.Internal.Correction>
   9.000000E+99

> <Gold.Chemscore.Hbonds>
donor molecule, donor type, donor heavy atom, donor atom, acceptor molecule, acceptor atom, score
      L1  H     6    36       P1  7948  0.86
      L1  H    13    25       P1  8028  0.96
      L1  H    19    53       P1  7948  1.00

> <Gold.Chemscore.Hbond.Weighted>
-9.5554

> <Gold.Chemscore.Metal.Weighted>
-0.0000

> <Gold.Chemscore.Lipo.Weighted>
-9.1296

> <Gold.Chemscore.Internal_Hbond.Weighted>
0.0000

> <Gold.Chemscore.DEClash.Weighted>
1.4356

> <Gold.Chemscore.DEInternal.Weighted>
0.6121

> <Gold.Chemscore.Rot.Weighted>
5.6129

> <Gold.Chemscore.Internal.Correction.Weighted>
   9.000000E+99

> <Gold.Protein.RotatedTorsions>
[ 6907 6896 6895 6894 ] final   90.81 input  -60.11 | X-H torsion
[ 7974 7965 7964 7962 ] final  -23.67 input  175.53 | X-H torsion
[ 8008 7997 7996 7995 ] final  -84.07 input   59.86 | X-H torsion
[ 10167 10162 10161 10158 ] final  102.47 input  -65.29 | X-H torsion
[ 10718 10713 10712 10709 ] final -121.01 input   66.30 | X-H torsion
[ 10763 10752 10751 10750 ] final  149.62 input  -60.55 | X-H torsion
[ 11005 11000 10999 10996 ] final  -63.84 input  -57.11 | X-H torsion

> <Gold.Protein.ActiveResidues>
 VAL166  LYS551  ARG553  GLY616  TRP617  ASP618  TYR619  PRO620  LYS621  CYS622 
 ASP623  PHE694  ASN695  SER759  ASP760  ASP761  ALA762  ILE779  LEU786  VAL792 
 PHE793  MET794  SER795  GLU796  ALA797  LYS798  CYS799  TRP800  GLU811  SER814 

> <Gold.Protein.RotatedAtoms>
  152.5447  134.1754  159.8613 H   0  0  0  0  0  0  0  0  0  0  0  0  # atno 6907 bound_to 6896
  151.1761  133.4747  159.2601 H   0  0  0  0  0  0  0  0  0  0  0  0  # atno 6908 bound_to 6896
  151.1226  135.0099  159.8600 H   0  0  0  0  0  0  0  0  0  0  0  0  # atno 6909 bound_to 6896
  146.1602  140.4647  142.8574 H   0  0  0  0  0  0  0  0  0  0  0  0  # atno 7974 bound_to 7965
  154.6258  140.0610  156.9671 H   0  0  0  0  0  0  0  0  0  0  0  0  # atno 8008 bound_to 7997
  155.1744  140.3294  155.4368 H   0  0  0  0  0  0  0  0  0  0  0  0  # atno 8009 bound_to 7997
  156.2456  140.1908  156.6844 H   0  0  0  0  0  0  0  0  0  0  0  0  # atno 8010 bound_to 7997
  139.7347  144.7027  151.0668 H   0  0  0  0  0  0  0  0  0  0  0  0  # atno 10167 bound_to 10162
  156.1303  130.6390  150.9610 H   0  0  0  0  0  0  0  0  0  0  0  0  # atno 10718 bound_to 10713
  154.0741  135.2864  155.3302 H   0  0  0  0  0  0  0  0  0  0  0  0  # atno 10763 bound_to 10752
  154.6727  135.5293  153.8162 H   0  0  0  0  0  0  0  0  0  0  0  0  # atno 10764 bound_to 10752
  153.0474  135.6561  154.0921 H   0  0  0  0  0  0  0  0  0  0  0  0  # atno 10765 bound_to 10752
  141.1406  133.6657  156.5742 H   0  0  0  0  0  0  0  0  0  0  0  0  # atno 11005 bound_to 11000
  144.8017  140.6225  143.6474 LP  0  0  0  0  0  0  0  0  0  0  0  0  # atno 17320 bound_to 7965
  145.4607  139.1513  143.3868 LP  0  0  0  0  0  0  0  0  0  0  0  0  # atno 17321 bound_to 7965
  140.7777  143.4999  150.9785 LP  0  0  0  0  0  0  0  0  0  0  0  0  # atno 17342 bound_to 10162
  139.8687  143.7220  152.3168 LP  0  0  0  0  0  0  0  0  0  0  0  0  # atno 17343 bound_to 10162
  157.6481  131.0901  150.8109 LP  0  0  0  0  0  0  0  0  0  0  0  0  # atno 17370 bound_to 10713
  156.8194  130.4979  149.5345 LP  0  0  0  0  0  0  0  0  0  0  0  0  # atno 17371 bound_to 10713
  140.3889  134.7458  157.4709 LP  0  0  0  0  0  0  0  0  0  0  0  0  # atno 17394 bound_to 11000
  140.0581  134.6034  155.8781 LP  0  0  0  0  0  0  0  0  0  0  0  0  # atno 17395 bound_to 11000

$$$$
