AV-unprocessed.smi:890|AV-procd|sdf|4060|dock4
  -GOLD-   22720 1553D 1   1.00000     0.00000
 Structure written by MMmdl.
 53 56  0  0  0  0  0  0  0  0  3 V2000
  151.1502  134.9800  155.7341 O   0  0  0  0  0  0  0  0  0  0  0  0
  150.4233  135.3726  154.8234 C   0  0  0  0  0  0  0  0  0  0  0  0
  149.6064  134.6042  154.0818 N   0  0  0  0  0  0  0  0  0  0  0  0
  149.3440  133.2027  154.1550 C   0  0  0  0  0  0  0  0  0  0  0  0
  150.2031  132.2683  154.7924 C   0  0  0  0  0  0  0  0  0  0  0  0
  149.8572  130.9026  154.8189 C   0  0  0  0  0  0  0  0  0  0  0  0
  148.6589  130.4860  154.2125 C   0  0  0  0  0  0  0  0  0  0  0  0
  147.8608  131.3961  153.6179 N   0  3  0  0  0  0  0  0  0  0  0  0
  148.1463  132.7204  153.5644 C   0  0  0  0  0  0  0  0  0  0  0  0
  147.2425  133.5815  152.9175 N   0  0  0  0  0  0  0  0  0  0  0  0
  145.9177  133.6627  153.5095 C   0  0  0  0  0  0  0  0  0  0  0  0
  145.0451  134.3399  152.4512 C   0  0  0  0  0  0  0  0  0  0  0  0
  145.7552  134.0595  151.1212 C   0  0  0  0  0  0  0  0  0  0  0  0
  147.0362  133.3111  151.5041 C   0  0  0  0  0  0  0  0  0  0  0  0
  150.3546  136.6561  154.4411 N   0  0  0  0  0  0  0  0  0  0  0  0
  151.0865  137.7576  155.0609 C   0  0  2  0  0  0  0  0  0  0  0  0
  151.0029  137.6443  156.5920 C   0  0  0  0  0  0  0  0  0  0  0  0
  151.6999  138.8339  157.2738 C   0  0  0  0  0  0  0  0  0  0  0  0
  151.1242  140.1227  156.8154 N   0  3  1  0  0  0  0  0  0  0  0  0
  151.6991  141.2775  157.5392 C   0  0  0  0  0  0  0  0  0  0  0  0
  150.7468  141.9082  158.5285 C   0  0  0  0  0  0  0  0  0  0  0  0
  151.0339  142.5941  157.2115 C   0  0  0  0  0  0  0  0  0  0  0  0
  151.2264  140.2771  155.3427 C   0  0  0  0  0  0  0  0  0  0  0  0
  150.5229  139.1198  154.6137 C   0  0  0  0  0  0  0  0  0  0  0  0
  149.0952  135.0904  153.3597 H   0  0  0  0  0  0  0  0  0  0  0  0
  151.1239  132.5581  155.2706 H   0  0  0  0  0  0  0  0  0  0  0  0
  150.5046  130.1847  155.3011 H   0  0  0  0  0  0  0  0  0  0  0  0
  148.3159  129.4618  154.1865 H   0  0  0  0  0  0  0  0  0  0  0  0
  145.5322  132.6663  153.7302 H   0  0  0  0  0  0  0  0  0  0  0  0
  145.9349  134.2321  154.4393 H   0  0  0  0  0  0  0  0  0  0  0  0
  144.0222  133.9627  152.4675 H   0  0  0  0  0  0  0  0  0  0  0  0
  145.0051  135.4154  152.6286 H   0  0  0  0  0  0  0  0  0  0  0  0
  145.1393  133.4679  150.4432 H   0  0  0  0  0  0  0  0  0  0  0  0
  145.9932  134.9981  150.6194 H   0  0  0  0  0  0  0  0  0  0  0  0
  147.8880  133.6485  150.9131 H   0  0  0  0  0  0  0  0  0  0  0  0
  146.9108  132.2409  151.3327 H   0  0  0  0  0  0  0  0  0  0  0  0
  149.7360  136.8931  153.6790 H   0  0  0  0  0  0  0  0  0  0  0  0
  152.1375  137.6942  154.7709 H   0  0  0  0  0  0  0  0  0  0  0  0
  149.9586  137.6084  156.9065 H   0  0  0  0  0  0  0  0  0  0  0  0
  151.4585  136.7107  156.9247 H   0  0  0  0  0  0  0  0  0  0  0  0
  151.5910  138.7480  158.3556 H   0  0  0  0  0  0  0  0  0  0  0  0
  152.7700  138.8160  157.0606 H   0  0  0  0  0  0  0  0  0  0  0  0
  152.7659  141.2344  157.7511 H   0  0  0  0  0  0  0  0  0  0  0  0
  149.7625  141.4607  158.6563 H   0  0  0  0  0  0  0  0  0  0  0  0
  151.1755  142.3513  159.4251 H   0  0  0  0  0  0  0  0  0  0  0  0
  151.6510  143.4898  157.2409 H   0  0  0  0  0  0  0  0  0  0  0  0
  150.2408  142.6005  156.4660 H   0  0  0  0  0  0  0  0  0  0  0  0
  150.7754  141.2236  155.0423 H   0  0  0  0  0  0  0  0  0  0  0  0
  152.2773  140.3209  155.0514 H   0  0  0  0  0  0  0  0  0  0  0  0
  150.6396  139.2432  153.5362 H   0  0  0  0  0  0  0  0  0  0  0  0
  149.4513  139.1635  154.8149 H   0  0  0  0  0  0  0  0  0  0  0  0
  150.1398  140.1012  157.0405 H   0  0  0  0  0  0  0  0  0  0  0  0
  146.9961  131.0695  153.1859 H   0  0  0  0  0  0  0  0  0  0  0  0
  1  2  2  0  0  0  0
  2  3  1  0  0  0  0
  2 15  1  0  0  0  0
  3  4  1  0  0  0  0
  3 25  1  0  0  0  0
  4  9  1  0  0  0  0
  4  5  2  0  0  0  0
  5  6  1  0  0  0  0
  5 26  1  0  0  0  0
  6  7  2  0  0  0  0
  6 27  1  0  0  0  0
  7  8  1  0  0  0  0
  7 28  1  0  0  0  0
  8  9  2  0  0  0  0
  8 53  1  0  0  0  0
  9 10  1  0  0  0  0
 10 14  1  0  0  0  0
 10 11  1  0  0  0  0
 11 12  1  0  0  0  0
 11 29  1  0  0  0  0
 11 30  1  0  0  0  0
 12 13  1  0  0  0  0
 12 31  1  0  0  0  0
 12 32  1  0  0  0  0
 13 14  1  0  0  0  0
 13 33  1  0  0  0  0
 13 34  1  0  0  0  0
 14 35  1  0  0  0  0
 14 36  1  0  0  0  0
 15 16  1  0  0  0  0
 15 37  1  0  0  0  0
 16 24  1  0  0  0  0
 16 17  1  0  0  0  0
 16 38  1  0  0  0  0
 17 18  1  0  0  0  0
 17 39  1  0  0  0  0
 17 40  1  0  0  0  0
 18 19  1  0  0  0  0
 18 41  1  0  0  0  0
 18 42  1  0  0  0  0
 19 20  1  0  0  0  0
 19 23  1  0  0  0  0
 19 52  1  0  0  0  0
 20 22  1  0  0  0  0
 20 21  1  0  0  0  0
 20 43  1  0  0  0  0
 21 22  1  0  0  0  0
 21 44  1  0  0  0  0
 21 45  1  0  0  0  0
 22 46  1  0  0  0  0
 22 47  1  0  0  0  0
 23 24  1  0  0  0  0
 23 48  1  0  0  0  0
 23 49  1  0  0  0  0
 24 50  1  0  0  0  0
 24 51  1  0  0  0  0
M  CHG  1   8   1
M  CHG  1  19   1
M  END
> <s_m_source_file>
AV-unprocessed.smi

> <i_m_source_file_index>
890

> <i_lp_mmshare_version>
43012

> <i_f3d_flags>
0

> <s_epik_input>
W0NIMl0xW0NIMl1bQ0hdMU4oW0NIMl1bQ0gyXTIpW0NIMl1bQ0gyXVtDSF0yW05IXUMoPU8pW05IXWMzW2NIXVtjSF1bY0hdbmMzTjRbQ0gyXVtDSDJdW0NIMl1bQ0gyXTQ=

> <s_epik_cmdline>
J2VwaWtfcHl0aG9uJywgJy1waCcsICc3LjAnLCAnLXRuJywgJzgnLCAnLW1hJywgJzIwMCcsICctbWV0YWxfYmluZGluZycsICctaW1hZScsICc8aW5maWxlLm1hZT4nLCAnLW9tYWUnLCAnPG91dGZpbGUubWFlPic=

> <r_lp_tautomer_probability>
0.999994

> <r_epik_Ionization_Penalty>
1.36901

> <r_epik_Ionization_Penalty_Charging>
1.36899

> <r_epik_Ionization_Penalty_Neutral>
1.88098e-05

> <r_epik_State_Penalty>
1.38441

> <r_epik_Charging_Adjusted_Penalty>
2.7534

> <i_epik_Tot_Q>
2

> <i_epik_Tot_abs_Q>
2

> <r_epik_Metal_State_Penalty>
1.45718

> <b_epik_Metal_Only>
0

> <s_lp_Force_Field>
OPLS_2005

> <r_lp_Energy>
65.7128

> <b_lp_Chiralities_Consistent>
1

> <s_lp_Variant>
AV-unprocessed.smi:890-4

> <Gold.Version>
5.8.1

> <Gold.Id.Protein>
6NUR|6NUR_protein|mol2

> <Gold.PLP.Fitness>
45.0539

> <Gold.PLP.PLP>
-37.8688

> <Gold.PLP.part.hbond>
-4.1698

> <Gold.PLP.part.metal>
0.0000

> <Gold.PLP.part.buried>
-2.4657

> <Gold.PLP.part.nonpolar>
-30.6975

> <Gold.PLP.part.repulsive>
0.3930

> <Gold.PLP.ligand.clash>
0.0000

> <Gold.PLP.ligand.torsion>
0.9879

> <Gold.PLP.Chemscore.Hbond>
2.6245

> <Gold.PLP.Chemscore.CHOScore>
0.0000

> <Gold.PLP.Chemscore.Metal>
0.0000

> <Gold.Chemscore.Hbonds>
donor molecule, donor type, donor heavy atom, donor atom, acceptor molecule, acceptor atom, score
      L1  H     3    25       P1  7948  1.00
      L1  H    15    37       P1  7948  0.81
      P1  H 10752 10764       L1     1  0.72

> <Gold.PLP.Chemscore.Internal.Correction>
1.2874

> <Gold.Rescore>
     Score         DG    S(hbond)    S(metal)    S(lipo)     H(rot)  DE(clash)    DE(int)     intcor
     14.03     -18.08       1.60        0.00      91.57       1.35       0.40       3.65       ----

> <Gold.Chemscore.Fitness>
14.0269

> <Gold.Chemscore.DG>
-18.0781

> <Gold.Chemscore.ZeroCoef>
-5.4800

> <Gold.Chemscore.Hbond>
1.5980

> <Gold.Chemscore.Metal>
0.0000

> <Gold.Chemscore.Lipo>
91.5742

> <Gold.Chemscore.Internal_Hbond>
0.0000

> <Gold.Chemscore.DEClash>
0.4003

> <Gold.Chemscore.DEInternal>
3.6510

> <Gold.Chemscore.Rot>
1.3489

> <Gold.Chemscore.Internal.Correction>
   9.000000E+99

> <Gold.Chemscore.Hbonds>
donor molecule, donor type, donor heavy atom, donor atom, acceptor molecule, acceptor atom, score
      L1  H     3    25       P1  7948  0.25
      L1  H    15    37       P1  7948  0.50
      P1  H 10752 10764       L1     1  0.18

> <Gold.Chemscore.Hbond.Weighted>
-5.3372

> <Gold.Chemscore.Metal.Weighted>
-0.0000

> <Gold.Chemscore.Lipo.Weighted>
-10.7142

> <Gold.Chemscore.Internal_Hbond.Weighted>
0.0000

> <Gold.Chemscore.DEClash.Weighted>
0.4003

> <Gold.Chemscore.DEInternal.Weighted>
3.6510

> <Gold.Chemscore.Rot.Weighted>
3.4532

> <Gold.Chemscore.Internal.Correction.Weighted>
   9.000000E+99

> <Gold.Protein.RotatedTorsions>
[ 6907 6896 6895 6894 ] final  107.12 input  -60.11 | X-H torsion
[ 7974 7965 7964 7962 ] final -152.87 input  175.53 | X-H torsion
[ 8008 7997 7996 7995 ] final   94.56 input   59.86 | X-H torsion
[ 10167 10162 10161 10158 ] final -127.40 input  -65.29 | X-H torsion
[ 10718 10713 10712 10709 ] final   -0.85 input   66.30 | X-H torsion
[ 10763 10752 10751 10750 ] final  -38.10 input  -60.55 | X-H torsion
[ 11005 11000 10999 10996 ] final  -36.94 input  -57.11 | X-H torsion

> <Gold.Protein.ActiveResidues>
 VAL166  LYS551  ARG553  GLY616  TRP617  ASP618  TYR619  PRO620  LYS621  CYS622 
 ASP623  PHE694  ASN695  SER759  ASP760  ASP761  ALA762  ILE779  LEU786  VAL792 
 PHE793  MET794  SER795  GLU796  ALA797  LYS798  CYS799  TRP800  GLU811  SER814 

> <Gold.Protein.RotatedAtoms>
  152.5167  133.9281  159.7566 H   0  0  0  0  0  0  0  0  0  0  0  0  # atno 6907 bound_to 6896
  150.9638  133.6408  159.2756 H   0  0  0  0  0  0  0  0  0  0  0  0  # atno 6908 bound_to 6896
  151.3644  135.0916  159.9498 H   0  0  0  0  0  0  0  0  0  0  0  0  # atno 6909 bound_to 6896
  144.7771  140.4603  143.5866 H   0  0  0  0  0  0  0  0  0  0  0  0  # atno 7974 bound_to 7965
  156.0592  140.3298  155.7442 H   0  0  0  0  0  0  0  0  0  0  0  0  # atno 8008 bound_to 7997
  155.5481  140.0608  157.2873 H   0  0  0  0  0  0  0  0  0  0  0  0  # atno 8009 bound_to 7997
  154.4473  140.1899  156.0647 H   0  0  0  0  0  0  0  0  0  0  0  0  # atno 8010 bound_to 7997
  139.9612  143.5947  152.2444 H   0  0  0  0  0  0  0  0  0  0  0  0  # atno 10167 bound_to 10162
  156.8143  130.5435  149.5705 H   0  0  0  0  0  0  0  0  0  0  0  0  # atno 10718 bound_to 10713
  153.9073  135.6796  153.4752 H   0  0  0  0  0  0  0  0  0  0  0  0  # atno 10763 bound_to 10752
  153.1097  135.4789  154.9011 H   0  0  0  0  0  0  0  0  0  0  0  0  # atno 10764 bound_to 10752
  154.7545  135.3193  154.8451 H   0  0  0  0  0  0  0  0  0  0  0  0  # atno 10765 bound_to 10752
  140.9914  133.7003  156.1856 H   0  0  0  0  0  0  0  0  0  0  0  0  # atno 11005 bound_to 11000
  145.6156  139.1518  143.3051 LP  0  0  0  0  0  0  0  0  0  0  0  0  # atno 17320 bound_to 7965
  146.1956  140.6269  142.9125 LP  0  0  0  0  0  0  0  0  0  0  0  0  # atno 17321 bound_to 7965
  139.6552  144.7662  151.2069 LP  0  0  0  0  0  0  0  0  0  0  0  0  # atno 17342 bound_to 10162
  140.7552  143.6097  150.8618 LP  0  0  0  0  0  0  0  0  0  0  0  0  # atno 17343 bound_to 10162
  156.1026  130.5980  150.9919 LP  0  0  0  0  0  0  0  0  0  0  0  0  # atno 17370 bound_to 10713
  157.6490  131.0900  150.8092 LP  0  0  0  0  0  0  0  0  0  0  0  0  # atno 17371 bound_to 10713
  140.7034  134.4539  157.5585 LP  0  0  0  0  0  0  0  0  0  0  0  0  # atno 17394 bound_to 11000
  139.8994  134.8592  156.1962 LP  0  0  0  0  0  0  0  0  0  0  0  0  # atno 17395 bound_to 11000

$$$$
