AV-unprocessed.smi:2695|AV-procd|sdf|10412|dock9
  -GOLD-   2272014453D 1   1.00000     0.00000
 Structure written by MMmdl.
 42 43  0  0  0  0  0  0  0  0  1 V2000
  149.9938  130.5022  154.3206 C   0  0  0  0  0  0  0  0  0  0  0  0
  150.3625  131.8289  154.9720 C   0  0  0  0  0  0  0  0  0  0  0  0
  151.2080  131.8362  156.0285 C   0  0  0  0  0  0  0  0  0  0  0  0
  151.5604  133.0957  156.7063 C   0  0  0  0  0  0  0  0  0  0  0  0
  152.3503  133.1319  157.6474 O   0  0  0  0  0  0  0  0  0  0  0  0
  150.9050  134.3057  156.1906 C   0  0  0  0  0  0  0  0  0  0  0  0
  150.0797  134.2025  155.1311 C   0  0  0  0  0  0  0  0  0  0  0  0
  149.4431  135.2753  154.6363 O   0  0  0  0  0  0  0  0  0  0  0  0
  149.7856  133.0068  154.4458 N   0  0  0  0  0  0  0  0  0  0  0  0
  148.9284  132.9926  153.2463 C   0  0  0  0  0  0  0  0  0  0  0  0
  147.6290  132.1968  153.4356 C   0  0  0  0  0  0  0  0  0  0  0  0
  147.0586  132.1640  154.5268 O   0  0  0  0  0  0  0  0  0  0  0  0
  147.1805  131.5509  152.3487 N   0  0  0  0  0  0  0  0  0  0  0  0
  145.9692  130.7323  152.2718 C   0  0  1  0  0  0  0  0  0  0  0  0
  145.0509  131.2897  151.1548 C   0  0  0  0  0  0  0  0  0  0  0  0
  145.7745  131.5799  149.8332 C   0  0  0  0  0  0  0  0  0  0  0  0
  144.8162  132.4863  149.0610 C   0  0  0  0  0  0  0  0  0  0  0  0
  144.0550  133.2864  150.1253 C   0  0  0  0  0  0  0  0  0  0  0  0
  144.3787  132.6327  151.4762 C   0  0  0  0  0  0  0  0  0  0  0  0
  146.3707  129.2520  152.0733 C   0  0  0  0  0  0  0  0  0  0  0  0
  147.0404  128.8152  153.1407 F   0  0  0  0  0  0  0  0  0  0  0  0
  145.2943  128.4805  151.9269 F   0  0  0  0  0  0  0  0  0  0  0  0
  147.1481  129.1169  150.9981 F   0  0  0  0  0  0  0  0  0  0  0  0
  150.2534  129.6651  154.9695 H   0  0  0  0  0  0  0  0  0  0  0  0
  150.5354  130.3746  153.3831 H   0  0  0  0  0  0  0  0  0  0  0  0
  148.9243  130.4277  154.1254 H   0  0  0  0  0  0  0  0  0  0  0  0
  151.6335  130.9189  156.4090 H   0  0  0  0  0  0  0  0  0  0  0  0
  151.0924  135.2515  156.6782 H   0  0  0  0  0  0  0  0  0  0  0  0
  148.6788  134.0104  152.9435 H   0  0  0  0  0  0  0  0  0  0  0  0
  149.4597  132.5940  152.3830 H   0  0  0  0  0  0  0  0  0  0  0  0
  147.7213  131.6304  151.4999 H   0  0  0  0  0  0  0  0  0  0  0  0
  145.4218  130.8043  153.2132 H   0  0  0  0  0  0  0  0  0  0  0  0
  144.2648  130.5617  150.9467 H   0  0  0  0  0  0  0  0  0  0  0  0
  146.7063  132.1132  150.0274 H   0  0  0  0  0  0  0  0  0  0  0  0
  146.0211  130.6749  149.2771 H   0  0  0  0  0  0  0  0  0  0  0  0
  145.3383  133.1283  148.3509 H   0  0  0  0  0  0  0  0  0  0  0  0
  144.1135  131.8744  148.4940 H   0  0  0  0  0  0  0  0  0  0  0  0
  144.3613  134.3332  150.1254 H   0  0  0  0  0  0  0  0  0  0  0  0
  142.9837  133.2618  149.9235 H   0  0  0  0  0  0  0  0  0  0  0  0
  143.4859  132.5103  152.0899 H   0  0  0  0  0  0  0  0  0  0  0  0
  145.0695  133.2729  152.0269 H   0  0  0  0  0  0  0  0  0  0  0  0
  149.5212  135.2434  153.6949 H   0  0  0  0  0  0  0  0  0  0  0  0
  1  2  1  0  0  0  0
  1 24  1  0  0  0  0
  1 25  1  0  0  0  0
  1 26  1  0  0  0  0
  2  9  1  0  0  0  0
  2  3  2  0  0  0  0
  3  4  1  0  0  0  0
  3 27  1  0  0  0  0
  4  5  2  0  0  0  0
  4  6  1  0  0  0  0
  6  7  2  0  0  0  0
  6 28  1  0  0  0  0
  7  8  1  0  0  0  0
  7  9  1  0  0  0  0
  8 42  1  0  0  0  0
  9 10  1  0  0  0  0
 10 11  1  0  0  0  0
 10 29  1  0  0  0  0
 10 30  1  0  0  0  0
 11 12  2  0  0  0  0
 11 13  1  0  0  0  0
 13 14  1  0  0  0  0
 13 31  1  0  0  0  0
 14 15  1  0  0  0  0
 14 20  1  0  0  0  0
 14 32  1  0  0  0  0
 15 19  1  0  0  0  0
 15 16  1  0  0  0  0
 15 33  1  0  0  0  0
 16 17  1  0  0  0  0
 16 34  1  0  0  0  0
 16 35  1  0  0  0  0
 17 18  1  0  0  0  0
 17 36  1  0  0  0  0
 17 37  1  0  0  0  0
 18 19  1  0  0  0  0
 18 38  1  0  0  0  0
 18 39  1  0  0  0  0
 19 40  1  0  0  0  0
 19 41  1  0  0  0  0
 20 21  1  0  0  0  0
 20 22  1  0  0  0  0
 20 23  1  0  0  0  0
M  END
> <s_m_source_file>
AV-unprocessed.smi

> <i_m_source_file_index>
2695

> <i_lp_mmshare_version>
43012

> <i_f3d_flags>
0

> <s_epik_input>
W0NIM11jMVtjSF1jKFtPSF0pW2NIXWMoPU8pbjFbQ0gyXUMoPU8pW05IXVtDQEBIXShDKEYpKEYpRilbQ0hdMltDSDJdW0NIMl1bQ0gyXVtDSDJdMg==

> <s_epik_cmdline>
J2VwaWtfcHl0aG9uJywgJy1waCcsICc3LjAnLCAnLXRuJywgJzgnLCAnLW1hJywgJzIwMCcsICctbWV0YWxfYmluZGluZycsICctaW1hZScsICc8aW5maWxlLm1hZT4nLCAnLW9tYWUnLCAnPG91dGZpbGUubWFlPic=

> <r_epik_Ionization_Penalty>
1.35977e-07

> <r_epik_Ionization_Penalty_Charging>
0

> <r_epik_Ionization_Penalty_Neutral>
1.35977e-07

> <r_epik_State_Penalty>
2.53185

> <r_epik_Charging_Adjusted_Penalty>
2.53185

> <i_epik_Tot_Q>
0

> <i_epik_Tot_abs_Q>
0

> <r_epik_Metal_State_Penalty>
2.53184

> <b_epik_Metal_Only>
0

> <s_lp_Force_Field>
OPLS_2005

> <r_lp_Energy>
25.7414

> <b_lp_Chiralities_Consistent>
1

> <s_lp_Variant>
AV-unprocessed.smi:2695-6

> <Gold.Version>
5.8.1

> <Gold.Id.Protein>
6NUR|6NUR_protein|mol2

> <Gold.PLP.Fitness>
51.5310

> <Gold.PLP.PLP>
-45.5498

> <Gold.PLP.part.hbond>
-3.0000

> <Gold.PLP.part.metal>
0.0000

> <Gold.PLP.part.buried>
-3.0402

> <Gold.PLP.part.nonpolar>
-39.1344

> <Gold.PLP.part.repulsive>
0.0525

> <Gold.PLP.ligand.clash>
0.0000

> <Gold.PLP.ligand.torsion>
0.6205

> <Gold.PLP.Chemscore.Hbond>
2.2995

> <Gold.PLP.Chemscore.CHOScore>
0.0000

> <Gold.PLP.Chemscore.Metal>
0.0000

> <Gold.Chemscore.Hbonds>
donor molecule, donor type, donor heavy atom, donor atom, acceptor molecule, acceptor atom, score
      L1  H     8    42       P1  7948  0.57
      L1  H    13    31       P1 10747  0.98
      P1  H  6896  6909       L1     5  0.69

> <Gold.PLP.Chemscore.Internal.Correction>
0.3236

> <Gold.Rescore>
     Score         DG    S(hbond)    S(metal)    S(lipo)     H(rot)  DE(clash)    DE(int)     intcor
     15.02     -16.21       1.80        0.00      93.87       2.45       0.40       0.79       ----

> <Gold.Chemscore.Fitness>
15.0239

> <Gold.Chemscore.DG>
-16.2140

> <Gold.Chemscore.ZeroCoef>
-5.4800

> <Gold.Chemscore.Hbond>
1.8041

> <Gold.Chemscore.Metal>
0.0000

> <Gold.Chemscore.Lipo>
93.8749

> <Gold.Chemscore.Internal_Hbond>
0.0000

> <Gold.Chemscore.DEClash>
0.4014

> <Gold.Chemscore.DEInternal>
0.7887

> <Gold.Chemscore.Rot>
2.4512

> <Gold.Chemscore.Internal.Correction>
   9.000000E+99

> <Gold.Chemscore.Hbonds>
donor molecule, donor type, donor heavy atom, donor atom, acceptor molecule, acceptor atom, score
      L1  H     8    42       P1  7948  0.08
      L1  H    13    31       P1 10747  0.93
      P1  H  6896  6909       L1     5  0.68

> <Gold.Chemscore.Hbond.Weighted>
-6.0258

> <Gold.Chemscore.Metal.Weighted>
-0.0000

> <Gold.Chemscore.Lipo.Weighted>
-10.9834

> <Gold.Chemscore.Internal_Hbond.Weighted>
0.0000

> <Gold.Chemscore.DEClash.Weighted>
0.4014

> <Gold.Chemscore.DEInternal.Weighted>
0.7887

> <Gold.Chemscore.Rot.Weighted>
6.2752

> <Gold.Chemscore.Internal.Correction.Weighted>
   9.000000E+99

> <Gold.Protein.RotatedTorsions>
[ 6907 6896 6895 6894 ] final  -83.97 input  -60.11 | X-H torsion
[ 7974 7965 7964 7962 ] final   32.43 input  175.53 | X-H torsion
[ 8008 7997 7996 7995 ] final  129.04 input   59.86 | X-H torsion
[ 10167 10162 10161 10158 ] final -162.02 input  -65.29 | X-H torsion
[ 10718 10713 10712 10709 ] final   76.63 input   66.30 | X-H torsion
[ 10763 10752 10751 10750 ] final  -56.42 input  -60.55 | X-H torsion
[ 11005 11000 10999 10996 ] final   41.45 input  -57.11 | X-H torsion

> <Gold.Protein.ActiveResidues>
 VAL166  LYS551  ARG553  GLY616  TRP617  ASP618  TYR619  PRO620  LYS621  CYS622 
 ASP623  PHE694  ASN695  SER759  ASP760  ASP761  ALA762  ILE779  LEU786  VAL792 
 PHE793  MET794  SER795  GLU796  ALA797  LYS798  CYS799  TRP800  GLU811  SER814 

> <Gold.Protein.RotatedAtoms>
  150.6880  134.3430  159.4875 H   0  0  0  0  0  0  0  0  0  0  0  0  # atno 6907 bound_to 6896
  152.1281  134.9153  160.0569 H   0  0  0  0  0  0  0  0  0  0  0  0  # atno 6908 bound_to 6896
  152.0333  133.3912  159.4343 H   0  0  0  0  0  0  0  0  0  0  0  0  # atno 6909 bound_to 6896
  146.1487  139.6527  142.9114 H   0  0  0  0  0  0  0  0  0  0  0  0  # atno 7974 bound_to 7965
  156.2928  140.2630  156.2534 H   0  0  0  0  0  0  0  0  0  0  0  0  # atno 8008 bound_to 7997
  154.9860  140.0389  157.2317 H   0  0  0  0  0  0  0  0  0  0  0  0  # atno 8009 bound_to 7997
  154.7729  140.2781  155.6128 H   0  0  0  0  0  0  0  0  0  0  0  0  # atno 8010 bound_to 7997
  139.6423  144.0237  152.2101 H   0  0  0  0  0  0  0  0  0  0  0  0  # atno 10167 bound_to 10162
  157.6681  130.9783  150.1525 H   0  0  0  0  0  0  0  0  0  0  0  0  # atno 10718 bound_to 10713
  154.2063  135.6402  153.5102 H   0  0  0  0  0  0  0  0  0  0  0  0  # atno 10763 bound_to 10752
  153.0000  135.5463  154.6262 H   0  0  0  0  0  0  0  0  0  0  0  0  # atno 10764 bound_to 10752
  154.5688  135.2915  155.0821 H   0  0  0  0  0  0  0  0  0  0  0  0  # atno 10765 bound_to 10752
  140.1833  134.4077  155.8188 H   0  0  0  0  0  0  0  0  0  0  0  0  # atno 11005 bound_to 11000
  145.4876  141.0438  143.2611 LP  0  0  0  0  0  0  0  0  0  0  0  0  # atno 17320 bound_to 7965
  144.7877  139.6392  143.7127 LP  0  0  0  0  0  0  0  0  0  0  0  0  # atno 17321 bound_to 7965
  139.9930  144.6348  150.7797 LP  0  0  0  0  0  0  0  0  0  0  0  0  # atno 17342 bound_to 10162
  140.7497  143.2943  151.3247 LP  0  0  0  0  0  0  0  0  0  0  0  0  # atno 17343 bound_to 10162
  156.2321  130.3683  149.8433 LP  0  0  0  0  0  0  0  0  0  0  0  0  # atno 17370 bound_to 10713
  156.6257  130.8645  151.3485 LP  0  0  0  0  0  0  0  0  0  0  0  0  # atno 17371 bound_to 10713
  141.2224  133.7011  156.7968 LP  0  0  0  0  0  0  0  0  0  0  0  0  # atno 17394 bound_to 11000
  140.2243  134.8734  157.3410 LP  0  0  0  0  0  0  0  0  0  0  0  0  # atno 17395 bound_to 11000

$$$$
