#       Name:                AV-unprocessed.smi:2124
#       Creating user name   scv26
#       Creation time:       Fri Mar 27 11:41:55 2020


#       File generated by GOLD software.
#

@<TRIPOS>MOLECULE
AV-unprocessed.smi:2124
    52    54     1
SMALL
NO_CHARGES


@<TRIPOS>ATOM
      1 ****        -4.0910   6.1550  -0.3538 C.3            1 S1                 0.0000
      2 ****        -3.5073   4.7595  -0.4151 C.2            1 S1                 0.0000
      3 ****        -3.0774   4.3112  -1.5326 N.2            1 S1                 0.0000
      4 ****        -2.5339   3.0170  -1.5955 C.2            1 S1                 0.0000
      5 ****        -2.0487   2.5668  -2.9623 C.3            1 S1                 0.0000
      6 ****        -2.4561   2.2294  -0.4848 C.2            1 S1                 0.0000
      7 ****        -1.8758   0.8147  -0.5007 C.3            1 S1                 0.0000
      8 ****        -0.3516   0.7039  -0.4094 C.2            1 S1                 0.0000
      9 ****         0.3456   1.7066  -0.2510 O.2            1 S1                 0.0000
     10 ****         0.1534  -0.5344  -0.5188 N.am           1 S1                 0.0000
     11 ****         1.5727  -0.8789  -0.4652 C.3            1 S1                 0.0000
     12 ****         2.1768  -0.7453  -1.8752 C.3            1 S1                 0.0000
     13 ****         1.7513  -2.3032   0.1157 C.3            1 S1                 0.0000
     14 ****         3.2310  -2.6884   0.3615 C.3            1 S1                 0.0000
     15 ****         3.2465  -3.1186   1.8389 C.3            1 S1                 0.0000
     16 ****         2.4880  -4.4485   1.9958 C.3            1 S1                 0.0000
     17 ****         1.0205  -4.0238   1.8024 C.3            1 S1                 0.0000
     18 ****         1.1367  -2.5124   1.5246 C.3            1 S1                 0.0000
     19 ****         2.2769  -2.1217   2.4588 C.3            1 S1                 0.0000
     20 ****        -2.9564   2.7857   0.7849 C.2            1 S1                 0.0000
     21 ****        -2.8943   2.1233   1.8200 O.2            1 S1                 0.0000
     22 ****        -3.4779   4.0456   0.7619 N.pl3          1 S1                -1.0000
     23 ****        -3.8870   6.7061  -1.2728 H              1 S1                 0.0000
     24 ****        -3.6602   6.7123   0.4787 H              1 S1                 0.0000
     25 ****        -5.1713   6.1052  -0.2158 H              1 S1                 0.0000
     26 ****        -2.6541   1.7368  -3.3270 H              1 S1                 0.0000
     27 ****        -1.0083   2.2448  -2.9150 H              1 S1                 0.0000
     28 ****        -2.1143   3.3763  -3.6903 H              1 S1                 0.0000
     29 ****        -2.3162   0.2127   0.2947 H              1 S1                 0.0000
     30 ****        -2.1897   0.3256  -1.4231 H              1 S1                 0.0000
     31 ****        -0.4953  -1.2982  -0.6430 H              1 S1                 0.0000
     32 ****         2.0808  -0.1732   0.1944 H              1 S1                 0.0000
     33 ****         3.2456  -0.9570  -1.8774 H              1 S1                 0.0000
     34 ****         2.0493   0.2654  -2.2646 H              1 S1                 0.0000
     35 ****         1.7017  -1.4323  -2.5762 H              1 S1                 0.0000
     36 ****         1.2983  -3.0095  -0.5821 H              1 S1                 0.0000
     37 ****         3.5689  -3.4818  -0.3062 H              1 S1                 0.0000
     38 ****         3.8965  -1.8355   0.2224 H              1 S1                 0.0000
     39 ****         4.2432  -3.1276   2.2811 H              1 S1                 0.0000
     40 ****         2.8066  -5.1935   1.2658 H              1 S1                 0.0000
     41 ****         2.6379  -4.8681   2.9913 H              1 S1                 0.0000
     42 ****         0.5327  -4.5633   0.9899 H              1 S1                 0.0000
     43 ****         0.4481  -4.2060   2.7128 H              1 S1                 0.0000
     44 ****         0.2022  -1.9791   1.7000 H              1 S1                 0.0000
     45 ****         2.0629  -2.3223   3.5101 H              1 S1                 0.0000
     46 ****         2.5930  -1.0829   2.3520 H              1 S1                 0.0000
     47 ****        -3.1276   4.8772  -2.3555 LP             1 S1                 0.0000
     48 ****        -0.0828   2.6075  -0.1804 LP             1 S1                 0.0000
     49 ****         1.3401   1.6200  -0.1930 LP             1 S1                 0.0000
     50 ****        -2.5031   1.2032   1.8021 LP             1 S1                 0.0000
     51 ****        -3.2351   2.5051   2.6791 LP             1 S1                 0.0000
     52 ****        -3.8395   4.4516   1.6012 LP             1 S1                 0.0000
@<TRIPOS>BOND
    1    1    2 1     
    2    1   23 1     
    3    1   24 1     
    4    1   25 1     
    5    2   22 1     
    6    2    3 2     
    7    3    4 1     
    8    4    5 1     
    9    4    6 2     
   10    5   26 1     
   11    5   27 1     
   12    5   28 1     
   13    6    7 1     
   14    6   20 1     
   15    7    8 1     
   16    7   29 1     
   17    7   30 1     
   18    8    9 2     
   19    8   10 am    
   20   10   11 1     
   21   10   31 1     
   22   11   12 1     
   23   11   13 1     
   24   11   32 1     
   25   12   33 1     
   26   12   34 1     
   27   12   35 1     
   28   13   18 1     
   29   13   14 1     
   30   13   36 1     
   31   14   15 1     
   32   14   37 1     
   33   14   38 1     
   34   15   19 1     
   35   15   16 1     
   36   15   39 1     
   37   16   17 1     
   38   16   40 1     
   39   16   41 1     
   40   17   18 1     
   41   17   42 1     
   42   17   43 1     
   43   18   19 1     
   44   18   44 1     
   45   19   45 1     
   46   19   46 1     
   47   20   21 2     
   48   20   22 1     
   49    3   47 1     
   50    9   48 1     
   51    9   49 1     
   52   21   50 1     
   53   21   51 1     
   54   22   52 1     
@<TRIPOS>SUBSTRUCTURE
      1 S1             1
@<TRIPOS>SET
LONE_PAIRS      STATIC     ATOMS    <user>   **** ""
6 47 48 49 50 51 52
DONOR_HYDROGENS      STATIC     ATOMS    <user>   **** ""
1 31
ATOM$BLUE        STATIC     ATOMS    COLORGROUP SYSTEM
6 47 48 49 50 51 52
ATOM$RED        STATIC     ATOMS    COLORGROUP SYSTEM
1 31
