AV-unprocessed.smi:1260|AV-procd|sdf|5298|dock6
  -GOLD-   22720 4413D 1   1.00000     0.00000
 Structure written by MMmdl.
 37 39  0  0  0  0  0  0  0  0  2 V2000
  150.6547  134.3852  155.1151 O   0  0  0  0  0  0  0  0  0  0  0  0
  149.6115  134.9961  154.8850 C   0  0  0  0  0  0  0  0  0  0  0  0
  149.3858  136.3787  155.4957 C   0  0  0  0  0  0  0  0  0  0  0  0
  150.4349  137.2935  155.0870 N   0  0  0  0  0  0  0  0  0  0  0  0
  150.3860  138.5737  154.7126 C   0  0  0  0  0  0  0  0  0  0  0  0
  151.5857  139.0380  154.3997 N   0  0  0  0  0  0  0  0  0  0  0  0
  152.4103  137.9449  154.6085 N   0  0  0  0  0  0  0  0  0  0  0  0
  151.7327  136.9066  155.0150 N   0  0  0  0  0  0  0  0  0  0  0  0
  148.6372  134.5237  154.0920 N   0  0  0  0  0  0  0  0  0  0  0  0
  148.6870  133.2575  153.3673 C   0  0  1  0  0  0  0  0  0  0  0  0
  148.9994  132.0547  154.2745 C   0  0  0  0  0  0  0  0  0  0  0  0
  148.1519  130.8929  153.7179 C   0  0  0  0  0  0  0  0  0  0  0  0
  147.4756  131.4372  152.5244 N   0  3  1  0  0  0  0  0  0  0  0  0
  146.2095  130.7925  152.1133 C   0  0  0  0  0  0  0  0  0  0  0  0
  145.7085  131.4432  150.8084 C   0  0  0  0  0  0  0  0  0  0  0  0
  145.6052  132.9767  150.9370 C   0  0  0  0  0  0  0  0  0  0  0  0
  146.9234  133.5820  151.4570 C   0  0  0  0  0  0  0  0  0  0  0  0
  147.3317  132.8812  152.7639 C   0  0  2  0  0  0  0  0  0  0  0  0
  148.4224  136.7855  155.1850 H   0  0  0  0  0  0  0  0  0  0  0  0
  149.3702  136.3062  156.5843 H   0  0  0  0  0  0  0  0  0  0  0  0
  149.4788  139.1576  154.6629 H   0  0  0  0  0  0  0  0  0  0  0  0
  147.8120  135.0918  153.9647 H   0  0  0  0  0  0  0  0  0  0  0  0
  149.4401  133.2949  152.5770 H   0  0  0  0  0  0  0  0  0  0  0  0
  150.0648  131.8216  154.2674 H   0  0  0  0  0  0  0  0  0  0  0  0
  148.7145  132.2530  155.3090 H   0  0  0  0  0  0  0  0  0  0  0  0
  148.7576  130.0256  153.4537 H   0  0  0  0  0  0  0  0  0  0  0  0
  147.4155  130.5783  154.4590 H   0  0  0  0  0  0  0  0  0  0  0  0
  146.3737  129.7249  151.9631 H   0  0  0  0  0  0  0  0  0  0  0  0
  145.4645  130.8973  152.9034 H   0  0  0  0  0  0  0  0  0  0  0  0
  146.3945  131.1970  149.9967 H   0  0  0  0  0  0  0  0  0  0  0  0
  144.7408  131.0253  150.5296 H   0  0  0  0  0  0  0  0  0  0  0  0
  145.3428  133.4180  149.9750 H   0  0  0  0  0  0  0  0  0  0  0  0
  144.7955  133.2287  151.6231 H   0  0  0  0  0  0  0  0  0  0  0  0
  147.7074  133.4682  150.7071 H   0  0  0  0  0  0  0  0  0  0  0  0
  146.7987  134.6525  151.6215 H   0  0  0  0  0  0  0  0  0  0  0  0
  146.5522  133.0331  153.5145 H   0  0  0  0  0  0  0  0  0  0  0  0
  148.1252  131.3399  151.7569 H   0  0  0  0  0  0  0  0  0  0  0  0
  1  2  2  0  0  0  0
  2  3  1  0  0  0  0
  2  9  1  0  0  0  0
  3  4  1  0  0  0  0
  3 19  1  0  0  0  0
  3 20  1  0  0  0  0
  4  8  1  0  0  0  0
  4  5  1  0  0  0  0
  5  6  2  0  0  0  0
  5 21  1  0  0  0  0
  6  7  1  0  0  0  0
  7  8  2  0  0  0  0
  9 10  1  0  0  0  0
  9 22  1  0  0  0  0
 10 18  1  0  0  0  0
 10 11  1  0  0  0  0
 10 23  1  0  0  0  0
 11 12  1  0  0  0  0
 11 24  1  0  0  0  0
 11 25  1  0  0  0  0
 12 13  1  0  0  0  0
 12 26  1  0  0  0  0
 12 27  1  0  0  0  0
 13 18  1  0  0  0  0
 13 14  1  0  0  0  0
 13 37  1  0  0  0  0
 14 15  1  0  0  0  0
 14 28  1  0  0  0  0
 14 29  1  0  0  0  0
 15 16  1  0  0  0  0
 15 30  1  0  0  0  0
 15 31  1  0  0  0  0
 16 17  1  0  0  0  0
 16 32  1  0  0  0  0
 16 33  1  0  0  0  0
 17 18  1  0  0  0  0
 17 34  1  0  0  0  0
 17 35  1  0  0  0  0
 18 36  1  0  0  0  0
M  CHG  1  13   1
M  END
> <s_m_source_file>
AV-unprocessed.smi

> <i_m_source_file_index>
1260

> <i_lp_mmshare_version>
43012

> <i_f3d_flags>
0

> <s_epik_input>
bjFubltjSF1uMVtDSDJdQyg9TylbTkhdW0NASF0oW0NIMl1bQ0gyXTIpW0NAQEhdKE4yMylbQ0gyXVtDSDJdW0NIMl1bQ0gyXTM=

> <s_epik_cmdline>
J2VwaWtfcHl0aG9uJywgJy1waCcsICc3LjAnLCAnLXRuJywgJzgnLCAnLW1hJywgJzIwMCcsICctbWV0YWxfYmluZGluZycsICctaW1hZScsICc8aW5maWxlLm1hZT4nLCAnLW9tYWUnLCAnPG91dGZpbGUubWFlPic=

> <r_lp_tautomer_probability>
1

> <r_epik_Ionization_Penalty>
0.00234324

> <r_epik_Ionization_Penalty_Charging>
0.00233897

> <r_epik_Ionization_Penalty_Neutral>
4.26861e-06

> <r_epik_State_Penalty>
0.00161477

> <r_epik_Charging_Adjusted_Penalty>
0.00395374

> <i_epik_Tot_Q>
1

> <i_epik_Tot_abs_Q>
1

> <r_epik_Metal_State_Penalty>
-0

> <b_epik_Metal_Only>
0

> <s_lp_Force_Field>
OPLS_2005

> <r_lp_Energy>
36.6869

> <b_lp_Chiralities_Consistent>
1

> <s_lp_Variant>
AV-unprocessed.smi:1260-6

> <Gold.Version>
5.8.1

> <Gold.Id.Protein>
6NUR|6NUR_protein|mol2

> <Gold.PLP.Fitness>
39.3682

> <Gold.PLP.PLP>
-31.0286

> <Gold.PLP.part.hbond>
-4.7932

> <Gold.PLP.part.metal>
0.0000

> <Gold.PLP.part.buried>
-3.1882

> <Gold.PLP.part.nonpolar>
-23.1645

> <Gold.PLP.part.repulsive>
0.4155

> <Gold.PLP.ligand.clash>
0.0000

> <Gold.PLP.ligand.torsion>
0.3365

> <Gold.PLP.Chemscore.Hbond>
3.0000

> <Gold.PLP.Chemscore.CHOScore>
0.0000

> <Gold.PLP.Chemscore.Metal>
0.0000

> <Gold.Chemscore.Hbonds>
donor molecule, donor type, donor heavy atom, donor atom, acceptor molecule, acceptor atom, score
      L1  H    13    37       P1 10747  1.00
      P1  H  7989  7998       L1     6  1.00
      P1  H 10752 10763       L1     8  1.00

> <Gold.PLP.Chemscore.Internal.Correction>
0.0126

> <Gold.Rescore>
     Score         DG    S(hbond)    S(metal)    S(lipo)     H(rot)  DE(clash)    DE(int)     intcor
     12.30     -15.46       2.41        0.00      59.77       1.98       0.44       2.72       ----

> <Gold.Chemscore.Fitness>
12.3045

> <Gold.Chemscore.DG>
-15.4610

> <Gold.Chemscore.ZeroCoef>
-5.4800

> <Gold.Chemscore.Hbond>
2.4088

> <Gold.Chemscore.Metal>
0.0000

> <Gold.Chemscore.Lipo>
59.7715

> <Gold.Chemscore.Internal_Hbond>
0.0000

> <Gold.Chemscore.DEClash>
0.4354

> <Gold.Chemscore.DEInternal>
2.7210

> <Gold.Chemscore.Rot>
1.9757

> <Gold.Chemscore.Internal.Correction>
   9.000000E+99

> <Gold.Chemscore.Hbonds>
donor molecule, donor type, donor heavy atom, donor atom, acceptor molecule, acceptor atom, score
      L1  H    13    37       P1 10747  1.00
      P1  H  7989  7998       L1     6  0.85
      P1  H 10752 10763       L1     8  0.25

> <Gold.Chemscore.Hbond.Weighted>
-8.0455

> <Gold.Chemscore.Metal.Weighted>
-0.0000

> <Gold.Chemscore.Lipo.Weighted>
-6.9933

> <Gold.Chemscore.Internal_Hbond.Weighted>
0.0000

> <Gold.Chemscore.DEClash.Weighted>
0.4354

> <Gold.Chemscore.DEInternal.Weighted>
2.7210

> <Gold.Chemscore.Rot.Weighted>
5.0578

> <Gold.Chemscore.Internal.Correction.Weighted>
   9.000000E+99

> <Gold.Protein.RotatedTorsions>
[ 6907 6896 6895 6894 ] final   56.18 input  -60.11 | X-H torsion
[ 7974 7965 7964 7962 ] final -107.34 input  175.53 | X-H torsion
[ 8008 7997 7996 7995 ] final   17.85 input   59.86 | X-H torsion
[ 10167 10162 10161 10158 ] final  -63.47 input  -65.29 | X-H torsion
[ 10718 10713 10712 10709 ] final -115.13 input   66.30 | X-H torsion
[ 10763 10752 10751 10750 ] final   64.55 input  -60.55 | X-H torsion
[ 11005 11000 10999 10996 ] final   23.91 input  -57.11 | X-H torsion

> <Gold.Protein.ActiveResidues>
 VAL166  LYS551  ARG553  GLY616  TRP617  ASP618  TYR619  PRO620  LYS621  CYS622 
 ASP623  PHE694  ASN695  SER759  ASP760  ASP761  ALA762  ILE779  LEU786  VAL792 
 PHE793  MET794  SER795  GLU796  ALA797  LYS798  CYS799  TRP800  GLU811  SER814 

> <Gold.Protein.RotatedAtoms>
  152.3611  134.6871  160.0206 H   0  0  0  0  0  0  0  0  0  0  0  0  # atno 6907 bound_to 6896
  151.7194  133.3308  159.3319 H   0  0  0  0  0  0  0  0  0  0  0  0  # atno 6908 bound_to 6896
  150.7605  134.6396  159.6274 H   0  0  0  0  0  0  0  0  0  0  0  0  # atno 6909 bound_to 6896
  145.2065  140.9078  143.3339 H   0  0  0  0  0  0  0  0  0  0  0  0  # atno 7974 bound_to 7965
  154.8974  140.2996  155.5336 H   0  0  0  0  0  0  0  0  0  0  0  0  # atno 8008 bound_to 7997
  156.3019  140.2413  156.3933 H   0  0  0  0  0  0  0  0  0  0  0  0  # atno 8009 bound_to 7997
  154.8556  140.0407  157.1621 H   0  0  0  0  0  0  0  0  0  0  0  0  # atno 8010 bound_to 7997
  140.5868  143.2335  151.6225 H   0  0  0  0  0  0  0  0  0  0  0  0  # atno 10167 bound_to 10162
  156.0875  130.6064  150.8866 H   0  0  0  0  0  0  0  0  0  0  0  0  # atno 10718 bound_to 10713
  153.0060  135.5389  154.6528 H   0  0  0  0  0  0  0  0  0  0  0  0  # atno 10763 bound_to 10752
  154.5756  135.2845  155.0786 H   0  0  0  0  0  0  0  0  0  0  0  0  # atno 10764 bound_to 10752
  154.1935  135.6496  153.5119 H   0  0  0  0  0  0  0  0  0  0  0  0  # atno 10765 bound_to 10752
  140.3644  134.2090  155.7670 H   0  0  0  0  0  0  0  0  0  0  0  0  # atno 11005 bound_to 11000
  144.9897  139.3701  143.6221 LP  0  0  0  0  0  0  0  0  0  0  0  0  # atno 17320 bound_to 7965
  146.3407  139.9074  142.8785 LP  0  0  0  0  0  0  0  0  0  0  0  0  # atno 17321 bound_to 7965
  139.5203  144.3228  152.0895 LP  0  0  0  0  0  0  0  0  0  0  0  0  # atno 17342 bound_to 10162
  140.2386  144.4293  150.6269 LP  0  0  0  0  0  0  0  0  0  0  0  0  # atno 17343 bound_to 10162
  157.6014  131.0941  150.8953 LP  0  0  0  0  0  0  0  0  0  0  0  0  # atno 17370 bound_to 10713
  156.9109  130.5280  149.5280 LP  0  0  0  0  0  0  0  0  0  0  0  0  # atno 17371 bound_to 10713
  141.1974  133.8060  157.0629 LP  0  0  0  0  0  0  0  0  0  0  0  0  # atno 17394 bound_to 11000
  140.0601  134.9759  157.1289 LP  0  0  0  0  0  0  0  0  0  0  0  0  # atno 17395 bound_to 11000

$$$$
