AV-unprocessed.smi:672|AV-procd|sdf|3293|dock2
  -GOLD-   22720 0253D 1   1.00000     0.00000
 Structure written by MMmdl.
 35 36  0  0  0  0  0  0  0  0  2 V2000
  147.9250  141.0688  153.7584 C   0  0  0  0  0  0  0  0  0  0  0  0
  148.8539  140.9532  154.9715 C   0  0  0  0  0  0  0  0  0  0  0  0
  149.7792  139.7866  154.8746 C   0  0  0  0  0  0  0  0  0  0  0  0
  151.1087  139.9130  154.8833 N   0  0  0  0  0  0  0  0  0  0  0  0
  151.7510  138.6905  154.7513 N   0  0  0  0  0  0  0  0  0  0  0  0
  150.9014  137.6620  154.6190 C   0  0  0  0  0  0  0  0  0  0  0  0
  151.3210  136.3941  154.4759 N   0  5  0  0  0  0  0  0  0  0  0  0
  150.6253  135.3846  155.0471 C   0  0  0  0  0  0  0  0  0  0  0  0
  150.8560  134.8656  156.1418 O   0  0  0  0  0  0  0  0  0  0  0  0
  149.6013  134.9449  154.3016 N   0  0  0  0  0  0  0  0  0  0  0  0
  148.6814  133.8683  154.6629 C   0  0  2  0  0  0  0  0  0  0  0  0
  149.3119  132.4761  154.4462 C   0  0  0  0  0  0  0  0  0  0  0  0
  148.3124  131.6812  153.6039 C   0  0  0  0  0  0  0  0  0  0  0  0
  147.5733  132.7437  152.7919 C   0  0  1  0  0  0  0  0  0  0  0  0
  145.9751  132.1705  152.1467 S   0  0  0  0  0  0  0  0  0  0  0  0
  146.3244  130.4034  151.9457 C   0  0  0  0  0  0  0  0  0  0  0  0
  147.4276  133.9099  153.7718 C   0  0  0  0  0  0  0  0  0  0  0  0
  149.2050  138.1400  154.6721 S   0  0  0  0  0  0  0  0  0  0  0  0
  147.2589  141.9257  153.8589 H   0  0  0  0  0  0  0  0  0  0  0  0
  147.3074  140.1767  153.6501 H   0  0  0  0  0  0  0  0  0  0  0  0
  148.4955  141.1951  152.8377 H   0  0  0  0  0  0  0  0  0  0  0  0
  149.4438  141.8644  155.0776 H   0  0  0  0  0  0  0  0  0  0  0  0
  148.2638  140.8556  155.8831 H   0  0  0  0  0  0  0  0  0  0  0  0
  149.4480  135.3980  153.4127 H   0  0  0  0  0  0  0  0  0  0  0  0
  148.3781  133.9909  155.7042 H   0  0  0  0  0  0  0  0  0  0  0  0
  150.2518  132.5597  153.8982 H   0  0  0  0  0  0  0  0  0  0  0  0
  149.5350  131.9770  155.3897 H   0  0  0  0  0  0  0  0  0  0  0  0
  148.8009  130.9346  152.9776 H   0  0  0  0  0  0  0  0  0  0  0  0
  147.6143  131.1607  154.2610 H   0  0  0  0  0  0  0  0  0  0  0  0
  148.1997  133.0621  151.9573 H   0  0  0  0  0  0  0  0  0  0  0  0
  145.4580  129.8964  151.5211 H   0  0  0  0  0  0  0  0  0  0  0  0
  146.5534  129.9446  152.9073 H   0  0  0  0  0  0  0  0  0  0  0  0
  147.1729  130.2562  151.2774 H   0  0  0  0  0  0  0  0  0  0  0  0
  146.5464  133.7558  154.3961 H   0  0  0  0  0  0  0  0  0  0  0  0
  147.2921  134.8638  153.2601 H   0  0  0  0  0  0  0  0  0  0  0  0
  1  2  1  0  0  0  0
  1 19  1  0  0  0  0
  1 20  1  0  0  0  0
  1 21  1  0  0  0  0
  2  3  1  0  0  0  0
  2 22  1  0  0  0  0
  2 23  1  0  0  0  0
  3 18  1  0  0  0  0
  3  4  2  0  0  0  0
  4  5  1  0  0  0  0
  5  6  2  0  0  0  0
  6  7  1  0  0  0  0
  6 18  1  0  0  0  0
  7  8  1  0  0  0  0
  8  9  2  0  0  0  0
  8 10  1  0  0  0  0
 10 11  1  0  0  0  0
 10 24  1  0  0  0  0
 11 17  1  0  0  0  0
 11 12  1  0  0  0  0
 11 25  1  0  0  0  0
 12 13  1  0  0  0  0
 12 26  1  0  0  0  0
 12 27  1  0  0  0  0
 13 14  1  0  0  0  0
 13 28  1  0  0  0  0
 13 29  1  0  0  0  0
 14 15  1  0  0  0  0
 14 17  1  0  0  0  0
 14 30  1  0  0  0  0
 15 16  1  0  0  0  0
 16 31  1  0  0  0  0
 16 32  1  0  0  0  0
 16 33  1  0  0  0  0
 17 34  1  0  0  0  0
 17 35  1  0  0  0  0
M  CHG  1   7  -1
M  END
> <s_m_source_file>
AV-unprocessed.smi

> <i_m_source_file_index>
672

> <i_lp_mmshare_version>
43012

> <i_f3d_flags>
0

> <s_epik_input>
W0NIM11bQ0gyXWMxbm5jKHMxKVtOSF1DKD1PKVtOSF1bQ0BASF0yW0NIMl1bQ0gyXVtDQEhdKFtDSDJdMilTW0NIM10=

> <s_epik_cmdline>
J2VwaWtfcHl0aG9uJywgJy1waCcsICc3LjAnLCAnLXRuJywgJzgnLCAnLW1hJywgJzIwMCcsICctbWV0YWxfYmluZGluZycsICctaW1hZScsICc8aW5maWxlLm1hZT4nLCAnLW9tYWUnLCAnPG91dGZpbGUubWFlPic=

> <r_lp_tautomer_probability>
1

> <r_epik_Ionization_Penalty>
4.49964

> <r_epik_Ionization_Penalty_Charging>
4.32991

> <r_epik_Ionization_Penalty_Neutral>
0.169727

> <r_epik_State_Penalty>
4.32952

> <r_epik_Charging_Adjusted_Penalty>
8.65943

> <i_epik_Tot_Q>
-1

> <i_epik_Tot_abs_Q>
1

> <r_epik_Metal_State_Penalty>
0.740482

> <b_epik_Metal_Only>
1

> <s_lp_Force_Field>
OPLS_2005

> <r_lp_Energy>
9.96547

> <b_lp_Chiralities_Consistent>
1

> <s_lp_Variant>
AV-unprocessed.smi:672-5

> <Gold.Version>
5.8.1

> <Gold.Id.Protein>
6NUR|6NUR_protein|mol2

> <Gold.PLP.Fitness>
39.8979

> <Gold.PLP.PLP>
-31.5526

> <Gold.PLP.part.hbond>
-3.0000

> <Gold.PLP.part.metal>
0.0000

> <Gold.PLP.part.buried>
-5.1474

> <Gold.PLP.part.nonpolar>
-25.6994

> <Gold.PLP.part.repulsive>
0.8634

> <Gold.PLP.ligand.clash>
0.0000

> <Gold.PLP.ligand.torsion>
1.6334

> <Gold.PLP.Chemscore.Hbond>
3.8500

> <Gold.PLP.Chemscore.CHOScore>
0.0000

> <Gold.PLP.Chemscore.Metal>
0.0000

> <Gold.Chemscore.Hbonds>
donor molecule, donor type, donor heavy atom, donor atom, acceptor molecule, acceptor atom, score
      L1  H    10    24       P1  7948  0.80
      P1  H  7989  7998       L1     4  1.00
      P1  H 10752 10763       L1     7  2.00

> <Gold.PLP.Chemscore.Internal.Correction>
0.0620

> <Gold.Rescore>
     Score         DG    S(hbond)    S(metal)    S(lipo)     H(rot)  DE(clash)    DE(int)     intcor
     15.44     -17.06       2.41        0.00      59.56       1.34       0.13       1.49       ----

> <Gold.Chemscore.Fitness>
15.4354

> <Gold.Chemscore.DG>
-17.0553

> <Gold.Chemscore.ZeroCoef>
-5.4800

> <Gold.Chemscore.Hbond>
2.4073

> <Gold.Chemscore.Metal>
0.0000

> <Gold.Chemscore.Lipo>
59.5553

> <Gold.Chemscore.Internal_Hbond>
0.0000

> <Gold.Chemscore.DEClash>
0.1276

> <Gold.Chemscore.DEInternal>
1.4923

> <Gold.Chemscore.Rot>
1.3410

> <Gold.Chemscore.Internal.Correction>
   9.000000E+99

> <Gold.Chemscore.Hbonds>
donor molecule, donor type, donor heavy atom, donor atom, acceptor molecule, acceptor atom, score
      L1  H    10    24       P1  7948  0.12
      P1  H  7989  7998       L1     4  0.37
      P1  H 10752 10763       L1     7  0.26

> <Gold.Chemscore.Hbond.Weighted>
-8.0403

> <Gold.Chemscore.Metal.Weighted>
-0.0000

> <Gold.Chemscore.Lipo.Weighted>
-6.9680

> <Gold.Chemscore.Internal_Hbond.Weighted>
0.0000

> <Gold.Chemscore.DEClash.Weighted>
0.1276

> <Gold.Chemscore.DEInternal.Weighted>
1.4923

> <Gold.Chemscore.Rot.Weighted>
3.4329

> <Gold.Chemscore.Internal.Correction.Weighted>
   9.000000E+99

> <Gold.Protein.RotatedTorsions>
[ 6907 6896 6895 6894 ] final  -50.94 input  -60.11 | X-H torsion
[ 7974 7965 7964 7962 ] final  139.74 input  175.53 | X-H torsion
[ 8008 7997 7996 7995 ] final  107.30 input   59.86 | X-H torsion
[ 10167 10162 10161 10158 ] final   -0.25 input  -65.29 | X-H torsion
[ 10718 10713 10712 10709 ] final  -61.97 input   66.30 | X-H torsion
[ 10763 10752 10751 10750 ] final   46.92 input  -60.55 | X-H torsion
[ 11005 11000 10999 10996 ] final  -96.11 input  -57.11 | X-H torsion

> <Gold.Protein.ActiveResidues>
 VAL166  LYS551  ARG553  GLY616  TRP617  ASP618  TYR619  PRO620  LYS621  CYS622 
 ASP623  PHE694  ASN695  SER759  ASP760  ASP761  ALA762  ILE779  LEU786  VAL792 
 PHE793  MET794  SER795  GLU796  ALA797  LYS798  CYS799  TRP800  GLU811  SER814 

> <Gold.Protein.RotatedAtoms>
  150.8658  134.8021  159.7117 H   0  0  0  0  0  0  0  0  0  0  0  0  # atno 6907 bound_to 6896
  152.4680  134.5025  159.9739 H   0  0  0  0  0  0  0  0  0  0  0  0  # atno 6908 bound_to 6896
  151.5122  133.3444  159.2922 H   0  0  0  0  0  0  0  0  0  0  0  0  # atno 6909 bound_to 6896
  144.9250  139.5119  143.5645 H   0  0  0  0  0  0  0  0  0  0  0  0  # atno 7974 bound_to 7965
  156.1813  140.3097  155.9154 H   0  0  0  0  0  0  0  0  0  0  0  0  # atno 8008 bound_to 7997
  155.3378  140.0464  157.3061 H   0  0  0  0  0  0  0  0  0  0  0  0  # atno 8009 bound_to 7997
  154.5346  140.2241  155.8755 H   0  0  0  0  0  0  0  0  0  0  0  0  # atno 8010 bound_to 7997
  140.6759  143.6916  150.8023 H   0  0  0  0  0  0  0  0  0  0  0  0  # atno 10167 bound_to 10162
  156.0886  130.4204  150.1069 H   0  0  0  0  0  0  0  0  0  0  0  0  # atno 10718 bound_to 10713
  152.9805  135.5993  154.3678 H   0  0  0  0  0  0  0  0  0  0  0  0  # atno 10763 bound_to 10752
  154.3354  135.2768  155.2452 H   0  0  0  0  0  0  0  0  0  0  0  0  # atno 10764 bound_to 10752
  154.4558  135.5978  153.6277 H   0  0  0  0  0  0  0  0  0  0  0  0  # atno 10765 bound_to 10752
  141.1421  133.8074  157.0526 H   0  0  0  0  0  0  0  0  0  0  0  0  # atno 11005 bound_to 11000
  146.3222  139.8159  142.8936 LP  0  0  0  0  0  0  0  0  0  0  0  0  # atno 17320 bound_to 7965
  145.3234  141.0249  143.3488 LP  0  0  0  0  0  0  0  0  0  0  0  0  # atno 17321 bound_to 7965
  140.0609  143.5155  152.2628 LP  0  0  0  0  0  0  0  0  0  0  0  0  # atno 17342 bound_to 10162
  139.6052  144.7594  151.3079 LP  0  0  0  0  0  0  0  0  0  0  0  0  # atno 17343 bound_to 10162
  156.9085  130.9644  151.3566 LP  0  0  0  0  0  0  0  0  0  0  0  0  # atno 17370 bound_to 10713
  157.6028  130.8525  149.8829 LP  0  0  0  0  0  0  0  0  0  0  0  0  # atno 17371 bound_to 10713
  140.0622  134.9748  157.1324 LP  0  0  0  0  0  0  0  0  0  0  0  0  # atno 17394 bound_to 11000
  140.3832  134.2265  155.7170 LP  0  0  0  0  0  0  0  0  0  0  0  0  # atno 17395 bound_to 11000

$$$$
