#       Name:                AV-unprocessed.smi:2908
#       Creating user name   scv26
#       Creation time:       Fri Mar 27 16:05:38 2020


#       File generated by GOLD software.
#

@<TRIPOS>MOLECULE
AV-unprocessed.smi:2908
    48    49     1
SMALL
NO_CHARGES


@<TRIPOS>ATOM
      1 ****        -1.1273   1.9613  -0.7563 O.2            1 S1                 0.0000
      2 ****        -0.6028   1.2151   0.0718 C.2            1 S1                 0.0000
      3 ****        -1.1561   0.0431   0.4235 N.am           1 S1                 0.0000
      4 ****        -2.3946  -0.4847  -0.1321 C.3            1 S1                 0.0000
      5 ****        -2.7610  -1.8220   0.5264 C.3            1 S1                 0.0000
      6 ****        -4.0426  -2.4060  -0.0383 C.ar           1 S1                 0.0000
      7 ****        -5.2645  -2.2685   0.6544 C.ar           1 S1                 0.0000
      8 ****        -6.4268  -2.8179   0.0794 C.ar           1 S1                 0.0000
      9 ****        -6.3235  -3.4794  -1.1594 C.ar           1 S1                 0.0000
     10 ****        -5.0567  -3.5633  -1.7704 C.ar           1 S1                 0.0000
     11 ****        -3.9360  -3.0406  -1.2276 N.ar           1 S1                 0.0000
     12 ****         0.5497   1.5180   0.7214 N.am           1 S1                 0.0000
     13 ****         1.3469   0.6063   1.5565 C.3            1 S1                 0.0000
     14 ****         2.6074   0.1977   0.7746 C.3            1 S1                 0.0000
     15 ****         3.4486   1.4284   0.3469 C.3            1 S1                 0.0000
     16 ****         4.6689   1.0068  -0.5168 C.3            1 S1                 0.0000
     17 ****         5.4737   0.1255   0.2454 O.3            1 S1                 0.0000
     18 ****         5.5788   2.1590  -1.0037 C.3            1 S1                 0.0000
     19 ****         6.6710   1.6561  -1.5813 F              1 S1                 0.0000
     20 ****         4.9558   2.8948  -1.9236 F              1 S1                 0.0000
     21 ****         5.9392   2.9464   0.0100 F              1 S1                 0.0000
     22 ****         2.5379   2.4743  -0.3432 C.3            1 S1                 0.0000
     23 ****         1.2721   2.7713   0.4817 C.3            1 S1                 0.0000
     24 ****        -0.6834  -0.5190   1.1161 H              1 S1                 0.0000
     25 ****        -3.1982   0.2379   0.0195 H              1 S1                 0.0000
     26 ****        -2.2766  -0.6160  -1.2090 H              1 S1                 0.0000
     27 ****        -1.9535  -2.5423   0.3877 H              1 S1                 0.0000
     28 ****        -2.8721  -1.6889   1.6034 H              1 S1                 0.0000
     29 ****        -5.3129  -1.7523   1.6019 H              1 S1                 0.0000
     30 ****        -7.3804  -2.7319   0.5791 H              1 S1                 0.0000
     31 ****        -7.1940  -3.9117  -1.6302 H              1 S1                 0.0000
     32 ****        -4.9405  -4.0628  -2.7208 H              1 S1                 0.0000
     33 ****         1.6302   1.1181   2.4773 H              1 S1                 0.0000
     34 ****         0.8084  -0.2850   1.8782 H              1 S1                 0.0000
     35 ****         3.2040  -0.4754   1.3909 H              1 S1                 0.0000
     36 ****         2.3137  -0.3733  -0.1074 H              1 S1                 0.0000
     37 ****         3.8298   1.8921   1.2581 H              1 S1                 0.0000
     38 ****         4.3184   0.4518  -1.3879 H              1 S1                 0.0000
     39 ****         6.2140  -0.1341  -0.2818 H              1 S1                 0.0000
     40 ****         3.0770   3.4101  -0.4862 H              1 S1                 0.0000
     41 ****         2.2512   2.1205  -1.3345 H              1 S1                 0.0000
     42 ****         0.6617   3.5174  -0.0292 H              1 S1                 0.0000
     43 ****         1.5445   3.2211   1.4375 H              1 S1                 0.0000
     44 ****        -1.9907   1.7006  -1.1883 LP             1 S1                 0.0000
     45 ****        -0.6896   2.8278  -0.9966 LP             1 S1                 0.0000
     46 ****        -3.0536  -3.1204  -1.6914 LP             1 S1                 0.0000
     47 ****         4.9417  -0.6816   0.5012 LP             1 S1                 0.0000
     48 ****         5.7936   0.5895   1.0715 LP             1 S1                 0.0000
@<TRIPOS>BOND
    1    1    2 2     
    2    2    3 am    
    3    2   12 am    
    4    3    4 1     
    5    3   24 1     
    6    4    5 1     
    7    4   25 1     
    8    4   26 1     
    9    5    6 1     
   10    5   27 1     
   11    5   28 1     
   12    6   11 ar    
   13    6    7 ar    
   14    7    8 ar    
   15    7   29 1     
   16    8    9 ar    
   17    8   30 1     
   18    9   10 ar    
   19    9   31 1     
   20   10   11 ar    
   21   10   32 1     
   22   12   23 1     
   23   12   13 1     
   24   13   14 1     
   25   13   33 1     
   26   13   34 1     
   27   14   15 1     
   28   14   35 1     
   29   14   36 1     
   30   15   16 1     
   31   15   22 1     
   32   15   37 1     
   33   16   17 1     
   34   16   18 1     
   35   16   38 1     
   36   17   39 1     
   37   18   19 1     
   38   18   20 1     
   39   18   21 1     
   40   22   23 1     
   41   22   40 1     
   42   22   41 1     
   43   23   42 1     
   44   23   43 1     
   45    1   44 1     
   46    1   45 1     
   47   11   46 1     
   48   17   47 1     
   49   17   48 1     
@<TRIPOS>SUBSTRUCTURE
      1 S1             1
@<TRIPOS>SET
LONE_PAIRS      STATIC     ATOMS    <user>   **** ""
5 44 45 46 47 48
DONOR_HYDROGENS      STATIC     ATOMS    <user>   **** ""
2 24 39
ATOM$BLUE        STATIC     ATOMS    COLORGROUP SYSTEM
5 44 45 46 47 48
ATOM$RED        STATIC     ATOMS    COLORGROUP SYSTEM
2 24 39
