AV-unprocessed.smi:3212|AV-procd|sdf|12281|dock8
  -GOLD-   2272018113D 1   1.00000     0.00000
 Structure written by MMmdl.
 39 39  0  0  0  0  0  0  0  0  1 V2000
  146.2648  140.6690  154.2679 C   0  0  0  0  0  0  0  0  0  0  0  0
  147.3968  139.7806  153.7293 C   0  0  1  0  0  0  0  0  0  0  0  0
  147.3040  139.6964  152.2578 N   0  0  0  0  0  0  0  0  0  0  0  0
  146.7897  138.4433  151.7025 C   0  0  0  0  0  0  0  0  0  0  0  0
  145.7663  137.7377  152.6162 C   0  0  0  0  0  0  0  0  0  0  0  0
  145.3180  136.4669  152.0764 N   0  0  0  0  0  0  0  0  0  0  0  0
  146.0636  135.3382  151.8089 C   0  0  0  0  0  0  0  0  0  0  0  0
  145.2099  134.3963  151.3109 C   0  0  0  0  0  0  0  0  0  0  0  0
  143.9468  135.0513  151.3106 C   0  0  0  0  0  0  0  0  0  0  0  0
  144.0153  136.2918  151.7660 N   0  0  0  0  0  0  0  0  0  0  0  0
  148.7610  140.2807  154.2320 C   0  0  0  0  0  0  0  0  0  0  0  0
  149.1897  141.3727  153.8593 O   0  0  0  0  0  0  0  0  0  0  0  0
  149.4322  139.4488  155.0483 N   0  0  0  0  0  0  0  0  0  0  0  0
  150.7638  139.6240  155.6385 C   0  0  0  0  0  0  0  0  0  0  0  0
  150.7551  138.8787  156.9847 C   0  0  0  0  0  0  0  0  0  0  0  0
  151.0608  141.1168  155.8938 C   0  0  0  0  0  0  0  0  0  0  0  0
  151.8419  139.0017  154.7268 C   0  0  0  0  0  0  0  0  0  0  0  0
  146.2969  140.7374  155.3560 H   0  0  0  0  0  0  0  0  0  0  0  0
  145.2893  140.2635  153.9970 H   0  0  0  0  0  0  0  0  0  0  0  0
  146.3228  141.6825  153.8688 H   0  0  0  0  0  0  0  0  0  0  0  0
  147.2316  138.7817  154.1351 H   0  0  0  0  0  0  0  0  0  0  0  0
  148.1974  139.8966  151.8310 H   0  0  0  0  0  0  0  0  0  0  0  0
  146.3114  138.6828  150.7522 H   0  0  0  0  0  0  0  0  0  0  0  0
  147.6060  137.7653  151.4527 H   0  0  0  0  0  0  0  0  0  0  0  0
  146.2171  137.5511  153.5917 H   0  0  0  0  0  0  0  0  0  0  0  0
  144.8978  138.3687  152.8044 H   0  0  0  0  0  0  0  0  0  0  0  0
  147.1266  135.2994  151.9961 H   0  0  0  0  0  0  0  0  0  0  0  0
  145.4504  133.3919  150.9959 H   0  0  0  0  0  0  0  0  0  0  0  0
  142.9890  134.6657  150.9939 H   0  0  0  0  0  0  0  0  0  0  0  0
  148.9717  138.5793  155.2744 H   0  0  0  0  0  0  0  0  0  0  0  0
  151.7185  138.9581  157.4898 H   0  0  0  0  0  0  0  0  0  0  0  0
  150.5431  137.8171  156.8505 H   0  0  0  0  0  0  0  0  0  0  0  0
  149.9983  139.2825  157.6583 H   0  0  0  0  0  0  0  0  0  0  0  0
  150.2814  141.5785  156.5009 H   0  0  0  0  0  0  0  0  0  0  0  0
  151.1380  141.6861  154.9675 H   0  0  0  0  0  0  0  0  0  0  0  0
  152.0060  141.2428  156.4230 H   0  0  0  0  0  0  0  0  0  0  0  0
  152.8253  139.0459  155.1957 H   0  0  0  0  0  0  0  0  0  0  0  0
  151.9201  139.5208  153.7716 H   0  0  0  0  0  0  0  0  0  0  0  0
  151.6262  137.9537  154.5153 H   0  0  0  0  0  0  0  0  0  0  0  0
  1  2  1  0  0  0  0
  1 18  1  0  0  0  0
  1 19  1  0  0  0  0
  1 20  1  0  0  0  0
  2  3  1  0  0  0  0
  2 11  1  0  0  0  0
  2 21  1  0  0  0  0
  3  4  1  0  0  0  0
  3 22  1  0  0  0  0
  4  5  1  0  0  0  0
  4 23  1  0  0  0  0
  4 24  1  0  0  0  0
  5  6  1  0  0  0  0
  5 25  1  0  0  0  0
  5 26  1  0  0  0  0
  6 10  1  0  0  0  0
  6  7  1  0  0  0  0
  7  8  2  0  0  0  0
  7 27  1  0  0  0  0
  8  9  1  0  0  0  0
  8 28  1  0  0  0  0
  9 10  2  0  0  0  0
  9 29  1  0  0  0  0
 11 12  2  0  0  0  0
 11 13  1  0  0  0  0
 13 14  1  0  0  0  0
 13 30  1  0  0  0  0
 14 15  1  0  0  0  0
 14 16  1  0  0  0  0
 14 17  1  0  0  0  0
 15 31  1  0  0  0  0
 15 32  1  0  0  0  0
 15 33  1  0  0  0  0
 16 34  1  0  0  0  0
 16 35  1  0  0  0  0
 16 36  1  0  0  0  0
 17 37  1  0  0  0  0
 17 38  1  0  0  0  0
 17 39  1  0  0  0  0
M  END
> <s_m_source_file>
AV-unprocessed.smi

> <i_m_source_file_index>
3212

> <i_lp_mmshare_version>
43012

> <i_f3d_flags>
0

> <s_epik_input>
W0NIM11DKFtDSDNdKShbQ0gzXSlbTkhdQyg9TylbQ0BIXShbQ0gzXSlbTkhdW0NIMl1bQ0gyXW4xW2NIXVtjSF1bY0hdbjE=

> <s_epik_cmdline>
J2VwaWtfcHl0aG9uJywgJy1waCcsICc3LjAnLCAnLXRuJywgJzgnLCAnLW1hJywgJzIwMCcsICctbWV0YWxfYmluZGluZycsICctaW1hZScsICc8aW5maWxlLm1hZT4nLCAnLW9tYWUnLCAnPG91dGZpbGUubWFlPic=

> <r_lp_tautomer_probability>
1

> <r_epik_Ionization_Penalty>
0.745735

> <r_epik_Ionization_Penalty_Charging>
0

> <r_epik_Ionization_Penalty_Neutral>
0.745735

> <r_epik_State_Penalty>
0.771152

> <r_epik_Charging_Adjusted_Penalty>
0.771152

> <i_epik_Tot_Q>
0

> <i_epik_Tot_abs_Q>
0

> <r_epik_Metal_State_Penalty>
0.770403

> <b_epik_Metal_Only>
0

> <s_lp_Force_Field>
OPLS_2005

> <r_lp_Energy>
7.05168

> <b_lp_Chiralities_Consistent>
1

> <s_lp_Variant>
AV-unprocessed.smi:3212-4

> <Gold.Version>
5.8.1

> <Gold.Id.Protein>
6NUR|6NUR_protein|mol2

> <Gold.PLP.Fitness>
35.7758

> <Gold.PLP.PLP>
-27.7604

> <Gold.PLP.part.hbond>
-3.0000

> <Gold.PLP.part.metal>
0.0000

> <Gold.PLP.part.buried>
0.3378

> <Gold.PLP.part.nonpolar>
-26.1628

> <Gold.PLP.part.repulsive>
1.8784

> <Gold.PLP.ligand.clash>
0.0000

> <Gold.PLP.ligand.torsion>
1.4473

> <Gold.PLP.Chemscore.Hbond>
1.8000

> <Gold.PLP.Chemscore.CHOScore>
1.8136

> <Gold.PLP.Chemscore.Metal>
0.0000

> <Gold.Chemscore.Hbonds>
donor molecule, donor type, donor heavy atom, donor atom, acceptor molecule, acceptor atom, score
      L1  H     3    22       P1  7957  1.00
      P1  H  8011  8017       L1    12  0.78
      L1  C     7    27       P1  7948  0.98
      L1  C     9    29       P1 10186  0.83

> <Gold.PLP.Chemscore.Internal.Correction>
0.0693

> <Gold.Rescore>
     Score         DG    S(hbond)    S(metal)    S(lipo)     H(rot)  DE(clash)    DE(int)     intcor
     10.82     -14.11       1.78        0.00      66.45       1.99       0.43       2.86       ----

> <Gold.Chemscore.Fitness>
10.8159

> <Gold.Chemscore.DG>
-14.1075

> <Gold.Chemscore.ZeroCoef>
-5.4800

> <Gold.Chemscore.Hbond>
1.7790

> <Gold.Chemscore.Metal>
0.0000

> <Gold.Chemscore.Lipo>
66.4526

> <Gold.Chemscore.Internal_Hbond>
0.0000

> <Gold.Chemscore.DEClash>
0.4280

> <Gold.Chemscore.DEInternal>
2.8636

> <Gold.Chemscore.Rot>
1.9880

> <Gold.Chemscore.Internal.Correction>
   9.000000E+99

> <Gold.Chemscore.Hbonds>
donor molecule, donor type, donor heavy atom, donor atom, acceptor molecule, acceptor atom, score
      L1  H     3    22       P1  7957  0.94
      P1  H  8011  8017       L1    12  0.77

> <Gold.Chemscore.Hbond.Weighted>
-5.9418

> <Gold.Chemscore.Metal.Weighted>
-0.0000

> <Gold.Chemscore.Lipo.Weighted>
-7.7750

> <Gold.Chemscore.Internal_Hbond.Weighted>
0.0000

> <Gold.Chemscore.DEClash.Weighted>
0.4280

> <Gold.Chemscore.DEInternal.Weighted>
2.8636

> <Gold.Chemscore.Rot.Weighted>
5.0893

> <Gold.Chemscore.Internal.Correction.Weighted>
   9.000000E+99

> <Gold.Protein.RotatedTorsions>
[ 6907 6896 6895 6894 ] final   91.92 input  -60.11 | X-H torsion
[ 7974 7965 7964 7962 ] final    2.93 input  175.53 | X-H torsion
[ 8008 7997 7996 7995 ] final -123.68 input   59.86 | X-H torsion
[ 10167 10162 10161 10158 ] final -123.24 input  -65.29 | X-H torsion
[ 10718 10713 10712 10709 ] final  -75.37 input   66.30 | X-H torsion
[ 10763 10752 10751 10750 ] final   66.47 input  -60.55 | X-H torsion
[ 11005 11000 10999 10996 ] final    8.01 input  -57.11 | X-H torsion

> <Gold.Protein.ActiveResidues>
 VAL166  LYS551  ARG553  GLY616  TRP617  ASP618  TYR619  PRO620  LYS621  CYS622 
 ASP623  PHE694  ASN695  SER759  ASP760  ASP761  ALA762  ILE779  LEU786  VAL792 
 PHE793  MET794  SER795  GLU796  ALA797  LYS798  CYS799  TRP800  GLU811  SER814 

> <Gold.Protein.RotatedAtoms>
  152.5451  134.1582  159.8546 H   0  0  0  0  0  0  0  0  0  0  0  0  # atno 6907 bound_to 6896
  151.1602  133.4843  159.2602 H   0  0  0  0  0  0  0  0  0  0  0  0  # atno 6908 bound_to 6896
  151.1380  135.0176  159.8668 H   0  0  0  0  0  0  0  0  0  0  0  0  # atno 6909 bound_to 6896
  146.2444  140.0761  142.8359 H   0  0  0  0  0  0  0  0  0  0  0  0  # atno 7974 bound_to 7965
  155.1846  140.0411  157.2888 H   0  0  0  0  0  0  0  0  0  0  0  0  # atno 8008 bound_to 7997
  154.6180  140.2493  155.7557 H   0  0  0  0  0  0  0  0  0  0  0  0  # atno 8009 bound_to 7997
  156.2417  140.2901  156.0475 H   0  0  0  0  0  0  0  0  0  0  0  0  # atno 8010 bound_to 7997
  140.0056  143.5494  152.2285 H   0  0  0  0  0  0  0  0  0  0  0  0  # atno 10167 bound_to 10162
  156.0210  130.4439  150.3033 H   0  0  0  0  0  0  0  0  0  0  0  0  # atno 10718 bound_to 10713
  153.0141  135.5319  154.6829 H   0  0  0  0  0  0  0  0  0  0  0  0  # atno 10763 bound_to 10752
  154.5984  135.2866  155.0563 H   0  0  0  0  0  0  0  0  0  0  0  0  # atno 10764 bound_to 10752
  154.1630  135.6544  153.5043 H   0  0  0  0  0  0  0  0  0  0  0  0  # atno 10765 bound_to 10752
  140.5418  134.0367  155.7907 H   0  0  0  0  0  0  0  0  0  0  0  0  # atno 11005 bound_to 11000
  145.0773  140.9197  143.4846 LP  0  0  0  0  0  0  0  0  0  0  0  0  # atno 17320 bound_to 7965
  145.0907  139.2892  143.5736 LP  0  0  0  0  0  0  0  0  0  0  0  0  # atno 17321 bound_to 7965
  139.6241  144.7634  151.2677 LP  0  0  0  0  0  0  0  0  0  0  0  0  # atno 17342 bound_to 10162
  140.7401  143.6596  150.8176 LP  0  0  0  0  0  0  0  0  0  0  0  0  # atno 17343 bound_to 10162
  157.1135  131.0228  151.3038 LP  0  0  0  0  0  0  0  0  0  0  0  0  # atno 17370 bound_to 10713
  157.4685  130.7695  149.7301 LP  0  0  0  0  0  0  0  0  0  0  0  0  # atno 17371 bound_to 10713
  141.1222  133.9442  157.2706 LP  0  0  0  0  0  0  0  0  0  0  0  0  # atno 17394 bound_to 11000
  139.9500  135.0177  156.8965 LP  0  0  0  0  0  0  0  0  0  0  0  0  # atno 17395 bound_to 11000

$$$$
