#       Name:                AV-unprocessed.smi:560
#       Creating user name   scv26
#       Creation time:       Thu Mar 26 23:42:06 2020


#       File generated by GOLD software.
#

@<TRIPOS>MOLECULE
AV-unprocessed.smi:560
    47    48     1
SMALL
NO_CHARGES


@<TRIPOS>ATOM
      1 ****        -3.1962  -3.0815  -2.3546 C.3            1 S1                 0.0000
      2 ****        -2.8269  -1.7605  -1.6493 C.3            1 S1                 0.0000
      3 ****        -1.3143  -1.4763  -1.6531 C.2            1 S1                 0.0000
      4 ****        -0.5130  -2.3177  -2.0621 O.2            1 S1                 0.0000
      5 ****        -0.9345  -0.2729  -1.1928 N.am           1 S1                 0.0000
      6 ****         0.4450   0.1891  -1.0821 C.3            1 S1                 0.0000
      7 ****         1.1272  -0.4142   0.1604 C.3            1 S1                 0.0000
      8 ****         2.5436   0.1533   0.3451 C.3            1 S1                 0.0000
      9 ****         2.5166   1.6375   0.4385 N.4            1 S1                 1.0000
     10 ****         3.8452   2.2236   0.7572 C.3            1 S1                 0.0000
     11 ****         4.2536   2.1279   2.2355 C.2            1 S1                 0.0000
     12 ****         3.3315   1.7991   3.1474 N.am           1 S1                 0.0000
     13 ****         5.4181   2.3531   2.5539 O.2            1 S1                 0.0000
     14 ****         1.9052   2.2436  -0.7720 C.3            1 S1                 0.0000
     15 ****         0.4742   1.7234  -0.9902 C.3            1 S1                 0.0000
     16 ****        -3.3612  -1.7081  -0.2924 N.pl3          1 S1                 0.0000
     17 ****        -4.1612  -0.7333   0.2687 C.2            1 S1                 0.0000
     18 ****        -4.3957  -1.0904   1.5655 C.2            1 S1                 0.0000
     19 ****        -3.6843  -2.3132   1.7131 C.2            1 S1                 0.0000
     20 ****        -3.0611  -2.6766   0.6043 N.2            1 S1                 0.0000
     21 ****        -2.8553  -3.0846  -3.3905 H              1 S1                 0.0000
     22 ****        -4.2769  -3.2252  -2.3682 H              1 S1                 0.0000
     23 ****        -2.7548  -3.9465  -1.8577 H              1 S1                 0.0000
     24 ****        -3.2971  -0.9520  -2.2114 H              1 S1                 0.0000
     25 ****        -1.6562   0.3606  -0.8804 H              1 S1                 0.0000
     26 ****         0.9949  -0.1131  -1.9756 H              1 S1                 0.0000
     27 ****         0.5325  -0.2035   1.0508 H              1 S1                 0.0000
     28 ****         1.1787  -1.5003   0.0747 H              1 S1                 0.0000
     29 ****         2.9862  -0.2747   1.2448 H              1 S1                 0.0000
     30 ****         3.1786  -0.1484  -0.4896 H              1 S1                 0.0000
     31 ****         4.6143   1.7695   0.1302 H              1 S1                 0.0000
     32 ****         3.8407   3.2869   0.5138 H              1 S1                 0.0000
     33 ****         3.5712   1.7259   4.1246 H              1 S1                 0.0000
     34 ****         2.3831   1.6196   2.8478 H              1 S1                 0.0000
     35 ****         1.8767   3.3289  -0.6674 H              1 S1                 0.0000
     36 ****         2.5246   2.0244  -1.6434 H              1 S1                 0.0000
     37 ****         0.0588   2.1605  -1.8991 H              1 S1                 0.0000
     38 ****        -0.1602   2.0585  -0.1680 H              1 S1                 0.0000
     39 ****        -4.4949   0.1249  -0.2960 H              1 S1                 0.0000
     40 ****        -4.9857  -0.5592   2.2975 H              1 S1                 0.0000
     41 ****        -3.6004  -2.9419   2.5874 H              1 S1                 0.0000
     42 ****         1.9092   1.8779   1.2084 H              1 S1                 0.0000
     43 ****        -0.8424  -3.2002  -2.3979 LP             1 S1                 0.0000
     44 ****         0.4669  -2.1184  -2.0583 LP             1 S1                 0.0000
     45 ****         6.0898   2.5959   1.8540 LP             1 S1                 0.0000
     46 ****         5.6946   2.2936   3.5131 LP             1 S1                 0.0000
     47 ****        -2.4938  -3.4875   0.4604 LP             1 S1                 0.0000
@<TRIPOS>BOND
    1    1    2 1     
    2    1   21 1     
    3    1   22 1     
    4    1   23 1     
    5    2    3 1     
    6    2   16 1     
    7    2   24 1     
    8    3    4 2     
    9    3    5 am    
   10    5    6 1     
   11    5   25 1     
   12    6   15 1     
   13    6    7 1     
   14    6   26 1     
   15    7    8 1     
   16    7   27 1     
   17    7   28 1     
   18    8    9 1     
   19    8   29 1     
   20    8   30 1     
   21    9   10 1     
   22    9   14 1     
   23    9   42 1     
   24   10   11 1     
   25   10   31 1     
   26   10   32 1     
   27   11   12 am    
   28   11   13 2     
   29   12   33 1     
   30   12   34 1     
   31   14   15 1     
   32   14   35 1     
   33   14   36 1     
   34   15   37 1     
   35   15   38 1     
   36   16   20 1     
   37   16   17 1     
   38   17   18 2     
   39   17   39 1     
   40   18   19 1     
   41   18   40 1     
   42   19   20 2     
   43   19   41 1     
   44    4   43 1     
   45    4   44 1     
   46   13   45 1     
   47   13   46 1     
   48   20   47 1     
@<TRIPOS>SUBSTRUCTURE
      1 S1             1
@<TRIPOS>SET
LONE_PAIRS      STATIC     ATOMS    <user>   **** ""
5 43 44 45 46 47
DONOR_HYDROGENS      STATIC     ATOMS    <user>   **** ""
4 25 42 33 34
ATOM$BLUE        STATIC     ATOMS    COLORGROUP SYSTEM
5 43 44 45 46 47
ATOM$RED        STATIC     ATOMS    COLORGROUP SYSTEM
4 25 42 33 34
