AV-unprocessed.smi:2817|AV-procd|sdf|10846|dock3
  -GOLD-   2272015283D 1   1.00000     0.00000
 Structure written by MMmdl.
 42 44  0  0  0  0  0  0  0  0  1 V2000
  141.4038  134.9158  154.0745 O   0  0  0  0  0  0  0  0  0  0  0  0
  142.2072  135.2567  153.2062 C   0  0  0  0  0  0  0  0  0  0  0  0
  142.9301  134.2896  152.3798 C   0  0  0  0  0  0  0  0  0  0  0  0
  143.8041  134.7002  151.4307 C   0  0  0  0  0  0  0  0  0  0  0  0
  144.5687  133.6905  150.5788 C   0  0  0  0  0  0  0  0  0  0  0  0
  144.2340  132.2104  150.8310 C   0  0  0  0  0  0  0  0  0  0  0  0
  145.5304  132.0724  151.6373 C   0  0  0  0  0  0  0  0  0  0  0  0
  146.0026  133.4091  151.0539 C   0  0  0  0  0  0  0  0  0  0  0  0
  144.0438  136.0665  151.2310 N   0  0  0  0  0  0  0  0  0  0  0  0
  143.4199  136.9428  151.9513 C   0  0  0  0  0  0  0  0  0  0  0  0
  142.4918  136.5641  152.9406 N   0  0  0  0  0  0  0  0  0  0  0  0
  141.8560  137.6557  153.6952 C   0  0  0  0  0  0  0  0  0  0  0  0
  140.3355  137.7345  153.4257 C   0  0  2  0  0  0  0  0  0  0  0  0
  139.9889  139.0699  153.1197 O   0  0  0  0  0  0  0  0  0  0  0  0
  139.5048  137.3205  154.6500 C   0  0  0  0  0  0  0  0  0  0  0  0
  138.1359  137.2654  154.2709 O   0  0  0  0  0  0  0  0  0  0  0  0
  137.1900  137.0848  155.2565 C   0  0  0  0  0  0  0  0  0  0  0  0
  135.8404  137.0521  154.8480 C   0  0  0  0  0  0  0  0  0  0  0  0
  134.8069  136.8727  155.7872 C   0  0  0  0  0  0  0  0  0  0  0  0
  135.1148  136.7236  157.1519 C   0  0  0  0  0  0  0  0  0  0  0  0
  136.4570  136.7544  157.5737 C   0  0  0  0  0  0  0  0  0  0  0  0
  137.4911  136.9337  156.6340 C   0  0  0  0  0  0  0  0  0  0  0  0
  142.7571  133.2345  152.5353 H   0  0  0  0  0  0  0  0  0  0  0  0
  144.5287  133.9432  149.5182 H   0  0  0  0  0  0  0  0  0  0  0  0
  143.3235  132.0261  151.4027 H   0  0  0  0  0  0  0  0  0  0  0  0
  144.2502  131.6188  149.9147 H   0  0  0  0  0  0  0  0  0  0  0  0
  145.3655  132.1157  152.7146 H   0  0  0  0  0  0  0  0  0  0  0  0
  146.1461  131.2167  151.3584 H   0  0  0  0  0  0  0  0  0  0  0  0
  146.6996  133.2807  150.2247 H   0  0  0  0  0  0  0  0  0  0  0  0
  146.3898  134.1105  151.7941 H   0  0  0  0  0  0  0  0  0  0  0  0
  143.5756  138.0178  151.8419 H   0  0  0  0  0  0  0  0  0  0  0  0
  142.0307  137.4903  154.7601 H   0  0  0  0  0  0  0  0  0  0  0  0
  142.3349  138.6170  153.4996 H   0  0  0  0  0  0  0  0  0  0  0  0
  140.0538  137.1029  152.5821 H   0  0  0  0  0  0  0  0  0  0  0  0
  140.2160  139.2413  152.2186 H   0  0  0  0  0  0  0  0  0  0  0  0
  139.8437  136.3538  155.0268 H   0  0  0  0  0  0  0  0  0  0  0  0
  139.6286  138.0581  155.4450 H   0  0  0  0  0  0  0  0  0  0  0  0
  135.5949  137.1659  153.8021 H   0  0  0  0  0  0  0  0  0  0  0  0
  133.7780  136.8499  155.4597 H   0  0  0  0  0  0  0  0  0  0  0  0
  134.3228  136.5864  157.8735 H   0  0  0  0  0  0  0  0  0  0  0  0
  136.6949  136.6408  158.6210 H   0  0  0  0  0  0  0  0  0  0  0  0
  138.5077  136.9530  156.9961 H   0  0  0  0  0  0  0  0  0  0  0  0
  1  2  2  0  0  0  0
  2 11  1  0  0  0  0
  2  3  1  0  0  0  0
  3  4  2  0  0  0  0
  3 23  1  0  0  0  0
  4  5  1  0  0  0  0
  4  9  1  0  0  0  0
  5  8  1  0  0  0  0
  5  6  1  0  0  0  0
  5 24  1  0  0  0  0
  6  7  1  0  0  0  0
  6 25  1  0  0  0  0
  6 26  1  0  0  0  0
  7  8  1  0  0  0  0
  7 27  1  0  0  0  0
  7 28  1  0  0  0  0
  8 29  1  0  0  0  0
  8 30  1  0  0  0  0
  9 10  2  0  0  0  0
 10 11  1  0  0  0  0
 10 31  1  0  0  0  0
 11 12  1  0  0  0  0
 12 13  1  0  0  0  0
 12 32  1  0  0  0  0
 12 33  1  0  0  0  0
 13 14  1  0  0  0  0
 13 15  1  0  0  0  0
 13 34  1  0  0  0  0
 14 35  1  0  0  0  0
 15 16  1  0  0  0  0
 15 36  1  0  0  0  0
 15 37  1  0  0  0  0
 16 17  1  0  0  0  0
 17 22  1  0  0  0  0
 17 18  2  0  0  0  0
 18 19  1  0  0  0  0
 18 38  1  0  0  0  0
 19 20  2  0  0  0  0
 19 39  1  0  0  0  0
 20 21  1  0  0  0  0
 20 40  1  0  0  0  0
 21 22  2  0  0  0  0
 21 41  1  0  0  0  0
 22 42  1  0  0  0  0
M  END
> <s_m_source_file>
AV-unprocessed.smi

> <i_m_source_file_index>
2817

> <i_lp_mmshare_version>
43012

> <i_f3d_flags>
0

> <s_epik_input>
W0NIMl0xW0NIMl1bQ0gyXVtDSF0xYyhbY0hdYzI9TyluW2NIXW4yW0NIMl1bQ0BIXShbT0hdKVtDSDJdT2MzW2NIXVtjSF1bY0hdW2NIXVtjSF0z

> <s_epik_cmdline>
J2VwaWtfcHl0aG9uJywgJy1waCcsICc3LjAnLCAnLXRuJywgJzgnLCAnLW1hJywgJzIwMCcsICctbWV0YWxfYmluZGluZycsICctaW1hZScsICc8aW5maWxlLm1hZT4nLCAnLW9tYWUnLCAnPG91dGZpbGUubWFlPic=

> <r_lp_tautomer_probability>
1

> <r_epik_Ionization_Penalty>
2.12778e-05

> <r_epik_Ionization_Penalty_Charging>
7.42033e-08

> <r_epik_Ionization_Penalty_Neutral>
2.12036e-05

> <r_epik_State_Penalty>
-0

> <r_epik_Charging_Adjusted_Penalty>
7.42033e-08

> <i_epik_Tot_Q>
0

> <i_epik_Tot_abs_Q>
0

> <r_epik_Metal_State_Penalty>
-0

> <b_epik_Metal_Only>
0

> <s_lp_Force_Field>
OPLS_2005

> <r_lp_Energy>
32.2435

> <b_lp_Chiralities_Consistent>
1

> <s_lp_Variant>
AV-unprocessed.smi:2817-1

> <Gold.Version>
5.8.1

> <Gold.Id.Protein>
6NUR|6NUR_protein|mol2

> <Gold.PLP.Fitness>
50.4706

> <Gold.PLP.PLP>
-41.7071

> <Gold.PLP.part.hbond>
-2.0955

> <Gold.PLP.part.metal>
0.0000

> <Gold.PLP.part.buried>
-7.5045

> <Gold.PLP.part.nonpolar>
-32.2040

> <Gold.PLP.part.repulsive>
0.6951

> <Gold.PLP.ligand.clash>
0.0000

> <Gold.PLP.ligand.torsion>
1.0726

> <Gold.PLP.Chemscore.Hbond>
2.0000

> <Gold.PLP.Chemscore.CHOScore>
1.4817

> <Gold.PLP.Chemscore.Metal>
0.0000

> <Gold.Chemscore.Hbonds>
donor molecule, donor type, donor heavy atom, donor atom, acceptor molecule, acceptor atom, score
      L1  H    14    35       P1 10160  0.96
      P1  H 11000 11005       L1     1  0.98
      L1  C    10    31       P1 10171  0.65
      L1  C    10    31       P1 10175  1.00

> <Gold.PLP.Chemscore.Internal.Correction>
0.4637

> <Gold.Rescore>
     Score         DG    S(hbond)    S(metal)    S(lipo)     H(rot)  DE(clash)    DE(int)     intcor
     14.43     -15.44       1.94        0.00      82.94       2.42       0.00       1.01       ----

> <Gold.Chemscore.Fitness>
14.4288

> <Gold.Chemscore.DG>
-15.4447

> <Gold.Chemscore.ZeroCoef>
-5.4800

> <Gold.Chemscore.Hbond>
1.9363

> <Gold.Chemscore.Metal>
0.0000

> <Gold.Chemscore.Lipo>
82.9395

> <Gold.Chemscore.Internal_Hbond>
0.0000

> <Gold.Chemscore.DEClash>
0.0044

> <Gold.Chemscore.DEInternal>
1.0115

> <Gold.Chemscore.Rot>
2.4245

> <Gold.Chemscore.Internal.Correction>
   9.000000E+99

> <Gold.Chemscore.Hbonds>
donor molecule, donor type, donor heavy atom, donor atom, acceptor molecule, acceptor atom, score
      L1  H    14    35       P1 10160  0.92
      P1  H 11000 11005       L1     1  0.87

> <Gold.Chemscore.Hbond.Weighted>
-6.4674

> <Gold.Chemscore.Metal.Weighted>
-0.0000

> <Gold.Chemscore.Lipo.Weighted>
-9.7039

> <Gold.Chemscore.Internal_Hbond.Weighted>
0.0000

> <Gold.Chemscore.DEClash.Weighted>
0.0044

> <Gold.Chemscore.DEInternal.Weighted>
1.0115

> <Gold.Chemscore.Rot.Weighted>
6.2066

> <Gold.Chemscore.Internal.Correction.Weighted>
   9.000000E+99

> <Gold.Protein.RotatedTorsions>
[ 6907 6896 6895 6894 ] final    5.82 input  -60.11 | X-H torsion
[ 7974 7965 7964 7962 ] final   13.27 input  175.53 | X-H torsion
[ 8008 7997 7996 7995 ] final  -77.63 input   59.86 | X-H torsion
[ 10167 10162 10161 10158 ] final  120.24 input  -65.29 | X-H torsion
[ 10718 10713 10712 10709 ] final  -26.43 input   66.30 | X-H torsion
[ 10763 10752 10751 10750 ] final   64.95 input  -60.55 | X-H torsion
[ 11005 11000 10999 10996 ] final   23.15 input  -57.11 | X-H torsion

> <Gold.Protein.ActiveResidues>
 VAL166  LYS551  ARG553  GLY616  TRP617  ASP618  TYR619  PRO620  LYS621  CYS622 
 ASP623  PHE694  ASN695  SER759  ASP760  ASP761  ALA762  ILE779  LEU786  VAL792 
 PHE793  MET794  SER795  GLU796  ALA797  LYS798  CYS799  TRP800  GLU811  SER814 

> <Gold.Protein.RotatedAtoms>
  151.6637  135.0986  160.0184 H   0  0  0  0  0  0  0  0  0  0  0  0  # atno 6907 bound_to 6896
  152.3932  133.6704  159.6263 H   0  0  0  0  0  0  0  0  0  0  0  0  # atno 6908 bound_to 6896
  150.7843  133.8836  159.3334 H   0  0  0  0  0  0  0  0  0  0  0  0  # atno 6909 bound_to 6896
  146.2333  139.9213  142.8509 H   0  0  0  0  0  0  0  0  0  0  0  0  # atno 7974 bound_to 7965
  154.5614  140.0707  156.8825 H   0  0  0  0  0  0  0  0  0  0  0  0  # atno 8008 bound_to 7997
  155.2804  140.3371  155.4240 H   0  0  0  0  0  0  0  0  0  0  0  0  # atno 8009 bound_to 7997
  156.2045  140.1735  156.7814 H   0  0  0  0  0  0  0  0  0  0  0  0  # atno 8010 bound_to 7997
  139.5995  144.7052  151.3097 H   0  0  0  0  0  0  0  0  0  0  0  0  # atno 10167 bound_to 10162
  156.4513  130.4484  149.6988 H   0  0  0  0  0  0  0  0  0  0  0  0  # atno 10718 bound_to 10713
  153.0076  135.5374  154.6591 H   0  0  0  0  0  0  0  0  0  0  0  0  # atno 10763 bound_to 10752
  154.5804  135.2849  155.0741 H   0  0  0  0  0  0  0  0  0  0  0  0  # atno 10764 bound_to 10752
  154.1872  135.6506  153.5102 H   0  0  0  0  0  0  0  0  0  0  0  0  # atno 10765 bound_to 10752
  140.3728  134.2005  155.7666 H   0  0  0  0  0  0  0  0  0  0  0  0  # atno 11005 bound_to 11000
  145.2133  140.9905  143.4088 LP  0  0  0  0  0  0  0  0  0  0  0  0  # atno 17320 bound_to 7965
  144.9672  139.3918  143.6327 LP  0  0  0  0  0  0  0  0  0  0  0  0  # atno 17321 bound_to 7965
  140.7238  143.7061  150.7806 LP  0  0  0  0  0  0  0  0  0  0  0  0  # atno 17342 bound_to 10162
  140.0634  143.5132  152.2616 LP  0  0  0  0  0  0  0  0  0  0  0  0  # atno 17343 bound_to 10162
  156.3813  130.7580  151.2573 LP  0  0  0  0  0  0  0  0  0  0  0  0  # atno 17370 bound_to 10713
  157.7502  131.0295  150.4094 LP  0  0  0  0  0  0  0  0  0  0  0  0  # atno 17371 bound_to 10713
  141.1949  133.8117  157.0737 LP  0  0  0  0  0  0  0  0  0  0  0  0  # atno 17394 bound_to 11000
  140.0539  134.9791  157.1185 LP  0  0  0  0  0  0  0  0  0  0  0  0  # atno 17395 bound_to 11000

$$$$
