AV-unprocessed.smi:1194|AV-procd|sdf|4991|dock3
  -GOLD-   22720 3593D 1   1.00000     0.00000
 Structure written by MMmdl.
 47 48  0  0  0  0  0  0  0  0  1 V2000
  153.1328  142.5491  161.2130 C   0  0  0  0  0  0  0  0  0  0  0  0
  153.1273  141.2725  160.3648 C   0  0  0  0  0  0  0  0  0  0  0  0
  152.7447  141.5439  158.8969 C   0  0  0  0  0  0  0  0  0  0  0  0
  152.4791  140.2714  158.0709 C   0  0  0  0  0  0  0  0  0  0  0  0
  153.3354  139.3854  158.0659 O   0  0  0  0  0  0  0  0  0  0  0  0
  151.3099  140.1528  157.3872 N   0  0  0  0  0  0  0  0  0  0  0  0
  150.2854  141.2155  157.3107 C   0  0  0  0  0  0  0  0  0  0  0  0
  150.1886  141.7375  155.8667 C   0  0  0  0  0  0  0  0  0  0  0  0
  149.9170  140.5897  154.8799 C   0  0  0  0  0  0  0  0  0  0  0  0
  150.9457  139.4598  155.0637 C   0  0  0  0  0  0  0  0  0  0  0  0
  151.0235  138.9748  156.5327 C   0  0  2  0  0  0  0  0  0  0  0  0
  149.8072  138.1440  156.9968 C   0  0  0  0  0  0  0  0  0  0  0  0
  148.7508  138.1818  156.3656 O   0  0  0  0  0  0  0  0  0  0  0  0
  149.9645  137.3889  158.0954 N   0  0  0  0  0  0  0  0  0  0  0  0
  148.9283  136.5484  158.6760 C   0  0  0  0  0  0  0  0  0  0  0  0
  148.7710  136.8469  160.1723 C   0  0  0  0  0  0  0  0  0  0  0  0
  147.8697  135.8422  160.8617 C   0  0  0  0  0  0  0  0  0  0  0  0
  147.4146  136.0635  162.1777 C   0  0  0  0  0  0  0  0  0  0  0  0
  146.5841  135.0987  162.7793 C   0  0  0  0  0  0  0  0  0  0  0  0
  146.2436  133.9504  162.0368 C   0  0  0  0  0  0  0  0  0  0  0  0
  146.6742  133.7277  160.7762 N   0  0  0  0  0  0  0  0  0  0  0  0
  147.4705  134.6578  160.2068 C   0  0  0  0  0  0  0  0  0  0  0  0
  153.4134  142.3292  162.2432 H   0  0  0  0  0  0  0  0  0  0  0  0
  152.1473  143.0153  161.2291 H   0  0  0  0  0  0  0  0  0  0  0  0
  153.8432  143.2785  160.8232 H   0  0  0  0  0  0  0  0  0  0  0  0
  154.1149  140.8116  160.4125 H   0  0  0  0  0  0  0  0  0  0  0  0
  152.4294  140.5591  160.8056 H   0  0  0  0  0  0  0  0  0  0  0  0
  151.8493  142.1664  158.8771 H   0  0  0  0  0  0  0  0  0  0  0  0
  153.5476  142.1090  158.4215 H   0  0  0  0  0  0  0  0  0  0  0  0
  149.3189  140.8161  157.6179 H   0  0  0  0  0  0  0  0  0  0  0  0
  150.4594  142.0560  157.9790 H   0  0  0  0  0  0  0  0  0  0  0  0
  149.4013  142.4880  155.7909 H   0  0  0  0  0  0  0  0  0  0  0  0
  151.1203  142.2372  155.5980 H   0  0  0  0  0  0  0  0  0  0  0  0
  148.9096  140.2026  155.0373 H   0  0  0  0  0  0  0  0  0  0  0  0
  149.9472  140.9608  153.8553 H   0  0  0  0  0  0  0  0  0  0  0  0
  150.7152  138.6324  154.3915 H   0  0  0  0  0  0  0  0  0  0  0  0
  151.9282  139.8221  154.7580 H   0  0  0  0  0  0  0  0  0  0  0  0
  151.8450  138.2583  156.5621 H   0  0  0  0  0  0  0  0  0  0  0  0
  150.8622  137.4003  158.5577 H   0  0  0  0  0  0  0  0  0  0  0  0
  147.9867  136.7275  158.1548 H   0  0  0  0  0  0  0  0  0  0  0  0
  149.1866  135.4983  158.5292 H   0  0  0  0  0  0  0  0  0  0  0  0
  149.7469  136.8391  160.6602 H   0  0  0  0  0  0  0  0  0  0  0  0
  148.3632  137.8485  160.3148 H   0  0  0  0  0  0  0  0  0  0  0  0
  147.6980  136.9549  162.7181 H   0  0  0  0  0  0  0  0  0  0  0  0
  146.2175  135.2347  163.7860 H   0  0  0  0  0  0  0  0  0  0  0  0
  145.6087  133.1904  162.4674 H   0  0  0  0  0  0  0  0  0  0  0  0
  147.7998  134.4490  159.1995 H   0  0  0  0  0  0  0  0  0  0  0  0
  1  2  1  0  0  0  0
  1 23  1  0  0  0  0
  1 24  1  0  0  0  0
  1 25  1  0  0  0  0
  2  3  1  0  0  0  0
  2 26  1  0  0  0  0
  2 27  1  0  0  0  0
  3  4  1  0  0  0  0
  3 28  1  0  0  0  0
  3 29  1  0  0  0  0
  4  5  2  0  0  0  0
  4  6  1  0  0  0  0
  6 11  1  0  0  0  0
  6  7  1  0  0  0  0
  7  8  1  0  0  0  0
  7 30  1  0  0  0  0
  7 31  1  0  0  0  0
  8  9  1  0  0  0  0
  8 32  1  0  0  0  0
  8 33  1  0  0  0  0
  9 10  1  0  0  0  0
  9 34  1  0  0  0  0
  9 35  1  0  0  0  0
 10 11  1  0  0  0  0
 10 36  1  0  0  0  0
 10 37  1  0  0  0  0
 11 12  1  0  0  0  0
 11 38  1  0  0  0  0
 12 13  2  0  0  0  0
 12 14  1  0  0  0  0
 14 15  1  0  0  0  0
 14 39  1  0  0  0  0
 15 16  1  0  0  0  0
 15 40  1  0  0  0  0
 15 41  1  0  0  0  0
 16 17  1  0  0  0  0
 16 42  1  0  0  0  0
 16 43  1  0  0  0  0
 17 22  1  0  0  0  0
 17 18  2  0  0  0  0
 18 19  1  0  0  0  0
 18 44  1  0  0  0  0
 19 20  2  0  0  0  0
 19 45  1  0  0  0  0
 20 21  1  0  0  0  0
 20 46  1  0  0  0  0
 21 22  2  0  0  0  0
 22 47  1  0  0  0  0
M  END
> <s_m_source_file>
AV-unprocessed.smi

> <i_m_source_file_index>
1194

> <i_lp_mmshare_version>
43012

> <i_f3d_flags>
0

> <s_epik_input>
W0NIM11bQ0gyXVtDSDJdQyg9TylOMVtDSDJdW0NIMl1bQ0gyXVtDSDJdW0NASF0xQyg9TylbTkhdW0NIMl1bQ0gyXWMyW2NIXVtjSF1bY0hdbltjSF0y

> <s_epik_cmdline>
J2VwaWtfcHl0aG9uJywgJy1waCcsICc3LjAnLCAnLXRuJywgJzgnLCAnLW1hJywgJzIwMCcsICctbWV0YWxfYmluZGluZycsICctaW1hZScsICc8aW5maWxlLm1hZT4nLCAnLW9tYWUnLCAnPG91dGZpbGUubWFlPic=

> <r_epik_Ionization_Penalty>
0.0130932

> <r_epik_Ionization_Penalty_Charging>
0

> <r_epik_Ionization_Penalty_Neutral>
0.0130932

> <r_epik_State_Penalty>
0.0101714

> <r_epik_Charging_Adjusted_Penalty>
0.0101714

> <i_epik_Tot_Q>
0

> <i_epik_Tot_abs_Q>
0

> <r_epik_Metal_State_Penalty>
0.00995056

> <b_epik_Metal_Only>
0

> <s_lp_Force_Field>
OPLS_2005

> <r_lp_Energy>
25.0478

> <b_lp_Chiralities_Consistent>
1

> <s_lp_Variant>
AV-unprocessed.smi:1194-2

> <Gold.Version>
5.8.1

> <Gold.Id.Protein>
6NUR|6NUR_protein|mol2

> <Gold.PLP.Fitness>
43.7709

> <Gold.PLP.PLP>
-41.9775

> <Gold.PLP.part.hbond>
-1.0000

> <Gold.PLP.part.metal>
0.0000

> <Gold.PLP.part.buried>
-1.3678

> <Gold.PLP.part.nonpolar>
-38.6142

> <Gold.PLP.part.repulsive>
0.1036

> <Gold.PLP.ligand.clash>
0.0000

> <Gold.PLP.ligand.torsion>
0.6482

> <Gold.PLP.Chemscore.Hbond>
1.0000

> <Gold.PLP.Chemscore.CHOScore>
0.0000

> <Gold.PLP.Chemscore.Metal>
0.0000

> <Gold.Chemscore.Hbonds>
donor molecule, donor type, donor heavy atom, donor atom, acceptor molecule, acceptor atom, score
      P1  H  7997  8009       L1     5  1.00

> <Gold.PLP.Chemscore.Internal.Correction>
0.0897

> <Gold.Rescore>
     Score         DG    S(hbond)    S(metal)    S(lipo)     H(rot)  DE(clash)    DE(int)     intcor
     16.22     -17.41       0.97        0.00     110.96       1.68       0.05       1.14       ----

> <Gold.Chemscore.Fitness>
16.2163

> <Gold.Chemscore.DG>
-17.4092

> <Gold.Chemscore.ZeroCoef>
-5.4800

> <Gold.Chemscore.Hbond>
0.9742

> <Gold.Chemscore.Metal>
0.0000

> <Gold.Chemscore.Lipo>
110.9595

> <Gold.Chemscore.Internal_Hbond>
0.0000

> <Gold.Chemscore.DEClash>
0.0519

> <Gold.Chemscore.DEInternal>
1.1409

> <Gold.Chemscore.Rot>
1.6823

> <Gold.Chemscore.Internal.Correction>
   9.000000E+99

> <Gold.Chemscore.Hbonds>
donor molecule, donor type, donor heavy atom, donor atom, acceptor molecule, acceptor atom, score
      P1  H  7997  8009       L1     5  0.50

> <Gold.Chemscore.Hbond.Weighted>
-3.2537

> <Gold.Chemscore.Metal.Weighted>
-0.0000

> <Gold.Chemscore.Lipo.Weighted>
-12.9823

> <Gold.Chemscore.Internal_Hbond.Weighted>
0.0000

> <Gold.Chemscore.DEClash.Weighted>
0.0519

> <Gold.Chemscore.DEInternal.Weighted>
1.1409

> <Gold.Chemscore.Rot.Weighted>
4.3068

> <Gold.Chemscore.Internal.Correction.Weighted>
   9.000000E+99

> <Gold.Protein.RotatedTorsions>
[ 6907 6896 6895 6894 ] final  110.93 input  -60.11 | X-H torsion
[ 7974 7965 7964 7962 ] final   16.10 input  175.53 | X-H torsion
[ 8008 7997 7996 7995 ] final  150.71 input   59.86 | X-H torsion
[ 10167 10162 10161 10158 ] final  -15.93 input  -65.29 | X-H torsion
[ 10718 10713 10712 10709 ] final   57.16 input   66.30 | X-H torsion
[ 10763 10752 10751 10750 ] final -152.47 input  -60.55 | X-H torsion
[ 11005 11000 10999 10996 ] final  141.01 input  -57.11 | X-H torsion

> <Gold.Protein.ActiveResidues>
 VAL166  LYS551  ARG553  GLY616  TRP617  ASP618  TYR619  PRO620  LYS621  CYS622 
 ASP623  PHE694  ASN695  SER759  ASP760  ASP761  ALA762  ILE779  LEU786  VAL792 
 PHE793  MET794  SER795  GLU796  ALA797  LYS798  CYS799  TRP800  GLU811  SER814 

> <Gold.Protein.RotatedAtoms>
  152.4995  133.8730  159.7307 H   0  0  0  0  0  0  0  0  0  0  0  0  # atno 6907 bound_to 6896
  150.9212  133.6870  159.2838 H   0  0  0  0  0  0  0  0  0  0  0  0  # atno 6908 bound_to 6896
  151.4246  135.1006  159.9676 H   0  0  0  0  0  0  0  0  0  0  0  0  # atno 6909 bound_to 6896
  146.2259  139.8797  142.8573 H   0  0  0  0  0  0  0  0  0  0  0  0  # atno 7974 bound_to 7965
  156.2704  140.2067  156.6061 H   0  0  0  0  0  0  0  0  0  0  0  0  # atno 8008 bound_to 7997
  154.6868  140.0534  157.0347 H   0  0  0  0  0  0  0  0  0  0  0  0  # atno 8009 bound_to 7997
  155.0922  140.3197  155.4573 H   0  0  0  0  0  0  0  0  0  0  0  0  # atno 8010 bound_to 7997
  140.7226  143.5167  150.9683 H   0  0  0  0  0  0  0  0  0  0  0  0  # atno 10167 bound_to 10162
  157.5491  130.8753  149.8936 H   0  0  0  0  0  0  0  0  0  0  0  0  # atno 10718 bound_to 10713
  154.7992  135.3235  154.7592 H   0  0  0  0  0  0  0  0  0  0  0  0  # atno 10763 bound_to 10752
  153.8263  135.6883  153.4824 H   0  0  0  0  0  0  0  0  0  0  0  0  # atno 10764 bound_to 10752
  153.1699  135.4627  154.9831 H   0  0  0  0  0  0  0  0  0  0  0  0  # atno 10765 bound_to 10752
  140.0369  134.9324  157.0770 H   0  0  0  0  0  0  0  0  0  0  0  0  # atno 11005 bound_to 11000
  145.2525  141.0049  143.3873 LP  0  0  0  0  0  0  0  0  0  0  0  0  # atno 17320 bound_to 7965
  144.9363  139.4240  143.6471 LP  0  0  0  0  0  0  0  0  0  0  0  0  # atno 17321 bound_to 7965
  139.8883  143.6985  152.3148 LP  0  0  0  0  0  0  0  0  0  0  0  0  # atno 17342 bound_to 10162
  139.7292  144.7586  151.0830 LP  0  0  0  0  0  0  0  0  0  0  0  0  # atno 17343 bound_to 10162
  156.0561  130.3708  150.1088 LP  0  0  0  0  0  0  0  0  0  0  0  0  # atno 17370 bound_to 10713
  156.9262  130.9699  151.3540 LP  0  0  0  0  0  0  0  0  0  0  0  0  # atno 17371 bound_to 10713
  140.4132  134.1958  155.7163 LP  0  0  0  0  0  0  0  0  0  0  0  0  # atno 17394 bound_to 11000
  141.1862  133.8307  157.1076 LP  0  0  0  0  0  0  0  0  0  0  0  0  # atno 17395 bound_to 11000

$$$$
