#       Name:                AV-unprocessed.smi:1292
#       Creating user name   scv26
#       Creation time:       Fri Mar 27 04:55:45 2020


#       File generated by GOLD software.
#

@<TRIPOS>MOLECULE
AV-unprocessed.smi:1292
    42    43     1
SMALL
NO_CHARGES


@<TRIPOS>ATOM
      1 ****        -3.2302   2.3734  -1.8624 C.3            1 S1                 0.0000
      2 ****        -2.1893   2.2244  -0.7439 C.3            1 S1                 0.0000
      3 ****        -2.5312   3.1105   0.4616 C.3            1 S1                 0.0000
      4 ****        -1.4635   2.9350   1.5439 C.3            1 S1                 0.0000
      5 ****        -1.3251   1.4609   1.9522 C.3            1 S1                 0.0000
      6 ****        -1.0523   0.5983   0.7806 N.3            1 S1                 0.0000
      7 ****        -0.4499  -1.0053   1.0822 S.o2           1 S1                 0.0000
      8 ****        -1.3925  -1.6194   2.0313 O.2            1 S1                 0.0000
      9 ****        -0.2916  -1.6468  -0.2336 O.2            1 S1                 0.0000
     10 ****         0.9625  -0.5753   1.7566 N.pl3          1 S1                -1.0000
     11 ****         1.9239  -1.6029   2.1251 C.3            1 S1                 0.0000
     12 ****         3.1612  -1.5785   1.1943 C.3            1 S1                 0.0000
     13 ****         2.9020  -1.9411  -0.2659 C.ar           1 S1                 0.0000
     14 ****         2.8753  -3.2922  -0.6822 C.ar           1 S1                 0.0000
     15 ****         2.6214  -3.5753  -2.0379 C.ar           1 S1                 0.0000
     16 ****         2.4124  -2.5045  -2.9277 C.ar           1 S1                 0.0000
     17 ****         2.4694  -1.1916  -2.4199 C.ar           1 S1                 0.0000
     18 ****         2.7159  -0.9084  -1.1236 N.ar           1 S1                 0.0000
     19 ****        -2.0383   0.7526  -0.3093 C.3            1 S1                 0.0000
     20 ****        -4.2189   2.0572  -1.5278 H              1 S1                 0.0000
     21 ****        -2.9631   1.7691  -2.7298 H              1 S1                 0.0000
     22 ****        -3.3052   3.4096  -2.1932 H              1 S1                 0.0000
     23 ****        -1.2291   2.5543  -1.1440 H              1 S1                 0.0000
     24 ****        -2.5865   4.1573   0.1611 H              1 S1                 0.0000
     25 ****        -3.5110   2.8438   0.8598 H              1 S1                 0.0000
     26 ****        -0.5038   3.3032   1.1785 H              1 S1                 0.0000
     27 ****        -1.7146   3.5390   2.4161 H              1 S1                 0.0000
     28 ****        -0.5273   1.3683   2.6882 H              1 S1                 0.0000
     29 ****        -2.2380   1.1155   2.4386 H              1 S1                 0.0000
     30 ****         2.2684  -1.4481   3.1479 H              1 S1                 0.0000
     31 ****         1.4888  -2.6031   2.1195 H              1 S1                 0.0000
     32 ****         3.6330  -0.5956   1.2388 H              1 S1                 0.0000
     33 ****         3.9046  -2.2756   1.5822 H              1 S1                 0.0000
     34 ****         3.0326  -4.0929   0.0251 H              1 S1                 0.0000
     35 ****         2.5852  -4.5961  -2.3884 H              1 S1                 0.0000
     36 ****         2.2123  -2.6841  -3.9735 H              1 S1                 0.0000
     37 ****         2.3161  -0.3458  -3.0737 H              1 S1                 0.0000
     38 ****        -2.9952   0.3474   0.0222 H              1 S1                 0.0000
     39 ****        -1.7275   0.1622  -1.1708 H              1 S1                 0.0000
     40 ****        -0.2127   0.9885   0.4028 LP             1 S1                 0.0000
     41 ****         1.1703   0.3895   1.9177 LP             1 S1                 0.0000
     42 ****         2.7600   0.0383  -0.8044 LP             1 S1                 0.0000
@<TRIPOS>BOND
    1    1    2 1     
    2    1   20 1     
    3    1   21 1     
    4    1   22 1     
    5    2   19 1     
    6    2    3 1     
    7    2   23 1     
    8    3    4 1     
    9    3   24 1     
   10    3   25 1     
   11    4    5 1     
   12    4   26 1     
   13    4   27 1     
   14    5    6 1     
   15    5   28 1     
   16    5   29 1     
   17    6    7 1     
   18    6   19 1     
   19    7    8 2     
   20    7    9 2     
   21    7   10 1     
   22   10   11 1     
   23   11   12 1     
   24   11   30 1     
   25   11   31 1     
   26   12   13 1     
   27   12   32 1     
   28   12   33 1     
   29   13   18 ar    
   30   13   14 ar    
   31   14   15 ar    
   32   14   34 1     
   33   15   16 ar    
   34   15   35 1     
   35   16   17 ar    
   36   16   36 1     
   37   17   18 ar    
   38   17   37 1     
   39   19   38 1     
   40   19   39 1     
   41    6   40 1     
   42   10   41 1     
   43   18   42 1     
@<TRIPOS>SUBSTRUCTURE
      1 S1             1
@<TRIPOS>SET
LONE_PAIRS      STATIC     ATOMS    <user>   **** ""
5 40 8 9 41 42
ATOM$BLUE        STATIC     ATOMS    COLORGROUP SYSTEM
5 40 8 9 41 42
