#       Name:                AV-unprocessed.smi:152
#       Creating user name   scv26
#       Creation time:       Thu Mar 26 18:47:13 2020


#       File generated by GOLD software.
#

@<TRIPOS>MOLECULE
AV-unprocessed.smi:152
    65    68     1
SMALL
NO_CHARGES


@<TRIPOS>ATOM
      1 ****        -6.3945   3.7860  -0.4030 C.3            1 S1                 0.0000
      2 ****        -5.3338   2.7350  -0.7551 C.3            1 S1                 0.0000
      3 ****        -4.0522   2.9848  -0.0506 N.4            1 S1                 1.0000
      4 ****        -4.0795   2.7910   1.4183 C.3            1 S1                 0.0000
      5 ****        -2.6599   2.3784   1.8313 C.3            1 S1                 0.0000
      6 ****        -1.8318   2.4967   0.5527 C.3            1 S1                 0.0000
      7 ****        -2.8527   2.2852  -0.5713 C.3            1 S1                 0.0000
      8 ****        -3.1199   0.7894  -0.8887 C.3            1 S1                 0.0000
      9 ****        -1.9477   0.0989  -1.4358 N.pl3          1 S1                 0.0000
     10 ****        -1.5561   0.4091  -2.8057 C.3            1 S1                 0.0000
     11 ****        -1.1519  -0.6882  -0.6511 C.ar           1 S1                 0.0000
     12 ****        -1.5623  -0.9626   0.6169 N.ar           1 S1                 0.0000
     13 ****        -0.8254  -1.7173   1.4346 C.ar           1 S1                 0.0000
     14 ****         0.3493  -2.2971   1.1965 N.ar           1 S1                 0.0000
     15 ****         0.7796  -2.0348  -0.0694 C.ar           1 S1                 0.0000
     16 ****         0.1003  -1.2539  -1.0519 C.ar           1 S1                 0.0000
     17 ****         0.8610  -1.2282  -2.2178 N.2            1 S1                 0.0000
     18 ****         1.9142  -1.9457  -1.9428 C.2            1 S1                 0.0000
     19 ****         1.9531  -2.4588  -0.6682 N.pl3          1 S1                 0.0000
     20 ****         3.0053  -3.2829  -0.0925 C.3            1 S1                 0.0000
     21 ****         4.1276  -2.4767   0.6087 C.3            1 S1                 0.0000
     22 ****         3.5474  -1.7823   1.6992 O.3            1 S1                 0.0000
     23 ****         5.2066  -3.4310   1.1588 C.3            1 S1                 0.0000
     24 ****         6.4270  -2.6731   1.7110 C.3            1 S1                 0.0000
     25 ****         6.9589  -1.8141   0.7099 O.3            1 S1                 0.0000
     26 ****         6.0411  -0.8042   0.3090 C.3            1 S1                 0.0000
     27 ****         4.7935  -1.4432  -0.3266 C.3            1 S1                 0.0000
     28 ****        -7.3095   3.6145  -0.9705 H              1 S1                 0.0000
     29 ****        -6.0449   4.7924  -0.6349 H              1 S1                 0.0000
     30 ****        -6.6550   3.7553   0.6554 H              1 S1                 0.0000
     31 ****        -5.7072   1.7362  -0.5243 H              1 S1                 0.0000
     32 ****        -5.1548   2.7690  -1.8306 H              1 S1                 0.0000
     33 ****        -4.3892   3.7153   1.9070 H              1 S1                 0.0000
     34 ****        -4.7897   2.0112   1.6973 H              1 S1                 0.0000
     35 ****        -2.2619   2.9978   2.6356 H              1 S1                 0.0000
     36 ****        -2.6617   1.3450   2.1803 H              1 S1                 0.0000
     37 ****        -1.4255   3.5067   0.4822 H              1 S1                 0.0000
     38 ****        -0.9843   1.8130   0.5275 H              1 S1                 0.0000
     39 ****        -2.5205   2.7885  -1.4801 H              1 S1                 0.0000
     40 ****        -3.5360   0.2815  -0.0193 H              1 S1                 0.0000
     41 ****        -3.8960   0.7119  -1.6499 H              1 S1                 0.0000
     42 ****        -0.6147   0.9590  -2.8228 H              1 S1                 0.0000
     43 ****        -2.3078   1.0261  -3.2988 H              1 S1                 0.0000
     44 ****        -1.4465  -0.5032  -3.3925 H              1 S1                 0.0000
     45 ****        -1.2352  -1.8787   2.4207 H              1 S1                 0.0000
     46 ****         2.7010  -2.1134  -2.6640 H              1 S1                 0.0000
     47 ****         2.5482  -3.9840   0.6076 H              1 S1                 0.0000
     48 ****         3.4285  -3.8905  -0.8938 H              1 S1                 0.0000
     49 ****         4.2280  -1.3043   2.1478 H              1 S1                 0.0000
     50 ****         4.7877  -4.0787   1.9302 H              1 S1                 0.0000
     51 ****         5.5456  -4.0907   0.3588 H              1 S1                 0.0000
     52 ****         6.1650  -2.0972   2.6000 H              1 S1                 0.0000
     53 ****         7.1998  -3.3808   2.0111 H              1 S1                 0.0000
     54 ****         5.7723  -0.1812   1.1634 H              1 S1                 0.0000
     55 ****         6.5328  -0.1519  -0.4130 H              1 S1                 0.0000
     56 ****         5.0908  -1.9364  -1.2530 H              1 S1                 0.0000
     57 ****         4.0882  -0.6602  -0.6077 H              1 S1                 0.0000
     58 ****        -3.8468   3.9646  -0.1845 H              1 S1                 0.0000
     59 ****        -2.4322  -0.5918   0.9421 LP             1 S1                 0.0000
     60 ****         0.8504  -2.8525   1.8601 LP             1 S1                 0.0000
     61 ****         0.6469  -0.7623  -3.0764 LP             1 S1                 0.0000
     62 ****         3.1238  -2.4349   2.3273 LP             1 S1                 0.0000
     63 ****         2.8539  -1.1453   1.3626 LP             1 S1                 0.0000
     64 ****         7.1983  -2.3646  -0.0899 LP             1 S1                 0.0000
     65 ****         7.7816  -1.3741   1.0700 LP             1 S1                 0.0000
@<TRIPOS>BOND
    1    1    2 1     
    2    1   28 1     
    3    1   29 1     
    4    1   30 1     
    5    2    3 1     
    6    2   31 1     
    7    2   32 1     
    8    3    7 1     
    9    3    4 1     
   10    3   58 1     
   11    4    5 1     
   12    4   33 1     
   13    4   34 1     
   14    5    6 1     
   15    5   35 1     
   16    5   36 1     
   17    6    7 1     
   18    6   37 1     
   19    6   38 1     
   20    7    8 1     
   21    7   39 1     
   22    8    9 1     
   23    8   40 1     
   24    8   41 1     
   25    9   10 1     
   26    9   11 1     
   27   10   42 1     
   28   10   43 1     
   29   10   44 1     
   30   11   16 ar    
   31   11   12 ar    
   32   12   13 ar    
   33   13   14 ar    
   34   13   45 1     
   35   14   15 ar    
   36   15   19 1     
   37   15   16 ar    
   38   16   17 1     
   39   17   18 2     
   40   18   19 1     
   41   18   46 1     
   42   19   20 1     
   43   20   21 1     
   44   20   47 1     
   45   20   48 1     
   46   21   27 1     
   47   21   22 1     
   48   21   23 1     
   49   22   49 1     
   50   23   24 1     
   51   23   50 1     
   52   23   51 1     
   53   24   25 1     
   54   24   52 1     
   55   24   53 1     
   56   25   26 1     
   57   26   27 1     
   58   26   54 1     
   59   26   55 1     
   60   27   56 1     
   61   27   57 1     
   62   12   59 1     
   63   14   60 1     
   64   17   61 1     
   65   22   62 1     
   66   22   63 1     
   67   25   64 1     
   68   25   65 1     
@<TRIPOS>SUBSTRUCTURE
      1 S1             1
@<TRIPOS>SET
LONE_PAIRS      STATIC     ATOMS    <user>   **** ""
7 59 60 61 62 63 64 65
DONOR_HYDROGENS      STATIC     ATOMS    <user>   **** ""
2 58 49
ATOM$BLUE        STATIC     ATOMS    COLORGROUP SYSTEM
7 59 60 61 62 63 64 65
ATOM$RED        STATIC     ATOMS    COLORGROUP SYSTEM
2 58 49
