AV-unprocessed.smi:2706|AV-procd|sdf|10445|dock6
  -GOLD-   2272014483D 1   1.00000     0.00000
 Structure written by MMmdl.
 43 46  0  0  0  0  0  0  0  0  1 V2000
  153.9870  135.7711  164.4378 C   0  0  0  0  0  0  0  0  0  0  0  0
  154.4738  135.0955  163.2390 N   0  0  0  0  0  0  0  0  0  0  0  0
  154.6993  133.6557  163.2569 C   0  0  0  0  0  0  0  0  0  0  0  0
  154.6415  135.8270  162.0413 C   0  0  0  0  0  0  0  0  0  0  0  0
  154.9657  135.1883  160.8203 C   0  0  0  0  0  0  0  0  0  0  0  0
  155.1151  135.9714  159.6617 C   0  0  0  0  0  0  0  0  0  0  0  0
  154.9395  137.3639  159.7515 C   0  0  0  0  0  0  0  0  0  0  0  0
  154.6210  137.9381  160.9999 C   0  0  0  0  0  0  0  0  0  0  0  0
  154.4618  139.3495  160.9960 N   0  0  0  0  0  0  0  0  0  0  0  0
  154.0288  140.1324  159.9916 C   0  0  0  0  0  0  0  0  0  0  0  0
  153.6680  139.7338  158.8835 O   0  0  0  0  0  0  0  0  0  0  0  0
  154.0342  141.4242  160.3486 N   0  0  0  0  0  0  0  0  0  0  0  0
  153.6250  142.5132  159.5221 C   0  0  2  0  0  0  0  0  0  0  0  0
  152.7412  143.5745  160.1584 C   0  0  1  0  0  0  0  0  0  0  0  0
  152.4122  144.9378  159.5572 C   0  0  2  0  0  0  0  0  0  0  0  0
  150.8990  145.1799  159.7343 C   0  0  0  0  0  0  0  0  0  0  0  0
  150.2805  144.1775  158.7288 C   0  0  0  0  0  0  0  0  0  0  0  0
  151.5276  143.5062  158.1167 C   0  0  1  0  0  0  0  0  0  0  0  0
  152.4697  144.7088  158.0461 C   0  0  0  0  0  0  0  0  0  0  0  0
  152.1448  142.6056  159.1828 C   0  0  1  0  0  0  0  0  0  0  0  0
  154.4791  137.1707  162.1075 N   0  0  0  0  0  0  0  0  0  0  0  0
  154.6589  136.5817  164.7215 H   0  0  0  0  0  0  0  0  0  0  0  0
  153.9189  135.0853  165.2823 H   0  0  0  0  0  0  0  0  0  0  0  0
  152.9948  136.1887  164.2648 H   0  0  0  0  0  0  0  0  0  0  0  0
  155.7404  133.4293  163.0253 H   0  0  0  0  0  0  0  0  0  0  0  0
  154.0608  133.1569  162.5270 H   0  0  0  0  0  0  0  0  0  0  0  0
  154.4763  133.2319  164.2361 H   0  0  0  0  0  0  0  0  0  0  0  0
  155.1014  134.1198  160.7494 H   0  0  0  0  0  0  0  0  0  0  0  0
  155.3609  135.5101  158.7166 H   0  0  0  0  0  0  0  0  0  0  0  0
  155.0508  137.9791  158.8704 H   0  0  0  0  0  0  0  0  0  0  0  0
  154.7110  139.8168  161.8549 H   0  0  0  0  0  0  0  0  0  0  0  0
  154.3482  141.6572  161.2792 H   0  0  0  0  0  0  0  0  0  0  0  0
  154.3331  142.8355  158.7618 H   0  0  0  0  0  0  0  0  0  0  0  0
  152.4925  143.4506  161.2112 H   0  0  0  0  0  0  0  0  0  0  0  0
  153.0530  145.7339  159.9368 H   0  0  0  0  0  0  0  0  0  0  0  0
  150.5684  145.0006  160.7582 H   0  0  0  0  0  0  0  0  0  0  0  0
  150.6331  146.2043  159.4703 H   0  0  0  0  0  0  0  0  0  0  0  0
  149.6190  143.4578  159.2128 H   0  0  0  0  0  0  0  0  0  0  0  0
  149.7038  144.7025  157.9661 H   0  0  0  0  0  0  0  0  0  0  0  0
  151.3542  142.9882  157.1734 H   0  0  0  0  0  0  0  0  0  0  0  0
  152.0696  145.5415  157.4640 H   0  0  0  0  0  0  0  0  0  0  0  0
  153.4636  144.4790  157.6635 H   0  0  0  0  0  0  0  0  0  0  0  0
  151.4936  141.8269  159.5765 H   0  0  0  0  0  0  0  0  0  0  0  0
  1  2  1  0  0  0  0
  1 22  1  0  0  0  0
  1 23  1  0  0  0  0
  1 24  1  0  0  0  0
  2  3  1  0  0  0  0
  2  4  1  0  0  0  0
  3 25  1  0  0  0  0
  3 26  1  0  0  0  0
  3 27  1  0  0  0  0
  4 21  1  0  0  0  0
  4  5  2  0  0  0  0
  5  6  1  0  0  0  0
  5 28  1  0  0  0  0
  6  7  2  0  0  0  0
  6 29  1  0  0  0  0
  7  8  1  0  0  0  0
  7 30  1  0  0  0  0
  8  9  1  0  0  0  0
  8 21  2  0  0  0  0
  9 10  1  0  0  0  0
  9 31  1  0  0  0  0
 10 11  2  0  0  0  0
 10 12  1  0  0  0  0
 12 13  1  0  0  0  0
 12 32  1  0  0  0  0
 13 20  1  0  0  0  0
 13 14  1  0  0  0  0
 13 33  1  0  0  0  0
 14 20  1  0  0  0  0
 14 15  1  0  0  0  0
 14 34  1  0  0  0  0
 15 19  1  0  0  0  0
 15 16  1  0  0  0  0
 15 35  1  0  0  0  0
 16 17  1  0  0  0  0
 16 36  1  0  0  0  0
 16 37  1  0  0  0  0
 17 18  1  0  0  0  0
 17 38  1  0  0  0  0
 17 39  1  0  0  0  0
 18 19  1  0  0  0  0
 18 20  1  0  0  0  0
 18 40  1  0  0  0  0
 19 41  1  0  0  0  0
 19 42  1  0  0  0  0
 20 43  1  0  0  0  0
M  END
> <s_m_source_file>
AV-unprocessed.smi

> <i_m_source_file_index>
2706

> <i_lp_mmshare_version>
43012

> <i_f3d_flags>
0

> <s_epik_input>
W0NIM11OKFtDSDNdKWMxW2NIXVtjSF1bY0hdYyhuMSlbTkhdQyg9TylbTkhdW0NASF0yW0NAQEhdM1tDQEBIXShbQ0gyXTQpW0NIMl1bQ0gyXVtDQEBIXTRbQ0BIXTIz

> <s_epik_cmdline>
J2VwaWtfcHl0aG9uJywgJy1waCcsICc3LjAnLCAnLXRuJywgJzgnLCAnLW1hJywgJzIwMCcsICctbWV0YWxfYmluZGluZycsICctaW1hZScsICc8aW5maWxlLm1hZT4nLCAnLW9tYWUnLCAnPG91dGZpbGUubWFlPic=

> <r_lp_tautomer_probability>
1

> <r_epik_Ionization_Penalty>
0.0296788

> <r_epik_Ionization_Penalty_Charging>
0

> <r_epik_Ionization_Penalty_Neutral>
0.0296788

> <r_epik_State_Penalty>
0.0248512

> <r_epik_Charging_Adjusted_Penalty>
0.0248512

> <i_epik_Tot_Q>
0

> <i_epik_Tot_abs_Q>
0

> <r_epik_Metal_State_Penalty>
0.0237882

> <b_epik_Metal_Only>
0

> <s_lp_Force_Field>
OPLS_2005

> <r_lp_Energy>
77.4142

> <b_lp_Chiralities_Consistent>
1

> <s_lp_Variant>
AV-unprocessed.smi:2706-2

> <Gold.Version>
5.8.1

> <Gold.Id.Protein>
6NUR|6NUR_protein|mol2

> <Gold.PLP.Fitness>
45.7757

> <Gold.PLP.PLP>
-43.4190

> <Gold.PLP.part.hbond>
-1.0000

> <Gold.PLP.part.metal>
0.0000

> <Gold.PLP.part.buried>
-5.7864

> <Gold.PLP.part.nonpolar>
-36.4092

> <Gold.PLP.part.repulsive>
0.0544

> <Gold.PLP.ligand.clash>
0.0000

> <Gold.PLP.ligand.torsion>
0.3371

> <Gold.PLP.Chemscore.Hbond>
1.0000

> <Gold.PLP.Chemscore.CHOScore>
0.0000

> <Gold.PLP.Chemscore.Metal>
0.0000

> <Gold.Chemscore.Hbonds>
donor molecule, donor type, donor heavy atom, donor atom, acceptor molecule, acceptor atom, score
      P1  H  7997  8010       L1    11  0.94

> <Gold.PLP.Chemscore.Internal.Correction>
0.0309

> <Gold.Rescore>
     Score         DG    S(hbond)    S(metal)    S(lipo)     H(rot)  DE(clash)    DE(int)     intcor
     18.39     -20.14       1.00        0.00     118.64       1.00       0.04       1.71       ----

> <Gold.Chemscore.Fitness>
18.3868

> <Gold.Chemscore.DG>
-20.1398

> <Gold.Chemscore.ZeroCoef>
-5.4800

> <Gold.Chemscore.Hbond>
0.9996

> <Gold.Chemscore.Metal>
0.0000

> <Gold.Chemscore.Lipo>
118.6435

> <Gold.Chemscore.Internal_Hbond>
0.0000

> <Gold.Chemscore.DEClash>
0.0407

> <Gold.Chemscore.DEInternal>
1.7124

> <Gold.Chemscore.Rot>
1.0000

> <Gold.Chemscore.Internal.Correction>
   9.000000E+99

> <Gold.Chemscore.Hbonds>
donor molecule, donor type, donor heavy atom, donor atom, acceptor molecule, acceptor atom, score
      P1  H  7997  8010       L1    11  0.87

> <Gold.Chemscore.Hbond.Weighted>
-3.3385

> <Gold.Chemscore.Metal.Weighted>
-0.0000

> <Gold.Chemscore.Lipo.Weighted>
-13.8813

> <Gold.Chemscore.Internal_Hbond.Weighted>
0.0000

> <Gold.Chemscore.DEClash.Weighted>
0.0407

> <Gold.Chemscore.DEInternal.Weighted>
1.7124

> <Gold.Chemscore.Rot.Weighted>
2.5600

> <Gold.Chemscore.Internal.Correction.Weighted>
   9.000000E+99

> <Gold.Protein.RotatedTorsions>
[ 6907 6896 6895 6894 ] final -156.51 input  -60.11 | X-H torsion
[ 7974 7965 7964 7962 ] final  -48.44 input  175.53 | X-H torsion
[ 8008 7997 7996 7995 ] final   14.01 input   59.86 | X-H torsion
[ 10167 10162 10161 10158 ] final  -43.50 input  -65.29 | X-H torsion
[ 10718 10713 10712 10709 ] final -107.81 input   66.30 | X-H torsion
[ 10763 10752 10751 10750 ] final   28.21 input  -60.55 | X-H torsion
[ 11005 11000 10999 10996 ] final  123.03 input  -57.11 | X-H torsion

> <Gold.Protein.ActiveResidues>
 VAL166  LYS551  ARG553  GLY616  TRP617  ASP618  TYR619  PRO620  LYS621  CYS622 
 ASP623  PHE694  ASN695  SER759  ASP760  ASP761  ALA762  ILE779  LEU786  VAL792 
 PHE793  MET794  SER795  GLU796  ALA797  LYS798  CYS799  TRP800  GLU811  SER814 

> <Gold.Protein.RotatedAtoms>
  151.2887  133.4175  159.2631 H   0  0  0  0  0  0  0  0  0  0  0  0  # atno 6907 bound_to 6896
  151.0296  134.9530  159.8114 H   0  0  0  0  0  0  0  0  0  0  0  0  # atno 6908 bound_to 6896
  152.5343  134.2848  159.9073 H   0  0  0  0  0  0  0  0  0  0  0  0  # atno 6909 bound_to 6896
  145.9511  140.7571  142.9504 H   0  0  0  0  0  0  0  0  0  0  0  0  # atno 7974 bound_to 7965
  154.8425  140.2917  155.5650 H   0  0  0  0  0  0  0  0  0  0  0  0  # atno 8008 bound_to 7997
  156.3012  140.2511  156.3302 H   0  0  0  0  0  0  0  0  0  0  0  0  # atno 8009 bound_to 7997
  154.9109  140.0388  157.1935 H   0  0  0  0  0  0  0  0  0  0  0  0  # atno 8010 bound_to 7997
  140.6931  143.2979  151.3361 H   0  0  0  0  0  0  0  0  0  0  0  0  # atno 10167 bound_to 10162
  156.0455  130.5681  150.7873 H   0  0  0  0  0  0  0  0  0  0  0  0  # atno 10718 bound_to 10713
  153.0506  135.6518  154.0703 H   0  0  0  0  0  0  0  0  0  0  0  0  # atno 10763 bound_to 10752
  154.0392  135.2905  155.3359 H   0  0  0  0  0  0  0  0  0  0  0  0  # atno 10764 bound_to 10752
  154.6792  135.5326  153.8307 H   0  0  0  0  0  0  0  0  0  0  0  0  # atno 10765 bound_to 10752
  139.9294  134.9641  156.8198 H   0  0  0  0  0  0  0  0  0  0  0  0  # atno 11005 bound_to 11000
  144.6796  140.2436  143.7340 LP  0  0  0  0  0  0  0  0  0  0  0  0  # atno 17320 bound_to 7965
  145.8170  139.2027  143.1960 LP  0  0  0  0  0  0  0  0  0  0  0  0  # atno 17321 bound_to 7965
  139.6356  144.0637  152.2513 LP  0  0  0  0  0  0  0  0  0  0  0  0  # atno 17342 bound_to 10162
  140.0126  144.6213  150.7634 LP  0  0  0  0  0  0  0  0  0  0  0  0  # atno 17343 bound_to 10162
  157.5324  131.0937  150.9937 LP  0  0  0  0  0  0  0  0  0  0  0  0  # atno 17370 bound_to 10713
  157.0240  130.5685  149.5335 LP  0  0  0  0  0  0  0  0  0  0  0  0  # atno 17371 bound_to 10713
  140.6244  133.9964  155.7633 LP  0  0  0  0  0  0  0  0  0  0  0  0  # atno 17394 bound_to 11000
  141.0874  133.9970  157.3292 LP  0  0  0  0  0  0  0  0  0  0  0  0  # atno 17395 bound_to 11000

$$$$
