AV-unprocessed.smi:662|AV-procd|sdf|3243|dock1
  -GOLD-   22720 0193D 1   1.00000     0.00000
 Structure written by MMmdl.
 34 35  0  0  0  0  0  0  0  0  2 V2000
  150.8429  140.4707  155.0252 O   0  0  0  0  0  0  0  0  0  0  0  0
  150.0826  141.4234  155.1943 C   0  0  0  0  0  0  0  0  0  0  0  0
  150.2790  142.3438  156.1547 N   0  0  0  0  0  0  0  0  0  0  0  0
  151.3945  142.3427  157.0949 C   0  0  0  0  0  0  0  0  0  0  0  0
  150.9167  142.5407  158.5423 C   0  0  0  0  0  0  0  0  0  0  0  0
  151.9848  142.2391  159.5386 C   0  0  0  0  0  0  0  0  0  0  0  0
  152.7658  141.1580  159.4737 N   0  0  0  0  0  0  0  0  0  0  0  0
  153.6683  141.0763  160.5399 C   0  0  0  0  0  0  0  0  0  0  0  0
  154.6293  139.9250  160.6166 C   0  0  0  0  0  0  0  0  0  0  0  0
  155.8957  140.3395  160.5774 F   0  0  0  0  0  0  0  0  0  0  0  0
  154.4670  139.2383  161.7471 F   0  0  0  0  0  0  0  0  0  0  0  0
  154.4515  139.0819  159.5999 F   0  0  0  0  0  0  0  0  0  0  0  0
  153.5451  142.1177  161.4275 C   0  0  0  0  0  0  0  0  0  0  0  0
  152.2925  143.2334  160.9565 S   0  0  0  0  0  0  0  0  0  0  0  0
  148.8521  141.5687  154.2819 C   0  0  2  0  0  0  0  0  0  0  0  0
  147.5594  141.7016  155.0983 C   0  0  0  0  0  0  0  0  0  0  0  0
  146.4847  141.2433  154.1246 C   0  0  0  0  0  0  0  0  0  0  0  0
  147.1791  140.1557  153.3036 C   0  0  0  0  0  0  0  0  0  0  0  0
  148.6323  140.4154  153.3790 N   0  3  0  0  0  0  0  0  0  0  0  0
  149.6101  143.0932  156.2502 H   0  0  0  0  0  0  0  0  0  0  0  0
  151.9147  141.3887  157.0035 H   0  0  0  0  0  0  0  0  0  0  0  0
  152.1155  143.1154  156.8216 H   0  0  0  0  0  0  0  0  0  0  0  0
  150.5801  143.5669  158.6961 H   0  0  0  0  0  0  0  0  0  0  0  0
  150.0601  141.8977  158.7466 H   0  0  0  0  0  0  0  0  0  0  0  0
  154.1120  142.2930  162.3298 H   0  0  0  0  0  0  0  0  0  0  0  0
  148.9805  142.4546  153.6585 H   0  0  0  0  0  0  0  0  0  0  0  0
  147.5727  141.0370  155.9643 H   0  0  0  0  0  0  0  0  0  0  0  0
  147.3899  142.7171  155.4581 H   0  0  0  0  0  0  0  0  0  0  0  0
  145.5807  140.8893  154.6211 H   0  0  0  0  0  0  0  0  0  0  0  0
  146.2061  142.0736  153.4740 H   0  0  0  0  0  0  0  0  0  0  0  0
  146.9846  139.1721  153.7322 H   0  0  0  0  0  0  0  0  0  0  0  0
  146.8340  140.1441  152.2692 H   0  0  0  0  0  0  0  0  0  0  0  0
  149.0127  140.6162  152.4650 H   0  0  0  0  0  0  0  0  0  0  0  0
  149.0822  139.6007  153.7706 H   0  0  0  0  0  0  0  0  0  0  0  0
  1  2  2  0  0  0  0
  2  3  1  0  0  0  0
  2 15  1  0  0  0  0
  3  4  1  0  0  0  0
  3 20  1  0  0  0  0
  4  5  1  0  0  0  0
  4 21  1  0  0  0  0
  4 22  1  0  0  0  0
  5  6  1  0  0  0  0
  5 23  1  0  0  0  0
  5 24  1  0  0  0  0
  6 14  1  0  0  0  0
  6  7  2  0  0  0  0
  7  8  1  0  0  0  0
  8  9  1  0  0  0  0
  8 13  2  0  0  0  0
  9 10  1  0  0  0  0
  9 11  1  0  0  0  0
  9 12  1  0  0  0  0
 13 14  1  0  0  0  0
 13 25  1  0  0  0  0
 15 19  1  0  0  0  0
 15 16  1  0  0  0  0
 15 26  1  0  0  0  0
 16 17  1  0  0  0  0
 16 27  1  0  0  0  0
 16 28  1  0  0  0  0
 17 18  1  0  0  0  0
 17 29  1  0  0  0  0
 17 30  1  0  0  0  0
 18 19  1  0  0  0  0
 18 31  1  0  0  0  0
 18 32  1  0  0  0  0
 19 33  1  0  0  0  0
 19 34  1  0  0  0  0
M  CHG  1  19   1
M  END
> <s_m_source_file>
AV-unprocessed.smi

> <i_m_source_file_index>
662

> <i_lp_mmshare_version>
43012

> <i_f3d_flags>
0

> <s_epik_input>
W05IXTFbQ0gyXVtDSDJdW0NIMl1bQ0BIXTFDKD1PKVtOSF1bQ0gyXVtDSDJdYzJuYyhDKEYpKEYpRilbY0hdczI=

> <s_epik_cmdline>
J2VwaWtfcHl0aG9uJywgJy1waCcsICc3LjAnLCAnLXRuJywgJzgnLCAnLW1hJywgJzIwMCcsICctbWV0YWxfYmluZGluZycsICctaW1hZScsICc8aW5maWxlLm1hZT4nLCAnLW9tYWUnLCAnPG91dGZpbGUubWFlPic=

> <r_epik_Ionization_Penalty>
0.0382401

> <r_epik_Ionization_Penalty_Charging>
0.0382382

> <r_epik_Ionization_Penalty_Neutral>
1.85239e-06

> <r_epik_State_Penalty>
0.0320549

> <r_epik_Charging_Adjusted_Penalty>
0.0702931

> <i_epik_Tot_Q>
1

> <i_epik_Tot_abs_Q>
1

> <r_epik_Metal_State_Penalty>
0.0320549

> <b_epik_Metal_Only>
0

> <s_lp_Force_Field>
OPLS_2005

> <r_lp_Energy>
7.29414

> <b_lp_Chiralities_Consistent>
1

> <s_lp_Variant>
AV-unprocessed.smi:662-1

> <Gold.Version>
5.8.1

> <Gold.Id.Protein>
6NUR|6NUR_protein|mol2

> <Gold.PLP.Fitness>
47.0955

> <Gold.PLP.PLP>
-38.9144

> <Gold.PLP.part.hbond>
-3.0000

> <Gold.PLP.part.metal>
0.0000

> <Gold.PLP.part.buried>
-5.0271

> <Gold.PLP.part.nonpolar>
-31.2010

> <Gold.PLP.part.repulsive>
0.3046

> <Gold.PLP.ligand.clash>
0.0000

> <Gold.PLP.ligand.torsion>
0.4059

> <Gold.PLP.Chemscore.Hbond>
2.9840

> <Gold.PLP.Chemscore.CHOScore>
0.0000

> <Gold.PLP.Chemscore.Metal>
0.0000

> <Gold.Chemscore.Hbonds>
donor molecule, donor type, donor heavy atom, donor atom, acceptor molecule, acceptor atom, score
      L1  H     3    20       P1  8028  1.00
      L1  H    19    33       P1  7957  0.94
      P1  H  7989  7998       L1     1  1.00

> <Gold.PLP.Chemscore.Internal.Correction>
0.0410

> <Gold.Rescore>
     Score         DG    S(hbond)    S(metal)    S(lipo)     H(rot)  DE(clash)    DE(int)     intcor
     19.10     -19.66       2.55        0.00      91.47       1.97       0.02       0.55       ----

> <Gold.Chemscore.Fitness>
19.0963

> <Gold.Chemscore.DG>
-19.6631

> <Gold.Chemscore.ZeroCoef>
-5.4800

> <Gold.Chemscore.Hbond>
2.5519

> <Gold.Chemscore.Metal>
0.0000

> <Gold.Chemscore.Lipo>
91.4718

> <Gold.Chemscore.Internal_Hbond>
0.0000

> <Gold.Chemscore.DEClash>
0.0215

> <Gold.Chemscore.DEInternal>
0.5452

> <Gold.Chemscore.Rot>
1.9697

> <Gold.Chemscore.Internal.Correction>
   9.000000E+99

> <Gold.Chemscore.Hbonds>
donor molecule, donor type, donor heavy atom, donor atom, acceptor molecule, acceptor atom, score
      L1  H     3    20       P1  8028  0.95
      L1  H    19    33       P1  7957  0.87
      P1  H  7989  7998       L1     1  0.33

> <Gold.Chemscore.Hbond.Weighted>
-8.5233

> <Gold.Chemscore.Metal.Weighted>
-0.0000

> <Gold.Chemscore.Lipo.Weighted>
-10.7022

> <Gold.Chemscore.Internal_Hbond.Weighted>
0.0000

> <Gold.Chemscore.DEClash.Weighted>
0.0215

> <Gold.Chemscore.DEInternal.Weighted>
0.5452

> <Gold.Chemscore.Rot.Weighted>
5.0424

> <Gold.Chemscore.Internal.Correction.Weighted>
   9.000000E+99

> <Gold.Protein.RotatedTorsions>
[ 6907 6896 6895 6894 ] final   44.93 input  -60.11 | X-H torsion
[ 7974 7965 7964 7962 ] final  -77.57 input  175.53 | X-H torsion
[ 8008 7997 7996 7995 ] final  -62.51 input   59.86 | X-H torsion
[ 10167 10162 10161 10158 ] final   31.84 input  -65.29 | X-H torsion
[ 10718 10713 10712 10709 ] final  158.41 input   66.30 | X-H torsion
[ 10763 10752 10751 10750 ] final  -51.13 input  -60.55 | X-H torsion
[ 11005 11000 10999 10996 ] final  -46.27 input  -57.11 | X-H torsion

> <Gold.Protein.ActiveResidues>
 VAL166  LYS551  ARG553  GLY616  TRP617  ASP618  TYR619  PRO620  LYS621  CYS622 
 ASP623  PHE694  ASN695  SER759  ASP760  ASP761  ALA762  ILE779  LEU786  VAL792 
 PHE793  MET794  SER795  GLU796  ALA797  LYS798  CYS799  TRP800  GLU811  SER814 

> <Gold.Protein.RotatedAtoms>
  152.2385  134.8252  160.0463 H   0  0  0  0  0  0  0  0  0  0  0  0  # atno 6907 bound_to 6896
  151.8975  133.3525  159.3827 H   0  0  0  0  0  0  0  0  0  0  0  0  # atno 6908 bound_to 6896
  150.7046  134.4787  159.5504 H   0  0  0  0  0  0  0  0  0  0  0  0  # atno 6909 bound_to 6896
  145.5979  140.9415  143.1257 H   0  0  0  0  0  0  0  0  0  0  0  0  # atno 7974 bound_to 7965
  154.4504  140.0994  156.6598 H   0  0  0  0  0  0  0  0  0  0  0  0  # atno 8008 bound_to 7997
  155.5305  140.3481  155.4407 H   0  0  0  0  0  0  0  0  0  0  0  0  # atno 8009 bound_to 7997
  156.0667  140.1339  156.9866 H   0  0  0  0  0  0  0  0  0  0  0  0  # atno 8010 bound_to 7997
  140.4552  144.0989  150.6200 H   0  0  0  0  0  0  0  0  0  0  0  0  # atno 10167 bound_to 10162
  157.1782  131.0626  151.2146 H   0  0  0  0  0  0  0  0  0  0  0  0  # atno 10718 bound_to 10713
  154.1216  135.6534  153.4904 H   0  0  0  0  0  0  0  0  0  0  0  0  # atno 10763 bound_to 10752
  153.0223  135.5271  154.7091 H   0  0  0  0  0  0  0  0  0  0  0  0  # atno 10764 bound_to 10752
  154.6300  135.2975  155.0197 H   0  0  0  0  0  0  0  0  0  0  0  0  # atno 10765 bound_to 10752
  141.0568  133.6723  156.3131 H   0  0  0  0  0  0  0  0  0  0  0  0  # atno 11005 bound_to 11000
  144.7323  139.7690  143.7342 LP  0  0  0  0  0  0  0  0  0  0  0  0  # atno 17320 bound_to 7965
  146.1598  139.4709  142.9995 LP  0  0  0  0  0  0  0  0  0  0  0  0  # atno 17321 bound_to 7965
  140.4160  143.2634  151.9775 LP  0  0  0  0  0  0  0  0  0  0  0  0  # atno 17342 bound_to 10162
  139.4800  144.5874  151.7831 LP  0  0  0  0  0  0  0  0  0  0  0  0  # atno 17343 bound_to 10162
  157.3978  130.7317  149.6744 LP  0  0  0  0  0  0  0  0  0  0  0  0  # atno 17370 bound_to 10713
  155.9728  130.4129  150.4055 LP  0  0  0  0  0  0  0  0  0  0  0  0  # atno 17371 bound_to 10713
  140.5948  134.5614  157.5506 LP  0  0  0  0  0  0  0  0  0  0  0  0  # atno 17394 bound_to 11000
  139.9397  134.7809  156.0710 LP  0  0  0  0  0  0  0  0  0  0  0  0  # atno 17395 bound_to 11000

$$$$
