#       Name:                AV-unprocessed.smi:109
#       Creating user name   scv26
#       Creation time:       Thu Mar 26 18:13:36 2020


#       File generated by GOLD software.
#

@<TRIPOS>MOLECULE
AV-unprocessed.smi:109
    71    74     1
SMALL
NO_CHARGES


@<TRIPOS>ATOM
      1 ****        -1.8544   2.5947  -4.1871 O.3            1 S1                 0.0000
      2 ****        -1.4958   2.1162  -2.9087 C.3            1 S1                 0.0000
      3 ****        -2.7634   1.8259  -2.0866 C.3            1 S1                 0.0000
      4 ****        -2.4815   1.3725  -0.6336 C.3            1 S1                 0.0000
      5 ****        -1.7063   0.1295  -0.6581 N.pl3          1 S1                 0.0000
      6 ****        -0.3793   0.0993  -0.4007 C.ar           1 S1                 0.0000
      7 ****         0.2861   1.1991   0.0379 N.ar           1 S1                 0.0000
      8 ****         1.5979   1.1345   0.2830 C.ar           1 S1                 0.0000
      9 ****         2.4192   0.0902   0.1569 N.ar           1 S1                 0.0000
     10 ****         1.7577  -1.0174  -0.2867 C.ar           1 S1                 0.0000
     11 ****         0.3682  -1.0928  -0.5834 C.ar           1 S1                 0.0000
     12 ****         0.0468  -2.3754  -1.0077 N.2            1 S1                 0.0000
     13 ****         1.1844  -3.0156  -0.9676 C.2            1 S1                 0.0000
     14 ****         2.2650  -2.2754  -0.5419 N.pl3          1 S1                 0.0000
     15 ****         3.6805  -2.7316  -0.4037 C.3            1 S1                 0.0000
     16 ****         4.4965  -1.7978  -1.0350 O.3            1 S1                 0.0000
     17 ****         5.7515  -1.6832  -0.3603 C.3            1 S1                 0.0000
     18 ****         6.0007  -0.1993  -0.0410 C.3            1 S1                 0.0000
     19 ****         6.4371   0.4811  -1.1983 O.3            1 S1                 0.0000
     20 ****         5.6220  -2.5479   0.9094 C.3            1 S1                 0.0000
     21 ****         6.3302  -3.7600   0.7064 O.3            1 S1                 0.0000
     22 ****         4.1183  -2.7645   1.0563 C.3            1 S1                 0.0000
     23 ****         3.8144  -3.9840   1.7072 O.3            1 S1                 0.0000
     24 ****        -3.7661   1.1649   0.2189 C.3            1 S1                 0.0000
     25 ****        -4.6858   2.4116   0.2523 C.3            1 S1                 0.0000
     26 ****        -5.9261   2.2051   1.1372 C.3            1 S1                 0.0000
     27 ****        -5.5370   1.8032   2.5647 C.3            1 S1                 0.0000
     28 ****        -4.6524   0.5511   2.5494 C.3            1 S1                 0.0000
     29 ****        -3.4083   0.7623   1.6727 C.3            1 S1                 0.0000
     30 ****         3.7427  -3.6973  -0.9080 H              1 S1                 0.0000
     31 ****         6.5509  -2.0588  -1.0020 H              1 S1                 0.0000
     32 ****         6.0404  -2.0647   1.7930 H              1 S1                 0.0000
     33 ****         3.6769  -1.9252   1.5945 H              1 S1                 0.0000
     34 ****        -2.3561   1.9262  -4.6281 H              1 S1                 0.0000
     35 ****        -0.8902   1.2187  -3.0339 H              1 S1                 0.0000
     36 ****        -0.8767   2.8630  -2.4109 H              1 S1                 0.0000
     37 ****        -3.3495   2.7434  -2.0808 H              1 S1                 0.0000
     38 ****        -3.3697   1.0753  -2.5957 H              1 S1                 0.0000
     39 ****        -1.9200   2.1722  -0.1519 H              1 S1                 0.0000
     40 ****        -2.2158  -0.6887  -0.9595 H              1 S1                 0.0000
     41 ****         2.0546   2.0496   0.6300 H              1 S1                 0.0000
     42 ****         1.2665  -4.0555  -1.2492 H              1 S1                 0.0000
     43 ****         5.1139   0.2803   0.3706 H              1 S1                 0.0000
     44 ****         6.7911  -0.1030   0.7040 H              1 S1                 0.0000
     45 ****         6.5758   1.3896  -0.9782 H              1 S1                 0.0000
     46 ****         5.9614  -4.2022  -0.0425 H              1 S1                 0.0000
     47 ****         2.8747  -4.0740   1.7498 H              1 S1                 0.0000
     48 ****        -4.3372   0.3477  -0.2249 H              1 S1                 0.0000
     49 ****        -4.1223   3.2750   0.6086 H              1 S1                 0.0000
     50 ****        -5.0389   2.6599  -0.7474 H              1 S1                 0.0000
     51 ****        -6.5219   3.1179   1.1589 H              1 S1                 0.0000
     52 ****        -6.5609   1.4330   0.7006 H              1 S1                 0.0000
     53 ****        -5.0048   2.6247   3.0461 H              1 S1                 0.0000
     54 ****        -6.4326   1.6217   3.1594 H              1 S1                 0.0000
     55 ****        -4.3512   0.2979   3.5663 H              1 S1                 0.0000
     56 ****        -5.2241  -0.2991   2.1753 H              1 S1                 0.0000
     57 ****        -2.8213  -0.1561   1.6865 H              1 S1                 0.0000
     58 ****        -2.7777   1.5319   2.1200 H              1 S1                 0.0000
     59 ****        -1.0295   2.7999  -4.7140 LP             1 S1                 0.0000
     60 ****        -2.4056   3.4239  -4.0944 LP             1 S1                 0.0000
     61 ****        -0.2063   2.0582   0.1775 LP             1 S1                 0.0000
     62 ****         3.3976   0.1163   0.3620 LP             1 S1                 0.0000
     63 ****        -0.8485  -2.7274  -1.2808 LP             1 S1                 0.0000
     64 ****         4.0401  -0.9081  -1.0320 LP             1 S1                 0.0000
     65 ****         4.6567  -2.0870  -1.9788 LP             1 S1                 0.0000
     66 ****         5.7420   0.4098  -1.9137 LP             1 S1                 0.0000
     67 ****         7.2928   0.0785  -1.5237 LP             1 S1                 0.0000
     68 ****         6.2444  -4.3402   1.5163 LP             1 S1                 0.0000
     69 ****         7.2960  -3.5620   0.5390 LP             1 S1                 0.0000
     70 ****         4.1951  -3.9771   2.6318 LP             1 S1                 0.0000
     71 ****         4.2037  -4.7477   1.1921 LP             1 S1                 0.0000
@<TRIPOS>BOND
    1    1    2 1     
    2    1   34 1     
    3    2    3 1     
    4    2   35 1     
    5    2   36 1     
    6    3    4 1     
    7    3   37 1     
    8    3   38 1     
    9    4    5 1     
   10    4   24 1     
   11    4   39 1     
   12    5    6 1     
   13    5   40 1     
   14    6   11 ar    
   15    6    7 ar    
   16    7    8 ar    
   17    8    9 ar    
   18    8   41 1     
   19    9   10 ar    
   20   10   14 1     
   21   10   11 ar    
   22   11   12 1     
   23   12   13 2     
   24   13   14 1     
   25   13   42 1     
   26   14   15 1     
   27   15   30 1     
   28   15   22 1     
   29   15   16 1     
   30   16   17 1     
   31   17   31 1     
   32   17   18 1     
   33   17   20 1     
   34   18   19 1     
   35   18   43 1     
   36   18   44 1     
   37   19   45 1     
   38   20   32 1     
   39   20   21 1     
   40   20   22 1     
   41   21   46 1     
   42   22   33 1     
   43   22   23 1     
   44   23   47 1     
   45   24   29 1     
   46   24   25 1     
   47   24   48 1     
   48   25   26 1     
   49   25   49 1     
   50   25   50 1     
   51   26   27 1     
   52   26   51 1     
   53   26   52 1     
   54   27   28 1     
   55   27   53 1     
   56   27   54 1     
   57   28   29 1     
   58   28   55 1     
   59   28   56 1     
   60   29   57 1     
   61   29   58 1     
   62    1   59 1     
   63    1   60 1     
   64    7   61 1     
   65    9   62 1     
   66   12   63 1     
   67   16   64 1     
   68   16   65 1     
   69   19   66 1     
   70   19   67 1     
   71   21   68 1     
   72   21   69 1     
   73   23   70 1     
   74   23   71 1     
@<TRIPOS>SUBSTRUCTURE
      1 S1             1
@<TRIPOS>SET
LONE_PAIRS      STATIC     ATOMS    <user>   **** ""
13 59 60 61 62 63 64 65 66 67 68 69 70 71
DONOR_HYDROGENS      STATIC     ATOMS    <user>   **** ""
5 34 40 45 46 47
ATOM$BLUE        STATIC     ATOMS    COLORGROUP SYSTEM
13 59 60 61 62 63 64 65 66 67 68 69 70 71
ATOM$RED        STATIC     ATOMS    COLORGROUP SYSTEM
5 34 40 45 46 47
