#       Name:                AV-unprocessed.smi:1868
#       Creating user name   scv26
#       Creation time:       Fri Mar 27 09:29:38 2020


#       File generated by GOLD software.
#

@<TRIPOS>MOLECULE
AV-unprocessed.smi:1868
    50    52     1
SMALL
NO_CHARGES


@<TRIPOS>ATOM
      1 ****        -2.7347   1.7412  -2.4394 C.3            1 S1                 0.0000
      2 ****        -2.9869   2.1653  -1.0273 C.2            1 S1                 0.0000
      3 ****        -3.4703   3.3692  -0.7222 N.2            1 S1                 0.0000
      4 ****        -3.5492   3.3240   0.6565 C.ar           1 S1                 0.0000
      5 ****        -3.9853   4.2967   1.5842 C.ar           1 S1                 0.0000
      6 ****        -3.9738   4.0197   2.9670 C.ar           1 S1                 0.0000
      7 ****        -3.5279   2.7689   3.4411 C.ar           1 S1                 0.0000
      8 ****        -3.0890   1.7856   2.5339 C.ar           1 S1                 0.0000
      9 ****        -3.1010   2.0675   1.1546 C.ar           1 S1                 0.0000
     10 ****        -2.7381   1.3440   0.0224 N.pl3          1 S1                 0.0000
     11 ****        -2.2046  -0.0112  -0.0080 C.3            1 S1                 0.0000
     12 ****        -0.6635  -0.0411   0.0054 C.3            1 S1                 0.0000
     13 ****        -0.1912   0.5527   1.1995 O.3            1 S1                 0.0000
     14 ****        -0.1194  -1.4810  -0.0742 C.3            1 S1                 0.0000
     15 ****         1.3623  -1.5245  -0.1721 N.4            1 S1                 1.0000
     16 ****         1.8730  -1.2189  -1.5350 C.3            1 S1                 0.0000
     17 ****         3.4088  -1.1407  -1.5464 C.3            1 S1                 0.0000
     18 ****         4.0395  -2.4395  -1.0169 C.3            1 S1                 0.0000
     19 ****         5.5723  -2.3580  -0.9925 C.3            1 S1                 0.0000
     20 ****         3.4638  -2.7509   0.3746 C.3            1 S1                 0.0000
     21 ****         1.9268  -2.7966   0.3472 C.3            1 S1                 0.0000
     22 ****        -2.9570   2.5565  -3.1287 H              1 S1                 0.0000
     23 ****        -3.3698   0.8935  -2.6973 H              1 S1                 0.0000
     24 ****        -1.6913   1.4559  -2.5719 H              1 S1                 0.0000
     25 ****        -4.3288   5.2579   1.2314 H              1 S1                 0.0000
     26 ****        -4.3085   4.7710   3.6674 H              1 S1                 0.0000
     27 ****        -3.5224   2.5652   4.5020 H              1 S1                 0.0000
     28 ****        -2.7455   0.8278   2.8953 H              1 S1                 0.0000
     29 ****        -2.6027  -0.5608   0.8461 H              1 S1                 0.0000
     30 ****        -2.5856  -0.5186  -0.8944 H              1 S1                 0.0000
     31 ****        -0.2973   0.5506  -0.8323 H              1 S1                 0.0000
     32 ****        -0.5472   1.4268   1.2621 H              1 S1                 0.0000
     33 ****        -0.4483  -2.0212   0.8151 H              1 S1                 0.0000
     34 ****        -0.5514  -2.0095  -0.9255 H              1 S1                 0.0000
     35 ****         1.5323  -1.9851  -2.2334 H              1 S1                 0.0000
     36 ****         1.4708  -0.2708  -1.8895 H              1 S1                 0.0000
     37 ****         3.7578  -0.9422  -2.5604 H              1 S1                 0.0000
     38 ****         3.7340  -0.2955  -0.9377 H              1 S1                 0.0000
     39 ****         3.7613  -3.2521  -1.6899 H              1 S1                 0.0000
     40 ****         5.9175  -1.5554  -0.3400 H              1 S1                 0.0000
     41 ****         5.9716  -2.1711  -1.9899 H              1 S1                 0.0000
     42 ****         6.0091  -3.2902  -0.6331 H              1 S1                 0.0000
     43 ****         3.8520  -3.7042   0.7350 H              1 S1                 0.0000
     44 ****         3.7922  -1.9945   1.0891 H              1 S1                 0.0000
     45 ****         1.5591  -2.9780   1.3580 H              1 S1                 0.0000
     46 ****         1.5835  -3.6285  -0.2700 H              1 S1                 0.0000
     47 ****         1.7022  -0.7976   0.4420 H              1 S1                 0.0000
     48 ****        -3.7149   4.1184  -1.3377 LP             1 S1                 0.0000
     49 ****         0.8077   0.5959   1.1823 LP             1 S1                 0.0000
     50 ****        -0.4879   0.0107   1.9857 LP             1 S1                 0.0000
@<TRIPOS>BOND
    1    1    2 1     
    2    1   22 1     
    3    1   23 1     
    4    1   24 1     
    5    2   10 1     
    6    2    3 2     
    7    3    4 1     
    8    4    9 ar    
    9    4    5 ar    
   10    5    6 ar    
   11    5   25 1     
   12    6    7 ar    
   13    6   26 1     
   14    7    8 ar    
   15    7   27 1     
   16    8    9 ar    
   17    8   28 1     
   18    9   10 1     
   19   10   11 1     
   20   11   12 1     
   21   11   29 1     
   22   11   30 1     
   23   12   13 1     
   24   12   14 1     
   25   12   31 1     
   26   13   32 1     
   27   14   15 1     
   28   14   33 1     
   29   14   34 1     
   30   15   21 1     
   31   15   16 1     
   32   15   47 1     
   33   16   17 1     
   34   16   35 1     
   35   16   36 1     
   36   17   18 1     
   37   17   37 1     
   38   17   38 1     
   39   18   19 1     
   40   18   20 1     
   41   18   39 1     
   42   19   40 1     
   43   19   41 1     
   44   19   42 1     
   45   20   21 1     
   46   20   43 1     
   47   20   44 1     
   48   21   45 1     
   49   21   46 1     
   50    3   48 1     
   51   13   49 1     
   52   13   50 1     
@<TRIPOS>SUBSTRUCTURE
      1 S1             1
@<TRIPOS>SET
LONE_PAIRS      STATIC     ATOMS    <user>   **** ""
3 48 49 50
DONOR_HYDROGENS      STATIC     ATOMS    <user>   **** ""
2 32 47
ATOM$BLUE        STATIC     ATOMS    COLORGROUP SYSTEM
3 48 49 50
ATOM$RED        STATIC     ATOMS    COLORGROUP SYSTEM
2 32 47
