#       Name:                AV-unprocessed.smi:2784
#       Creating user name   scv26
#       Creation time:       Fri Mar 27 15:17:40 2020


#       File generated by GOLD software.
#

@<TRIPOS>MOLECULE
AV-unprocessed.smi:2784
    38    39     1
SMALL
NO_CHARGES


@<TRIPOS>ATOM
      1 ****        -2.2169   0.8544  -2.1666 C.3            1 S1                 0.0000
      2 ****        -1.2665   0.1815  -2.9775 O.3            1 S1                 0.0000
      3 ****         0.0567   0.2296  -2.4615 C.3            1 S1                 0.0000
      4 ****         1.0387  -0.2590  -3.5300 C.3            1 S1                 0.0000
      5 ****         2.2091  -0.8284  -2.7365 C.3            1 S1                 0.0000
      6 ****         1.5438  -1.5155  -1.5447 C.3            1 S1                 0.0000
      7 ****         0.2662  -0.7051  -1.2478 C.3            1 S1                 0.0000
      8 ****         0.4115   0.0736  -0.0200 N.am           1 S1                 0.0000
      9 ****         0.1954  -0.3829   1.2224 C.2            1 S1                 0.0000
     10 ****        -0.1544  -1.5485   1.4334 O.2            1 S1                 0.0000
     11 ****         0.3918   0.6317   2.1461 N.2            1 S1                 0.0000
     12 ****        -0.2031   0.5581   3.2962 C.2            1 S1                 0.0000
     13 ****        -0.1199   1.4515   4.3521 N.pl3          1 S1                 0.0000
     14 ****        -0.9170   0.9903   5.3632 C.2            1 S1                 0.0000
     15 ****        -1.4806  -0.1452   4.9612 C.2            1 S1                 0.0000
     16 ****        -1.0643  -0.4376   3.6975 O.3            1 S1                 0.0000
     17 ****        -3.1997   0.7967  -2.6340 H              1 S1                 0.0000
     18 ****        -1.9616   1.9085  -2.0523 H              1 S1                 0.0000
     19 ****        -2.2926   0.4044  -1.1763 H              1 S1                 0.0000
     20 ****         0.3248   1.2580  -2.2093 H              1 S1                 0.0000
     21 ****         0.5827  -1.0561  -4.1192 H              1 S1                 0.0000
     22 ****         1.3386   0.5320  -4.2177 H              1 S1                 0.0000
     23 ****         2.8251  -1.5095  -3.3242 H              1 S1                 0.0000
     24 ****         2.8472  -0.0160  -2.3863 H              1 S1                 0.0000
     25 ****         1.2646  -2.5314  -1.8271 H              1 S1                 0.0000
     26 ****         2.2181  -1.5964  -0.6910 H              1 S1                 0.0000
     27 ****        -0.5781  -1.3913  -1.1565 H              1 S1                 0.0000
     28 ****         0.6866   1.0393  -0.1252 H              1 S1                 0.0000
     29 ****         0.4187   2.3036   4.4095 H              1 S1                 0.0000
     30 ****        -0.9980   1.5402   6.2893 H              1 S1                 0.0000
     31 ****        -2.1675  -0.8314   5.4341 H              1 S1                 0.0000
     32 ****        -1.2681   0.6044  -3.8837 LP             1 S1                 0.0000
     33 ****        -1.5404  -0.7770  -3.0566 LP             1 S1                 0.0000
     34 ****        -0.2834  -2.1782   0.6674 LP             1 S1                 0.0000
     35 ****        -0.3086  -1.8624   2.3702 LP             1 S1                 0.0000
     36 ****         0.9831   1.4085   1.9290 LP             1 S1                 0.0000
     37 ****        -0.5919  -1.3189   3.6905 LP             1 S1                 0.0000
     38 ****        -1.8506  -0.4760   3.0808 LP             1 S1                 0.0000
@<TRIPOS>BOND
    1    1    2 1     
    2    1   17 1     
    3    1   18 1     
    4    1   19 1     
    5    2    3 1     
    6    3    7 1     
    7    3    4 1     
    8    3   20 1     
    9    4    5 1     
   10    4   21 1     
   11    4   22 1     
   12    5    6 1     
   13    5   23 1     
   14    5   24 1     
   15    6    7 1     
   16    6   25 1     
   17    6   26 1     
   18    7    8 1     
   19    7   27 1     
   20    8   28 1     
   21    8    9 am    
   22    9   11 1     
   23    9   10 2     
   24   11   12 2     
   25   12   16 1     
   26   12   13 1     
   27   13   29 1     
   28   13   14 1     
   29   14   30 1     
   30   14   15 2     
   31   15   31 1     
   32   15   16 1     
   33    2   32 1     
   34    2   33 1     
   35   10   34 1     
   36   10   35 1     
   37   11   36 1     
   38   16   37 1     
   39   16   38 1     
@<TRIPOS>SUBSTRUCTURE
      1 S1             1
@<TRIPOS>SET
LONE_PAIRS      STATIC     ATOMS    <user>   **** ""
7 32 33 34 35 36 37 38
DONOR_HYDROGENS      STATIC     ATOMS    <user>   **** ""
2 28 29
ATOM$BLUE        STATIC     ATOMS    COLORGROUP SYSTEM
7 32 33 34 35 36 37 38
ATOM$RED        STATIC     ATOMS    COLORGROUP SYSTEM
2 28 29
