AV-unprocessed.smi:2257|AV-procd|sdf|9128|dock1
  -GOLD-   2272012333D 1   1.00000     0.00000
 Structure written by MMmdl.
 40 42  0  0  0  0  0  0  0  0  1 V2000
  146.5687  130.5981  152.5936 C   0  0  0  0  0  0  0  0  0  0  0  0
  147.5782  131.1913  153.4022 O   0  0  0  0  0  0  0  0  0  0  0  0
  147.5527  132.6156  153.4992 C   0  0  0  0  0  0  0  0  0  0  0  0
  148.7036  133.1473  154.3714 C   0  0  0  0  0  0  0  0  0  0  0  0
  148.9931  134.5495  154.0880 N   0  0  0  0  0  0  0  0  0  0  0  0
  149.3636  135.4697  154.9885 C   0  0  0  0  0  0  0  0  0  0  0  0
  149.4831  135.2394  156.1912 O   0  0  0  0  0  0  0  0  0  0  0  0
  149.5608  136.6632  154.4039 N   0  0  0  0  0  0  0  0  0  0  0  0
  149.9829  137.8795  155.0035 C   0  0  0  0  0  0  0  0  0  0  0  0
  150.1566  139.0181  154.1892 C   0  0  0  0  0  0  0  0  0  0  0  0
  150.5724  140.2007  154.6904 N   0  0  0  0  0  0  0  0  0  0  0  0
  150.8338  140.2417  155.9998 C   0  0  0  0  0  0  0  0  0  0  0  0
  151.2584  141.5635  156.5607 C   0  0  0  0  0  0  0  0  0  0  0  0
  151.6915  141.6928  158.0071 C   0  0  0  0  0  0  0  0  0  0  0  0
  150.3875  142.2938  157.5626 C   0  0  0  0  0  0  0  0  0  0  0  0
  150.7072  139.2350  156.8687 N   0  0  0  0  0  0  0  0  0  0  0  0
  150.2890  138.0485  156.3764 C   0  0  0  0  0  0  0  0  0  0  0  0
  147.4085  133.1858  152.0739 C   0  0  0  0  0  0  0  0  0  0  0  0
  146.3442  134.1457  152.6078 C   0  0  0  0  0  0  0  0  0  0  0  0
  146.1258  133.1494  153.7473 C   0  0  0  0  0  0  0  0  0  0  0  0
  146.7093  129.5175  152.5865 H   0  0  0  0  0  0  0  0  0  0  0  0
  146.6180  130.9398  151.5599 H   0  0  0  0  0  0  0  0  0  0  0  0
  145.5666  130.7909  152.9731 H   0  0  0  0  0  0  0  0  0  0  0  0
  148.4272  133.0902  155.4244 H   0  0  0  0  0  0  0  0  0  0  0  0
  149.6011  132.5352  154.2813 H   0  0  0  0  0  0  0  0  0  0  0  0
  148.9195  134.8371  153.1232 H   0  0  0  0  0  0  0  0  0  0  0  0
  149.3448  136.7173  153.4192 H   0  0  0  0  0  0  0  0  0  0  0  0
  149.9561  138.9840  153.1282 H   0  0  0  0  0  0  0  0  0  0  0  0
  151.7844  142.1579  155.8162 H   0  0  0  0  0  0  0  0  0  0  0  0
  151.6446  140.8044  158.6338 H   0  0  0  0  0  0  0  0  0  0  0  0
  152.5115  142.3737  158.2254 H   0  0  0  0  0  0  0  0  0  0  0  0
  150.3333  143.3776  157.4846 H   0  0  0  0  0  0  0  0  0  0  0  0
  149.4734  141.8041  157.8927 H   0  0  0  0  0  0  0  0  0  0  0  0
  150.2246  137.2445  157.0928 H   0  0  0  0  0  0  0  0  0  0  0  0
  148.2972  133.6762  151.6761 H   0  0  0  0  0  0  0  0  0  0  0  0
  147.0003  132.4663  151.3616 H   0  0  0  0  0  0  0  0  0  0  0  0
  146.7592  135.0963  152.9467 H   0  0  0  0  0  0  0  0  0  0  0  0
  145.4850  134.2874  151.9516 H   0  0  0  0  0  0  0  0  0  0  0  0
  145.3410  132.4279  153.5132 H   0  0  0  0  0  0  0  0  0  0  0  0
  145.9704  133.6067  154.7249 H   0  0  0  0  0  0  0  0  0  0  0  0
  1  2  1  0  0  0  0
  1 21  1  0  0  0  0
  1 22  1  0  0  0  0
  1 23  1  0  0  0  0
  2  3  1  0  0  0  0
  3 20  1  0  0  0  0
  3  4  1  0  0  0  0
  3 18  1  0  0  0  0
  4  5  1  0  0  0  0
  4 24  1  0  0  0  0
  4 25  1  0  0  0  0
  5  6  1  0  0  0  0
  5 26  1  0  0  0  0
  6  7  2  0  0  0  0
  6  8  1  0  0  0  0
  8  9  1  0  0  0  0
  8 27  1  0  0  0  0
  9 17  1  0  0  0  0
  9 10  2  0  0  0  0
 10 11  1  0  0  0  0
 10 28  1  0  0  0  0
 11 12  2  0  0  0  0
 12 13  1  0  0  0  0
 12 16  1  0  0  0  0
 13 15  1  0  0  0  0
 13 14  1  0  0  0  0
 13 29  1  0  0  0  0
 14 15  1  0  0  0  0
 14 30  1  0  0  0  0
 14 31  1  0  0  0  0
 15 32  1  0  0  0  0
 15 33  1  0  0  0  0
 16 17  2  0  0  0  0
 17 34  1  0  0  0  0
 18 19  1  0  0  0  0
 18 35  1  0  0  0  0
 18 36  1  0  0  0  0
 19 20  1  0  0  0  0
 19 37  1  0  0  0  0
 19 38  1  0  0  0  0
 20 39  1  0  0  0  0
 20 40  1  0  0  0  0
M  END
> <s_m_source_file>
AV-unprocessed.smi

> <i_m_source_file_index>
2257

> <i_lp_mmshare_version>
43012

> <i_f3d_flags>
0

> <s_epik_input>
W0NIMl0xW0NIMl1bQ0gyXUMxKE9bQ0gzXSlbQ0gyXVtOSF1DKD1PKVtOSF1jMltjSF1uYyhuW2NIXTIpW0NIXTNbQ0gyXVtDSDJdMw==

> <s_epik_cmdline>
J2VwaWtfcHl0aG9uJywgJy1waCcsICc3LjAnLCAnLXRuJywgJzgnLCAnLW1hJywgJzIwMCcsICctbWV0YWxfYmluZGluZycsICctaW1hZScsICc8aW5maWxlLm1hZT4nLCAnLW9tYWUnLCAnPG91dGZpbGUubWFlPic=

> <r_lp_tautomer_probability>
1

> <r_epik_Ionization_Penalty>
2.49679e-05

> <r_epik_Ionization_Penalty_Charging>
0

> <r_epik_Ionization_Penalty_Neutral>
2.49679e-05

> <r_epik_State_Penalty>
-0

> <r_epik_Charging_Adjusted_Penalty>
0

> <i_epik_Tot_Q>
0

> <i_epik_Tot_abs_Q>
0

> <r_epik_Metal_State_Penalty>
-0

> <b_epik_Metal_Only>
0

> <s_lp_Force_Field>
OPLS_2005

> <r_lp_Energy>
15.4086

> <b_lp_Chiralities_Consistent>
1

> <s_lp_Variant>
AV-unprocessed.smi:2257-1

> <Gold.Version>
5.8.1

> <Gold.Id.Protein>
6NUR|6NUR_protein|mol2

> <Gold.PLP.Fitness>
40.0491

> <Gold.PLP.PLP>
-29.0917

> <Gold.PLP.part.hbond>
-3.0000

> <Gold.PLP.part.metal>
0.0000

> <Gold.PLP.part.buried>
-4.5722

> <Gold.PLP.part.nonpolar>
-21.8294

> <Gold.PLP.part.repulsive>
0.2196

> <Gold.PLP.ligand.clash>
0.0000

> <Gold.PLP.ligand.torsion>
0.5980

> <Gold.PLP.Chemscore.Hbond>
2.8928

> <Gold.PLP.Chemscore.CHOScore>
1.0000

> <Gold.PLP.Chemscore.Metal>
0.0000

> <Gold.Chemscore.Hbonds>
donor molecule, donor type, donor heavy atom, donor atom, acceptor molecule, acceptor atom, score
      L1  H     5    26       P1  7948  0.84
      L1  H     8    27       P1  7948  1.00
      P1  H  7989  7998       L1    11  1.00
      L1  C    10    28       P1  7957  1.00

> <Gold.PLP.Chemscore.Internal.Correction>
0.4750

> <Gold.Rescore>
     Score         DG    S(hbond)    S(metal)    S(lipo)     H(rot)  DE(clash)    DE(int)     intcor
     13.85     -16.42       2.36        0.00      61.55       1.62       0.59       1.99       ----

> <Gold.Chemscore.Fitness>
13.8465

> <Gold.Chemscore.DG>
-16.4235

> <Gold.Chemscore.ZeroCoef>
-5.4800

> <Gold.Chemscore.Hbond>
2.3644

> <Gold.Chemscore.Metal>
0.0000

> <Gold.Chemscore.Lipo>
61.5455

> <Gold.Chemscore.Internal_Hbond>
0.0000

> <Gold.Chemscore.DEClash>
0.5864

> <Gold.Chemscore.DEInternal>
1.9907

> <Gold.Chemscore.Rot>
1.6229

> <Gold.Chemscore.Internal.Correction>
   9.000000E+99

> <Gold.Chemscore.Hbonds>
donor molecule, donor type, donor heavy atom, donor atom, acceptor molecule, acceptor atom, score
      L1  H     5    26       P1  7948  0.14
      L1  H     8    27       P1  7948  0.92
      P1  H  7989  7998       L1    11  0.55

> <Gold.Chemscore.Hbond.Weighted>
-7.8972

> <Gold.Chemscore.Metal.Weighted>
-0.0000

> <Gold.Chemscore.Lipo.Weighted>
-7.2008

> <Gold.Chemscore.Internal_Hbond.Weighted>
0.0000

> <Gold.Chemscore.DEClash.Weighted>
0.5864

> <Gold.Chemscore.DEInternal.Weighted>
1.9907

> <Gold.Chemscore.Rot.Weighted>
4.1545

> <Gold.Chemscore.Internal.Correction.Weighted>
   9.000000E+99

> <Gold.Protein.RotatedTorsions>
[ 6907 6896 6895 6894 ] final  -49.49 input  -60.11 | X-H torsion
[ 7974 7965 7964 7962 ] final -158.96 input  175.53 | X-H torsion
[ 8008 7997 7996 7995 ] final   53.09 input   59.86 | X-H torsion
[ 10167 10162 10161 10158 ] final -160.86 input  -65.29 | X-H torsion
[ 10718 10713 10712 10709 ] final -105.48 input   66.30 | X-H torsion
[ 10763 10752 10751 10750 ] final -114.08 input  -60.55 | X-H torsion
[ 11005 11000 10999 10996 ] final  -42.90 input  -57.11 | X-H torsion

> <Gold.Protein.ActiveResidues>
 VAL166  LYS551  ARG553  GLY616  TRP617  ASP618  TYR619  PRO620  LYS621  CYS622 
 ASP623  PHE694  ASN695  SER759  ASP760  ASP761  ALA762  ILE779  LEU786  VAL792 
 PHE793  MET794  SER795  GLU796  ALA797  LYS798  CYS799  TRP800  GLU811  SER814 

> <Gold.Protein.RotatedAtoms>
  150.8800  134.8189  159.7217 H   0  0  0  0  0  0  0  0  0  0  0  0  # atno 6907 bound_to 6896
  152.4771  134.4811  159.9676 H   0  0  0  0  0  0  0  0  0  0  0  0  # atno 6908 bound_to 6896
  151.4888  133.3491  159.2885 H   0  0  0  0  0  0  0  0  0  0  0  0  # atno 6909 bound_to 6896
  144.7484  140.3753  143.6067 H   0  0  0  0  0  0  0  0  0  0  0  0  # atno 7974 bound_to 7965
  155.4625  140.3462  155.4314 H   0  0  0  0  0  0  0  0  0  0  0  0  # atno 8008 bound_to 7997
  156.1151  140.1471  156.9313 H   0  0  0  0  0  0  0  0  0  0  0  0  # atno 8009 bound_to 7997
  154.4784  140.0878  156.7296 H   0  0  0  0  0  0  0  0  0  0  0  0  # atno 8010 bound_to 7997
  139.6508  144.0088  152.2160 H   0  0  0  0  0  0  0  0  0  0  0  0  # atno 10167 bound_to 10162
  156.0348  130.5566  150.7545 H   0  0  0  0  0  0  0  0  0  0  0  0  # atno 10718 bound_to 10713
  154.8424  135.4431  154.1449 H   0  0  0  0  0  0  0  0  0  0  0  0  # atno 10763 bound_to 10752
  153.2625  135.6937  153.7570 H   0  0  0  0  0  0  0  0  0  0  0  0  # atno 10764 bound_to 10752
  153.6841  135.3398  155.3161 H   0  0  0  0  0  0  0  0  0  0  0  0  # atno 10765 bound_to 10752
  141.0347  133.6805  156.2658 H   0  0  0  0  0  0  0  0  0  0  0  0  # atno 11005 bound_to 11000
  145.7035  139.1667  143.2579 LP  0  0  0  0  0  0  0  0  0  0  0  0  # atno 17320 bound_to 7965
  146.1398  140.7073  142.9372 LP  0  0  0  0  0  0  0  0  0  0  0  0  # atno 17321 bound_to 7965
  139.9802  144.6434  150.7908 LP  0  0  0  0  0  0  0  0  0  0  0  0  # atno 17342 bound_to 10162
  140.7536  143.3012  151.3075 LP  0  0  0  0  0  0  0  0  0  0  0  0  # atno 17343 bound_to 10162
  157.5081  131.0923  151.0232 LP  0  0  0  0  0  0  0  0  0  0  0  0  # atno 17370 bound_to 10713
  157.0595  130.5820  149.5383 LP  0  0  0  0  0  0  0  0  0  0  0  0  # atno 17371 bound_to 10713
  140.6343  134.5231  157.5563 LP  0  0  0  0  0  0  0  0  0  0  0  0  # atno 17394 bound_to 11000
  139.9232  134.8107  156.1146 LP  0  0  0  0  0  0  0  0  0  0  0  0  # atno 17395 bound_to 11000

$$$$
