AV-unprocessed.smi:2881|AV-procd|sdf|11065|dock8
  -GOLD-   2272015543D 1   1.00000     0.00000
 Structure written by MMmdl.
 40 42  0  0  0  0  0  0  0  0  1 V2000
  153.6940  142.8384  163.7025 C   0  0  0  0  0  0  0  0  0  0  0  0
  153.3949  142.6419  162.2455 C   0  0  0  0  0  0  0  0  0  0  0  0
  152.7386  143.5395  161.3532 C   0  0  0  0  0  0  0  0  0  0  0  0
  152.7293  142.8805  160.1555 C   0  0  0  0  0  0  0  0  0  0  0  0
  152.1959  143.2746  158.8151 C   0  0  0  0  0  0  0  0  0  0  0  0
  151.0968  142.3145  158.3602 C   0  0  0  0  0  0  0  0  0  0  0  0
  150.0039  142.3150  158.9262 O   0  0  0  0  0  0  0  0  0  0  0  0
  151.3996  141.5007  157.3375 N   0  0  0  0  0  0  0  0  0  0  0  0
  150.4812  140.5414  156.7294 C   0  0  2  0  0  0  0  0  0  0  0  0
  150.8963  139.0622  156.9327 C   0  0  2  0  0  0  0  0  0  0  0  0
  152.3632  138.8230  156.5150 C   0  0  0  0  0  0  0  0  0  0  0  0
  152.3043  138.9680  154.9830 C   0  0  0  0  0  0  0  0  0  0  0  0
  150.8103  139.2448  154.7232 C   0  0  1  0  0  0  0  0  0  0  0  0
  150.1524  138.3795  155.7920 C   0  0  0  0  0  0  0  0  0  0  0  0
  150.4658  140.6802  155.1841 C   0  0  1  0  0  0  0  0  0  0  0  0
  149.1198  141.1836  154.6286 C   0  0  0  0  0  0  0  0  0  0  0  0
  149.1942  141.3148  153.2244 O   0  0  0  0  0  0  0  0  0  0  0  0
  153.3475  141.6710  160.3801 N   0  0  0  0  0  0  0  0  0  0  0  0
  153.7577  141.5144  161.6523 N   0  0  0  0  0  0  0  0  0  0  0  0
  153.4941  140.9527  159.6852 H   0  0  0  0  0  0  0  0  0  0  0  0
  153.4752  143.8597  164.0149 H   0  0  0  0  0  0  0  0  0  0  0  0
  154.7449  142.6447  163.9188 H   0  0  0  0  0  0  0  0  0  0  0  0
  153.0961  142.1671  164.3191 H   0  0  0  0  0  0  0  0  0  0  0  0
  152.3393  144.5215  161.5601 H   0  0  0  0  0  0  0  0  0  0  0  0
  153.0032  143.2765  158.0819 H   0  0  0  0  0  0  0  0  0  0  0  0
  151.7995  144.2905  158.8436 H   0  0  0  0  0  0  0  0  0  0  0  0
  152.3204  141.5705  156.9294 H   0  0  0  0  0  0  0  0  0  0  0  0
  149.4784  140.6961  157.1333 H   0  0  0  0  0  0  0  0  0  0  0  0
  150.6593  138.6759  157.9246 H   0  0  0  0  0  0  0  0  0  0  0  0
  153.0664  139.5160  156.9765 H   0  0  0  0  0  0  0  0  0  0  0  0
  152.6769  137.8144  156.7873 H   0  0  0  0  0  0  0  0  0  0  0  0
  152.9474  139.7680  154.6144 H   0  0  0  0  0  0  0  0  0  0  0  0
  152.6171  138.0413  154.5005 H   0  0  0  0  0  0  0  0  0  0  0  0
  150.5049  139.0242  153.6999 H   0  0  0  0  0  0  0  0  0  0  0  0
  150.3873  137.3178  155.6946 H   0  0  0  0  0  0  0  0  0  0  0  0
  149.0695  138.4983  155.8485 H   0  0  0  0  0  0  0  0  0  0  0  0
  151.2471  141.3600  154.8382 H   0  0  0  0  0  0  0  0  0  0  0  0
  148.3244  140.4764  154.8643 H   0  0  0  0  0  0  0  0  0  0  0  0
  148.8392  142.1420  155.0657 H   0  0  0  0  0  0  0  0  0  0  0  0
  149.3643  140.4635  152.8508 H   0  0  0  0  0  0  0  0  0  0  0  0
  1 21  1  0  0  0  0
  1 22  1  0  0  0  0
  1 23  1  0  0  0  0
  1  2  1  0  0  0  0
  2 19  2  0  0  0  0
  2  3  1  0  0  0  0
  3  4  2  0  0  0  0
  3 24  1  0  0  0  0
  4 18  1  0  0  0  0
  4  5  1  0  0  0  0
  5  6  1  0  0  0  0
  5 25  1  0  0  0  0
  5 26  1  0  0  0  0
  6  7  2  0  0  0  0
  6  8  1  0  0  0  0
  8  9  1  0  0  0  0
  8 27  1  0  0  0  0
  9 15  1  0  0  0  0
  9 10  1  0  0  0  0
  9 28  1  0  0  0  0
 10 14  1  0  0  0  0
 10 11  1  0  0  0  0
 10 29  1  0  0  0  0
 11 12  1  0  0  0  0
 11 30  1  0  0  0  0
 11 31  1  0  0  0  0
 12 13  1  0  0  0  0
 12 32  1  0  0  0  0
 12 33  1  0  0  0  0
 13 14  1  0  0  0  0
 13 15  1  0  0  0  0
 13 34  1  0  0  0  0
 14 35  1  0  0  0  0
 14 36  1  0  0  0  0
 15 16  1  0  0  0  0
 15 37  1  0  0  0  0
 16 17  1  0  0  0  0
 16 38  1  0  0  0  0
 16 39  1  0  0  0  0
 17 40  1  0  0  0  0
 18 19  1  0  0  0  0
 18 20  1  0  0  0  0
M  END
> <s_m_source_file>
AV-unprocessed.smi

> <i_m_source_file_index>
2881

> <i_lp_mmshare_version>
43012

> <i_f3d_flags>
0

> <s_epik_input>
W0NIM11jMVtjSF1jKG5bbkhdMSlbQ0gyXUMoPU8pW05IXVtDQEhdKFtDQEBIXTIzKVtDQEhdKFtDSDJdW09IXSlbQ0BASF0oW0NIMl0zKVtDSDJdW0NIMl0y

> <s_epik_cmdline>
J2VwaWtfcHl0aG9uJywgJy1waCcsICc3LjAnLCAnLXRuJywgJzgnLCAnLW1hJywgJzIwMCcsICctbWV0YWxfYmluZGluZycsICctaW1hZScsICc8aW5maWxlLm1hZT4nLCAnLW9tYWUnLCAnPG91dGZpbGUubWFlPic=

> <r_lp_tautomer_probability>
0.5

> <r_epik_Ionization_Penalty>
0.00013396

> <r_epik_Ionization_Penalty_Charging>
0

> <r_epik_Ionization_Penalty_Neutral>
0.00013396

> <r_epik_State_Penalty>
0.41068

> <r_epik_Charging_Adjusted_Penalty>
0.41068

> <i_epik_Tot_Q>
0

> <i_epik_Tot_abs_Q>
0

> <r_epik_Metal_State_Penalty>
0.41066

> <b_epik_Metal_Only>
0

> <s_lp_Force_Field>
OPLS_2005

> <r_lp_Energy>
46.7591

> <b_lp_Chiralities_Consistent>
1

> <s_lp_Variant>
AV-unprocessed.smi:2881-11

> <Gold.Version>
5.8.1

> <Gold.Id.Protein>
6NUR|6NUR_protein|mol2

> <Gold.PLP.Fitness>
46.1109

> <Gold.PLP.PLP>
-41.7081

> <Gold.PLP.part.hbond>
-3.5939

> <Gold.PLP.part.metal>
0.0000

> <Gold.PLP.part.buried>
-3.4528

> <Gold.PLP.part.nonpolar>
-32.6474

> <Gold.PLP.part.repulsive>
0.1926

> <Gold.PLP.ligand.clash>
0.0000

> <Gold.PLP.ligand.torsion>
0.1765

> <Gold.PLP.Chemscore.Hbond>
1.5760

> <Gold.PLP.Chemscore.CHOScore>
0.0000

> <Gold.PLP.Chemscore.Metal>
0.0000

> <Gold.Chemscore.Hbonds>
donor molecule, donor type, donor heavy atom, donor atom, acceptor molecule, acceptor atom, score
      L1  H    17    40       P1  7957  0.56
      P1  H  8011  8017       L1    17  1.00

> <Gold.PLP.Chemscore.Internal.Correction>
0.0277

> <Gold.Rescore>
     Score         DG    S(hbond)    S(metal)    S(lipo)     H(rot)  DE(clash)    DE(int)     intcor
     16.21     -16.46       1.26        0.00     107.55       2.28       0.21       0.04       ----

> <Gold.Chemscore.Fitness>
16.2126

> <Gold.Chemscore.DG>
-16.4568

> <Gold.Chemscore.ZeroCoef>
-5.4800

> <Gold.Chemscore.Hbond>
1.2632

> <Gold.Chemscore.Metal>
0.0000

> <Gold.Chemscore.Lipo>
107.5469

> <Gold.Chemscore.Internal_Hbond>
0.0000

> <Gold.Chemscore.DEClash>
0.2059

> <Gold.Chemscore.DEInternal>
0.0382

> <Gold.Chemscore.Rot>
2.2755

> <Gold.Chemscore.Internal.Correction>
   9.000000E+99

> <Gold.Chemscore.Hbonds>
donor molecule, donor type, donor heavy atom, donor atom, acceptor molecule, acceptor atom, score
      L1  H    17    40       P1  7957  0.56
      P1  H  8011  8017       L1    17  0.68

> <Gold.Chemscore.Hbond.Weighted>
-4.2190

> <Gold.Chemscore.Metal.Weighted>
-0.0000

> <Gold.Chemscore.Lipo.Weighted>
-12.5830

> <Gold.Chemscore.Internal_Hbond.Weighted>
0.0000

> <Gold.Chemscore.DEClash.Weighted>
0.2059

> <Gold.Chemscore.DEInternal.Weighted>
0.0382

> <Gold.Chemscore.Rot.Weighted>
5.8252

> <Gold.Chemscore.Internal.Correction.Weighted>
   9.000000E+99

> <Gold.Protein.RotatedTorsions>
[ 6907 6896 6895 6894 ] final   25.82 input  -60.11 | X-H torsion
[ 7974 7965 7964 7962 ] final -173.44 input  175.53 | X-H torsion
[ 8008 7997 7996 7995 ] final   53.14 input   59.86 | X-H torsion
[ 10167 10162 10161 10158 ] final  134.27 input  -65.29 | X-H torsion
[ 10718 10713 10712 10709 ] final  171.76 input   66.30 | X-H torsion
[ 10763 10752 10751 10750 ] final -104.60 input  -60.55 | X-H torsion
[ 11005 11000 10999 10996 ] final   77.73 input  -57.11 | X-H torsion

> <Gold.Protein.ActiveResidues>
 VAL166  LYS551  ARG553  GLY616  TRP617  ASP618  TYR619  PRO620  LYS621  CYS622 
 ASP623  PHE694  ASN695  SER759  ASP760  ASP761  ALA762  ILE779  LEU786  VAL792 
 PHE793  MET794  SER795  GLU796  ALA797  LYS798  CYS799  TRP800  GLU811  SER814 

> <Gold.Protein.RotatedAtoms>
  151.9782  135.0042  160.0555 H   0  0  0  0  0  0  0  0  0  0  0  0  # atno 6907 bound_to 6896
  152.1721  133.4645  159.4922 H   0  0  0  0  0  0  0  0  0  0  0  0  # atno 6908 bound_to 6896
  150.6903  134.1858  159.4309 H   0  0  0  0  0  0  0  0  0  0  0  0  # atno 6909 bound_to 6896
  144.7138  140.1622  143.6375 H   0  0  0  0  0  0  0  0  0  0  0  0  # atno 7974 bound_to 7965
  155.4634  140.3462  155.4316 H   0  0  0  0  0  0  0  0  0  0  0  0  # atno 8008 bound_to 7997
  156.1146  140.1470  156.9320 H   0  0  0  0  0  0  0  0  0  0  0  0  # atno 8009 bound_to 7997
  154.4780  140.0879  156.7288 H   0  0  0  0  0  0  0  0  0  0  0  0  # atno 8010 bound_to 7997
  139.5263  144.6576  151.5115 H   0  0  0  0  0  0  0  0  0  0  0  0  # atno 10167 bound_to 10162
  156.9889  131.0141  151.2862 H   0  0  0  0  0  0  0  0  0  0  0  0  # atno 10718 bound_to 10713
  154.7889  135.4780  154.0009 H   0  0  0  0  0  0  0  0  0  0  0  0  # atno 10763 bound_to 10752
  153.1602  135.6807  153.8761 H   0  0  0  0  0  0  0  0  0  0  0  0  # atno 10764 bound_to 10752
  153.8377  135.3183  155.3402 H   0  0  0  0  0  0  0  0  0  0  0  0  # atno 10765 bound_to 10752
  139.9242  134.7706  156.1559 H   0  0  0  0  0  0  0  0  0  0  0  0  # atno 11005 bound_to 11000
  145.9020  139.2436  143.1488 LP  0  0  0  0  0  0  0  0  0  0  0  0  # atno 17320 bound_to 7965
  145.9801  140.8689  143.0119 LP  0  0  0  0  0  0  0  0  0  0  0  0  # atno 17321 bound_to 7965
  140.6408  143.8892  150.6690 LP  0  0  0  0  0  0  0  0  0  0  0  0  # atno 17342 bound_to 10162
  140.2226  143.3797  152.1630 LP  0  0  0  0  0  0  0  0  0  0  0  0  # atno 17343 bound_to 10162
  157.5473  130.8159  149.8102 LP  0  0  0  0  0  0  0  0  0  0  0  0  # atno 17370 bound_to 10713
  156.0215  130.3794  150.1948 LP  0  0  0  0  0  0  0  0  0  0  0  0  # atno 17371 bound_to 10713
  141.0787  133.6764  156.2291 LP  0  0  0  0  0  0  0  0  0  0  0  0  # atno 17394 bound_to 11000
  140.6384  134.5191  157.5567 LP  0  0  0  0  0  0  0  0  0  0  0  0  # atno 17395 bound_to 11000

$$$$
