AV-unprocessed.smi:3119|AV-procd|sdf|11891|dock2
  -GOLD-   2272017283D 1   1.00000     0.00000
 Structure written by MMmdl.
 32 33  0  0  0  0  0  0  0  0  2 V2000
  152.8079  139.8254  156.4739 O   0  0  0  0  0  0  0  0  0  0  0  0
  151.7874  139.1831  156.2231 C   0  0  0  0  0  0  0  0  0  0  0  0
  150.5684  139.5607  156.6332 N   0  0  0  0  0  0  0  0  0  0  0  0
  150.3044  140.7532  157.4269 C   0  0  0  0  0  0  0  0  0  0  0  0
  150.9632  141.9861  156.7942 C   0  0  0  0  0  0  0  0  0  0  0  0
  151.3324  143.0310  157.8296 C   0  0  0  0  0  0  0  0  0  0  0  0
  152.2838  142.7807  158.8422 C   0  0  0  0  0  0  0  0  0  0  0  0
  152.5893  143.8001  159.7681 C   0  0  0  0  0  0  0  0  0  0  0  0
  151.9390  145.0470  159.6615 C   0  0  0  0  0  0  0  0  0  0  0  0
  150.9982  145.2434  158.6300 C   0  0  0  0  0  0  0  0  0  0  0  0
  150.7329  144.2419  157.7621 N   0  3  0  0  0  0  0  0  0  0  0  0
  151.8536  137.8864  155.4047 C   0  0  0  0  0  0  0  0  0  0  0  0
  150.7367  137.7453  154.3561 C   0  0  0  0  0  0  0  0  0  0  0  0
  150.5684  136.2864  154.7901 C   0  0  0  0  0  0  0  0  0  0  0  0
  151.2698  136.6447  156.1035 C   0  0  0  0  0  0  0  0  0  0  0  0
  149.7785  138.9833  156.3833 H   0  0  0  0  0  0  0  0  0  0  0  0
  149.2268  140.9085  157.5038 H   0  0  0  0  0  0  0  0  0  0  0  0
  150.6819  140.5992  158.4391 H   0  0  0  0  0  0  0  0  0  0  0  0
  151.8623  141.6938  156.2495 H   0  0  0  0  0  0  0  0  0  0  0  0
  150.2906  142.4338  156.0610 H   0  0  0  0  0  0  0  0  0  0  0  0
  152.7767  141.8215  158.9088 H   0  0  0  0  0  0  0  0  0  0  0  0
  153.3147  143.6278  160.5499 H   0  0  0  0  0  0  0  0  0  0  0  0
  152.1594  145.8411  160.3602 H   0  0  0  0  0  0  0  0  0  0  0  0
  150.4551  146.1640  158.4729 H   0  0  0  0  0  0  0  0  0  0  0  0
  152.8400  137.6884  154.9803 H   0  0  0  0  0  0  0  0  0  0  0  0
  149.8518  138.3505  154.5613 H   0  0  0  0  0  0  0  0  0  0  0  0
  151.0697  137.8656  153.3249 H   0  0  0  0  0  0  0  0  0  0  0  0
  149.5337  135.9607  154.9003 H   0  0  0  0  0  0  0  0  0  0  0  0
  151.1484  135.5948  154.1773 H   0  0  0  0  0  0  0  0  0  0  0  0
  152.0152  135.9146  156.4195 H   0  0  0  0  0  0  0  0  0  0  0  0
  150.5656  136.8649  156.9077 H   0  0  0  0  0  0  0  0  0  0  0  0
  150.0502  144.4070  157.0220 H   0  0  0  0  0  0  0  0  0  0  0  0
  1  2  2  0  0  0  0
  2  3  1  0  0  0  0
  2 12  1  0  0  0  0
  3  4  1  0  0  0  0
  3 16  1  0  0  0  0
  4  5  1  0  0  0  0
  4 17  1  0  0  0  0
  4 18  1  0  0  0  0
  5  6  1  0  0  0  0
  5 19  1  0  0  0  0
  5 20  1  0  0  0  0
  6 11  1  0  0  0  0
  6  7  2  0  0  0  0
  7  8  1  0  0  0  0
  7 21  1  0  0  0  0
  8  9  2  0  0  0  0
  8 22  1  0  0  0  0
  9 10  1  0  0  0  0
  9 23  1  0  0  0  0
 10 11  2  0  0  0  0
 10 24  1  0  0  0  0
 11 32  1  0  0  0  0
 12 15  1  0  0  0  0
 12 13  1  0  0  0  0
 12 25  1  0  0  0  0
 13 14  1  0  0  0  0
 13 26  1  0  0  0  0
 13 27  1  0  0  0  0
 14 15  1  0  0  0  0
 14 28  1  0  0  0  0
 14 29  1  0  0  0  0
 15 30  1  0  0  0  0
 15 31  1  0  0  0  0
M  CHG  1  11   1
M  END
> <s_m_source_file>
AV-unprocessed.smi

> <i_m_source_file_index>
3119

> <i_lp_mmshare_version>
43012

> <i_f3d_flags>
0

> <s_epik_input>
W0NIMl0xW0NIMl1bQ0gyXVtDSF0xQyg9TylbTkhdW0NIMl1bQ0gyXWMyW2NIXVtjSF1bY0hdW2NIXW4y

> <s_epik_cmdline>
J2VwaWtfcHl0aG9uJywgJy1waCcsICc3LjAnLCAnLXRuJywgJzgnLCAnLW1hJywgJzIwMCcsICctbWV0YWxfYmluZGluZycsICctaW1hZScsICc8aW5maWxlLm1hZT4nLCAnLW9tYWUnLCAnPG91dGZpbGUubWFlPic=

> <r_epik_Ionization_Penalty>
1.82741

> <r_epik_Ionization_Penalty_Charging>
1.82741

> <r_epik_Ionization_Penalty_Neutral>
1.62845e-08

> <r_epik_State_Penalty>
1.94311

> <r_epik_Charging_Adjusted_Penalty>
3.77052

> <i_epik_Tot_Q>
1

> <i_epik_Tot_abs_Q>
1

> <r_epik_Metal_State_Penalty>
1.96982

> <b_epik_Metal_Only>
0

> <s_lp_Force_Field>
OPLS_2005

> <r_lp_Energy>
15.9357

> <b_lp_Chiralities_Consistent>
1

> <s_lp_Variant>
AV-unprocessed.smi:3119-2

> <Gold.Version>
5.8.1

> <Gold.Id.Protein>
6NUR|6NUR_protein|mol2

> <Gold.PLP.Fitness>
41.0344

> <Gold.PLP.PLP>
-32.5775

> <Gold.PLP.part.hbond>
-1.9979

> <Gold.PLP.part.metal>
0.0000

> <Gold.PLP.part.buried>
-2.9885

> <Gold.PLP.part.nonpolar>
-27.5963

> <Gold.PLP.part.repulsive>
0.0734

> <Gold.PLP.ligand.clash>
0.0000

> <Gold.PLP.ligand.torsion>
0.4778

> <Gold.PLP.Chemscore.Hbond>
3.0000

> <Gold.PLP.Chemscore.CHOScore>
0.0000

> <Gold.PLP.Chemscore.Metal>
0.0000

> <Gold.Chemscore.Hbonds>
donor molecule, donor type, donor heavy atom, donor atom, acceptor molecule, acceptor atom, score
      L1  H    11    32       P1  8028  2.00
      P1  H  7997  8008       L1     1  1.00

> <Gold.PLP.Chemscore.Internal.Correction>
0.4125

> <Gold.Rescore>
     Score         DG    S(hbond)    S(metal)    S(lipo)     H(rot)  DE(clash)    DE(int)     intcor
     17.40     -19.22       1.93        0.00      95.66       1.53       0.10       1.73       ----

> <Gold.Chemscore.Fitness>
17.3989

> <Gold.Chemscore.DG>
-19.2204

> <Gold.Chemscore.ZeroCoef>
-5.4800

> <Gold.Chemscore.Hbond>
1.9338

> <Gold.Chemscore.Metal>
0.0000

> <Gold.Chemscore.Lipo>
95.6638

> <Gold.Chemscore.Internal_Hbond>
0.0000

> <Gold.Chemscore.DEClash>
0.0960

> <Gold.Chemscore.DEInternal>
1.7255

> <Gold.Chemscore.Rot>
1.5278

> <Gold.Chemscore.Internal.Correction>
   9.000000E+99

> <Gold.Chemscore.Hbonds>
donor molecule, donor type, donor heavy atom, donor atom, acceptor molecule, acceptor atom, score
      L1  H    11    32       P1  8028  0.70
      P1  H  7997  8008       L1     1  0.97

> <Gold.Chemscore.Hbond.Weighted>
-6.4588

> <Gold.Chemscore.Metal.Weighted>
-0.0000

> <Gold.Chemscore.Lipo.Weighted>
-11.1927

> <Gold.Chemscore.Internal_Hbond.Weighted>
0.0000

> <Gold.Chemscore.DEClash.Weighted>
0.0960

> <Gold.Chemscore.DEInternal.Weighted>
1.7255

> <Gold.Chemscore.Rot.Weighted>
3.9111

> <Gold.Chemscore.Internal.Correction.Weighted>
   9.000000E+99

> <Gold.Protein.RotatedTorsions>
[ 6907 6896 6895 6894 ] final   80.45 input  -60.11 | X-H torsion
[ 7974 7965 7964 7962 ] final   52.97 input  175.53 | X-H torsion
[ 8008 7997 7996 7995 ] final  -35.31 input   59.86 | X-H torsion
[ 10167 10162 10161 10158 ] final  157.92 input  -65.29 | X-H torsion
[ 10718 10713 10712 10709 ] final   -4.92 input   66.30 | X-H torsion
[ 10763 10752 10751 10750 ] final  -11.68 input  -60.55 | X-H torsion
[ 11005 11000 10999 10996 ] final -126.73 input  -57.11 | X-H torsion

> <Gold.Protein.ActiveResidues>
 VAL166  LYS551  ARG553  GLY616  TRP617  ASP618  TYR619  PRO620  LYS621  CYS622 
 ASP623  PHE694  ASN695  SER759  ASP760  ASP761  ALA762  ILE779  LEU786  VAL792 
 PHE793  MET794  SER795  GLU796  ALA797  LYS798  CYS799  TRP800  GLU811  SER814 

> <Gold.Protein.RotatedAtoms>
  152.5235  134.3355  159.9198 H   0  0  0  0  0  0  0  0  0  0  0  0  # atno 6907 bound_to 6896
  151.3305  133.3996  159.2670 H   0  0  0  0  0  0  0  0  0  0  0  0  # atno 6908 bound_to 6896
  150.9885  134.9242  159.7943 H   0  0  0  0  0  0  0  0  0  0  0  0  # atno 6909 bound_to 6896
  145.9759  139.4194  143.0161 H   0  0  0  0  0  0  0  0  0  0  0  0  # atno 7974 bound_to 7965
  154.4099  140.1661  156.2191 H   0  0  0  0  0  0  0  0  0  0  0  0  # atno 8008 bound_to 7997
  155.9379  140.3410  155.6280 H   0  0  0  0  0  0  0  0  0  0  0  0  # atno 8009 bound_to 7997
  155.7025  140.0747  157.2395 H   0  0  0  0  0  0  0  0  0  0  0  0  # atno 8010 bound_to 7997
  139.4825  144.4872  151.8360 H   0  0  0  0  0  0  0  0  0  0  0  0  # atno 10167 bound_to 10162
  156.7542  130.5249  149.5798 H   0  0  0  0  0  0  0  0  0  0  0  0  # atno 10718 bound_to 10713
  153.4873  135.7017  153.5904 H   0  0  0  0  0  0  0  0  0  0  0  0  # atno 10763 bound_to 10752
  153.4091  135.3853  155.2039 H   0  0  0  0  0  0  0  0  0  0  0  0  # atno 10764 bound_to 10752
  154.8718  135.3900  154.4330 H   0  0  0  0  0  0  0  0  0  0  0  0  # atno 10765 bound_to 10752
  140.9657  134.0874  157.3922 H   0  0  0  0  0  0  0  0  0  0  0  0  # atno 11005 bound_to 11000
  145.7839  140.9844  143.1084 LP  0  0  0  0  0  0  0  0  0  0  0  0  # atno 17320 bound_to 7965
  144.6848  139.9599  143.7480 LP  0  0  0  0  0  0  0  0  0  0  0  0  # atno 17321 bound_to 7965
  140.4353  144.2060  150.5889 LP  0  0  0  0  0  0  0  0  0  0  0  0  # atno 17342 bound_to 10162
  140.4738  143.2403  151.9052 LP  0  0  0  0  0  0  0  0  0  0  0  0  # atno 17343 bound_to 10162
  156.1381  130.6226  151.0429 LP  0  0  0  0  0  0  0  0  0  0  0  0  # atno 17370 bound_to 10713
  157.6764  131.0849  150.7484 LP  0  0  0  0  0  0  0  0  0  0  0  0  # atno 17371 bound_to 10713
  139.8894  135.0104  156.6675 LP  0  0  0  0  0  0  0  0  0  0  0  0  # atno 17394 bound_to 11000
  140.7402  133.8984  155.8272 LP  0  0  0  0  0  0  0  0  0  0  0  0  # atno 17395 bound_to 11000

$$$$
