AV-unprocessed.smi:2942|AV-procd|sdf|11267|dock9
  -GOLD-   2272016163D 1   1.00000     0.00000
 Structure written by MMmdl.
 46 49  0  0  0  0  0  0  0  0  2 V2000
  152.9988  139.6301  157.1850 O   0  0  0  0  0  0  0  0  0  0  0  0
  151.9063  139.9457  157.6573 C   0  0  0  0  0  0  0  0  0  0  0  0
  151.7593  140.2917  158.9471 N   0  0  0  0  0  0  0  0  0  0  0  0
  152.8431  140.4121  159.9173 C   0  0  0  0  0  0  0  0  0  0  0  0
  153.7645  141.6217  159.6504 C   0  0  0  0  0  0  0  0  0  0  0  0
  153.0545  142.9638  159.7192 C   0  0  0  0  0  0  0  0  0  0  0  0
  152.4466  143.4298  160.9048 C   0  0  0  0  0  0  0  0  0  0  0  0
  151.7883  144.6774  160.8976 C   0  0  0  0  0  0  0  0  0  0  0  0
  151.7491  145.4312  159.7059 C   0  0  0  0  0  0  0  0  0  0  0  0
  152.3731  144.9187  158.5503 C   0  0  0  0  0  0  0  0  0  0  0  0
  152.9967  143.7215  158.5991 N   0  3  0  0  0  0  0  0  0  0  0  0
  150.6599  139.9884  156.7431 C   0  0  0  0  0  0  0  0  0  0  0  0
  151.0787  139.5923  155.2998 C   0  0  0  0  0  0  0  0  0  0  0  0
  149.8487  139.5758  154.3679 C   0  0  1  0  0  0  0  0  0  0  0  0
  148.8226  138.5478  154.8879 C   0  0  0  0  0  0  0  0  0  0  0  0
  148.3822  138.9449  156.3124 C   0  0  2  0  0  0  0  0  0  0  0  0
  147.7349  140.3447  156.2820 C   0  0  0  0  0  0  0  0  0  0  0  0
  148.7621  141.3692  155.7573 C   0  0  2  0  0  0  0  0  0  0  0  0
  149.2065  140.9779  154.3327 C   0  0  0  0  0  0  0  0  0  0  0  0
  149.9900  141.3945  156.6919 C   0  0  0  0  0  0  0  0  0  0  0  0
  149.6106  138.9607  157.2483 C   0  0  0  0  0  0  0  0  0  0  0  0
  150.8308  140.5242  159.2698 H   0  0  0  0  0  0  0  0  0  0  0  0
  152.3862  140.5178  160.9015 H   0  0  0  0  0  0  0  0  0  0  0  0
  153.4253  139.4898  159.9465 H   0  0  0  0  0  0  0  0  0  0  0  0
  154.5868  141.6178  160.3667 H   0  0  0  0  0  0  0  0  0  0  0  0
  154.2270  141.5234  158.6673 H   0  0  0  0  0  0  0  0  0  0  0  0
  152.4805  142.8386  161.8085 H   0  0  0  0  0  0  0  0  0  0  0  0
  151.3166  145.0506  161.7948 H   0  0  0  0  0  0  0  0  0  0  0  0
  151.2472  146.3873  159.6789 H   0  0  0  0  0  0  0  0  0  0  0  0
  152.3913  145.4246  157.5959 H   0  0  0  0  0  0  0  0  0  0  0  0
  151.8218  140.2920  154.9142 H   0  0  0  0  0  0  0  0  0  0  0  0
  151.5526  138.6094  155.2896 H   0  0  0  0  0  0  0  0  0  0  0  0
  150.1615  139.2964  153.3614 H   0  0  0  0  0  0  0  0  0  0  0  0
  147.9590  138.5058  154.2228 H   0  0  0  0  0  0  0  0  0  0  0  0
  149.2575  137.5476  154.8919 H   0  0  0  0  0  0  0  0  0  0  0  0
  147.6565  138.2194  156.6810 H   0  0  0  0  0  0  0  0  0  0  0  0
  146.8492  140.3378  155.6454 H   0  0  0  0  0  0  0  0  0  0  0  0
  147.3954  140.6257  157.2797 H   0  0  0  0  0  0  0  0  0  0  0  0
  148.3048  142.3588  155.7339 H   0  0  0  0  0  0  0  0  0  0  0  0
  149.9159  141.7092  153.9432 H   0  0  0  0  0  0  0  0  0  0  0  0
  148.3521  140.9856  153.6545 H   0  0  0  0  0  0  0  0  0  0  0  0
  149.6777  141.7086  157.6894 H   0  0  0  0  0  0  0  0  0  0  0  0
  150.6963  142.1465  156.3362 H   0  0  0  0  0  0  0  0  0  0  0  0
  150.0405  137.9590  157.2982 H   0  0  0  0  0  0  0  0  0  0  0  0
  149.2966  139.2075  158.2638 H   0  0  0  0  0  0  0  0  0  0  0  0
  153.4396  143.3678  157.7505 H   0  0  0  0  0  0  0  0  0  0  0  0
  1  2  2  0  0  0  0
  2  3  1  0  0  0  0
  2 12  1  0  0  0  0
  3  4  1  0  0  0  0
  3 22  1  0  0  0  0
  4  5  1  0  0  0  0
  4 23  1  0  0  0  0
  4 24  1  0  0  0  0
  5  6  1  0  0  0  0
  5 25  1  0  0  0  0
  5 26  1  0  0  0  0
  6 11  1  0  0  0  0
  6  7  2  0  0  0  0
  7  8  1  0  0  0  0
  7 27  1  0  0  0  0
  8  9  2  0  0  0  0
  8 28  1  0  0  0  0
  9 10  1  0  0  0  0
  9 29  1  0  0  0  0
 10 11  2  0  0  0  0
 10 30  1  0  0  0  0
 11 46  1  0  0  0  0
 12 20  1  0  0  0  0
 12 21  1  0  0  0  0
 12 13  1  0  0  0  0
 13 14  1  0  0  0  0
 13 31  1  0  0  0  0
 13 32  1  0  0  0  0
 14 19  1  0  0  0  0
 14 15  1  0  0  0  0
 14 33  1  0  0  0  0
 15 16  1  0  0  0  0
 15 34  1  0  0  0  0
 15 35  1  0  0  0  0
 16 17  1  0  0  0  0
 16 21  1  0  0  0  0
 16 36  1  0  0  0  0
 17 18  1  0  0  0  0
 17 37  1  0  0  0  0
 17 38  1  0  0  0  0
 18 19  1  0  0  0  0
 18 20  1  0  0  0  0
 18 39  1  0  0  0  0
 19 40  1  0  0  0  0
 19 41  1  0  0  0  0
 20 42  1  0  0  0  0
 20 43  1  0  0  0  0
 21 44  1  0  0  0  0
 21 45  1  0  0  0  0
M  CHG  1  11   1
M  END
> <s_m_source_file>
AV-unprocessed.smi

> <i_m_source_file_index>
2942

> <i_lp_mmshare_version>
43012

> <i_f3d_flags>
0

> <s_epik_input>
W0NIMl0xW0NASF0oW0NIMl0yKVtDSDJdW0NASF0oW0NIMl0zKVtDSDJdW0NAQEhdMVtDSDJdQzIzQyg9TylbTkhdW0NIMl1bQ0gyXWM0W2NIXVtjSF1bY0hdW2NIXW40

> <s_epik_cmdline>
J2VwaWtfcHl0aG9uJywgJy1waCcsICc3LjAnLCAnLXRuJywgJzgnLCAnLW1hJywgJzIwMCcsICctbWV0YWxfYmluZGluZycsICctaW1hZScsICc8aW5maWxlLm1hZT4nLCAnLW9tYWUnLCAnPG91dGZpbGUubWFlPic=

> <r_epik_Ionization_Penalty>
1.81477

> <r_epik_Ionization_Penalty_Charging>
1.81477

> <r_epik_Ionization_Penalty_Neutral>
2.68418e-08

> <r_epik_State_Penalty>
1.92951

> <r_epik_Charging_Adjusted_Penalty>
3.74429

> <i_epik_Tot_Q>
1

> <i_epik_Tot_abs_Q>
1

> <r_epik_Metal_State_Penalty>
1.95679

> <b_epik_Metal_Only>
0

> <s_lp_Force_Field>
OPLS_2005

> <r_lp_Energy>
40.8466

> <b_lp_Chiralities_Consistent>
1

> <s_lp_Variant>
AV-unprocessed.smi:2942-2

> <Gold.Version>
5.8.1

> <Gold.Id.Protein>
6NUR|6NUR_protein|mol2

> <Gold.PLP.Fitness>
47.0098

> <Gold.PLP.PLP>
-44.1296

> <Gold.PLP.part.hbond>
-1.0000

> <Gold.PLP.part.metal>
0.0000

> <Gold.PLP.part.buried>
-3.7089

> <Gold.PLP.part.nonpolar>
-39.3005

> <Gold.PLP.part.repulsive>
0.1828

> <Gold.PLP.ligand.clash>
0.0000

> <Gold.PLP.ligand.torsion>
0.0652

> <Gold.PLP.Chemscore.Hbond>
1.0000

> <Gold.PLP.Chemscore.CHOScore>
0.0000

> <Gold.PLP.Chemscore.Metal>
0.0000

> <Gold.Chemscore.Hbonds>
donor molecule, donor type, donor heavy atom, donor atom, acceptor molecule, acceptor atom, score
      P1  H  7997  8009       L1     1  1.00

> <Gold.PLP.Chemscore.Internal.Correction>
0.0107

> <Gold.Rescore>
     Score         DG    S(hbond)    S(metal)    S(lipo)     H(rot)  DE(clash)    DE(int)     intcor
     20.14     -20.31       0.99        0.00     129.33       1.41       0.11       0.06       ----

> <Gold.Chemscore.Fitness>
20.1359

> <Gold.Chemscore.DG>
-20.3085

> <Gold.Chemscore.ZeroCoef>
-5.4800

> <Gold.Chemscore.Hbond>
0.9934

> <Gold.Chemscore.Metal>
0.0000

> <Gold.Chemscore.Lipo>
129.3295

> <Gold.Chemscore.Internal_Hbond>
0.0000

> <Gold.Chemscore.DEClash>
0.1076

> <Gold.Chemscore.DEInternal>
0.0649

> <Gold.Chemscore.Rot>
1.4145

> <Gold.Chemscore.Internal.Correction>
   9.000000E+99

> <Gold.Chemscore.Hbonds>
donor molecule, donor type, donor heavy atom, donor atom, acceptor molecule, acceptor atom, score
      P1  H  7997  8009       L1     1  0.94

> <Gold.Chemscore.Hbond.Weighted>
-3.3180

> <Gold.Chemscore.Metal.Weighted>
-0.0000

> <Gold.Chemscore.Lipo.Weighted>
-15.1316

> <Gold.Chemscore.Internal_Hbond.Weighted>
0.0000

> <Gold.Chemscore.DEClash.Weighted>
0.1076

> <Gold.Chemscore.DEInternal.Weighted>
0.0649

> <Gold.Chemscore.Rot.Weighted>
3.6210

> <Gold.Chemscore.Internal.Correction.Weighted>
   9.000000E+99

> <Gold.Protein.RotatedTorsions>
[ 6907 6896 6895 6894 ] final  -57.43 input  -60.11 | X-H torsion
[ 7974 7965 7964 7962 ] final  -11.83 input  175.53 | X-H torsion
[ 8008 7997 7996 7995 ] final  175.46 input   59.86 | X-H torsion
[ 10167 10162 10161 10158 ] final   50.29 input  -65.29 | X-H torsion
[ 10718 10713 10712 10709 ] final  -51.49 input   66.30 | X-H torsion
[ 10763 10752 10751 10750 ] final  117.32 input  -60.55 | X-H torsion
[ 11005 11000 10999 10996 ] final  -71.59 input  -57.11 | X-H torsion

> <Gold.Protein.ActiveResidues>
 VAL166  LYS551  ARG553  GLY616  TRP617  ASP618  TYR619  PRO620  LYS621  CYS622 
 ASP623  PHE694  ASN695  SER759  ASP760  ASP761  ALA762  ILE779  LEU786  VAL792 
 PHE793  MET794  SER795  GLU796  ALA797  LYS798  CYS799  TRP800  GLU811  SER814 

> <Gold.Protein.RotatedAtoms>
  150.8087  134.7228  159.6667 H   0  0  0  0  0  0  0  0  0  0  0  0  # atno 6907 bound_to 6896
  152.4206  134.5958  159.9996 H   0  0  0  0  0  0  0  0  0  0  0  0  # atno 6908 bound_to 6896
  151.6174  133.3305  159.3116 H   0  0  0  0  0  0  0  0  0  0  0  0  # atno 6909 bound_to 6896
  146.2173  140.2969  142.8372 H   0  0  0  0  0  0  0  0  0  0  0  0  # atno 7974 bound_to 7965
  156.0868  140.1408  156.9643 H   0  0  0  0  0  0  0  0  0  0  0  0  # atno 8008 bound_to 7997
  154.4617  140.0941  156.6959 H   0  0  0  0  0  0  0  0  0  0  0  0  # atno 8009 bound_to 7997
  155.4986  140.3450  155.4369 H   0  0  0  0  0  0  0  0  0  0  0  0  # atno 8010 bound_to 7997
  140.2739  144.3234  150.6282 H   0  0  0  0  0  0  0  0  0  0  0  0  # atno 10167 bound_to 10162
  156.1705  130.4149  149.9654 H   0  0  0  0  0  0  0  0  0  0  0  0  # atno 10718 bound_to 10713
  153.5506  135.3540  155.2758 H   0  0  0  0  0  0  0  0  0  0  0  0  # atno 10763 bound_to 10752
  154.8707  135.4113  154.2941 H   0  0  0  0  0  0  0  0  0  0  0  0  # atno 10764 bound_to 10752
  153.3666  135.7062  153.6739 H   0  0  0  0  0  0  0  0  0  0  0  0  # atno 10765 bound_to 10752
  141.1595  133.6822  156.6929 H   0  0  0  0  0  0  0  0  0  0  0  0  # atno 11005 bound_to 11000
  144.9086  140.7729  143.5822 LP  0  0  0  0  0  0  0  0  0  0  0  0  # atno 17320 bound_to 7965
  145.2898  139.1887  143.4746 LP  0  0  0  0  0  0  0  0  0  0  0  0  # atno 17321 bound_to 7965
  140.5867  143.2169  151.7329 LP  0  0  0  0  0  0  0  0  0  0  0  0  # atno 17342 bound_to 10162
  139.4981  144.4000  152.0191 LP  0  0  0  0  0  0  0  0  0  0  0  0  # atno 17343 bound_to 10162
  156.7455  130.9096  151.3634 LP  0  0  0  0  0  0  0  0  0  0  0  0  # atno 17370 bound_to 10713
  157.6799  130.9130  150.0242 LP  0  0  0  0  0  0  0  0  0  0  0  0  # atno 17371 bound_to 10713
  140.3017  134.8159  157.4103 LP  0  0  0  0  0  0  0  0  0  0  0  0  # atno 17394 bound_to 11000
  140.1256  134.5162  155.8147 LP  0  0  0  0  0  0  0  0  0  0  0  0  # atno 17395 bound_to 11000

$$$$
