AV-unprocessed.smi:2093|AV-procd|sdf|8550|dock6
  -GOLD-   2272011273D 1   1.00000     0.00000
 Structure written by MMmdl.
 30 31  0  0  0  0  0  0  0  0  2 V2000
  152.9056  140.2470  158.7180 C   0  0  0  0  0  0  0  0  0  0  0  0
  151.9101  141.3566  158.3493 C   0  0  2  0  0  0  0  0  0  0  0  0
  151.5609  141.2222  156.9351 N   0  0  0  0  0  0  0  0  0  0  0  0
  150.3749  140.8501  156.4306 C   0  0  0  0  0  0  0  0  0  0  0  0
  149.4386  140.5765  157.1850 O   0  0  0  0  0  0  0  0  0  0  0  0
  150.3459  140.8261  155.0786 N   0  5  0  0  0  0  0  0  0  0  0  0
  149.2513  140.3848  154.4372 C   0  0  0  0  0  0  0  0  0  0  0  0
  149.0678  139.1015  154.1061 N   0  0  0  0  0  0  0  0  0  0  0  0
  147.8647  138.8671  153.4382 C   0  0  0  0  0  0  0  0  0  0  0  0
  147.1183  139.9997  153.2483 C   0  0  0  0  0  0  0  0  0  0  0  0
  147.9091  141.4031  153.9076 S   0  0  0  0  0  0  0  0  0  0  0  0
  152.4863  142.7600  158.6315 C   0  0  1  0  0  0  0  0  0  0  0  0
  151.6926  143.9208  158.0276 C   0  0  0  0  0  0  0  0  0  0  0  0
  152.1141  145.0715  158.9112 C   0  0  0  0  0  0  0  0  0  0  0  0
  152.1916  144.4007  160.2792 C   0  0  0  0  0  0  0  0  0  0  0  0
  152.4960  143.0298  160.0323 O   0  0  0  0  0  0  0  0  0  0  0  0
  153.1652  140.2849  159.7761 H   0  0  0  0  0  0  0  0  0  0  0  0
  153.8292  140.3354  158.1449 H   0  0  0  0  0  0  0  0  0  0  0  0
  152.4837  139.2609  158.5204 H   0  0  0  0  0  0  0  0  0  0  0  0
  151.0221  141.2161  158.9676 H   0  0  0  0  0  0  0  0  0  0  0  0
  152.2903  141.4354  156.2706 H   0  0  0  0  0  0  0  0  0  0  0  0
  147.6208  137.8610  153.1316 H   0  0  0  0  0  0  0  0  0  0  0  0
  146.1589  140.0949  152.7629 H   0  0  0  0  0  0  0  0  0  0  0  0
  153.5173  142.8182  158.2779 H   0  0  0  0  0  0  0  0  0  0  0  0
  151.9152  144.0878  156.9733 H   0  0  0  0  0  0  0  0  0  0  0  0
  150.6200  143.7476  158.1279 H   0  0  0  0  0  0  0  0  0  0  0  0
  153.0992  145.4309  158.6108 H   0  0  0  0  0  0  0  0  0  0  0  0
  151.4195  145.9114  158.8854 H   0  0  0  0  0  0  0  0  0  0  0  0
  152.9383  144.8640  160.9241 H   0  0  0  0  0  0  0  0  0  0  0  0
  151.2271  144.4537  160.7854 H   0  0  0  0  0  0  0  0  0  0  0  0
  1  2  1  0  0  0  0
  1 17  1  0  0  0  0
  1 18  1  0  0  0  0
  1 19  1  0  0  0  0
  2  3  1  0  0  0  0
  2 12  1  0  0  0  0
  2 20  1  0  0  0  0
  3  4  1  0  0  0  0
  3 21  1  0  0  0  0
  4  5  2  0  0  0  0
  4  6  1  0  0  0  0
  6  7  1  0  0  0  0
  7 11  1  0  0  0  0
  7  8  2  0  0  0  0
  8  9  1  0  0  0  0
  9 10  2  0  0  0  0
  9 22  1  0  0  0  0
 10 11  1  0  0  0  0
 10 23  1  0  0  0  0
 12 16  1  0  0  0  0
 12 13  1  0  0  0  0
 12 24  1  0  0  0  0
 13 14  1  0  0  0  0
 13 25  1  0  0  0  0
 13 26  1  0  0  0  0
 14 15  1  0  0  0  0
 14 27  1  0  0  0  0
 14 28  1  0  0  0  0
 15 16  1  0  0  0  0
 15 29  1  0  0  0  0
 15 30  1  0  0  0  0
M  CHG  1   6  -1
M  END
> <s_m_source_file>
AV-unprocessed.smi

> <i_m_source_file_index>
2093

> <i_lp_mmshare_version>
43012

> <i_f3d_flags>
0

> <s_epik_input>
TzFbQ0gyXVtDSDJdW0NIMl1bQ0BIXTFbQ0BIXShbQ0gzXSlbTkhdQyg9TylbTkhdYzJuW2NIXVtjSF1zMg==

> <s_epik_cmdline>
J2VwaWtfcHl0aG9uJywgJy1waCcsICc3LjAnLCAnLXRuJywgJzgnLCAnLW1hJywgJzIwMCcsICctbWV0YWxfYmluZGluZycsICctaW1hZScsICc8aW5maWxlLm1hZT4nLCAnLW9tYWUnLCAnPG91dGZpbGUubWFlPic=

> <r_lp_tautomer_probability>
0.999

> <r_epik_Ionization_Penalty>
8.26346

> <r_epik_Ionization_Penalty_Charging>
6.6559

> <r_epik_Ionization_Penalty_Neutral>
1.60756

> <r_epik_State_Penalty>
6.65607

> <r_epik_Charging_Adjusted_Penalty>
13.312

> <i_epik_Tot_Q>
-1

> <i_epik_Tot_abs_Q>
1

> <r_epik_Metal_State_Penalty>
2.5789

> <b_epik_Metal_Only>
1

> <s_lp_Force_Field>
OPLS_2005

> <r_lp_Energy>
13.8452

> <b_lp_Chiralities_Consistent>
1

> <s_lp_Variant>
AV-unprocessed.smi:2093-7

> <Gold.Version>
5.8.1

> <Gold.Id.Protein>
6NUR|6NUR_protein|mol2

> <Gold.PLP.Fitness>
39.3703

> <Gold.PLP.PLP>
-33.2083

> <Gold.PLP.part.hbond>
-1.0000

> <Gold.PLP.part.metal>
0.0000

> <Gold.PLP.part.buried>
-2.4309

> <Gold.PLP.part.nonpolar>
-29.1561

> <Gold.PLP.part.repulsive>
0.6507

> <Gold.PLP.ligand.clash>
0.0000

> <Gold.PLP.ligand.torsion>
1.0041

> <Gold.PLP.Chemscore.Hbond>
0.7448

> <Gold.PLP.Chemscore.CHOScore>
1.9720

> <Gold.PLP.Chemscore.Metal>
0.0000

> <Gold.Chemscore.Hbonds>
donor molecule, donor type, donor heavy atom, donor atom, acceptor molecule, acceptor atom, score
      P1  H  7989  7998       L1     6  0.78
      L1  C     9    22       P1  7948  0.99
      L1  C    10    23       P1 10175  1.00

> <Gold.PLP.Chemscore.Internal.Correction>
0.0198

> <Gold.Rescore>
     Score         DG    S(hbond)    S(metal)    S(lipo)     H(rot)  DE(clash)    DE(int)     intcor
     13.00     -13.94       0.51        0.00      85.68       1.28       0.07       0.87       ----

> <Gold.Chemscore.Fitness>
13.0043

> <Gold.Chemscore.DG>
-13.9429

> <Gold.Chemscore.ZeroCoef>
-5.4800

> <Gold.Chemscore.Hbond>
0.5120

> <Gold.Chemscore.Metal>
0.0000

> <Gold.Chemscore.Lipo>
85.6754

> <Gold.Chemscore.Internal_Hbond>
0.0000

> <Gold.Chemscore.DEClash>
0.0688

> <Gold.Chemscore.DEInternal>
0.8697

> <Gold.Chemscore.Rot>
1.2778

> <Gold.Chemscore.Internal.Correction>
   9.000000E+99

> <Gold.Chemscore.Hbonds>
donor molecule, donor type, donor heavy atom, donor atom, acceptor molecule, acceptor atom, score
      P1  H  7989  7998       L1     6  0.16

> <Gold.Chemscore.Hbond.Weighted>
-1.7099

> <Gold.Chemscore.Metal.Weighted>
-0.0000

> <Gold.Chemscore.Lipo.Weighted>
-10.0240

> <Gold.Chemscore.Internal_Hbond.Weighted>
0.0000

> <Gold.Chemscore.DEClash.Weighted>
0.0688

> <Gold.Chemscore.DEInternal.Weighted>
0.8697

> <Gold.Chemscore.Rot.Weighted>
3.2711

> <Gold.Chemscore.Internal.Correction.Weighted>
   9.000000E+99

> <Gold.Protein.RotatedTorsions>
[ 6907 6896 6895 6894 ] final  -17.52 input  -60.11 | X-H torsion
[ 7974 7965 7964 7962 ] final   25.65 input  175.53 | X-H torsion
[ 8008 7997 7996 7995 ] final  138.03 input   59.86 | X-H torsion
[ 10167 10162 10161 10158 ] final  108.58 input  -65.29 | X-H torsion
[ 10718 10713 10712 10709 ] final  -98.40 input   66.30 | X-H torsion
[ 10763 10752 10751 10750 ] final -106.58 input  -60.55 | X-H torsion
[ 11005 11000 10999 10996 ] final -124.62 input  -57.11 | X-H torsion

> <Gold.Protein.ActiveResidues>
 VAL166  LYS551  ARG553  GLY616  TRP617  ASP618  TYR619  PRO620  LYS621  CYS622 
 ASP623  PHE694  ASN695  SER759  ASP760  ASP761  ALA762  ILE779  LEU786  VAL792 
 PHE793  MET794  SER795  GLU796  ALA797  LYS798  CYS799  TRP800  GLU811  SER814 

> <Gold.Protein.RotatedAtoms>
  151.2920  135.0744  159.9207 H   0  0  0  0  0  0  0  0  0  0  0  0  # atno 6907 bound_to 6896
  152.5314  133.9921  159.7866 H   0  0  0  0  0  0  0  0  0  0  0  0  # atno 6908 bound_to 6896
  151.0193  133.5840  159.2704 H   0  0  0  0  0  0  0  0  0  0  0  0  # atno 6909 bound_to 6896
  146.1878  139.7436  142.8854 H   0  0  0  0  0  0  0  0  0  0  0  0  # atno 7974 bound_to 7965
  156.2999  140.2404  156.4006 H   0  0  0  0  0  0  0  0  0  0  0  0  # atno 8008 bound_to 7997
  154.8531  140.0423  157.1636 H   0  0  0  0  0  0  0  0  0  0  0  0  # atno 8009 bound_to 7997
  154.8978  140.2972  155.5338 H   0  0  0  0  0  0  0  0  0  0  0  0  # atno 8010 bound_to 7997
  139.6835  144.7116  151.1474 H   0  0  0  0  0  0  0  0  0  0  0  0  # atno 10167 bound_to 10162
  156.0106  130.5236  150.6517 H   0  0  0  0  0  0  0  0  0  0  0  0  # atno 10718 bound_to 10713
  154.8021  135.4707  154.0301 H   0  0  0  0  0  0  0  0  0  0  0  0  # atno 10763 bound_to 10752
  153.1798  135.6839  153.8500 H   0  0  0  0  0  0  0  0  0  0  0  0  # atno 10764 bound_to 10752
  153.8054  135.3224  155.3372 H   0  0  0  0  0  0  0  0  0  0  0  0  # atno 10765 bound_to 10752
  140.9826  134.0651  157.3747 H   0  0  0  0  0  0  0  0  0  0  0  0  # atno 11005 bound_to 11000
  145.3886  141.0369  143.3136 LP  0  0  0  0  0  0  0  0  0  0  0  0  # atno 17320 bound_to 7965
  144.8429  139.5443  143.6892 LP  0  0  0  0  0  0  0  0  0  0  0  0  # atno 17321 bound_to 7965
  140.7660  143.5664  150.9043 LP  0  0  0  0  0  0  0  0  0  0  0  0  # atno 17342 bound_to 10162
  139.9337  143.6462  152.3070 LP  0  0  0  0  0  0  0  0  0  0  0  0  # atno 17343 bound_to 10162
  157.4277  131.0845  151.1069 LP  0  0  0  0  0  0  0  0  0  0  0  0  # atno 17370 bound_to 10713
  157.1652  130.6243  149.5623 LP  0  0  0  0  0  0  0  0  0  0  0  0  # atno 17371 bound_to 10713
  139.8957  135.0142  156.7014 LP  0  0  0  0  0  0  0  0  0  0  0  0  # atno 17394 bound_to 11000
  140.7163  133.9180  155.8117 LP  0  0  0  0  0  0  0  0  0  0  0  0  # atno 17395 bound_to 11000

$$$$
