AV-unprocessed.smi:867|AV-procd|sdf|3994|dock6
  -GOLD-   22720 1473D 1   1.00000     0.00000
 Structure written by MMmdl.
 53 56  0  0  0  0  0  0  0  0  2 V2000
  152.0977  140.2047  155.8890 O   0  0  0  0  0  0  0  0  0  0  0  0
  150.9423  139.9176  155.5745 C   0  0  0  0  0  0  0  0  0  0  0  0
  149.8735  140.4857  156.1604 N   0  0  0  0  0  0  0  0  0  0  0  0
  149.9137  141.4843  157.2263 C   0  0  0  0  0  0  0  0  0  0  0  0
  150.9515  142.5884  156.9494 C   0  0  0  0  0  0  0  0  0  0  0  0
  151.2517  143.4572  158.1583 C   0  0  0  0  0  0  0  0  0  0  0  0
  152.5119  143.4132  158.7899 C   0  0  0  0  0  0  0  0  0  0  0  0
  152.7484  144.2573  159.8915 C   0  0  0  0  0  0  0  0  0  0  0  0
  151.7098  145.1085  160.3185 C   0  0  0  0  0  0  0  0  0  0  0  0
  150.4984  145.1566  159.7240 N   0  0  0  0  0  0  0  0  0  0  0  0
  150.2803  144.3452  158.6672 C   0  0  0  0  0  0  0  0  0  0  0  0
  150.6408  138.9444  154.6802 N   0  0  0  0  0  0  0  0  0  0  0  0
  151.5832  137.9641  154.1253 C   0  0  0  0  0  0  0  0  0  0  0  0
  151.3413  136.6015  154.8006 C   0  0  0  0  0  0  0  0  0  0  0  0
  149.9261  136.1537  154.6534 N   0  3  0  0  0  0  0  0  0  0  0  0
  149.6738  134.8317  155.2960 C   0  0  2  0  0  0  0  0  0  0  0  0
  150.5385  133.6744  154.7378 C   0  0  0  0  0  0  0  0  0  0  0  0
  149.5037  132.5693  154.4520 C   0  0  2  0  0  0  0  0  0  0  0  0
  148.7318  132.9319  153.1721 C   0  0  0  0  0  0  0  0  0  0  0  0
  147.8674  134.1203  153.6295 C   0  0  0  0  0  0  0  0  0  0  0  0
  148.2408  134.2686  155.1209 C   0  0  1  0  0  0  0  0  0  0  0  0
  148.4514  132.8137  155.5269 C   0  0  0  0  0  0  0  0  0  0  0  0
  148.9590  137.2076  155.0748 C   0  0  0  0  0  0  0  0  0  0  0  0
  149.2585  138.5553  154.3947 C   0  0  0  0  0  0  0  0  0  0  0  0
  148.9582  140.1755  155.8690 H   0  0  0  0  0  0  0  0  0  0  0  0
  148.9279  141.9262  157.3798 H   0  0  0  0  0  0  0  0  0  0  0  0
  150.1641  140.9757  158.1574 H   0  0  0  0  0  0  0  0  0  0  0  0
  151.8826  142.1371  156.6052 H   0  0  0  0  0  0  0  0  0  0  0  0
  150.6030  143.2221  156.1328 H   0  0  0  0  0  0  0  0  0  0  0  0
  153.2878  142.7525  158.4325 H   0  0  0  0  0  0  0  0  0  0  0  0
  153.7025  144.2531  160.3969 H   0  0  0  0  0  0  0  0  0  0  0  0
  151.8563  145.7689  161.1603 H   0  0  0  0  0  0  0  0  0  0  0  0
  149.3049  144.4125  158.2084 H   0  0  0  0  0  0  0  0  0  0  0  0
  151.4201  137.8823  153.0495 H   0  0  0  0  0  0  0  0  0  0  0  0
  152.6300  138.2450  154.2407 H   0  0  0  0  0  0  0  0  0  0  0  0
  152.0234  135.8699  154.3689 H   0  0  0  0  0  0  0  0  0  0  0  0
  151.5875  136.6702  155.8616 H   0  0  0  0  0  0  0  0  0  0  0  0
  149.8706  134.9368  156.3648 H   0  0  0  0  0  0  0  0  0  0  0  0
  151.0856  133.9360  153.8315 H   0  0  0  0  0  0  0  0  0  0  0  0
  151.2660  133.3490  155.4824 H   0  0  0  0  0  0  0  0  0  0  0  0
  149.9263  131.5642  154.4368 H   0  0  0  0  0  0  0  0  0  0  0  0
  149.3925  133.1893  152.3432 H   0  0  0  0  0  0  0  0  0  0  0  0
  148.1020  132.1012  152.8508 H   0  0  0  0  0  0  0  0  0  0  0  0
  148.0619  135.0221  153.0490 H   0  0  0  0  0  0  0  0  0  0  0  0
  146.8085  133.8822  153.5206 H   0  0  0  0  0  0  0  0  0  0  0  0
  147.4864  134.7869  155.7135 H   0  0  0  0  0  0  0  0  0  0  0  0
  147.5592  132.1962  155.4069 H   0  0  0  0  0  0  0  0  0  0  0  0
  148.8338  132.6948  156.5424 H   0  0  0  0  0  0  0  0  0  0  0  0
  147.9404  136.9140  154.8237 H   0  0  0  0  0  0  0  0  0  0  0  0
  148.9986  137.3226  156.1592 H   0  0  0  0  0  0  0  0  0  0  0  0
  148.5366  139.3076  154.7167 H   0  0  0  0  0  0  0  0  0  0  0  0
  149.1270  138.4668  153.3153 H   0  0  0  0  0  0  0  0  0  0  0  0
  149.7743  136.0205  153.6639 H   0  0  0  0  0  0  0  0  0  0  0  0
  1  2  2  0  0  0  0
  2  3  1  0  0  0  0
  2 12  1  0  0  0  0
  3  4  1  0  0  0  0
  3 25  1  0  0  0  0
  4  5  1  0  0  0  0
  4 26  1  0  0  0  0
  4 27  1  0  0  0  0
  5  6  1  0  0  0  0
  5 28  1  0  0  0  0
  5 29  1  0  0  0  0
  6 11  1  0  0  0  0
  6  7  2  0  0  0  0
  7  8  1  0  0  0  0
  7 30  1  0  0  0  0
  8  9  2  0  0  0  0
  8 31  1  0  0  0  0
  9 10  1  0  0  0  0
  9 32  1  0  0  0  0
 10 11  2  0  0  0  0
 11 33  1  0  0  0  0
 12 24  1  0  0  0  0
 12 13  1  0  0  0  0
 13 14  1  0  0  0  0
 13 34  1  0  0  0  0
 13 35  1  0  0  0  0
 14 15  1  0  0  0  0
 14 36  1  0  0  0  0
 14 37  1  0  0  0  0
 15 16  1  0  0  0  0
 15 23  1  0  0  0  0
 15 53  1  0  0  0  0
 16 21  1  0  0  0  0
 16 17  1  0  0  0  0
 16 38  1  0  0  0  0
 17 18  1  0  0  0  0
 17 39  1  0  0  0  0
 17 40  1  0  0  0  0
 18 22  1  0  0  0  0
 18 19  1  0  0  0  0
 18 41  1  0  0  0  0
 19 20  1  0  0  0  0
 19 42  1  0  0  0  0
 19 43  1  0  0  0  0
 20 21  1  0  0  0  0
 20 44  1  0  0  0  0
 20 45  1  0  0  0  0
 21 22  1  0  0  0  0
 21 46  1  0  0  0  0
 22 47  1  0  0  0  0
 22 48  1  0  0  0  0
 23 24  1  0  0  0  0
 23 49  1  0  0  0  0
 23 50  1  0  0  0  0
 24 51  1  0  0  0  0
 24 52  1  0  0  0  0
M  CHG  1  15   1
M  END
> <s_m_source_file>
AV-unprocessed.smi

> <i_m_source_file_index>
867

> <i_lp_mmshare_version>
43012

> <i_f3d_flags>
0

> <s_epik_input>
W0NIMl0xW0NIMl1bQ0BASF0oW0NIMl0yKVtDQEBIXShbQ0gyXVtDQEhdMTIpTihbQ0gyXVtDSDJdMylbQ0gyXVtDSDJdTjNDKD1PKVtOSF1bQ0gyXVtDSDJdYzRbY0hdW2NIXVtjSF1uW2NIXTQ=

> <s_epik_cmdline>
J2VwaWtfcHl0aG9uJywgJy1waCcsICc3LjAnLCAnLXRuJywgJzgnLCAnLW1hJywgJzIwMCcsICctbWV0YWxfYmluZGluZycsICctaW1hZScsICc8aW5maWxlLm1hZT4nLCAnLW9tYWUnLCAnPG91dGZpbGUubWFlPic=

> <r_epik_Ionization_Penalty>
0.0161279

> <r_epik_Ionization_Penalty_Charging>
0.00262064

> <r_epik_Ionization_Penalty_Neutral>
0.0135072

> <r_epik_State_Penalty>
0.0104914

> <r_epik_Charging_Adjusted_Penalty>
0.013112

> <i_epik_Tot_Q>
1

> <i_epik_Tot_abs_Q>
1

> <r_epik_Metal_State_Penalty>
0.0102536

> <b_epik_Metal_Only>
0

> <s_lp_Force_Field>
OPLS_2005

> <r_lp_Energy>
96.6143

> <b_lp_Chiralities_Consistent>
1

> <s_lp_Variant>
AV-unprocessed.smi:867-1

> <Gold.Version>
5.8.1

> <Gold.Id.Protein>
6NUR|6NUR_protein|mol2

> <Gold.PLP.Fitness>
50.1736

> <Gold.PLP.PLP>
-42.0653

> <Gold.PLP.part.hbond>
-1.3827

> <Gold.PLP.part.metal>
0.0000

> <Gold.PLP.part.buried>
-3.1859

> <Gold.PLP.part.nonpolar>
-38.4131

> <Gold.PLP.part.repulsive>
0.2565

> <Gold.PLP.ligand.clash>
2.2480

> <Gold.PLP.ligand.torsion>
0.2737

> <Gold.PLP.Chemscore.Hbond>
2.4713

> <Gold.PLP.Chemscore.CHOScore>
1.1222

> <Gold.PLP.Chemscore.Metal>
0.0000

> <Gold.Chemscore.Hbonds>
donor molecule, donor type, donor heavy atom, donor atom, acceptor molecule, acceptor atom, score
      L1  H    15    53       P1  7948  1.80
      P1  H  7997  8010       L1     1  0.41
      L1  C    11    33       P1  8028  0.19
      L1  C    11    33       P1  8029  0.89

> <Gold.PLP.Chemscore.Internal.Correction>
0.1235

> <Gold.Rescore>
     Score         DG    S(hbond)    S(metal)    S(lipo)     H(rot)  DE(clash)    DE(int)     intcor
     18.35     -18.96       0.97        0.00     117.42       1.37       0.45       0.16       ----

> <Gold.Chemscore.Fitness>
18.3455

> <Gold.Chemscore.DG>
-18.9566

> <Gold.Chemscore.ZeroCoef>
-5.4800

> <Gold.Chemscore.Hbond>
0.9740

> <Gold.Chemscore.Metal>
0.0000

> <Gold.Chemscore.Lipo>
117.4231

> <Gold.Chemscore.Internal_Hbond>
0.0000

> <Gold.Chemscore.DEClash>
0.4474

> <Gold.Chemscore.DEInternal>
0.1637

> <Gold.Chemscore.Rot>
1.3731

> <Gold.Chemscore.Internal.Correction>
   9.000000E+99

> <Gold.Chemscore.Hbonds>
donor molecule, donor type, donor heavy atom, donor atom, acceptor molecule, acceptor atom, score
      L1  H    15    53       P1  7948  0.18
      P1  H  7997  8010       L1     1  0.41

> <Gold.Chemscore.Hbond.Weighted>
-3.2532

> <Gold.Chemscore.Metal.Weighted>
-0.0000

> <Gold.Chemscore.Lipo.Weighted>
-13.7385

> <Gold.Chemscore.Internal_Hbond.Weighted>
0.0000

> <Gold.Chemscore.DEClash.Weighted>
0.4474

> <Gold.Chemscore.DEInternal.Weighted>
0.1637

> <Gold.Chemscore.Rot.Weighted>
3.5152

> <Gold.Chemscore.Internal.Correction.Weighted>
   9.000000E+99

> <Gold.Protein.RotatedTorsions>
[ 6907 6896 6895 6894 ] final -116.64 input  -60.11 | X-H torsion
[ 7974 7965 7964 7962 ] final -171.46 input  175.53 | X-H torsion
[ 8008 7997 7996 7995 ] final   85.66 input   59.86 | X-H torsion
[ 10167 10162 10161 10158 ] final  -22.61 input  -65.29 | X-H torsion
[ 10718 10713 10712 10709 ] final  152.12 input   66.30 | X-H torsion
[ 10763 10752 10751 10750 ] final -152.72 input  -60.55 | X-H torsion
[ 11005 11000 10999 10996 ] final -128.69 input  -57.11 | X-H torsion

> <Gold.Protein.ActiveResidues>
 VAL166  LYS551  ARG553  GLY616  TRP617  ASP618  TYR619  PRO620  LYS621  CYS622 
 ASP623  PHE694  ASN695  SER759  ASP760  ASP761  ALA762  ILE779  LEU786  VAL792 
 PHE793  MET794  SER795  GLU796  ALA797  LYS798  CYS799  TRP800  GLU811  SER814 

> <Gold.Protein.RotatedAtoms>
  150.8072  133.8488  159.3199 H   0  0  0  0  0  0  0  0  0  0  0  0  # atno 6907 bound_to 6896
  151.6283  135.1023  160.0126 H   0  0  0  0  0  0  0  0  0  0  0  0  # atno 6908 bound_to 6896
  152.4163  133.7004  159.6477 H   0  0  0  0  0  0  0  0  0  0  0  0  # atno 6909 bound_to 6896
  144.7157  140.1918  143.6347 H   0  0  0  0  0  0  0  0  0  0  0  0  # atno 7974 bound_to 7965
  155.9529  140.3399  155.6423 H   0  0  0  0  0  0  0  0  0  0  0  0  # atno 8008 bound_to 7997
  155.6897  140.0747  157.2471 H   0  0  0  0  0  0  0  0  0  0  0  0  # atno 8009 bound_to 7997
  154.4126  140.1659  156.2060 H   0  0  0  0  0  0  0  0  0  0  0  0  # atno 8010 bound_to 7997
  140.7286  143.4518  151.0505 H   0  0  0  0  0  0  0  0  0  0  0  0  # atno 10167 bound_to 10162
  157.2619  131.0800  151.1660 H   0  0  0  0  0  0  0  0  0  0  0  0  # atno 10718 bound_to 10713
  154.7976  135.3229  154.7629 H   0  0  0  0  0  0  0  0  0  0  0  0  # atno 10763 bound_to 10752
  153.8305  135.6880  153.4819 H   0  0  0  0  0  0  0  0  0  0  0  0  # atno 10764 bound_to 10752
  153.1675  135.4636  154.9799 H   0  0  0  0  0  0  0  0  0  0  0  0  # atno 10765 bound_to 10752
  140.9495  134.1085  157.4075 H   0  0  0  0  0  0  0  0  0  0  0  0  # atno 11005 bound_to 11000
  145.8761  139.2298  143.1633 LP  0  0  0  0  0  0  0  0  0  0  0  0  # atno 17320 bound_to 7965
  146.0039  140.8496  143.0004 LP  0  0  0  0  0  0  0  0  0  0  0  0  # atno 17321 bound_to 7965
  139.8195  143.7839  152.3176 LP  0  0  0  0  0  0  0  0  0  0  0  0  # atno 17342 bound_to 10162
  139.7917  144.7408  150.9946 LP  0  0  0  0  0  0  0  0  0  0  0  0  # atno 17343 bound_to 10162
  157.3166  130.6916  149.6245 LP  0  0  0  0  0  0  0  0  0  0  0  0  # atno 17370 bound_to 10713
  155.9664  130.4348  150.5063 LP  0  0  0  0  0  0  0  0  0  0  0  0  # atno 17371 bound_to 10713
  139.8843  135.0061  156.6361 LP  0  0  0  0  0  0  0  0  0  0  0  0  # atno 17394 bound_to 11000
  140.7622  133.8808  155.8427 LP  0  0  0  0  0  0  0  0  0  0  0  0  # atno 17395 bound_to 11000

$$$$
