AV-unprocessed.smi:2986|AV-procd|sdf|11382|dock2
  -GOLD-   2272016303D 1   1.00000     0.00000
 Structure written by MMmdl.
 43 45  0  0  0  0  0  0  0  0  2 V2000
  147.6227  141.7114  154.2594 C   0  0  0  0  0  0  0  0  0  0  0  0
  148.9997  141.4396  154.4531 O   0  0  0  0  0  0  0  0  0  0  0  0
  149.3251  141.2301  155.8157 C   0  0  0  0  0  0  0  0  0  0  0  0
  150.8479  141.1094  155.9420 C   0  0  0  0  0  0  0  0  0  0  0  0
  151.2710  140.9045  157.3332 N   0  0  0  0  0  0  0  0  0  0  0  0
  151.4011  139.7605  158.0598 C   0  0  0  0  0  0  0  0  0  0  0  0
  151.0845  138.1209  157.4960 S   0  0  0  0  0  0  0  0  0  0  0  0
  149.3272  138.1342  157.0390 C   0  0  0  0  0  0  0  0  0  0  0  0
  148.4037  137.9375  158.2411 C   0  0  0  0  0  0  0  0  0  0  0  0
  147.5204  138.7642  158.4634 O   0  0  0  0  0  0  0  0  0  0  0  0
  148.6466  136.8484  158.9924 N   0  0  0  0  0  0  0  0  0  0  0  0
  148.0095  136.4431  160.1921 C   0  0  0  0  0  0  0  0  0  0  0  0
  147.8189  135.1022  160.6355 C   0  0  0  0  0  0  0  0  0  0  0  0
  147.1699  135.2638  161.8269 C   0  0  0  0  0  0  0  0  0  0  0  0
  146.6606  134.3006  162.8434 C   0  0  0  0  0  0  0  0  0  0  0  0
  146.9793  136.5851  162.0874 O   0  0  0  0  0  0  0  0  0  0  0  0
  147.5218  137.3331  161.0362 N   0  0  0  0  0  0  0  0  0  0  0  0
  151.8560  140.1018  159.2962 N   0  3  0  0  0  0  0  0  0  0  0  0
  152.0066  141.4877  159.3683 C   0  0  0  0  0  0  0  0  0  0  0  0
  152.4349  142.3048  160.4102 C   0  0  0  0  0  0  0  0  0  0  0  0
  152.4719  143.6910  160.1529 C   0  0  0  0  0  0  0  0  0  0  0  0
  152.0932  144.2164  158.9002 C   0  0  0  0  0  0  0  0  0  0  0  0
  151.6630  143.3786  157.8501 C   0  0  0  0  0  0  0  0  0  0  0  0
  151.6295  142.0095  158.1124 C   0  0  0  0  0  0  0  0  0  0  0  0
  147.4269  141.8740  153.1996 H   0  0  0  0  0  0  0  0  0  0  0  0
  147.3174  142.6088  154.7991 H   0  0  0  0  0  0  0  0  0  0  0  0
  147.0055  140.8757  154.5918 H   0  0  0  0  0  0  0  0  0  0  0  0
  148.9585  142.0628  156.4181 H   0  0  0  0  0  0  0  0  0  0  0  0
  148.8452  140.3205  156.1806 H   0  0  0  0  0  0  0  0  0  0  0  0
  151.2083  140.2660  155.3527 H   0  0  0  0  0  0  0  0  0  0  0  0
  151.3479  141.9952  155.5488 H   0  0  0  0  0  0  0  0  0  0  0  0
  149.0995  139.0844  156.5541 H   0  0  0  0  0  0  0  0  0  0  0  0
  149.1426  137.3493  156.3052 H   0  0  0  0  0  0  0  0  0  0  0  0
  149.4121  136.2623  158.6920 H   0  0  0  0  0  0  0  0  0  0  0  0
  148.1055  134.1689  160.1748 H   0  0  0  0  0  0  0  0  0  0  0  0
  146.8916  133.2742  162.5582 H   0  0  0  0  0  0  0  0  0  0  0  0
  145.5793  134.3877  162.9500 H   0  0  0  0  0  0  0  0  0  0  0  0
  147.1137  134.4908  163.8165 H   0  0  0  0  0  0  0  0  0  0  0  0
  152.7257  141.9051  161.3707 H   0  0  0  0  0  0  0  0  0  0  0  0
  152.7968  144.3652  160.9322 H   0  0  0  0  0  0  0  0  0  0  0  0
  152.1336  145.2842  158.7407 H   0  0  0  0  0  0  0  0  0  0  0  0
  151.3743  143.7904  156.8943 H   0  0  0  0  0  0  0  0  0  0  0  0
  152.0486  139.4352  160.0326 H   0  0  0  0  0  0  0  0  0  0  0  0
  1  2  1  0  0  0  0
  1 25  1  0  0  0  0
  1 26  1  0  0  0  0
  1 27  1  0  0  0  0
  2  3  1  0  0  0  0
  3  4  1  0  0  0  0
  3 28  1  0  0  0  0
  3 29  1  0  0  0  0
  4  5  1  0  0  0  0
  4 30  1  0  0  0  0
  4 31  1  0  0  0  0
  5 24  1  0  0  0  0
  5  6  1  0  0  0  0
  6  7  1  0  0  0  0
  6 18  2  0  0  0  0
  7  8  1  0  0  0  0
  8  9  1  0  0  0  0
  8 32  1  0  0  0  0
  8 33  1  0  0  0  0
  9 10  2  0  0  0  0
  9 11  1  0  0  0  0
 11 12  1  0  0  0  0
 11 34  1  0  0  0  0
 12 17  2  0  0  0  0
 12 13  1  0  0  0  0
 13 14  2  0  0  0  0
 13 35  1  0  0  0  0
 14 15  1  0  0  0  0
 14 16  1  0  0  0  0
 15 36  1  0  0  0  0
 15 37  1  0  0  0  0
 15 38  1  0  0  0  0
 16 17  1  0  0  0  0
 18 19  1  0  0  0  0
 18 43  1  0  0  0  0
 19 24  2  0  0  0  0
 19 20  1  0  0  0  0
 20 21  2  0  0  0  0
 20 39  1  0  0  0  0
 21 22  1  0  0  0  0
 21 40  1  0  0  0  0
 22 23  2  0  0  0  0
 22 41  1  0  0  0  0
 23 24  1  0  0  0  0
 23 42  1  0  0  0  0
M  CHG  1  18   1
M  END
> <s_m_source_file>
AV-unprocessed.smi

> <i_m_source_file_index>
2986

> <i_lp_mmshare_version>
43012

> <i_f3d_flags>
0

> <s_epik_input>
W2NIXTFbY0hdW2NIXVtjSF1jKGMxMiluKFtDSDJdW0NIMl1PW0NIM10pYyhuMilTW0NIMl1DKD1PKVtOSF1jM1tjSF1jKFtDSDNdKW9uMw==

> <s_epik_cmdline>
J2VwaWtfcHl0aG9uJywgJy1waCcsICc3LjAnLCAnLXRuJywgJzgnLCAnLW1hJywgJzIwMCcsICctbWV0YWxfYmluZGluZycsICctaW1hZScsICc8aW5maWxlLm1hZT4nLCAnLW9tYWUnLCAnPG91dGZpbGUubWFlPic=

> <r_epik_Ionization_Penalty>
1.88527

> <r_epik_Ionization_Penalty_Charging>
1.88465

> <r_epik_Ionization_Penalty_Neutral>
0.000624705

> <r_epik_State_Penalty>
2.00469

> <r_epik_Charging_Adjusted_Penalty>
3.88934

> <i_epik_Tot_Q>
1

> <i_epik_Tot_abs_Q>
1

> <r_epik_Metal_State_Penalty>
2.24687

> <b_epik_Metal_Only>
0

> <s_lp_Force_Field>
OPLS_2005

> <r_lp_Energy>
12.3116

> <b_lp_Chiralities_Consistent>
1

> <s_lp_Variant>
AV-unprocessed.smi:2986-2

> <Gold.Version>
5.8.1

> <Gold.Id.Protein>
6NUR|6NUR_protein|mol2

> <Gold.PLP.Fitness>
52.1112

> <Gold.PLP.PLP>
-47.9270

> <Gold.PLP.part.hbond>
-3.7885

> <Gold.PLP.part.metal>
0.0000

> <Gold.PLP.part.buried>
-7.5479

> <Gold.PLP.part.nonpolar>
-37.8866

> <Gold.PLP.part.repulsive>
0.4741

> <Gold.PLP.ligand.clash>
0.0000

> <Gold.PLP.ligand.torsion>
0.7181

> <Gold.PLP.Chemscore.Hbond>
1.8176

> <Gold.PLP.Chemscore.CHOScore>
0.0000

> <Gold.PLP.Chemscore.Metal>
0.0000

> <Gold.Chemscore.Hbonds>
donor molecule, donor type, donor heavy atom, donor atom, acceptor molecule, acceptor atom, score
      P1  H  6931  6943       L1    17  0.80
      P1  H  6934  6947       L1    17  0.96

> <Gold.PLP.Chemscore.Internal.Correction>
0.1677

> <Gold.Rescore>
     Score         DG    S(hbond)    S(metal)    S(lipo)     H(rot)  DE(clash)    DE(int)     intcor
     16.44     -17.36       1.52        0.00     109.46       2.35       0.03       0.89       ----

> <Gold.Chemscore.Fitness>
16.4419

> <Gold.Chemscore.DG>
-17.3599

> <Gold.Chemscore.ZeroCoef>
-5.4800

> <Gold.Chemscore.Hbond>
1.5200

> <Gold.Chemscore.Metal>
0.0000

> <Gold.Chemscore.Lipo>
109.4625

> <Gold.Chemscore.Internal_Hbond>
0.0000

> <Gold.Chemscore.DEClash>
0.0310

> <Gold.Chemscore.DEInternal>
0.8871

> <Gold.Chemscore.Rot>
2.3453

> <Gold.Chemscore.Internal.Correction>
   9.000000E+99

> <Gold.Chemscore.Hbonds>
donor molecule, donor type, donor heavy atom, donor atom, acceptor molecule, acceptor atom, score
      P1  H  6931  6943       L1    17  0.22
      P1  H  6934  6947       L1    17  0.90

> <Gold.Chemscore.Hbond.Weighted>
-5.0769

> <Gold.Chemscore.Metal.Weighted>
-0.0000

> <Gold.Chemscore.Lipo.Weighted>
-12.8071

> <Gold.Chemscore.Internal_Hbond.Weighted>
0.0000

> <Gold.Chemscore.DEClash.Weighted>
0.0310

> <Gold.Chemscore.DEInternal.Weighted>
0.8871

> <Gold.Chemscore.Rot.Weighted>
6.0040

> <Gold.Chemscore.Internal.Correction.Weighted>
   9.000000E+99

> <Gold.Protein.RotatedTorsions>
[ 6907 6896 6895 6894 ] final   94.44 input  -60.11 | X-H torsion
[ 7974 7965 7964 7962 ] final  115.19 input  175.53 | X-H torsion
[ 8008 7997 7996 7995 ] final  -99.49 input   59.86 | X-H torsion
[ 10167 10162 10161 10158 ] final  -85.71 input  -65.29 | X-H torsion
[ 10718 10713 10712 10709 ] final -102.24 input   66.30 | X-H torsion
[ 10763 10752 10751 10750 ] final -165.85 input  -60.55 | X-H torsion
[ 11005 11000 10999 10996 ] final -120.22 input  -57.11 | X-H torsion

> <Gold.Protein.ActiveResidues>
 VAL166  LYS551  ARG553  GLY616  TRP617  ASP618  TYR619  PRO620  LYS621  CYS622 
 ASP623  PHE694  ASN695  SER759  ASP760  ASP761  ALA762  ILE779  LEU786  VAL792 
 PHE793  MET794  SER795  GLU796  ALA797  LYS798  CYS799  TRP800  GLU811  SER814 

> <Gold.Protein.RotatedAtoms>
  152.5449  134.1193  159.8391 H   0  0  0  0  0  0  0  0  0  0  0  0  # atno 6907 bound_to 6896
  151.1250  133.5069  159.2608 H   0  0  0  0  0  0  0  0  0  0  0  0  # atno 6908 bound_to 6896
  151.1737  135.0339  159.8817 H   0  0  0  0  0  0  0  0  0  0  0  0  # atno 6909 bound_to 6896
  145.1951  139.2980  143.4348 H   0  0  0  0  0  0  0  0  0  0  0  0  # atno 7974 bound_to 7965
  154.8156  140.0447  157.1374 H   0  0  0  0  0  0  0  0  0  0  0  0  # atno 8008 bound_to 7997
  154.9319  140.3041  155.5144 H   0  0  0  0  0  0  0  0  0  0  0  0  # atno 8009 bound_to 7997
  156.2975  140.2321  156.4379 H   0  0  0  0  0  0  0  0  0  0  0  0  # atno 8010 bound_to 7997
  140.4011  143.2662  151.9141 H   0  0  0  0  0  0  0  0  0  0  0  0  # atno 10167 bound_to 10162
  156.0222  130.5411  150.7080 H   0  0  0  0  0  0  0  0  0  0  0  0  # atno 10718 bound_to 10713
  154.6891  135.2967  154.9505 H   0  0  0  0  0  0  0  0  0  0  0  0  # atno 10763 bound_to 10752
  154.0475  135.6649  153.4800 H   0  0  0  0  0  0  0  0  0  0  0  0  # atno 10764 bound_to 10752
  153.0599  135.5122  154.7974 H   0  0  0  0  0  0  0  0  0  0  0  0  # atno 10765 bound_to 10752
  141.0159  134.0196  157.3350 H   0  0  0  0  0  0  0  0  0  0  0  0  # atno 11005 bound_to 11000
  146.3429  140.2176  142.8591 LP  0  0  0  0  0  0  0  0  0  0  0  0  # atno 17320 bound_to 7965
  145.0003  140.8626  143.5286 LP  0  0  0  0  0  0  0  0  0  0  0  0  # atno 17321 bound_to 7965
  139.4785  144.5633  151.8205 LP  0  0  0  0  0  0  0  0  0  0  0  0  # atno 17342 bound_to 10162
  140.4739  144.1547  150.5922 LP  0  0  0  0  0  0  0  0  0  0  0  0  # atno 17343 bound_to 10162
  157.4725  131.0894  151.0627 LP  0  0  0  0  0  0  0  0  0  0  0  0  # atno 17370 bound_to 10713
  157.1083  130.6011  149.5476 LP  0  0  0  0  0  0  0  0  0  0  0  0  # atno 17371 bound_to 10713
  139.9117  135.0191  156.7717 LP  0  0  0  0  0  0  0  0  0  0  0  0  # atno 17394 bound_to 11000
  140.6656  133.9606  155.7828 LP  0  0  0  0  0  0  0  0  0  0  0  0  # atno 17395 bound_to 11000

$$$$
