AV-unprocessed.smi:1059|AV-procd|sdf|4655|dock5
  -GOLD-   22720 3163D 1   1.00000     0.00000
 Structure written by MMmdl.
 54 55  0  0  0  0  0  0  0  0  1 V2000
  152.2224  138.7532  159.1102 C   0  0  0  0  0  0  0  0  0  0  0  0
  151.9761  139.7542  157.9706 C   0  0  0  0  0  0  0  0  0  0  0  0
  151.5736  141.1240  158.5491 C   0  0  0  0  0  0  0  0  0  0  0  0
  150.9313  139.1956  156.9731 C   0  0  0  0  0  0  0  0  0  0  0  0
  150.6513  140.0731  155.7365 C   0  0  0  0  0  0  0  0  0  0  0  0
  151.4828  140.1127  154.8281 O   0  0  0  0  0  0  0  0  0  0  0  0
  149.4919  140.7741  155.6782 N   0  0  0  0  0  0  0  0  0  0  0  0
  149.1338  141.6185  154.5317 C   0  0  0  0  0  0  0  0  0  0  0  0
  147.9954  140.9417  153.7477 C   0  0  0  0  0  0  0  0  0  0  0  0
  146.7792  140.6566  154.6544 C   0  0  0  0  0  0  0  0  0  0  0  0
  145.8022  139.8568  153.9214 N   0  0  0  0  0  0  0  0  0  0  0  0
  145.9809  138.5909  153.5171 C   0  0  0  0  0  0  0  0  0  0  0  0
  147.0167  137.9548  153.7110 O   0  0  0  0  0  0  0  0  0  0  0  0
  144.8825  138.1182  152.9038 N   0  0  0  0  0  0  0  0  0  0  0  0
  144.6829  136.8383  152.3204 C   0  0  0  0  0  0  0  0  0  0  0  0
  145.7737  136.2268  151.6703 C   0  0  0  0  0  0  0  0  0  0  0  0
  145.6065  134.9501  151.1014 C   0  0  0  0  0  0  0  0  0  0  0  0
  144.3514  134.3178  151.2135 C   0  0  0  0  0  0  0  0  0  0  0  0
  144.1738  133.0464  150.6502 N   0  0  0  0  0  0  0  0  0  0  0  0
  144.1888  133.0582  149.1951 C   0  0  0  0  0  0  0  0  0  0  0  0
  144.9915  132.0264  151.2892 C   0  0  0  0  0  0  0  0  0  0  0  0
  143.3013  134.8891  151.8493 N   0  0  0  0  0  0  0  0  0  0  0  0
  143.4668  136.1158  152.3892 C   0  0  0  0  0  0  0  0  0  0  0  0
  147.2065  139.9455  155.9594 C   0  0  0  0  0  0  0  0  0  0  0  0
  148.3817  140.6747  156.6352 C   0  0  0  0  0  0  0  0  0  0  0  0
  151.3126  138.5739  159.6842 H   0  0  0  0  0  0  0  0  0  0  0  0
  152.9837  139.1209  159.7991 H   0  0  0  0  0  0  0  0  0  0  0  0
  152.5676  137.7931  158.7252 H   0  0  0  0  0  0  0  0  0  0  0  0
  152.9262  139.8764  157.4483 H   0  0  0  0  0  0  0  0  0  0  0  0
  150.6275  141.0623  159.0872 H   0  0  0  0  0  0  0  0  0  0  0  0
  151.4639  141.8808  157.7731 H   0  0  0  0  0  0  0  0  0  0  0  0
  152.3266  141.4888  159.2482 H   0  0  0  0  0  0  0  0  0  0  0  0
  151.2700  138.2255  156.6072 H   0  0  0  0  0  0  0  0  0  0  0  0
  149.9984  139.0246  157.5116 H   0  0  0  0  0  0  0  0  0  0  0  0
  148.8128  142.5978  154.8901 H   0  0  0  0  0  0  0  0  0  0  0  0
  149.9773  141.8113  153.8673 H   0  0  0  0  0  0  0  0  0  0  0  0
  147.6975  141.5703  152.9078 H   0  0  0  0  0  0  0  0  0  0  0  0
  148.3655  140.0085  153.3196 H   0  0  0  0  0  0  0  0  0  0  0  0
  146.3284  141.6162  154.9156 H   0  0  0  0  0  0  0  0  0  0  0  0
  144.9176  140.2988  153.7179 H   0  0  0  0  0  0  0  0  0  0  0  0
  144.0760  138.7252  152.9040 H   0  0  0  0  0  0  0  0  0  0  0  0
  146.7273  136.7295  151.6015 H   0  0  0  0  0  0  0  0  0  0  0  0
  146.4268  134.4666  150.5911 H   0  0  0  0  0  0  0  0  0  0  0  0
  143.5301  133.8359  148.8068 H   0  0  0  0  0  0  0  0  0  0  0  0
  143.8428  132.0999  148.8072 H   0  0  0  0  0  0  0  0  0  0  0  0
  145.1958  133.2367  148.8157 H   0  0  0  0  0  0  0  0  0  0  0  0
  144.9060  132.0828  152.3751 H   0  0  0  0  0  0  0  0  0  0  0  0
  146.0416  132.1429  151.0191 H   0  0  0  0  0  0  0  0  0  0  0  0
  144.6670  131.0335  150.9774 H   0  0  0  0  0  0  0  0  0  0  0  0
  142.6016  136.5035  152.9042 H   0  0  0  0  0  0  0  0  0  0  0  0
  146.3645  139.8852  156.6500 H   0  0  0  0  0  0  0  0  0  0  0  0
  147.5018  138.9178  155.7420 H   0  0  0  0  0  0  0  0  0  0  0  0
  148.6397  140.1663  157.5621 H   0  0  0  0  0  0  0  0  0  0  0  0
  148.0749  141.6785  156.9324 H   0  0  0  0  0  0  0  0  0  0  0  0
  1  2  1  0  0  0  0
  1 26  1  0  0  0  0
  1 27  1  0  0  0  0
  1 28  1  0  0  0  0
  2  3  1  0  0  0  0
  2  4  1  0  0  0  0
  2 29  1  0  0  0  0
  3 30  1  0  0  0  0
  3 31  1  0  0  0  0
  3 32  1  0  0  0  0
  4  5  1  0  0  0  0
  4 33  1  0  0  0  0
  4 34  1  0  0  0  0
  5  6  2  0  0  0  0
  5  7  1  0  0  0  0
  7 25  1  0  0  0  0
  7  8  1  0  0  0  0
  8  9  1  0  0  0  0
  8 35  1  0  0  0  0
  8 36  1  0  0  0  0
  9 10  1  0  0  0  0
  9 37  1  0  0  0  0
  9 38  1  0  0  0  0
 10 11  1  0  0  0  0
 10 24  1  0  0  0  0
 10 39  1  0  0  0  0
 11 12  1  0  0  0  0
 11 40  1  0  0  0  0
 12 13  2  0  0  0  0
 12 14  1  0  0  0  0
 14 15  1  0  0  0  0
 14 41  1  0  0  0  0
 15 23  1  0  0  0  0
 15 16  2  0  0  0  0
 16 17  1  0  0  0  0
 16 42  1  0  0  0  0
 17 18  2  0  0  0  0
 17 43  1  0  0  0  0
 18 19  1  0  0  0  0
 18 22  1  0  0  0  0
 19 20  1  0  0  0  0
 19 21  1  0  0  0  0
 20 44  1  0  0  0  0
 20 45  1  0  0  0  0
 20 46  1  0  0  0  0
 21 47  1  0  0  0  0
 21 48  1  0  0  0  0
 21 49  1  0  0  0  0
 22 23  2  0  0  0  0
 23 50  1  0  0  0  0
 24 25  1  0  0  0  0
 24 51  1  0  0  0  0
 24 52  1  0  0  0  0
 25 53  1  0  0  0  0
 25 54  1  0  0  0  0
M  END
> <s_m_source_file>
AV-unprocessed.smi

> <i_m_source_file_index>
1059

> <i_lp_mmshare_version>
43012

> <i_f3d_flags>
0

> <s_epik_input>
W0NIM11bQ0hdKFtDSDNdKVtDSDJdQyg9TylOMVtDSDJdW0NIMl1bQ0hdKFtDSDJdW0NIMl0xKVtOSF1DKD1PKVtOSF1jMltjSF1bY0hdYyhOKFtDSDNdKVtDSDNdKW5bY0hdMg==

> <s_epik_cmdline>
J2VwaWtfcHl0aG9uJywgJy1waCcsICc3LjAnLCAnLXRuJywgJzgnLCAnLW1hJywgJzIwMCcsICctbWV0YWxfYmluZGluZycsICctaW1hZScsICc8aW5maWxlLm1hZT4nLCAnLW9tYWUnLCAnPG91dGZpbGUubWFlPic=

> <r_lp_tautomer_probability>
1

> <r_epik_Ionization_Penalty>
0.622059

> <r_epik_Ionization_Penalty_Charging>
0

> <r_epik_Ionization_Penalty_Neutral>
0.622059

> <r_epik_State_Penalty>
0.637048

> <r_epik_Charging_Adjusted_Penalty>
0.637048

> <i_epik_Tot_Q>
0

> <i_epik_Tot_abs_Q>
0

> <r_epik_Metal_State_Penalty>
0.306613

> <b_epik_Metal_Only>
0

> <s_lp_Force_Field>
OPLS_2005

> <r_lp_Energy>
31.4899

> <b_lp_Chiralities_Consistent>
1

> <s_lp_Variant>
AV-unprocessed.smi:1059-2

> <Gold.Version>
5.8.1

> <Gold.Id.Protein>
6NUR|6NUR_protein|mol2

> <Gold.PLP.Fitness>
44.4873

> <Gold.PLP.PLP>
-37.4179

> <Gold.PLP.part.hbond>
-2.9198

> <Gold.PLP.part.metal>
0.0000

> <Gold.PLP.part.buried>
-4.5777

> <Gold.PLP.part.nonpolar>
-30.4109

> <Gold.PLP.part.repulsive>
0.5995

> <Gold.PLP.ligand.clash>
0.0000

> <Gold.PLP.ligand.torsion>
0.6075

> <Gold.PLP.Chemscore.Hbond>
2.6800

> <Gold.PLP.Chemscore.CHOScore>
0.0000

> <Gold.PLP.Chemscore.Metal>
0.0000

> <Gold.Chemscore.Hbonds>
donor molecule, donor type, donor heavy atom, donor atom, acceptor molecule, acceptor atom, score
      L1  H    11    40       P1 10175  0.88
      L1  H    14    41       P1 10175  0.78
      P1  H  7989  7998       L1     6  1.00

> <Gold.PLP.Chemscore.Internal.Correction>
0.2443

> <Gold.Rescore>
     Score         DG    S(hbond)    S(metal)    S(lipo)     H(rot)  DE(clash)    DE(int)     intcor
     17.88     -20.63       2.80        0.00      82.76       1.52       0.19       2.55       ----

> <Gold.Chemscore.Fitness>
17.8847

> <Gold.Chemscore.DG>
-20.6293

> <Gold.Chemscore.ZeroCoef>
-5.4800

> <Gold.Chemscore.Hbond>
2.8044

> <Gold.Chemscore.Metal>
0.0000

> <Gold.Chemscore.Lipo>
82.7588

> <Gold.Chemscore.Internal_Hbond>
0.0000

> <Gold.Chemscore.DEClash>
0.1944

> <Gold.Chemscore.DEInternal>
2.5503

> <Gold.Chemscore.Rot>
1.5235

> <Gold.Chemscore.Internal.Correction>
   9.000000E+99

> <Gold.Chemscore.Hbonds>
donor molecule, donor type, donor heavy atom, donor atom, acceptor molecule, acceptor atom, score
      L1  H    11    40       P1 10175  0.87
      L1  H    14    41       P1 10175  0.78
      P1  H  7989  7998       L1     6  0.92

> <Gold.Chemscore.Hbond.Weighted>
-9.3666

> <Gold.Chemscore.Metal.Weighted>
-0.0000

> <Gold.Chemscore.Lipo.Weighted>
-9.6828

> <Gold.Chemscore.Internal_Hbond.Weighted>
0.0000

> <Gold.Chemscore.DEClash.Weighted>
0.1944

> <Gold.Chemscore.DEInternal.Weighted>
2.5503

> <Gold.Chemscore.Rot.Weighted>
3.9001

> <Gold.Chemscore.Internal.Correction.Weighted>
   9.000000E+99

> <Gold.Protein.RotatedTorsions>
[ 6907 6896 6895 6894 ] final -115.49 input  -60.11 | X-H torsion
[ 7974 7965 7964 7962 ] final  129.54 input  175.53 | X-H torsion
[ 8008 7997 7996 7995 ] final   14.65 input   59.86 | X-H torsion
[ 10167 10162 10161 10158 ] final  -35.60 input  -65.29 | X-H torsion
[ 10718 10713 10712 10709 ] final   41.75 input   66.30 | X-H torsion
[ 10763 10752 10751 10750 ] final  -88.23 input  -60.55 | X-H torsion
[ 11005 11000 10999 10996 ] final   62.27 input  -57.11 | X-H torsion

> <Gold.Protein.ActiveResidues>
 VAL166  LYS551  ARG553  GLY616  TRP617  ASP618  TYR619  PRO620  LYS621  CYS622 
 ASP623  PHE694  ASN695  SER759  ASP760  ASP761  ALA762  ILE779  LEU786  VAL792 
 PHE793  MET794  SER795  GLU796  ALA797  LYS798  CYS799  TRP800  GLU811  SER814 

> <Gold.Protein.RotatedAtoms>
  150.7982  133.8651  159.3242 H   0  0  0  0  0  0  0  0  0  0  0  0  # atno 6907 bound_to 6896
  151.6470  135.1004  160.0162 H   0  0  0  0  0  0  0  0  0  0  0  0  # atno 6908 bound_to 6896
  152.4066  133.6859  159.6397 H   0  0  0  0  0  0  0  0  0  0  0  0  # atno 6909 bound_to 6896
  145.0276  139.4075  143.5166 H   0  0  0  0  0  0  0  0  0  0  0  0  # atno 7974 bound_to 7965
  154.8514  140.2930  155.5596 H   0  0  0  0  0  0  0  0  0  0  0  0  # atno 8008 bound_to 7997
  156.3016  140.2495  156.3406 H   0  0  0  0  0  0  0  0  0  0  0  0  # atno 8009 bound_to 7997
  154.9017  140.0391  157.1886 H   0  0  0  0  0  0  0  0  0  0  0  0  # atno 8010 bound_to 7997
  140.7161  143.3466  151.2244 H   0  0  0  0  0  0  0  0  0  0  0  0  # atno 10167 bound_to 10162
  157.3971  130.7839  149.7317 H   0  0  0  0  0  0  0  0  0  0  0  0  # atno 10718 bound_to 10713
  154.6423  135.5384  153.7804 H   0  0  0  0  0  0  0  0  0  0  0  0  # atno 10763 bound_to 10752
  153.0340  135.6462  154.1141 H   0  0  0  0  0  0  0  0  0  0  0  0  # atno 10764 bound_to 10752
  154.1064  135.2929  155.3220 H   0  0  0  0  0  0  0  0  0  0  0  0  # atno 10765 bound_to 10752
  140.0103  134.6306  155.9791 H   0  0  0  0  0  0  0  0  0  0  0  0  # atno 11005 bound_to 11000
  146.3494  139.9808  142.8696 LP  0  0  0  0  0  0  0  0  0  0  0  0  # atno 17320 bound_to 7965
  145.1813  140.9768  143.4264 LP  0  0  0  0  0  0  0  0  0  0  0  0  # atno 17321 bound_to 7965
  139.6986  143.9570  152.2895 LP  0  0  0  0  0  0  0  0  0  0  0  0  # atno 17342 bound_to 10162
  139.9256  144.6773  150.8416 LP  0  0  0  0  0  0  0  0  0  0  0  0  # atno 17343 bound_to 10162
  155.9813  130.4020  150.3479 LP  0  0  0  0  0  0  0  0  0  0  0  0  # atno 17370 bound_to 10713
  157.1602  131.0343  151.2844 LP  0  0  0  0  0  0  0  0  0  0  0  0  # atno 17371 bound_to 10713
  141.1706  133.6537  156.4639 LP  0  0  0  0  0  0  0  0  0  0  0  0  # atno 17394 bound_to 11000
  140.4566  134.6880  157.5065 LP  0  0  0  0  0  0  0  0  0  0  0  0  # atno 17395 bound_to 11000

$$$$
