AV-unprocessed.smi:3027|AV-procd|sdf|11516|dock1
  -GOLD-   2272016453D 1   1.00000     0.00000
 Structure written by MMmdl.
 37 38  0  0  0  0  0  0  0  0  2 V2000
  145.4423  142.8824  154.0954 C   0  0  0  0  0  0  0  0  0  0  0  0
  146.6870  142.0437  154.1361 C   0  0  0  0  0  0  0  0  0  0  0  0
  147.0076  140.9135  153.3314 C   0  0  0  0  0  0  0  0  0  0  0  0
  148.1927  140.3991  153.6170 N   0  0  0  0  0  0  0  0  0  0  0  0
  148.6670  141.1780  154.6123 N   0  0  0  0  0  0  0  0  0  0  0  0
  149.9769  140.9100  155.1764 C   0  0  0  0  0  0  0  0  0  0  0  0
  150.1469  141.4934  156.5946 C   0  0  1  0  0  0  0  0  0  0  0  0
  150.9888  140.5567  157.4709 C   0  0  0  0  0  0  0  0  0  0  0  0
  150.7854  142.8297  156.5504 N   0  3  0  0  0  0  0  0  0  0  0  0
  151.2576  143.3533  157.8512 C   0  0  0  0  0  0  0  0  0  0  0  0
  150.1090  143.8711  158.7151 C   0  0  0  0  0  0  0  0  0  0  0  0
  150.7880  144.7876  159.7371 C   0  0  0  0  0  0  0  0  0  0  0  0
  152.0779  145.2902  159.0682 C   0  0  0  0  0  0  0  0  0  0  0  0
  152.1703  144.5750  157.7142 C   0  0  0  0  0  0  0  0  0  0  0  0
  147.7781  142.1769  154.9472 C   0  0  0  0  0  0  0  0  0  0  0  0
  144.7206  142.5030  153.3718 H   0  0  0  0  0  0  0  0  0  0  0  0
  145.6617  143.9140  153.8196 H   0  0  0  0  0  0  0  0  0  0  0  0
  144.9425  142.9069  155.0641 H   0  0  0  0  0  0  0  0  0  0  0  0
  146.4178  140.4555  152.5509 H   0  0  0  0  0  0  0  0  0  0  0  0
  150.1124  139.8278  155.1998 H   0  0  0  0  0  0  0  0  0  0  0  0
  150.7421  141.3016  154.5037 H   0  0  0  0  0  0  0  0  0  0  0  0
  149.1644  141.5743  157.0621 H   0  0  0  0  0  0  0  0  0  0  0  0
  150.5274  139.5717  157.5491 H   0  0  0  0  0  0  0  0  0  0  0  0
  151.0899  140.9515  158.4825 H   0  0  0  0  0  0  0  0  0  0  0  0
  151.9913  140.4227  157.0629 H   0  0  0  0  0  0  0  0  0  0  0  0
  151.5800  142.7880  155.9286 H   0  0  0  0  0  0  0  0  0  0  0  0
  151.7796  142.5715  158.4041 H   0  0  0  0  0  0  0  0  0  0  0  0
  149.4162  144.4562  158.1083 H   0  0  0  0  0  0  0  0  0  0  0  0
  149.5422  143.0672  159.1859 H   0  0  0  0  0  0  0  0  0  0  0  0
  150.1349  145.6064  160.0407 H   0  0  0  0  0  0  0  0  0  0  0  0
  151.0384  144.2203  160.6346 H   0  0  0  0  0  0  0  0  0  0  0  0
  152.0711  146.3731  158.9397 H   0  0  0  0  0  0  0  0  0  0  0  0
  152.9390  145.0424  159.6902 H   0  0  0  0  0  0  0  0  0  0  0  0
  153.1956  144.3083  157.4569 H   0  0  0  0  0  0  0  0  0  0  0  0
  151.7951  145.2362  156.9314 H   0  0  0  0  0  0  0  0  0  0  0  0
  147.9950  142.8956  155.7240 H   0  0  0  0  0  0  0  0  0  0  0  0
  150.1135  143.4793  156.1666 H   0  0  0  0  0  0  0  0  0  0  0  0
  1  2  1  0  0  0  0
  1 16  1  0  0  0  0
  1 17  1  0  0  0  0
  1 18  1  0  0  0  0
  2 15  2  0  0  0  0
  2  3  1  0  0  0  0
  3  4  2  0  0  0  0
  3 19  1  0  0  0  0
  4  5  1  0  0  0  0
  5  6  1  0  0  0  0
  5 15  1  0  0  0  0
  6  7  1  0  0  0  0
  6 20  1  0  0  0  0
  6 21  1  0  0  0  0
  7  8  1  0  0  0  0
  7  9  1  0  0  0  0
  7 22  1  0  0  0  0
  8 23  1  0  0  0  0
  8 24  1  0  0  0  0
  8 25  1  0  0  0  0
  9 10  1  0  0  0  0
  9 26  1  0  0  0  0
  9 37  1  0  0  0  0
 10 14  1  0  0  0  0
 10 11  1  0  0  0  0
 10 27  1  0  0  0  0
 11 12  1  0  0  0  0
 11 28  1  0  0  0  0
 11 29  1  0  0  0  0
 12 13  1  0  0  0  0
 12 30  1  0  0  0  0
 12 31  1  0  0  0  0
 13 14  1  0  0  0  0
 13 32  1  0  0  0  0
 13 33  1  0  0  0  0
 14 34  1  0  0  0  0
 14 35  1  0  0  0  0
 15 36  1  0  0  0  0
M  CHG  1   9   1
M  END
> <s_m_source_file>
AV-unprocessed.smi

> <i_m_source_file_index>
3027

> <i_lp_mmshare_version>
43012

> <i_f3d_flags>
0

> <s_epik_input>
W0NIM11jMVtjSF1ubihbY0hdMSlbQ0gyXVtDQEhdKFtDSDNdKVtOSF1bQ0hdMltDSDJdW0NIMl1bQ0gyXVtDSDJdMg==

> <s_epik_cmdline>
J2VwaWtfcHl0aG9uJywgJy1waCcsICc3LjAnLCAnLXRuJywgJzgnLCAnLW1hJywgJzIwMCcsICctbWV0YWxfYmluZGluZycsICctaW1hZScsICc8aW5maWxlLm1hZT4nLCAnLW9tYWUnLCAnPG91dGZpbGUubWFlPic=

> <r_lp_tautomer_probability>
1

> <r_epik_Ionization_Penalty>
0.00150056

> <r_epik_Ionization_Penalty_Charging>
0.00149132

> <r_epik_Ionization_Penalty_Neutral>
9.24096e-06

> <r_epik_State_Penalty>
0.00099871

> <r_epik_Charging_Adjusted_Penalty>
0.00249003

> <i_epik_Tot_Q>
1

> <i_epik_Tot_abs_Q>
1

> <r_epik_Metal_State_Penalty>
-0

> <b_epik_Metal_Only>
0

> <s_lp_Force_Field>
OPLS_2005

> <r_lp_Energy>
25.7776

> <b_lp_Chiralities_Consistent>
1

> <s_lp_Variant>
AV-unprocessed.smi:3027-2

> <Gold.Version>
5.8.1

> <Gold.Id.Protein>
6NUR|6NUR_protein|mol2

> <Gold.PLP.Fitness>
46.0209

> <Gold.PLP.PLP>
-36.2152

> <Gold.PLP.part.hbond>
-1.0000

> <Gold.PLP.part.metal>
0.0000

> <Gold.PLP.part.buried>
-3.8157

> <Gold.PLP.part.nonpolar>
-33.7398

> <Gold.PLP.part.repulsive>
0.7520

> <Gold.PLP.ligand.clash>
0.0000

> <Gold.PLP.ligand.torsion>
0.9997

> <Gold.PLP.Chemscore.Hbond>
2.0000

> <Gold.PLP.Chemscore.CHOScore>
1.9243

> <Gold.PLP.Chemscore.Metal>
0.0000

> <Gold.Chemscore.Hbonds>
donor molecule, donor type, donor heavy atom, donor atom, acceptor molecule, acceptor atom, score
      L1  H     9    37       P1  8028  2.00
      L1  C     3    19       P1 10175  0.46
      L1  C    15    36       P1  8028  0.95

> <Gold.PLP.Chemscore.Internal.Correction>
0.0323

> <Gold.Rescore>
     Score         DG    S(hbond)    S(metal)    S(lipo)     H(rot)  DE(clash)    DE(int)     intcor
     15.36     -16.49       1.00        0.00      96.26       1.40       0.03       1.11       ----

> <Gold.Chemscore.Fitness>
15.3577

> <Gold.Chemscore.DG>
-16.4947

> <Gold.Chemscore.ZeroCoef>
-5.4800

> <Gold.Chemscore.Hbond>
0.9983

> <Gold.Chemscore.Metal>
0.0000

> <Gold.Chemscore.Lipo>
96.2589

> <Gold.Chemscore.Internal_Hbond>
0.0000

> <Gold.Chemscore.DEClash>
0.0288

> <Gold.Chemscore.DEInternal>
1.1081

> <Gold.Chemscore.Rot>
1.3991

> <Gold.Chemscore.Internal.Correction>
   9.000000E+99

> <Gold.Chemscore.Hbonds>
donor molecule, donor type, donor heavy atom, donor atom, acceptor molecule, acceptor atom, score
      L1  H     9    37       P1  8028  1.00

> <Gold.Chemscore.Hbond.Weighted>
-3.3342

> <Gold.Chemscore.Metal.Weighted>
-0.0000

> <Gold.Chemscore.Lipo.Weighted>
-11.2623

> <Gold.Chemscore.Internal_Hbond.Weighted>
0.0000

> <Gold.Chemscore.DEClash.Weighted>
0.0288

> <Gold.Chemscore.DEInternal.Weighted>
1.1081

> <Gold.Chemscore.Rot.Weighted>
3.5818

> <Gold.Chemscore.Internal.Correction.Weighted>
   9.000000E+99

> <Gold.Protein.RotatedTorsions>
[ 6907 6896 6895 6894 ] final   64.71 input  -60.11 | X-H torsion
[ 7974 7965 7964 7962 ] final   92.38 input  175.53 | X-H torsion
[ 8008 7997 7996 7995 ] final -105.84 input   59.86 | X-H torsion
[ 10167 10162 10161 10158 ] final  155.23 input  -65.29 | X-H torsion
[ 10718 10713 10712 10709 ] final   26.05 input   66.30 | X-H torsion
[ 10763 10752 10751 10750 ] final  -53.73 input  -60.55 | X-H torsion
[ 11005 11000 10999 10996 ] final  113.44 input  -57.11 | X-H torsion

> <Gold.Protein.ActiveResidues>
 VAL166  LYS551  ARG553  GLY616  TRP617  ASP618  TYR619  PRO620  LYS621  CYS622 
 ASP623  PHE694  ASN695  SER759  ASP760  ASP761  ALA762  ILE779  LEU786  VAL792 
 PHE793  MET794  SER795  GLU796  ALA797  LYS798  CYS799  TRP800  GLU811  SER814 

> <Gold.Protein.RotatedAtoms>
  152.4352  134.5700  159.9918 H   0  0  0  0  0  0  0  0  0  0  0  0  # atno 6907 bound_to 6896
  151.5813  133.3372  159.3017 H   0  0  0  0  0  0  0  0  0  0  0  0  # atno 6908 bound_to 6896
  150.8249  134.7511  159.6869 H   0  0  0  0  0  0  0  0  0  0  0  0  # atno 6909 bound_to 6896
  145.4930  139.2276  143.2819 H   0  0  0  0  0  0  0  0  0  0  0  0  # atno 7974 bound_to 7965
  154.9058  140.0411  157.1919 H   0  0  0  0  0  0  0  0  0  0  0  0  # atno 8008 bound_to 7997
  154.8398  140.2912  155.5646 H   0  0  0  0  0  0  0  0  0  0  0  0  # atno 8009 bound_to 7997
  156.2991  140.2485  156.3338 H   0  0  0  0  0  0  0  0  0  0  0  0  # atno 8010 bound_to 7997
  139.4821  144.5117  151.8015 H   0  0  0  0  0  0  0  0  0  0  0  0  # atno 10167 bound_to 10162
  157.2016  130.6892  149.6190 H   0  0  0  0  0  0  0  0  0  0  0  0  # atno 10718 bound_to 10713
  154.1635  135.6471  153.4991 H   0  0  0  0  0  0  0  0  0  0  0  0  # atno 10763 bound_to 10752
  153.0104  135.5366  154.6686 H   0  0  0  0  0  0  0  0  0  0  0  0  # atno 10764 bound_to 10752
  154.6006  135.2943  155.0511 H   0  0  0  0  0  0  0  0  0  0  0  0  # atno 10765 bound_to 10752
  139.8953  134.9550  156.6739 H   0  0  0  0  0  0  0  0  0  0  0  0  # atno 11005 bound_to 11000
  146.2272  140.5725  142.8991 LP  0  0  0  0  0  0  0  0  0  0  0  0  # atno 17320 bound_to 7965
  144.7823  140.5865  143.6597 LP  0  0  0  0  0  0  0  0  0  0  0  0  # atno 17321 bound_to 7965
  140.4620  144.1708  150.5907 LP  0  0  0  0  0  0  0  0  0  0  0  0  # atno 17342 bound_to 10162
  140.4474  143.2501  151.9393 LP  0  0  0  0  0  0  0  0  0  0  0  0  # atno 17343 bound_to 10162
  155.9700  130.4581  150.5986 LP  0  0  0  0  0  0  0  0  0  0  0  0  # atno 17370 bound_to 10713
  157.3762  131.0773  151.1516 LP  0  0  0  0  0  0  0  0  0  0  0  0  # atno 17371 bound_to 10713
  140.7352  133.9025  155.8239 LP  0  0  0  0  0  0  0  0  0  0  0  0  # atno 17394 bound_to 11000
  141.0122  134.1005  157.4210 LP  0  0  0  0  0  0  0  0  0  0  0  0  # atno 17395 bound_to 11000

$$$$
