AV-unprocessed.smi:527|AV-procd|sdf|2826|dock10
  -GOLD-   2262023313D 1   1.00000     0.00000
 Structure written by MMmdl.
 43 44  0  0  0  0  0  0  0  0  2 V2000
  145.5715  131.0683  152.4636 C   0  0  0  0  0  0  0  0  0  0  0  0
  146.1929  131.9028  151.3246 C   0  0  1  0  0  0  0  0  0  0  0  0
  145.1523  132.2468  150.2398 C   0  0  0  0  0  0  0  0  0  0  0  0
  144.1515  133.3126  150.7132 C   0  0  0  0  0  0  0  0  0  0  0  0
  144.8743  134.5808  151.1878 C   0  0  0  0  0  0  0  0  0  0  0  0
  145.9229  134.2739  152.2781 C   0  0  2  0  0  0  0  0  0  0  0  0
  146.6357  135.4999  152.6344 N   0  0  0  0  0  0  0  0  0  0  0  0
  146.5481  136.1346  153.8128 C   0  0  0  0  0  0  0  0  0  0  0  0
  145.6418  135.9342  154.6244 O   0  0  0  0  0  0  0  0  0  0  0  0
  147.5686  136.9997  153.9733 N   0  0  0  0  0  0  0  0  0  0  0  0
  147.8547  137.7389  155.0645 C   0  0  0  0  0  0  0  0  0  0  0  0
  147.2040  137.7317  156.1127 O   0  0  0  0  0  0  0  0  0  0  0  0
  149.0921  138.6360  154.9291 C   0  0  0  0  0  0  0  0  0  0  0  0
  148.7574  140.0547  154.7477 N   0  0  0  0  0  0  0  0  0  0  0  0
  148.1397  140.6323  153.6675 C   0  0  0  0  0  0  0  0  0  0  0  0
  148.0501  141.9732  153.9392 C   0  0  0  0  0  0  0  0  0  0  0  0
  148.6153  142.1577  155.1726 N   0  3  0  0  0  0  0  0  0  0  0  0
  149.0451  140.9904  155.6627 C   0  0  0  0  0  0  0  0  0  0  0  0
  146.9221  133.1875  151.8015 C   0  0  1  0  0  0  0  0  0  0  0  0
  148.0241  132.8870  152.8368 C   0  0  0  0  0  0  0  0  0  0  0  0
  144.8412  131.6351  153.0400 H   0  0  0  0  0  0  0  0  0  0  0  0
  146.3310  130.7071  153.1565 H   0  0  0  0  0  0  0  0  0  0  0  0
  145.0631  130.1892  152.0668 H   0  0  0  0  0  0  0  0  0  0  0  0
  146.9385  131.2624  150.8514 H   0  0  0  0  0  0  0  0  0  0  0  0
  145.6684  132.6146  149.3519 H   0  0  0  0  0  0  0  0  0  0  0  0
  144.6198  131.3480  149.9271 H   0  0  0  0  0  0  0  0  0  0  0  0
  143.4660  133.5609  149.9027 H   0  0  0  0  0  0  0  0  0  0  0  0
  143.5358  132.9159  151.5209 H   0  0  0  0  0  0  0  0  0  0  0  0
  145.3599  135.0563  150.3342 H   0  0  0  0  0  0  0  0  0  0  0  0
  144.1408  135.2968  151.5607 H   0  0  0  0  0  0  0  0  0  0  0  0
  145.4080  133.9006  153.1649 H   0  0  0  0  0  0  0  0  0  0  0  0
  147.2499  135.8832  151.9311 H   0  0  0  0  0  0  0  0  0  0  0  0
  148.1903  137.1067  153.1853 H   0  0  0  0  0  0  0  0  0  0  0  0
  149.7108  138.5476  155.8232 H   0  0  0  0  0  0  0  0  0  0  0  0
  149.6949  138.3127  154.0789 H   0  0  0  0  0  0  0  0  0  0  0  0
  147.8218  140.0618  152.8066 H   0  0  0  0  0  0  0  0  0  0  0  0
  147.6388  142.7887  153.3619 H   0  0  0  0  0  0  0  0  0  0  0  0
  149.5330  140.8360  156.6086 H   0  0  0  0  0  0  0  0  0  0  0  0
  147.4338  133.5898  150.9253 H   0  0  0  0  0  0  0  0  0  0  0  0
  147.6027  132.5987  153.8000 H   0  0  0  0  0  0  0  0  0  0  0  0
  148.6608  133.7552  153.0069 H   0  0  0  0  0  0  0  0  0  0  0  0
  148.6706  132.0770  152.4978 H   0  0  0  0  0  0  0  0  0  0  0  0
  148.7007  143.0484  155.6461 H   0  0  0  0  0  0  0  0  0  0  0  0
  1  2  1  0  0  0  0
  1 21  1  0  0  0  0
  1 22  1  0  0  0  0
  1 23  1  0  0  0  0
  2 19  1  0  0  0  0
  2  3  1  0  0  0  0
  2 24  1  0  0  0  0
  3  4  1  0  0  0  0
  3 25  1  0  0  0  0
  3 26  1  0  0  0  0
  4  5  1  0  0  0  0
  4 27  1  0  0  0  0
  4 28  1  0  0  0  0
  5  6  1  0  0  0  0
  5 29  1  0  0  0  0
  5 30  1  0  0  0  0
  6  7  1  0  0  0  0
  6 19  1  0  0  0  0
  6 31  1  0  0  0  0
  7  8  1  0  0  0  0
  7 32  1  0  0  0  0
  8  9  2  0  0  0  0
  8 10  1  0  0  0  0
 10 11  1  0  0  0  0
 10 33  1  0  0  0  0
 11 12  2  0  0  0  0
 11 13  1  0  0  0  0
 13 14  1  0  0  0  0
 13 34  1  0  0  0  0
 13 35  1  0  0  0  0
 14 18  1  0  0  0  0
 14 15  1  0  0  0  0
 15 16  2  0  0  0  0
 15 36  1  0  0  0  0
 16 17  1  0  0  0  0
 16 37  1  0  0  0  0
 17 18  2  0  0  0  0
 17 43  1  0  0  0  0
 18 38  1  0  0  0  0
 19 20  1  0  0  0  0
 19 39  1  0  0  0  0
 20 40  1  0  0  0  0
 20 41  1  0  0  0  0
 20 42  1  0  0  0  0
M  CHG  1  17   1
M  END
> <s_m_source_file>
AV-unprocessed.smi

> <i_m_source_file_index>
527

> <i_lp_mmshare_version>
43012

> <i_f3d_flags>
0

> <s_epik_input>
W0NIM11bQ0BASF0xW0NIMl1bQ0gyXVtDSDJdW0NASF0oW0NASF0xW0NIM10pW05IXUMoPU8pW05IXUMoPU8pW0NIMl1uMltjSF1bY0hdbltjSF0y

> <s_epik_cmdline>
J2VwaWtfcHl0aG9uJywgJy1waCcsICc3LjAnLCAnLXRuJywgJzgnLCAnLW1hJywgJzIwMCcsICctbWV0YWxfYmluZGluZycsICctaW1hZScsICc8aW5maWxlLm1hZT4nLCAnLW9tYWUnLCAnPG91dGZpbGUubWFlPic=

> <r_lp_tautomer_probability>
1

> <r_epik_Ionization_Penalty>
0.816441

> <r_epik_Ionization_Penalty_Charging>
0

> <r_epik_Ionization_Penalty_Neutral>
0.816441

> <r_epik_State_Penalty>
0.849034

> <r_epik_Charging_Adjusted_Penalty>
0.849034

> <i_epik_Tot_Q>
1

> <i_epik_Tot_abs_Q>
1

> <r_epik_Metal_State_Penalty>
0.984327

> <b_epik_Metal_Only>
0

> <s_lp_Force_Field>
OPLS_2005

> <r_lp_Energy>
18.63

> <b_lp_Chiralities_Consistent>
1

> <s_lp_Variant>
AV-unprocessed.smi:527-12

> <Gold.Version>
5.8.1

> <Gold.Id.Protein>
6NUR|6NUR_protein|mol2

> <Gold.PLP.Fitness>
42.9779

> <Gold.PLP.PLP>
-31.4390

> <Gold.PLP.part.hbond>
-3.0000

> <Gold.PLP.part.metal>
0.0000

> <Gold.PLP.part.buried>
-1.6004

> <Gold.PLP.part.nonpolar>
-26.7395

> <Gold.PLP.part.repulsive>
0.2046

> <Gold.PLP.ligand.clash>
0.0000

> <Gold.PLP.ligand.torsion>
0.3462

> <Gold.PLP.Chemscore.Hbond>
3.5040

> <Gold.PLP.Chemscore.CHOScore>
0.5679

> <Gold.PLP.Chemscore.Metal>
0.0000

> <Gold.Chemscore.Hbonds>
donor molecule, donor type, donor heavy atom, donor atom, acceptor molecule, acceptor atom, score
      L1  H     7    32       P1  7948  0.72
      L1  H    10    33       P1  7948  0.88
      L1  H    17    43       P1  8028  2.00
      L1  C    15    36       P1  7957  0.60

> <Gold.PLP.Chemscore.Internal.Correction>
0.0156

> <Gold.Rescore>
     Score         DG    S(hbond)    S(metal)    S(lipo)     H(rot)  DE(clash)    DE(int)     intcor
     16.68     -18.46       2.74        0.00      69.97       1.71       0.08       1.69       ----

> <Gold.Chemscore.Fitness>
16.6813

> <Gold.Chemscore.DG>
-18.4596

> <Gold.Chemscore.ZeroCoef>
-5.4800

> <Gold.Chemscore.Hbond>
2.7419

> <Gold.Chemscore.Metal>
0.0000

> <Gold.Chemscore.Lipo>
69.9735

> <Gold.Chemscore.Internal_Hbond>
0.0000

> <Gold.Chemscore.DEClash>
0.0847

> <Gold.Chemscore.DEInternal>
1.6936

> <Gold.Chemscore.Rot>
1.7052

> <Gold.Chemscore.Internal.Correction>
   9.000000E+99

> <Gold.Chemscore.Hbonds>
donor molecule, donor type, donor heavy atom, donor atom, acceptor molecule, acceptor atom, score
      L1  H     7    32       P1  7948  0.72
      L1  H    10    33       P1  7948  0.87
      L1  H    17    43       P1  8028  0.96

> <Gold.Chemscore.Hbond.Weighted>
-9.1580

> <Gold.Chemscore.Metal.Weighted>
-0.0000

> <Gold.Chemscore.Lipo.Weighted>
-8.1869

> <Gold.Chemscore.Internal_Hbond.Weighted>
0.0000

> <Gold.Chemscore.DEClash.Weighted>
0.0847

> <Gold.Chemscore.DEInternal.Weighted>
1.6936

> <Gold.Chemscore.Rot.Weighted>
4.3653

> <Gold.Chemscore.Internal.Correction.Weighted>
   9.000000E+99

> <Gold.Protein.RotatedTorsions>
[ 6907 6896 6895 6894 ] final -103.12 input  -60.11 | X-H torsion
[ 7974 7965 7964 7962 ] final   38.55 input  175.53 | X-H torsion
[ 8008 7997 7996 7995 ] final   17.88 input   59.86 | X-H torsion
[ 10167 10162 10161 10158 ] final  124.67 input  -65.29 | X-H torsion
[ 10718 10713 10712 10709 ] final   31.15 input   66.30 | X-H torsion
[ 10763 10752 10751 10750 ] final   87.23 input  -60.55 | X-H torsion
[ 11005 11000 10999 10996 ] final  -66.47 input  -57.11 | X-H torsion

> <Gold.Protein.ActiveResidues>
 VAL166  LYS551  ARG553  GLY616  TRP617  ASP618  TYR619  PRO620  LYS621  CYS622 
 ASP623  PHE694  ASN695  SER759  ASP760  ASP761  ALA762  ILE779  LEU786  VAL792 
 PHE793  MET794  SER795  GLU796  ALA797  LYS798  CYS799  TRP800  GLU811  SER814 

> <Gold.Protein.RotatedAtoms>
  150.7226  134.0477  159.3787 H   0  0  0  0  0  0  0  0  0  0  0  0  # atno 6907 bound_to 6896
  151.8452  135.0574  160.0462 H   0  0  0  0  0  0  0  0  0  0  0  0  # atno 6908 bound_to 6896
  152.2832  133.5454  159.5547 H   0  0  0  0  0  0  0  0  0  0  0  0  # atno 6909 bound_to 6896
  146.1053  139.5758  142.9388 H   0  0  0  0  0  0  0  0  0  0  0  0  # atno 7974 bound_to 7965
  154.8979  140.2996  155.5334 H   0  0  0  0  0  0  0  0  0  0  0  0  # atno 8008 bound_to 7997
  156.3019  140.2412  156.3937 H   0  0  0  0  0  0  0  0  0  0  0  0  # atno 8009 bound_to 7997
  154.8552  140.0407  157.1618 H   0  0  0  0  0  0  0  0  0  0  0  0  # atno 8010 bound_to 7997
  139.5728  144.6948  151.3732 H   0  0  0  0  0  0  0  0  0  0  0  0  # atno 10167 bound_to 10162
  157.2688  130.7197  149.6493 H   0  0  0  0  0  0  0  0  0  0  0  0  # atno 10718 bound_to 10713
  153.1647  135.4551  154.9821 H   0  0  0  0  0  0  0  0  0  0  0  0  # atno 10763 bound_to 10752
  154.7923  135.3225  154.7750 H   0  0  0  0  0  0  0  0  0  0  0  0  # atno 10764 bound_to 10752
  153.8234  135.6945  153.4878 H   0  0  0  0  0  0  0  0  0  0  0  0  # atno 10765 bound_to 10752
  141.1483  133.6700  156.6145 H   0  0  0  0  0  0  0  0  0  0  0  0  # atno 11005 bound_to 11000
  145.5774  141.0387  143.2141 LP  0  0  0  0  0  0  0  0  0  0  0  0  # atno 17320 bound_to 7965
  144.7466  139.7305  143.7290 LP  0  0  0  0  0  0  0  0  0  0  0  0  # atno 17321 bound_to 7965
  140.7012  143.7626  150.7406 LP  0  0  0  0  0  0  0  0  0  0  0  0  # atno 17342 bound_to 10162
  140.1137  143.4675  152.2354 LP  0  0  0  0  0  0  0  0  0  0  0  0  # atno 17343 bound_to 10162
  155.9663  130.4374  150.5174 LP  0  0  0  0  0  0  0  0  0  0  0  0  # atno 17370 bound_to 10713
  157.3094  131.0661  151.2012 LP  0  0  0  0  0  0  0  0  0  0  0  0  # atno 17371 bound_to 10713
  140.3589  134.7705  157.4519 LP  0  0  0  0  0  0  0  0  0  0  0  0  # atno 17394 bound_to 11000
  140.0801  134.5743  155.8549 LP  0  0  0  0  0  0  0  0  0  0  0  0  # atno 17395 bound_to 11000

$$$$
