AV-unprocessed.smi:12|AV-procd|sdf|64|dock5
  -GOLD-   2262015183D 1   1.00000     0.00000
 Structure written by MMmdl.
 41 44  0  0  0  0  0  0  0  0  1 V2000
  145.1888  142.2200  156.6889 C   0  0  0  0  0  0  0  0  0  0  0  0
  146.0177  141.0485  156.1934 C   0  0  0  0  0  0  0  0  0  0  0  0
  147.2406  141.2253  155.6399 C   0  0  0  0  0  0  0  0  0  0  0  0
  147.9488  140.1363  155.2151 N   0  0  0  0  0  0  0  0  0  0  0  0
  147.3883  138.8445  155.3374 C   0  0  0  0  0  0  0  0  0  0  0  0
  146.2253  138.5942  155.8535 N   0  0  0  0  0  0  0  0  0  0  0  0
  145.4616  139.6784  156.3266 C   0  0  0  0  0  0  0  0  0  0  0  0
  144.3576  139.4887  156.8352 O   0  0  0  0  0  0  0  0  0  0  0  0
  148.2569  137.9321  154.8180 O   0  0  0  0  0  0  0  0  0  0  0  0
  149.4389  138.6046  154.3599 C   0  0  2  0  0  0  0  0  0  0  0  0
  150.6896  138.2628  155.1747 C   0  0  2  0  0  0  0  0  0  0  0  0
  150.3721  137.6492  156.4122 O   0  0  0  0  0  0  0  0  0  0  0  0
  151.3319  139.6396  155.4013 C   0  0  2  0  0  0  0  0  0  0  0  0
  152.2662  139.7807  156.6132 C   0  0  0  0  0  0  0  0  0  0  0  0
  151.9607  140.9769  157.3123 O   0  0  0  0  0  0  0  0  0  0  0  0
  152.4430  141.1707  158.5560 C   0  0  0  0  0  0  0  0  0  0  0  0
  153.0580  140.3112  159.1903 O   0  0  0  0  0  0  0  0  0  0  0  0
  152.1522  142.5336  159.0877 C   0  0  0  0  0  0  0  0  0  0  0  0
  151.5101  143.4795  158.2543 C   0  0  0  0  0  0  0  0  0  0  0  0
  151.2279  144.7764  158.7253 C   0  0  0  0  0  0  0  0  0  0  0  0
  151.5835  145.1434  160.0363 C   0  0  0  0  0  0  0  0  0  0  0  0
  152.2207  144.2113  160.8759 C   0  0  0  0  0  0  0  0  0  0  0  0
  152.5038  142.9135  160.4066 C   0  0  0  0  0  0  0  0  0  0  0  0
  150.2201  140.5159  155.5112 O   0  0  0  0  0  0  0  0  0  0  0  0
  149.2662  140.1186  154.5797 C   0  0  2  0  0  0  0  0  0  0  0  0
  145.7069  143.1665  156.5309 H   0  0  0  0  0  0  0  0  0  0  0  0
  144.9871  142.1204  157.7559 H   0  0  0  0  0  0  0  0  0  0  0  0
  144.2361  142.2642  156.1603 H   0  0  0  0  0  0  0  0  0  0  0  0
  147.6670  142.2122  155.5341 H   0  0  0  0  0  0  0  0  0  0  0  0
  149.5964  138.4237  153.2959 H   0  0  0  0  0  0  0  0  0  0  0  0
  151.3564  137.5962  154.6271 H   0  0  0  0  0  0  0  0  0  0  0  0
  149.9615  138.2915  156.9704 H   0  0  0  0  0  0  0  0  0  0  0  0
  151.8762  139.9269  154.4994 H   0  0  0  0  0  0  0  0  0  0  0  0
  152.1242  138.9313  157.2827 H   0  0  0  0  0  0  0  0  0  0  0  0
  153.3123  139.7746  156.3038 H   0  0  0  0  0  0  0  0  0  0  0  0
  151.2285  143.2214  157.2436 H   0  0  0  0  0  0  0  0  0  0  0  0
  150.7386  145.4900  158.0789 H   0  0  0  0  0  0  0  0  0  0  0  0
  151.3678  146.1386  160.3968 H   0  0  0  0  0  0  0  0  0  0  0  0
  152.4941  144.4919  161.8825 H   0  0  0  0  0  0  0  0  0  0  0  0
  152.9944  142.2230  161.0769 H   0  0  0  0  0  0  0  0  0  0  0  0
  149.1941  140.7300  153.6795 H   0  0  0  0  0  0  0  0  0  0  0  0
  1  2  1  0  0  0  0
  1 26  1  0  0  0  0
  1 27  1  0  0  0  0
  1 28  1  0  0  0  0
  2  7  1  0  0  0  0
  2  3  2  0  0  0  0
  3  4  1  0  0  0  0
  3 29  1  0  0  0  0
  4 25  1  0  0  0  0
  4  5  1  0  0  0  0
  5  6  2  0  0  0  0
  5  9  1  0  0  0  0
  6  7  1  0  0  0  0
  7  8  2  0  0  0  0
  9 10  1  0  0  0  0
 10 25  1  0  0  0  0
 10 11  1  0  0  0  0
 10 30  1  0  0  0  0
 11 12  1  0  0  0  0
 11 13  1  0  0  0  0
 11 31  1  0  0  0  0
 12 32  1  0  0  0  0
 13 14  1  0  0  0  0
 13 24  1  0  0  0  0
 13 33  1  0  0  0  0
 14 15  1  0  0  0  0
 14 34  1  0  0  0  0
 14 35  1  0  0  0  0
 15 16  1  0  0  0  0
 16 17  2  0  0  0  0
 16 18  1  0  0  0  0
 18 23  1  0  0  0  0
 18 19  2  0  0  0  0
 19 20  1  0  0  0  0
 19 36  1  0  0  0  0
 20 21  2  0  0  0  0
 20 37  1  0  0  0  0
 21 22  1  0  0  0  0
 21 38  1  0  0  0  0
 22 23  2  0  0  0  0
 22 39  1  0  0  0  0
 23 40  1  0  0  0  0
 24 25  1  0  0  0  0
 25 41  1  0  0  0  0
M  END
> <s_m_source_file>
AV-unprocessed.smi

> <i_m_source_file_index>
12

> <i_lp_mmshare_version>
43012

> <i_f3d_flags>
0

> <s_epik_input>
W0NIM11jKFtjSF0xKWMoPU8pbmMobjEyKU9bQ0BIXTNbQ0BASF0yT1tDQEBIXShbQ0BASF0zW09IXSlbQ0gyXU9DKD1PKWM0W2NIXVtjSF1bY0hdW2NIXVtjSF00

> <s_epik_cmdline>
J2VwaWtfcHl0aG9uJywgJy1waCcsICc3LjAnLCAnLXRuJywgJzgnLCAnLW1hJywgJzIwMCcsICctbWV0YWxfYmluZGluZycsICctaW1hZScsICc8aW5maWxlLm1hZT4nLCAnLW9tYWUnLCAnPG91dGZpbGUubWFlPic=

> <r_lp_tautomer_probability>
0.933681

> <r_epik_Ionization_Penalty>
0.00399549

> <r_epik_Ionization_Penalty_Charging>
3.09373e-09

> <r_epik_Ionization_Penalty_Neutral>
0.00399549

> <r_epik_State_Penalty>
0.00284953

> <r_epik_Charging_Adjusted_Penalty>
0.00284953

> <i_epik_Tot_Q>
0

> <i_epik_Tot_abs_Q>
0

> <r_epik_Metal_State_Penalty>
-0

> <b_epik_Metal_Only>
0

> <s_epik_Chemistry_Notes>
This compound has an ester and may undergo hydrolysis at high or low pH. This compound contains an acetal/aminal-like group ( X-CH(R)-Y where X, Y are N, S, or O) that may be acid/base labile, releasing an aldehyde.

> <s_lp_Force_Field>
OPLS_2005

> <r_lp_Energy>
52.4355

> <b_lp_Chiralities_Consistent>
1

> <s_lp_Variant>
AV-unprocessed.smi:12-4

> <Gold.Version>
5.8.1

> <Gold.Id.Protein>
6NUR|6NUR_protein|mol2

> <Gold.PLP.Fitness>
45.5670

> <Gold.PLP.PLP>
-44.0347

> <Gold.PLP.part.hbond>
-0.9867

> <Gold.PLP.part.metal>
0.0000

> <Gold.PLP.part.buried>
-1.9252

> <Gold.PLP.part.nonpolar>
-41.0962

> <Gold.PLP.part.repulsive>
0.4179

> <Gold.PLP.ligand.clash>
0.0000

> <Gold.PLP.ligand.torsion>
0.7372

> <Gold.PLP.Chemscore.Hbond>
0.0000

> <Gold.PLP.Chemscore.CHOScore>
1.0000

> <Gold.PLP.Chemscore.Metal>
0.0000

> <Gold.Chemscore.Hbonds>
donor molecule, donor type, donor heavy atom, donor atom, acceptor molecule, acceptor atom, score
      L1  C     3    29       P1  8028  0.40

> <Gold.PLP.Chemscore.Internal.Correction>
0.0067

> <Gold.Rescore>
     Score         DG    S(hbond)    S(metal)    S(lipo)     H(rot)  DE(clash)    DE(int)     intcor
     11.65     -12.37       0.00        0.00     106.63       2.18       0.02       0.71       ----

> <Gold.Chemscore.Fitness>
11.6457

> <Gold.Chemscore.DG>
-12.3748

> <Gold.Chemscore.ZeroCoef>
-5.4800

> <Gold.Chemscore.Hbond>
0.0000

> <Gold.Chemscore.Metal>
0.0000

> <Gold.Chemscore.Lipo>
106.6289

> <Gold.Chemscore.Internal_Hbond>
0.0000

> <Gold.Chemscore.DEClash>
0.0163

> <Gold.Chemscore.DEInternal>
0.7128

> <Gold.Chemscore.Rot>
2.1800

> <Gold.Chemscore.Internal.Correction>
   9.000000E+99

> <Gold.Chemscore.Hbond.Weighted>
-0.0000

> <Gold.Chemscore.Metal.Weighted>
-0.0000

> <Gold.Chemscore.Lipo.Weighted>
-12.4756

> <Gold.Chemscore.Internal_Hbond.Weighted>
0.0000

> <Gold.Chemscore.DEClash.Weighted>
0.0163

> <Gold.Chemscore.DEInternal.Weighted>
0.7128

> <Gold.Chemscore.Rot.Weighted>
5.5807

> <Gold.Chemscore.Internal.Correction.Weighted>
   9.000000E+99

> <Gold.Protein.RotatedTorsions>
[ 6907 6896 6895 6894 ] final   88.17 input  -60.11 | X-H torsion
[ 7974 7965 7964 7962 ] final  177.25 input  175.53 | X-H torsion
[ 8008 7997 7996 7995 ] final  -74.93 input   59.86 | X-H torsion
[ 10167 10162 10161 10158 ] final   77.84 input  -65.29 | X-H torsion
[ 10718 10713 10712 10709 ] final   46.76 input   66.30 | X-H torsion
[ 10763 10752 10751 10750 ] final   98.46 input  -60.55 | X-H torsion
[ 11005 11000 10999 10996 ] final   11.27 input  -57.11 | X-H torsion

> <Gold.Protein.ActiveResidues>
 VAL166  LYS551  ARG553  GLY616  TRP617  ASP618  TYR619  PRO620  LYS621  CYS622 
 ASP623  PHE694  ASN695  SER759  ASP760  ASP761  ALA762  ILE779  LEU786  VAL792 
 PHE793  MET794  SER795  GLU796  ALA797  LYS798  CYS799  TRP800  GLU811  SER814 

> <Gold.Protein.RotatedAtoms>
  152.5421  134.2163  159.8769 H   0  0  0  0  0  0  0  0  0  0  0  0  # atno 6907 bound_to 6896
  151.2142  133.4531  159.2606 H   0  0  0  0  0  0  0  0  0  0  0  0  # atno 6908 bound_to 6896
  151.0867  134.9904  159.8438 H   0  0  0  0  0  0  0  0  0  0  0  0  # atno 6909 bound_to 6896
  144.7172  140.0219  143.6440 H   0  0  0  0  0  0  0  0  0  0  0  0  # atno 7974 bound_to 7965
  154.5373  140.0753  156.8449 H   0  0  0  0  0  0  0  0  0  0  0  0  # atno 8008 bound_to 7997
  155.3252  140.3398  155.4222 H   0  0  0  0  0  0  0  0  0  0  0  0  # atno 8009 bound_to 7997
  156.1840  140.1662  156.8206 H   0  0  0  0  0  0  0  0  0  0  0  0  # atno 8010 bound_to 7997
  139.9773  144.5852  150.7932 H   0  0  0  0  0  0  0  0  0  0  0  0  # atno 10167 bound_to 10162
  157.4514  130.8141  149.7792 H   0  0  0  0  0  0  0  0  0  0  0  0  # atno 10718 bound_to 10713
  153.2893  135.4147  155.1152 H   0  0  0  0  0  0  0  0  0  0  0  0  # atno 10763 bound_to 10752
  154.8515  135.3514  154.6003 H   0  0  0  0  0  0  0  0  0  0  0  0  # atno 10764 bound_to 10752
  153.6425  135.7056  153.5294 H   0  0  0  0  0  0  0  0  0  0  0  0  # atno 10765 bound_to 10752
  140.5051  134.0707  155.7803 H   0  0  0  0  0  0  0  0  0  0  0  0  # atno 11005 bound_to 11000
  146.0173  139.3221  143.0834 LP  0  0  0  0  0  0  0  0  0  0  0  0  # atno 17320 bound_to 7965
  145.8610  140.9475  143.0700 LP  0  0  0  0  0  0  0  0  0  0  0  0  # atno 17321 bound_to 7965
  140.7501  143.2950  151.3228 LP  0  0  0  0  0  0  0  0  0  0  0  0  # atno 17342 bound_to 10162
  139.6436  144.0493  152.2573 LP  0  0  0  0  0  0  0  0  0  0  0  0  # atno 17343 bound_to 10162
  155.9989  130.3892  150.2685 LP  0  0  0  0  0  0  0  0  0  0  0  0  # atno 17370 bound_to 10713
  157.0857  131.0156  151.3140 LP  0  0  0  0  0  0  0  0  0  0  0  0  # atno 17371 bound_to 10713
  141.1415  133.9130  157.2314 LP  0  0  0  0  0  0  0  0  0  0  0  0  # atno 17394 bound_to 11000
  139.9691  135.0133  156.9465 LP  0  0  0  0  0  0  0  0  0  0  0  0  # atno 17395 bound_to 11000

$$$$
