AV-unprocessed.smi:256|AV-procd|sdf|1959|dock1
  -GOLD-   2262021103D 1   1.00000     0.00000
 Structure written by MMmdl.
 62 65  0  0  0  0  0  0  0  0  2 V2000
  152.4630  138.7798  159.1151 C   0  0  0  0  0  0  0  0  0  0  0  0
  152.5230  140.1053  158.3429 C   0  0  0  0  0  0  0  0  0  0  0  0
  151.2572  140.9895  158.5023 C   0  0  2  0  0  0  0  0  0  0  0  0
  149.9841  140.3537  157.8940 C   0  0  0  0  0  0  0  0  0  0  0  0
  150.0132  140.4011  156.4323 N   0  0  0  0  0  0  0  0  0  0  0  0
  150.4484  139.3010  155.7568 C   0  0  0  0  0  0  0  0  0  0  0  0
  151.4201  139.4898  154.8256 N   0  0  0  0  0  0  0  0  0  0  0  0
  151.8971  138.4651  154.1154 C   0  0  0  0  0  0  0  0  0  0  0  0
  151.5489  137.1806  154.1727 N   0  0  0  0  0  0  0  0  0  0  0  0
  150.5742  136.9742  155.1023 C   0  0  0  0  0  0  0  0  0  0  0  0
  149.9744  137.9639  155.9357 C   0  0  0  0  0  0  0  0  0  0  0  0
  149.0180  137.3598  156.7467 N   0  0  0  0  0  0  0  0  0  0  0  0
  149.0597  136.0974  156.4230 C   0  0  0  0  0  0  0  0  0  0  0  0
  149.9583  135.7798  155.4320 N   0  0  0  0  0  0  0  0  0  0  0  0
  150.2070  134.4618  154.8676 C   0  0  0  0  0  0  0  0  0  0  0  0
  148.9324  133.7407  154.3627 C   0  0  0  0  0  0  0  0  0  0  0  0
  148.1755  134.6692  153.6053 O   0  0  0  0  0  0  0  0  0  0  0  0
  149.3136  132.5620  153.4447 C   0  0  0  0  0  0  0  0  0  0  0  0
  148.0926  131.7091  153.0577 C   0  0  0  0  0  0  0  0  0  0  0  0
  147.4279  131.2544  154.2300 O   0  0  0  0  0  0  0  0  0  0  0  0
  146.9057  132.3202  155.0139 C   0  0  0  0  0  0  0  0  0  0  0  0
  148.0491  133.2193  155.5173 C   0  0  0  0  0  0  0  0  0  0  0  0
  150.1781  141.7437  155.8887 C   0  0  0  0  0  0  0  0  0  0  0  0
  151.4313  142.4236  156.4705 C   0  0  0  0  0  0  0  0  0  0  0  0
  151.4298  142.3747  157.9571 N   0  3  2  0  0  0  0  0  0  0  0  0
  152.5282  143.1885  158.5464 C   0  0  0  0  0  0  0  0  0  0  0  0
  152.3885  143.4034  160.0665 C   0  0  0  0  0  0  0  0  0  0  0  0
  151.4515  144.4262  160.3790 O   0  0  0  0  0  0  0  0  0  0  0  0
  151.8341  145.7230  159.9473 C   0  0  0  0  0  0  0  0  0  0  0  0
  153.4145  138.2522  159.0454 H   0  0  0  0  0  0  0  0  0  0  0  0
  151.6972  138.1130  158.7198 H   0  0  0  0  0  0  0  0  0  0  0  0
  152.2542  138.9466  160.1721 H   0  0  0  0  0  0  0  0  0  0  0  0
  153.3975  140.6411  158.7088 H   0  0  0  0  0  0  0  0  0  0  0  0
  152.7186  139.8957  157.2916 H   0  0  0  0  0  0  0  0  0  0  0  0
  151.0595  141.0799  159.5699 H   0  0  0  0  0  0  0  0  0  0  0  0
  149.8227  139.3502  158.2846 H   0  0  0  0  0  0  0  0  0  0  0  0
  149.1137  140.9255  158.2184 H   0  0  0  0  0  0  0  0  0  0  0  0
  152.6664  138.7095  153.3977 H   0  0  0  0  0  0  0  0  0  0  0  0
  148.4245  135.3603  156.8924 H   0  0  0  0  0  0  0  0  0  0  0  0
  150.9276  134.5684  154.0555 H   0  0  0  0  0  0  0  0  0  0  0  0
  150.7002  133.8578  155.6304 H   0  0  0  0  0  0  0  0  0  0  0  0
  148.7059  134.9731  152.8846 H   0  0  0  0  0  0  0  0  0  0  0  0
  149.8171  132.9234  152.5469 H   0  0  0  0  0  0  0  0  0  0  0  0
  150.0314  131.9215  153.9590 H   0  0  0  0  0  0  0  0  0  0  0  0
  147.4021  132.2718  152.4277 H   0  0  0  0  0  0  0  0  0  0  0  0
  148.4125  130.8435  152.4776 H   0  0  0  0  0  0  0  0  0  0  0  0
  146.1815  132.8936  154.4333 H   0  0  0  0  0  0  0  0  0  0  0  0
  146.3654  131.8981  155.8614 H   0  0  0  0  0  0  0  0  0  0  0  0
  148.6654  132.6419  156.2074 H   0  0  0  0  0  0  0  0  0  0  0  0
  147.6336  134.0456  156.0949 H   0  0  0  0  0  0  0  0  0  0  0  0
  150.1880  141.7445  154.7996 H   0  0  0  0  0  0  0  0  0  0  0  0
  149.2970  142.3216  156.1697 H   0  0  0  0  0  0  0  0  0  0  0  0
  152.3390  141.9524  156.0939 H   0  0  0  0  0  0  0  0  0  0  0  0
  151.4587  143.4610  156.1352 H   0  0  0  0  0  0  0  0  0  0  0  0
  153.4952  142.7409  158.3179 H   0  0  0  0  0  0  0  0  0  0  0  0
  152.5416  144.1607  158.0537 H   0  0  0  0  0  0  0  0  0  0  0  0
  152.0618  142.4821  160.5481 H   0  0  0  0  0  0  0  0  0  0  0  0
  153.3593  143.6340  160.5074 H   0  0  0  0  0  0  0  0  0  0  0  0
  151.0927  146.4487  160.2816 H   0  0  0  0  0  0  0  0  0  0  0  0
  151.8912  145.7889  158.8609 H   0  0  0  0  0  0  0  0  0  0  0  0
  152.7975  146.0130  160.3685 H   0  0  0  0  0  0  0  0  0  0  0  0
  150.5838  142.8569  158.2256 H   0  0  0  0  0  0  0  0  0  0  0  0
  1  2  1  0  0  0  0
  1 30  1  0  0  0  0
  1 31  1  0  0  0  0
  1 32  1  0  0  0  0
  2  3  1  0  0  0  0
  2 33  1  0  0  0  0
  2 34  1  0  0  0  0
  3 25  1  0  0  0  0
  3  4  1  0  0  0  0
  3 35  1  0  0  0  0
  4  5  1  0  0  0  0
  4 36  1  0  0  0  0
  4 37  1  0  0  0  0
  5  6  1  0  0  0  0
  5 23  1  0  0  0  0
  6 11  1  0  0  0  0
  6  7  2  0  0  0  0
  7  8  1  0  0  0  0
  8  9  2  0  0  0  0
  8 38  1  0  0  0  0
  9 10  1  0  0  0  0
 10 14  1  0  0  0  0
 10 11  2  0  0  0  0
 11 12  1  0  0  0  0
 12 13  2  0  0  0  0
 13 14  1  0  0  0  0
 13 39  1  0  0  0  0
 14 15  1  0  0  0  0
 15 16  1  0  0  0  0
 15 40  1  0  0  0  0
 15 41  1  0  0  0  0
 16 22  1  0  0  0  0
 16 17  1  0  0  0  0
 16 18  1  0  0  0  0
 17 42  1  0  0  0  0
 18 19  1  0  0  0  0
 18 43  1  0  0  0  0
 18 44  1  0  0  0  0
 19 20  1  0  0  0  0
 19 45  1  0  0  0  0
 19 46  1  0  0  0  0
 20 21  1  0  0  0  0
 21 22  1  0  0  0  0
 21 47  1  0  0  0  0
 21 48  1  0  0  0  0
 22 49  1  0  0  0  0
 22 50  1  0  0  0  0
 23 24  1  0  0  0  0
 23 51  1  0  0  0  0
 23 52  1  0  0  0  0
 24 25  1  0  0  0  0
 24 53  1  0  0  0  0
 24 54  1  0  0  0  0
 25 26  1  0  0  0  0
 25 62  1  0  0  0  0
 26 27  1  0  0  0  0
 26 55  1  0  0  0  0
 26 56  1  0  0  0  0
 27 28  1  0  0  0  0
 27 57  1  0  0  0  0
 27 58  1  0  0  0  0
 28 29  1  0  0  0  0
 29 59  1  0  0  0  0
 29 60  1  0  0  0  0
 29 61  1  0  0  0  0
M  CHG  1  25   1
M  END
> <s_m_source_file>
AV-unprocessed.smi

> <i_m_source_file_index>
256

> <i_lp_mmshare_version>
43012

> <i_f3d_flags>
0

> <s_epik_input>
W0NIM11PW0NIMl1bQ0gyXU4xW0NIMl1bQ0gyXU4oW0NIMl1bQ0BIXTFbQ0gyXVtDSDNdKWMobltjSF1uMiljKGMyMyluW2NIXW4zW0NIMl1DNChbT0hdKVtDSDJdW0NIMl1PW0NIMl1bQ0gyXTQ=

> <s_epik_cmdline>
J2VwaWtfcHl0aG9uJywgJy1waCcsICc3LjAnLCAnLXRuJywgJzgnLCAnLW1hJywgJzIwMCcsICctbWV0YWxfYmluZGluZycsICctaW1hZScsICc8aW5maWxlLm1hZT4nLCAnLW9tYWUnLCAnPG91dGZpbGUubWFlPic=

> <r_lp_tautomer_probability>
1

> <r_epik_Ionization_Penalty>
0.233023

> <r_epik_Ionization_Penalty_Charging>
0.23295

> <r_epik_Ionization_Penalty_Neutral>
7.2493e-05

> <r_epik_State_Penalty>
0.223667

> <r_epik_Charging_Adjusted_Penalty>
0.456618

> <i_epik_Tot_Q>
1

> <i_epik_Tot_abs_Q>
1

> <r_epik_Metal_State_Penalty>
0.226879

> <b_epik_Metal_Only>
0

> <s_lp_Force_Field>
OPLS_2005

> <r_lp_Energy>
46.9359

> <b_lp_Chiralities_Consistent>
1

> <s_lp_Variant>
AV-unprocessed.smi:256-3

> <Gold.Version>
5.8.1

> <Gold.Id.Protein>
6NUR|6NUR_protein|mol2

> <Gold.PLP.Fitness>
50.0843

> <Gold.PLP.PLP>
-42.9365

> <Gold.PLP.part.hbond>
-3.0000

> <Gold.PLP.part.metal>
0.0000

> <Gold.PLP.part.buried>
-8.2946

> <Gold.PLP.part.nonpolar>
-31.6917

> <Gold.PLP.part.repulsive>
0.8139

> <Gold.PLP.ligand.clash>
0.0000

> <Gold.PLP.ligand.torsion>
0.9443

> <Gold.PLP.Chemscore.Hbond>
2.8388

> <Gold.PLP.Chemscore.CHOScore>
0.0000

> <Gold.PLP.Chemscore.Metal>
0.0000

> <Gold.Chemscore.Hbonds>
donor molecule, donor type, donor heavy atom, donor atom, acceptor molecule, acceptor atom, score
      L1  H    17    42       P1  7948  0.91
      P1  H  7989  7998       L1     7  0.90
      P1  H 10752 10764       L1     9  0.89

> <Gold.PLP.Chemscore.Internal.Correction>
0.5199

> <Gold.Rescore>
     Score         DG    S(hbond)    S(metal)    S(lipo)     H(rot)  DE(clash)    DE(int)     intcor
     12.86     -13.88       1.17        0.00      96.37       2.65       0.13       0.89       ----

> <Gold.Chemscore.Fitness>
12.8607

> <Gold.Chemscore.DG>
-13.8834

> <Gold.Chemscore.ZeroCoef>
-5.4800

> <Gold.Chemscore.Hbond>
1.1684

> <Gold.Chemscore.Metal>
0.0000

> <Gold.Chemscore.Lipo>
96.3702

> <Gold.Chemscore.Internal_Hbond>
0.0000

> <Gold.Chemscore.DEClash>
0.1321

> <Gold.Chemscore.DEInternal>
0.8907

> <Gold.Chemscore.Rot>
2.6462

> <Gold.Chemscore.Internal.Correction>
   9.000000E+99

> <Gold.Chemscore.Hbonds>
donor molecule, donor type, donor heavy atom, donor atom, acceptor molecule, acceptor atom, score
      L1  H    17    42       P1  7948  0.26
      P1  H  7989  7998       L1     7  0.18
      P1  H 10752 10764       L1     9  0.56

> <Gold.Chemscore.Hbond.Weighted>
-3.9023

> <Gold.Chemscore.Metal.Weighted>
-0.0000

> <Gold.Chemscore.Lipo.Weighted>
-11.2753

> <Gold.Chemscore.Internal_Hbond.Weighted>
0.0000

> <Gold.Chemscore.DEClash.Weighted>
0.1321

> <Gold.Chemscore.DEInternal.Weighted>
0.8907

> <Gold.Chemscore.Rot.Weighted>
6.7742

> <Gold.Chemscore.Internal.Correction.Weighted>
   9.000000E+99

> <Gold.Protein.RotatedTorsions>
[ 6907 6896 6895 6894 ] final  146.98 input  -60.11 | X-H torsion
[ 7974 7965 7964 7962 ] final  137.74 input  175.53 | X-H torsion
[ 8008 7997 7996 7995 ] final -161.21 input   59.86 | X-H torsion
[ 10167 10162 10161 10158 ] final -169.41 input  -65.29 | X-H torsion
[ 10718 10713 10712 10709 ] final   11.47 input   66.30 | X-H torsion
[ 10763 10752 10751 10750 ] final  -72.75 input  -60.55 | X-H torsion
[ 11005 11000 10999 10996 ] final  -76.60 input  -57.11 | X-H torsion

> <Gold.Protein.ActiveResidues>
 VAL166  LYS551  ARG553  GLY616  TRP617  ASP618  TYR619  PRO620  LYS621  CYS622 
 ASP623  PHE694  ASN695  SER759  ASP760  ASP761  ALA762  ILE779  LEU786  VAL792 
 PHE793  MET794  SER795  GLU796  ALA797  LYS798  CYS799  TRP800  GLU811  SER814 

> <Gold.Protein.RotatedAtoms>
  152.1608  133.4580  159.4859 H   0  0  0  0  0  0  0  0  0  0  0  0  # atno 6907 bound_to 6896
  150.6906  134.2074  159.4355 H   0  0  0  0  0  0  0  0  0  0  0  0  # atno 6908 bound_to 6896
  151.9976  134.9945  160.0614 H   0  0  0  0  0  0  0  0  0  0  0  0  # atno 6909 bound_to 6896
  144.9439  139.4898  143.5559 H   0  0  0  0  0  0  0  0  0  0  0  0  # atno 7974 bound_to 7965
  155.7888  140.0875  157.2020 H   0  0  0  0  0  0  0  0  0  0  0  0  # atno 8008 bound_to 7997
  154.3986  140.1494  156.3197 H   0  0  0  0  0  0  0  0  0  0  0  0  # atno 8009 bound_to 7997
  155.8579  140.3431  155.5739 H   0  0  0  0  0  0  0  0  0  0  0  0  # atno 8010 bound_to 7997
  139.5925  144.1183  152.1650 H   0  0  0  0  0  0  0  0  0  0  0  0  # atno 10167 bound_to 10162
  156.9960  130.6061  149.5691 H   0  0  0  0  0  0  0  0  0  0  0  0  # atno 10718 bound_to 10713
  154.4500  135.5920  153.6185 H   0  0  0  0  0  0  0  0  0  0  0  0  # atno 10763 bound_to 10752
  152.9813  135.6018  154.3616 H   0  0  0  0  0  0  0  0  0  0  0  0  # atno 10764 bound_to 10752
  154.3476  135.2841  155.2368 H   0  0  0  0  0  0  0  0  0  0  0  0  # atno 10765 bound_to 10752
  141.1655  133.6990  156.7693 H   0  0  0  0  0  0  0  0  0  0  0  0  # atno 11005 bound_to 11000
  146.3296  139.8477  142.8879 LP  0  0  0  0  0  0  0  0  0  0  0  0  # atno 17320 bound_to 7965
  145.2949  141.0178  143.3642 LP  0  0  0  0  0  0  0  0  0  0  0  0  # atno 17321 bound_to 7965
  140.0761  144.5739  150.7156 LP  0  0  0  0  0  0  0  0  0  0  0  0  # atno 17342 bound_to 10162
  140.7185  143.2566  151.4358 LP  0  0  0  0  0  0  0  0  0  0  0  0  # atno 17343 bound_to 10162
  156.0189  130.5283  150.8217 LP  0  0  0  0  0  0  0  0  0  0  0  0  # atno 17370 bound_to 10713
  157.5424  131.0941  150.9809 LP  0  0  0  0  0  0  0  0  0  0  0  0  # atno 17371 bound_to 10713
  140.2476  134.8565  157.3635 LP  0  0  0  0  0  0  0  0  0  0  0  0  # atno 17394 bound_to 11000
  140.1734  134.4580  155.7817 LP  0  0  0  0  0  0  0  0  0  0  0  0  # atno 17395 bound_to 11000

$$$$
