AV-unprocessed.smi:2611|AV-procd|sdf|10210|dock5
  -GOLD-   2272014213D 1   1.00000     0.00000
 Structure written by MMmdl.
 39 40  0  0  0  0  0  0  0  0  1 V2000
  153.5556  141.2099  161.0469 C   0  0  0  0  0  0  0  0  0  0  0  0
  153.2669  141.4165  159.5527 C   0  0  0  0  0  0  0  0  0  0  0  0
  152.5868  142.7608  159.2544 C   0  0  0  0  0  0  0  0  0  0  0  0
  152.5023  140.2668  158.9714 C   0  0  0  0  0  0  0  0  0  0  0  0
  153.0755  139.4125  158.1314 N   0  0  0  0  0  0  0  0  0  0  0  0
  152.0472  138.5060  157.8365 O   0  0  0  0  0  0  0  0  0  0  0  0
  150.9650  138.9381  158.5268 C   0  0  0  0  0  0  0  0  0  0  0  0
  149.7037  138.1443  158.4597 C   0  0  0  0  0  0  0  0  0  0  0  0
  149.8875  136.7083  158.9758 C   0  0  0  0  0  0  0  0  0  0  0  0
  149.1034  136.4687  160.1816 N   0  0  0  0  0  0  0  0  0  0  0  0
  147.7664  136.5708  160.2726 C   0  0  0  0  0  0  0  0  0  0  0  0
  147.0700  136.9150  159.3165 O   0  0  0  0  0  0  0  0  0  0  0  0
  147.2569  136.2884  161.4989 N   0  0  0  0  0  0  0  0  0  0  0  0
  147.8674  135.4014  162.5028 C   0  0  0  0  0  0  0  0  0  0  0  0
  147.2526  133.9980  162.3720 C   0  0  0  0  0  0  0  0  0  0  0  0
  145.4662  134.0353  162.7195 S   0  0  0  0  0  0  0  0  0  0  0  0
  144.9713  135.4154  161.6404 C   0  0  0  0  0  0  0  0  0  0  0  0
  145.8775  136.6394  161.8566 C   0  0  0  0  0  0  0  0  0  0  0  0
  151.1944  140.0210  159.2646 N   0  0  0  0  0  0  0  0  0  0  0  0
  154.1024  140.2818  161.2160 H   0  0  0  0  0  0  0  0  0  0  0  0
  152.6335  141.1643  161.6269 H   0  0  0  0  0  0  0  0  0  0  0  0
  154.1585  142.0257  161.4464 H   0  0  0  0  0  0  0  0  0  0  0  0
  154.2371  141.4461  159.0540 H   0  0  0  0  0  0  0  0  0  0  0  0
  152.4649  142.9086  158.1809 H   0  0  0  0  0  0  0  0  0  0  0  0
  153.1783  143.5926  159.6371 H   0  0  0  0  0  0  0  0  0  0  0  0
  151.5991  142.8174  159.7133 H   0  0  0  0  0  0  0  0  0  0  0  0
  148.9385  138.6620  159.0395 H   0  0  0  0  0  0  0  0  0  0  0  0
  149.3569  138.1312  157.4257 H   0  0  0  0  0  0  0  0  0  0  0  0
  149.5617  135.9969  158.2165 H   0  0  0  0  0  0  0  0  0  0  0  0
  150.9422  136.5004  159.1641 H   0  0  0  0  0  0  0  0  0  0  0  0
  149.6128  136.1956  161.0095 H   0  0  0  0  0  0  0  0  0  0  0  0
  148.9527  135.3418  162.4189 H   0  0  0  0  0  0  0  0  0  0  0  0
  147.6865  135.7939  163.5045 H   0  0  0  0  0  0  0  0  0  0  0  0
  147.4132  133.6036  161.3679 H   0  0  0  0  0  0  0  0  0  0  0  0
  147.7289  133.3069  163.0671 H   0  0  0  0  0  0  0  0  0  0  0  0
  145.0158  135.0880  160.6010 H   0  0  0  0  0  0  0  0  0  0  0  0
  143.9321  135.6689  161.8506 H   0  0  0  0  0  0  0  0  0  0  0  0
  145.8288  136.9655  162.8964 H   0  0  0  0  0  0  0  0  0  0  0  0
  145.5087  137.4839  161.2725 H   0  0  0  0  0  0  0  0  0  0  0  0
  1  2  1  0  0  0  0
  1 20  1  0  0  0  0
  1 21  1  0  0  0  0
  1 22  1  0  0  0  0
  2  3  1  0  0  0  0
  2  4  1  0  0  0  0
  2 23  1  0  0  0  0
  3 24  1  0  0  0  0
  3 25  1  0  0  0  0
  3 26  1  0  0  0  0
  4 19  1  0  0  0  0
  4  5  2  0  0  0  0
  5  6  1  0  0  0  0
  6  7  1  0  0  0  0
  7  8  1  0  0  0  0
  7 19  2  0  0  0  0
  8  9  1  0  0  0  0
  8 27  1  0  0  0  0
  8 28  1  0  0  0  0
  9 10  1  0  0  0  0
  9 29  1  0  0  0  0
  9 30  1  0  0  0  0
 10 11  1  0  0  0  0
 10 31  1  0  0  0  0
 11 12  2  0  0  0  0
 11 13  1  0  0  0  0
 13 18  1  0  0  0  0
 13 14  1  0  0  0  0
 14 15  1  0  0  0  0
 14 32  1  0  0  0  0
 14 33  1  0  0  0  0
 15 16  1  0  0  0  0
 15 34  1  0  0  0  0
 15 35  1  0  0  0  0
 16 17  1  0  0  0  0
 17 18  1  0  0  0  0
 17 36  1  0  0  0  0
 17 37  1  0  0  0  0
 18 38  1  0  0  0  0
 18 39  1  0  0  0  0
M  END
> <s_m_source_file>
AV-unprocessed.smi

> <i_m_source_file_index>
2611

> <i_lp_mmshare_version>
43012

> <i_f3d_flags>
0

> <s_epik_input>
W0NIM11bQ0hdKFtDSDNdKWMxbm9jKG4xKVtDSDJdW0NIMl1bTkhdQyg9TylOMltDSDJdW0NIMl1TW0NIMl1bQ0gyXTI=

> <s_epik_cmdline>
J2VwaWtfcHl0aG9uJywgJy1waCcsICc3LjAnLCAnLXRuJywgJzgnLCAnLW1hJywgJzIwMCcsICctbWV0YWxfYmluZGluZycsICctaW1hZScsICc8aW5maWxlLm1hZT4nLCAnLW9tYWUnLCAnPG91dGZpbGUubWFlPic=

> <r_lp_tautomer_probability>
1

> <r_epik_Ionization_Penalty>
4.28847e-05

> <r_epik_Ionization_Penalty_Charging>
0

> <r_epik_Ionization_Penalty_Neutral>
4.28847e-05

> <r_epik_State_Penalty>
-0

> <r_epik_Charging_Adjusted_Penalty>
0

> <i_epik_Tot_Q>
0

> <i_epik_Tot_abs_Q>
0

> <r_epik_Metal_State_Penalty>
-0

> <b_epik_Metal_Only>
0

> <s_lp_Force_Field>
OPLS_2005

> <r_lp_Energy>
14.602

> <b_lp_Chiralities_Consistent>
1

> <s_lp_Variant>
AV-unprocessed.smi:2611-1

> <Gold.Version>
5.8.1

> <Gold.Id.Protein>
6NUR|6NUR_protein|mol2

> <Gold.PLP.Fitness>
37.8017

> <Gold.PLP.PLP>
-36.0651

> <Gold.PLP.part.hbond>
-1.2489

> <Gold.PLP.part.metal>
0.0000

> <Gold.PLP.part.buried>
-4.4928

> <Gold.PLP.part.nonpolar>
-30.6832

> <Gold.PLP.part.repulsive>
0.5929

> <Gold.PLP.ligand.clash>
0.0000

> <Gold.PLP.ligand.torsion>
0.6910

> <Gold.PLP.Chemscore.Hbond>
1.0000

> <Gold.PLP.Chemscore.CHOScore>
0.0000

> <Gold.PLP.Chemscore.Metal>
0.0000

> <Gold.Chemscore.Hbonds>
donor molecule, donor type, donor heavy atom, donor atom, acceptor molecule, acceptor atom, score
      P1  H  7997  8009       L1     5  0.99

> <Gold.PLP.Chemscore.Internal.Correction>
0.1186

> <Gold.Rescore>
     Score         DG    S(hbond)    S(metal)    S(lipo)     H(rot)  DE(clash)    DE(int)     intcor
     12.53     -13.13       0.99        0.00      74.81       1.72       0.00       0.60       ----

> <Gold.Chemscore.Fitness>
12.5255

> <Gold.Chemscore.DG>
-13.1262

> <Gold.Chemscore.ZeroCoef>
-5.4800

> <Gold.Chemscore.Hbond>
0.9866

> <Gold.Chemscore.Metal>
0.0000

> <Gold.Chemscore.Lipo>
74.8076

> <Gold.Chemscore.Internal_Hbond>
0.0000

> <Gold.Chemscore.DEClash>
0.0000

> <Gold.Chemscore.DEInternal>
0.6007

> <Gold.Chemscore.Rot>
1.7193

> <Gold.Chemscore.Internal.Correction>
   9.000000E+99

> <Gold.Chemscore.Hbonds>
donor molecule, donor type, donor heavy atom, donor atom, acceptor molecule, acceptor atom, score
      P1  H  7997  8009       L1     5  0.86

> <Gold.Chemscore.Hbond.Weighted>
-3.2952

> <Gold.Chemscore.Metal.Weighted>
-0.0000

> <Gold.Chemscore.Lipo.Weighted>
-8.7525

> <Gold.Chemscore.Internal_Hbond.Weighted>
0.0000

> <Gold.Chemscore.DEClash.Weighted>
0.0000

> <Gold.Chemscore.DEInternal.Weighted>
0.6007

> <Gold.Chemscore.Rot.Weighted>
4.4015

> <Gold.Chemscore.Internal.Correction.Weighted>
   9.000000E+99

> <Gold.Protein.RotatedTorsions>
[ 6907 6896 6895 6894 ] final   26.51 input  -60.11 | X-H torsion
[ 7974 7965 7964 7962 ] final -106.10 input  175.53 | X-H torsion
[ 8008 7997 7996 7995 ] final  139.88 input   59.86 | X-H torsion
[ 10167 10162 10161 10158 ] final  156.16 input  -65.29 | X-H torsion
[ 10718 10713 10712 10709 ] final   32.87 input   66.30 | X-H torsion
[ 10763 10752 10751 10750 ] final  125.05 input  -60.55 | X-H torsion
[ 11005 11000 10999 10996 ] final   -7.58 input  -57.11 | X-H torsion

> <Gold.Protein.ActiveResidues>
 VAL166  LYS551  ARG553  GLY616  TRP617  ASP618  TYR619  PRO620  LYS621  CYS622 
 ASP623  PHE694  ASN695  SER759  ASP760  ASP761  ALA762  ILE779  LEU786  VAL792 
 PHE793  MET794  SER795  GLU796  ALA797  LYS798  CYS799  TRP800  GLU811  SER814 

> <Gold.Protein.RotatedAtoms>
  151.9885  134.9992  160.0560 H   0  0  0  0  0  0  0  0  0  0  0  0  # atno 6907 bound_to 6896
  152.1631  133.4589  159.4879 H   0  0  0  0  0  0  0  0  0  0  0  0  # atno 6908 bound_to 6896
  150.6890  134.1965  159.4348 H   0  0  0  0  0  0  0  0  0  0  0  0  # atno 6909 bound_to 6896
  145.2221  140.9138  143.3253 H   0  0  0  0  0  0  0  0  0  0  0  0  # atno 7974 bound_to 7965
  156.2985  140.2356  156.4309 H   0  0  0  0  0  0  0  0  0  0  0  0  # atno 8008 bound_to 7997
  154.8271  140.0435  157.1471 H   0  0  0  0  0  0  0  0  0  0  0  0  # atno 8009 bound_to 7997
  154.9249  140.3009  155.5200 H   0  0  0  0  0  0  0  0  0  0  0  0  # atno 8010 bound_to 7997
  139.4821  144.5034  151.8134 H   0  0  0  0  0  0  0  0  0  0  0  0  # atno 10167 bound_to 10162
  157.2906  130.7301  149.6609 H   0  0  0  0  0  0  0  0  0  0  0  0  # atno 10718 bound_to 10713
  153.6711  135.3330  155.3153 H   0  0  0  0  0  0  0  0  0  0  0  0  # atno 10763 bound_to 10752
  154.8490  135.4386  154.1704 H   0  0  0  0  0  0  0  0  0  0  0  0  # atno 10764 bound_to 10752
  153.2695  135.6999  153.7571 H   0  0  0  0  0  0  0  0  0  0  0  0  # atno 10765 bound_to 10752
  140.7143  133.8882  155.8774 H   0  0  0  0  0  0  0  0  0  0  0  0  # atno 11005 bound_to 11000
  144.9756  139.3835  143.6287 LP  0  0  0  0  0  0  0  0  0  0  0  0  # atno 17320 bound_to 7965
  146.3373  139.8873  142.8814 LP  0  0  0  0  0  0  0  0  0  0  0  0  # atno 17321 bound_to 7965
  140.4529  144.1829  150.5899 LP  0  0  0  0  0  0  0  0  0  0  0  0  # atno 17342 bound_to 10162
  140.4565  143.2465  151.9277 LP  0  0  0  0  0  0  0  0  0  0  0  0  # atno 17343 bound_to 10162
  155.9667  130.4310  150.4900 LP  0  0  0  0  0  0  0  0  0  0  0  0  # atno 17370 bound_to 10713
  157.2862  131.0617  151.2164 LP  0  0  0  0  0  0  0  0  0  0  0  0  # atno 17371 bound_to 10713
  141.0058  134.1089  157.4272 LP  0  0  0  0  0  0  0  0  0  0  0  0  # atno 17394 bound_to 11000
  139.8864  135.0081  156.6494 LP  0  0  0  0  0  0  0  0  0  0  0  0  # atno 17395 bound_to 11000

$$$$
