#       Name:                AV-unprocessed.smi:560
#       Creating user name   scv26
#       Creation time:       Thu Mar 26 23:42:54 2020


#       File generated by GOLD software.
#

@<TRIPOS>MOLECULE
AV-unprocessed.smi:560
    47    48     1
SMALL
NO_CHARGES


@<TRIPOS>ATOM
      1 ****        -3.6054  -2.4543   1.6013 C.3            1 S1                 0.0000
      2 ****        -2.9720  -1.6525   0.4464 C.3            1 S1                 0.0000
      3 ****        -1.4452  -1.5322   0.5748 C.2            1 S1                 0.0000
      4 ****        -0.7921  -2.3980   1.1588 O.2            1 S1                 0.0000
      5 ****        -0.8868  -0.4438   0.0210 N.am           1 S1                 0.0000
      6 ****         0.5402  -0.1375   0.0202 C.3            1 S1                 0.0000
      7 ****         0.9735   0.4623   1.3711 C.3            1 S1                 0.0000
      8 ****         2.4491   0.8916   1.3417 C.3            1 S1                 0.0000
      9 ****         2.7024   1.8531   0.2361 N.4            1 S1                 1.0000
     10 ****         4.0758   2.4190   0.2499 C.3            1 S1                 0.0000
     11 ****         4.2121   3.4966   1.3319 C.2            1 S1                 0.0000
     12 ****         3.3639   4.5275   1.1414 N.pl3          1 S1                -1.0000
     13 ****         5.0323   3.3508   2.2349 O.2            1 S1                 0.0000
     14 ****         2.3362   1.2796  -1.0829 C.3            1 S1                 0.0000
     15 ****         0.8586   0.8540  -1.1108 C.3            1 S1                 0.0000
     16 ****        -3.3309  -2.1923  -0.8598 N.pl3          1 S1                 0.0000
     17 ****        -3.7876  -1.5039  -1.9655 C.2            1 S1                 0.0000
     18 ****        -3.9618  -2.4104  -2.9714 C.2            1 S1                 0.0000
     19 ****        -3.5688  -3.6453  -2.3851 C.2            1 S1                 0.0000
     20 ****        -3.1854  -3.5115  -1.1263 N.2            1 S1                 0.0000
     21 ****        -3.3720  -2.0035   2.5665 H              1 S1                 0.0000
     22 ****        -3.2558  -3.4872   1.6264 H              1 S1                 0.0000
     23 ****        -4.6914  -2.4770   1.5060 H              1 S1                 0.0000
     24 ****        -3.3820  -0.6424   0.4985 H              1 S1                 0.0000
     25 ****        -1.4957   0.2180  -0.4383 H              1 S1                 0.0000
     26 ****         1.1018  -1.0563  -0.1604 H              1 S1                 0.0000
     27 ****         0.3514   1.3259   1.6114 H              1 S1                 0.0000
     28 ****         0.8207  -0.2607   2.1732 H              1 S1                 0.0000
     29 ****         2.7074   1.3415   2.3007 H              1 S1                 0.0000
     30 ****         3.0914   0.0181   1.2205 H              1 S1                 0.0000
     31 ****         4.8127   1.6276   0.3974 H              1 S1                 0.0000
     32 ****         4.3056   2.8833  -0.7106 H              1 S1                 0.0000
     33 ****         3.3786   5.3069   1.8106 H              1 S1                 0.0000
     34 ****         2.5088   2.0193  -1.8655 H              1 S1                 0.0000
     35 ****         2.9812   0.4272  -1.3024 H              1 S1                 0.0000
     36 ****         0.6224   0.4079  -2.0776 H              1 S1                 0.0000
     37 ****         0.2284   1.7399  -1.0169 H              1 S1                 0.0000
     38 ****        -3.9504  -0.4363  -1.9449 H              1 S1                 0.0000
     39 ****        -4.3127  -2.2202  -3.9746 H              1 S1                 0.0000
     40 ****        -3.5470  -4.6271  -2.8347 H              1 S1                 0.0000
     41 ****         2.0904   2.6437   0.3852 H              1 S1                 0.0000
     42 ****        -1.2549  -3.1906   1.5560 LP             1 S1                 0.0000
     43 ****         0.2009  -2.3084   1.2358 LP             1 S1                 0.0000
     44 ****         2.7337   4.5332   0.3650 LP             1 S1                 0.0000
     45 ****         5.6065   2.5325   2.2615 LP             1 S1                 0.0000
     46 ****         5.1256   4.0503   2.9434 LP             1 S1                 0.0000
     47 ****        -2.8600  -4.2269  -0.5080 LP             1 S1                 0.0000
@<TRIPOS>BOND
    1    1    2 1     
    2    1   21 1     
    3    1   22 1     
    4    1   23 1     
    5    2    3 1     
    6    2   16 1     
    7    2   24 1     
    8    3    4 2     
    9    3    5 am    
   10    5    6 1     
   11    5   25 1     
   12    6   15 1     
   13    6    7 1     
   14    6   26 1     
   15    7    8 1     
   16    7   27 1     
   17    7   28 1     
   18    8    9 1     
   19    8   29 1     
   20    8   30 1     
   21    9   10 1     
   22    9   14 1     
   23    9   41 1     
   24   10   11 1     
   25   10   31 1     
   26   10   32 1     
   27   11   12 1     
   28   11   13 2     
   29   12   33 1     
   30   14   15 1     
   31   14   34 1     
   32   14   35 1     
   33   15   36 1     
   34   15   37 1     
   35   16   20 1     
   36   16   17 1     
   37   17   18 2     
   38   17   38 1     
   39   18   19 1     
   40   18   39 1     
   41   19   20 2     
   42   19   40 1     
   43    4   42 1     
   44    4   43 1     
   45   12   44 1     
   46   13   45 1     
   47   13   46 1     
   48   20   47 1     
@<TRIPOS>SUBSTRUCTURE
      1 S1             1
@<TRIPOS>SET
LONE_PAIRS      STATIC     ATOMS    <user>   **** ""
6 42 43 44 45 46 47
DONOR_HYDROGENS      STATIC     ATOMS    <user>   **** ""
3 25 41 33
ATOM$BLUE        STATIC     ATOMS    COLORGROUP SYSTEM
6 42 43 44 45 46 47
ATOM$RED        STATIC     ATOMS    COLORGROUP SYSTEM
3 25 41 33
