AV-unprocessed.smi:1381|AV-procd|sdf|5619|dock6
  -GOLD-   22720 5233D 1   1.00000     0.00000
 Structure written by MMmdl.
 42 43  0  0  0  0  0  0  0  0  3 V2000
  144.8744  134.1416  162.9287 C   0  0  0  0  0  0  0  0  0  0  0  0
  145.8517  134.5264  161.8717 C   0  0  0  0  0  0  0  0  0  0  0  0
  146.0444  134.1074  160.5854 C   0  0  0  0  0  0  0  0  0  0  0  0
  147.1495  134.8893  160.1550 C   0  0  0  0  0  0  0  0  0  0  0  0
  147.6681  134.7469  158.8408 N   0  0  0  0  0  0  0  0  0  0  0  0
  148.7499  135.3306  158.2929 C   0  0  0  0  0  0  0  0  0  0  0  0
  149.4447  136.1079  158.9578 O   0  0  0  0  0  0  0  0  0  0  0  0
  148.9347  134.9549  156.9977 N   0  5  0  0  0  0  0  0  0  0  0  0
  149.7294  135.6997  156.0199 C   0  0  0  0  0  0  0  0  0  0  0  0
  149.0552  137.0514  155.7216 C   0  0  0  0  0  0  0  0  0  0  0  0
  149.5023  137.6119  154.4157 N   0  3  1  0  0  0  0  0  0  0  0  0
  148.8853  138.9146  154.0559 C   0  0  0  0  0  0  0  0  0  0  0  0
  149.5535  140.0811  154.8158 C   0  0  2  0  0  0  0  0  0  0  0  0
  149.0126  141.4439  154.3692 C   0  0  0  0  0  0  0  0  0  0  0  0
  150.9565  140.0583  154.5716 O   0  0  0  0  0  0  0  0  0  0  0  0
  151.5762  138.8576  155.0216 C   0  0  2  0  0  0  0  0  0  0  0  0
  153.0868  138.9862  154.7963 C   0  0  0  0  0  0  0  0  0  0  0  0
  150.9749  137.6672  154.2488 C   0  0  0  0  0  0  0  0  0  0  0  0
  147.5885  135.7141  161.0943 N   0  0  0  0  0  0  0  0  0  0  0  0
  146.7599  135.4851  162.1991 O   0  0  0  0  0  0  0  0  0  0  0  0
  144.1701  133.3972  162.5568 H   0  0  0  0  0  0  0  0  0  0  0  0
  144.3047  135.0093  163.2619 H   0  0  0  0  0  0  0  0  0  0  0  0
  145.3873  133.7198  163.7930 H   0  0  0  0  0  0  0  0  0  0  0  0
  145.4854  133.3602  160.0421 H   0  0  0  0  0  0  0  0  0  0  0  0
  147.1594  134.1164  158.2393 H   0  0  0  0  0  0  0  0  0  0  0  0
  150.7467  135.8862  156.3662 H   0  0  0  0  0  0  0  0  0  0  0  0
  149.8292  135.1452  155.0867 H   0  0  0  0  0  0  0  0  0  0  0  0
  147.9722  136.9276  155.7343 H   0  0  0  0  0  0  0  0  0  0  0  0
  149.2796  137.7437  156.5349 H   0  0  0  0  0  0  0  0  0  0  0  0
  149.0064  139.0612  152.9817 H   0  0  0  0  0  0  0  0  0  0  0  0
  147.8110  138.8908  154.2442 H   0  0  0  0  0  0  0  0  0  0  0  0
  149.3789  139.9815  155.8881 H   0  0  0  0  0  0  0  0  0  0  0  0
  147.9390  141.5167  154.5452 H   0  0  0  0  0  0  0  0  0  0  0  0
  149.1897  141.6113  153.3062 H   0  0  0  0  0  0  0  0  0  0  0  0
  149.4943  142.2533  154.9186 H   0  0  0  0  0  0  0  0  0  0  0  0
  151.3966  138.7387  156.0915 H   0  0  0  0  0  0  0  0  0  0  0  0
  153.6114  138.0924  155.1350 H   0  0  0  0  0  0  0  0  0  0  0  0
  153.4920  139.8370  155.3449 H   0  0  0  0  0  0  0  0  0  0  0  0
  153.3182  139.1308  153.7405 H   0  0  0  0  0  0  0  0  0  0  0  0
  151.4266  136.7244  154.5609 H   0  0  0  0  0  0  0  0  0  0  0  0
  151.1928  137.7729  153.1853 H   0  0  0  0  0  0  0  0  0  0  0  0
  149.1745  136.9358  153.7390 H   0  0  0  0  0  0  0  0  0  0  0  0
  1  2  1  0  0  0  0
  1 21  1  0  0  0  0
  1 22  1  0  0  0  0
  1 23  1  0  0  0  0
  2 20  1  0  0  0  0
  2  3  2  0  0  0  0
  3  4  1  0  0  0  0
  3 24  1  0  0  0  0
  4  5  1  0  0  0  0
  4 19  2  0  0  0  0
  5  6  1  0  0  0  0
  5 25  1  0  0  0  0
  6  7  2  0  0  0  0
  6  8  1  0  0  0  0
  8  9  1  0  0  0  0
  9 10  1  0  0  0  0
  9 26  1  0  0  0  0
  9 27  1  0  0  0  0
 10 11  1  0  0  0  0
 10 28  1  0  0  0  0
 10 29  1  0  0  0  0
 11 18  1  0  0  0  0
 11 12  1  0  0  0  0
 11 42  1  0  0  0  0
 12 13  1  0  0  0  0
 12 30  1  0  0  0  0
 12 31  1  0  0  0  0
 13 14  1  0  0  0  0
 13 15  1  0  0  0  0
 13 32  1  0  0  0  0
 14 33  1  0  0  0  0
 14 34  1  0  0  0  0
 14 35  1  0  0  0  0
 15 16  1  0  0  0  0
 16 17  1  0  0  0  0
 16 18  1  0  0  0  0
 16 36  1  0  0  0  0
 17 37  1  0  0  0  0
 17 38  1  0  0  0  0
 17 39  1  0  0  0  0
 18 40  1  0  0  0  0
 18 41  1  0  0  0  0
 19 20  1  0  0  0  0
M  CHG  1   8  -1
M  CHG  1  11   1
M  END
> <s_m_source_file>
AV-unprocessed.smi

> <i_m_source_file_index>
1381

> <i_lp_mmshare_version>
43012

> <i_f3d_flags>
0

> <s_epik_input>
W0NIM11jMVtjSF1jKG5vMSlbTkhdQyg9TylbTkhdW0NIMl1bQ0gyXU4yW0NIMl1bQ0BASF0oW0NIM10pT1tDQEBIXShbQ0gzXSlbQ0gyXTI=

> <s_epik_cmdline>
J2VwaWtfcHl0aG9uJywgJy1waCcsICc3LjAnLCAnLXRuJywgJzgnLCAnLW1hJywgJzIwMCcsICctbWV0YWxfYmluZGluZycsICctaW1hZScsICc8aW5maWxlLm1hZT4nLCAnLW9tYWUnLCAnPG91dGZpbGUubWFlPic=

> <r_epik_Ionization_Penalty>
6.8073

> <r_epik_Ionization_Penalty_Charging>
6.80729

> <r_epik_Ionization_Penalty_Neutral>
5.65391e-06

> <r_epik_State_Penalty>
7.47323

> <r_epik_Charging_Adjusted_Penalty>
14.2805

> <i_epik_Tot_Q>
0

> <i_epik_Tot_abs_Q>
2

> <r_epik_Metal_State_Penalty>
3.40035

> <b_epik_Metal_Only>
1

> <s_lp_Force_Field>
OPLS_2005

> <r_lp_Energy>
13.1386

> <b_lp_Chiralities_Consistent>
1

> <s_lp_Variant>
AV-unprocessed.smi:1381-18

> <Gold.Version>
5.8.1

> <Gold.Id.Protein>
6NUR|6NUR_protein|mol2

> <Gold.PLP.Fitness>
41.0188

> <Gold.PLP.PLP>
-29.4605

> <Gold.PLP.part.hbond>
-3.0000

> <Gold.PLP.part.metal>
0.0000

> <Gold.PLP.part.buried>
-2.3200

> <Gold.PLP.part.nonpolar>
-24.5262

> <Gold.PLP.part.repulsive>
0.1353

> <Gold.PLP.ligand.clash>
0.0000

> <Gold.PLP.ligand.torsion>
0.2397

> <Gold.PLP.Chemscore.Hbond>
4.0000

> <Gold.PLP.Chemscore.CHOScore>
0.0000

> <Gold.PLP.Chemscore.Metal>
0.0000

> <Gold.Chemscore.Hbonds>
donor molecule, donor type, donor heavy atom, donor atom, acceptor molecule, acceptor atom, score
      L1  H    11    42       P1  7948  2.00
      P1  H  6896  6908       L1     7  0.64
      P1  H  7989  7998       L1    15  0.94

> <Gold.PLP.Chemscore.Internal.Correction>
0.0379

> <Gold.Rescore>
     Score         DG    S(hbond)    S(metal)    S(lipo)     H(rot)  DE(clash)    DE(int)     intcor
     17.57     -19.24       2.85        0.00      70.76       1.58       0.05       1.62       ----

> <Gold.Chemscore.Fitness>
17.5717

> <Gold.Chemscore.DG>
-19.2354

> <Gold.Chemscore.ZeroCoef>
-5.4800

> <Gold.Chemscore.Hbond>
2.8500

> <Gold.Chemscore.Metal>
0.0000

> <Gold.Chemscore.Lipo>
70.7626

> <Gold.Chemscore.Internal_Hbond>
0.0000

> <Gold.Chemscore.DEClash>
0.0452

> <Gold.Chemscore.DEInternal>
1.6185

> <Gold.Chemscore.Rot>
1.5792

> <Gold.Chemscore.Internal.Correction>
   9.000000E+99

> <Gold.Chemscore.Hbonds>
donor molecule, donor type, donor heavy atom, donor atom, acceptor molecule, acceptor atom, score
      L1  H    11    42       P1  7948  0.92
      P1  H  6896  6908       L1     7  0.05
      P1  H  7989  7998       L1    15  0.87

> <Gold.Chemscore.Hbond.Weighted>
-9.5190

> <Gold.Chemscore.Metal.Weighted>
-0.0000

> <Gold.Chemscore.Lipo.Weighted>
-8.2792

> <Gold.Chemscore.Internal_Hbond.Weighted>
0.0000

> <Gold.Chemscore.DEClash.Weighted>
0.0452

> <Gold.Chemscore.DEInternal.Weighted>
1.6185

> <Gold.Chemscore.Rot.Weighted>
4.0428

> <Gold.Chemscore.Internal.Correction.Weighted>
   9.000000E+99

> <Gold.Protein.RotatedTorsions>
[ 6907 6896 6895 6894 ] final  171.40 input  -60.11 | X-H torsion
[ 7974 7965 7964 7962 ] final  -30.49 input  175.53 | X-H torsion
[ 8008 7997 7996 7995 ] final   39.26 input   59.86 | X-H torsion
[ 10167 10162 10161 10158 ] final -158.30 input  -65.29 | X-H torsion
[ 10718 10713 10712 10709 ] final   46.49 input   66.30 | X-H torsion
[ 10763 10752 10751 10750 ] final  148.02 input  -60.55 | X-H torsion
[ 11005 11000 10999 10996 ] final    7.47 input  -57.11 | X-H torsion

> <Gold.Protein.ActiveResidues>
 VAL166  LYS551  ARG553  GLY616  TRP617  ASP618  TYR619  PRO620  LYS621  CYS622 
 ASP623  PHE694  ASN695  SER759  ASP760  ASP761  ALA762  ILE779  LEU786  VAL792 
 PHE793  MET794  SER795  GLU796  ALA797  LYS798  CYS799  TRP800  GLU811  SER814 

> <Gold.Protein.RotatedAtoms>
  151.8008  133.3370  159.3526 H   0  0  0  0  0  0  0  0  0  0  0  0  # atno 6907 bound_to 6896
  150.7359  134.5756  159.5921 H   0  0  0  0  0  0  0  0  0  0  0  0  # atno 6908 bound_to 6896
  152.3144  134.7458  160.0380 H   0  0  0  0  0  0  0  0  0  0  0  0  # atno 6909 bound_to 6896
  146.1139  140.5547  142.8765 H   0  0  0  0  0  0  0  0  0  0  0  0  # atno 7974 bound_to 7965
  155.2337  140.3340  155.4300 H   0  0  0  0  0  0  0  0  0  0  0  0  # atno 8008 bound_to 7997
  156.2284  140.1839  156.7350 H   0  0  0  0  0  0  0  0  0  0  0  0  # atno 8009 bound_to 7997
  154.5937  140.0634  156.9259 H   0  0  0  0  0  0  0  0  0  0  0  0  # atno 8010 bound_to 7997
  139.6703  143.9756  152.2279 H   0  0  0  0  0  0  0  0  0  0  0  0  # atno 10167 bound_to 10162
  157.4486  130.8124  149.7765 H   0  0  0  0  0  0  0  0  0  0  0  0  # atno 10718 bound_to 10713
  154.0480  135.2884  155.3345 H   0  0  0  0  0  0  0  0  0  0  0  0  # atno 10763 bound_to 10752
  154.6887  135.5235  153.8366 H   0  0  0  0  0  0  0  0  0  0  0  0  # atno 10764 bound_to 10752
  153.0572  135.6600  154.0678 H   0  0  0  0  0  0  0  0  0  0  0  0  # atno 10765 bound_to 10752
  140.5479  134.0311  155.7926 H   0  0  0  0  0  0  0  0  0  0  0  0  # atno 11005 bound_to 11000
  144.7535  140.5251  143.6785 LP  0  0  0  0  0  0  0  0  0  0  0  0  # atno 17320 bound_to 7965
  145.5607  139.1479  143.3343 LP  0  0  0  0  0  0  0  0  0  0  0  0  # atno 17321 bound_to 7965
  139.9519  144.6615  150.8163 LP  0  0  0  0  0  0  0  0  0  0  0  0  # atno 17342 bound_to 10162
  140.7615  143.3177  151.2695 LP  0  0  0  0  0  0  0  0  0  0  0  0  # atno 17343 bound_to 10162
  155.9977  130.3898  150.2728 LP  0  0  0  0  0  0  0  0  0  0  0  0  # atno 17370 bound_to 10713
  157.0898  131.0166  151.3126 LP  0  0  0  0  0  0  0  0  0  0  0  0  # atno 17371 bound_to 10713
  141.1189  133.9494  157.2768 LP  0  0  0  0  0  0  0  0  0  0  0  0  # atno 17394 bound_to 11000
  139.9470  135.0182  156.8882 LP  0  0  0  0  0  0  0  0  0  0  0  0  # atno 17395 bound_to 11000

$$$$
