AV-unprocessed.smi:3336|AV-procd|sdf|12860|dock1
  -GOLD-   2272019253D 1   1.00000     0.00000
 Structure written by MMmdl.
 41 42  0  0  0  0  0  0  0  0  1 V2000
  155.7033  140.2838  160.0072 C   0  0  0  0  0  0  0  0  0  0  0  0
  154.2512  139.9718  159.6111 C   0  0  1  0  0  0  0  0  0  0  0  0
  153.3877  141.2507  159.4603 C   0  0  0  0  0  0  0  0  0  0  0  0
  153.1655  141.9687  160.7055 N   0  0  0  0  0  0  0  0  0  0  0  0
  153.6585  141.6814  161.9614 C   0  0  0  0  0  0  0  0  0  0  0  0
  153.1739  142.6294  162.8163 C   0  0  0  0  0  0  0  0  0  0  0  0
  152.3787  143.4625  161.9808 C   0  0  0  0  0  0  0  0  0  0  0  0
  152.3711  143.0616  160.7202 N   0  0  0  0  0  0  0  0  0  0  0  0
  154.3033  139.1645  158.3882 N   0  0  0  0  0  0  0  0  0  0  0  0
  153.2376  138.1563  158.2048 C   0  0  1  0  0  0  0  0  0  0  0  0
  151.9130  138.7198  158.7434 C   0  0  0  0  0  0  0  0  0  0  0  0
  153.0578  137.6919  156.7403 C   0  0  0  0  0  0  0  0  0  0  0  0
  153.2987  136.5124  156.4747 O   0  0  0  0  0  0  0  0  0  0  0  0
  152.6534  138.5684  155.7862 N   0  0  0  0  0  0  0  0  0  0  0  0
  152.2911  138.2596  154.3970 C   0  0  0  0  0  0  0  0  0  0  0  0
  150.8011  138.5910  154.1941 C   0  0  0  0  0  0  0  0  0  0  0  0
  150.5599  139.9588  154.5109 O   0  0  0  0  0  0  0  0  0  0  0  0
  150.9195  140.2889  155.8492 C   0  0  0  0  0  0  0  0  0  0  0  0
  152.4122  139.9883  156.0675 C   0  0  0  0  0  0  0  0  0  0  0  0
  155.7391  140.8942  160.9099 H   0  0  0  0  0  0  0  0  0  0  0  0
  156.2332  140.8223  159.2208 H   0  0  0  0  0  0  0  0  0  0  0  0
  156.2598  139.3683  160.2108 H   0  0  0  0  0  0  0  0  0  0  0  0
  153.8288  139.3777  160.4208 H   0  0  0  0  0  0  0  0  0  0  0  0
  153.8111  141.9355  158.7252 H   0  0  0  0  0  0  0  0  0  0  0  0
  152.4109  140.9740  159.0616 H   0  0  0  0  0  0  0  0  0  0  0  0
  154.3081  140.8368  162.1387 H   0  0  0  0  0  0  0  0  0  0  0  0
  153.3588  142.7146  163.8768 H   0  0  0  0  0  0  0  0  0  0  0  0
  151.8085  144.3391  162.2516 H   0  0  0  0  0  0  0  0  0  0  0  0
  155.2173  138.7420  158.3076 H   0  0  0  0  0  0  0  0  0  0  0  0
  153.5100  137.3086  158.8263 H   0  0  0  0  0  0  0  0  0  0  0  0
  151.1066  137.9895  158.6733 H   0  0  0  0  0  0  0  0  0  0  0  0
  151.6035  139.6093  158.1930 H   0  0  0  0  0  0  0  0  0  0  0  0
  152.0069  138.9968  159.7938 H   0  0  0  0  0  0  0  0  0  0  0  0
  152.9054  138.8594  153.7240 H   0  0  0  0  0  0  0  0  0  0  0  0
  152.4516  137.2251  154.1060 H   0  0  0  0  0  0  0  0  0  0  0  0
  150.5134  138.4136  153.1579 H   0  0  0  0  0  0  0  0  0  0  0  0
  150.1734  137.9491  154.8144 H   0  0  0  0  0  0  0  0  0  0  0  0
  150.7184  141.3470  156.0173 H   0  0  0  0  0  0  0  0  0  0  0  0
  150.3020  139.7288  156.5531 H   0  0  0  0  0  0  0  0  0  0  0  0
  152.7011  140.2818  157.0773 H   0  0  0  0  0  0  0  0  0  0  0  0
  153.0193  140.5965  155.3949 H   0  0  0  0  0  0  0  0  0  0  0  0
  1  2  1  0  0  0  0
  1 20  1  0  0  0  0
  1 21  1  0  0  0  0
  1 22  1  0  0  0  0
  2  3  1  0  0  0  0
  2  9  1  0  0  0  0
  2 23  1  0  0  0  0
  3  4  1  0  0  0  0
  3 24  1  0  0  0  0
  3 25  1  0  0  0  0
  4  8  1  0  0  0  0
  4  5  1  0  0  0  0
  5  6  2  0  0  0  0
  5 26  1  0  0  0  0
  6  7  1  0  0  0  0
  6 27  1  0  0  0  0
  7  8  2  0  0  0  0
  7 28  1  0  0  0  0
  9 10  1  0  0  0  0
  9 29  1  0  0  0  0
 10 11  1  0  0  0  0
 10 12  1  0  0  0  0
 10 30  1  0  0  0  0
 11 31  1  0  0  0  0
 11 32  1  0  0  0  0
 11 33  1  0  0  0  0
 12 13  2  0  0  0  0
 12 14  1  0  0  0  0
 14 19  1  0  0  0  0
 14 15  1  0  0  0  0
 15 16  1  0  0  0  0
 15 34  1  0  0  0  0
 15 35  1  0  0  0  0
 16 17  1  0  0  0  0
 16 36  1  0  0  0  0
 16 37  1  0  0  0  0
 17 18  1  0  0  0  0
 18 19  1  0  0  0  0
 18 38  1  0  0  0  0
 18 39  1  0  0  0  0
 19 40  1  0  0  0  0
 19 41  1  0  0  0  0
M  END
> <s_m_source_file>
AV-unprocessed.smi

> <i_m_source_file_index>
3336

> <i_lp_mmshare_version>
43012

> <i_f3d_flags>
0

> <s_epik_input>
bjFbY0hdW2NIXVtjSF1uMVtDSDJdW0NAQEhdKFtDSDNdKVtOSF1bQ0BIXShbQ0gzXSlDKD1PKU4yW0NIMl1bQ0gyXU9bQ0gyXVtDSDJdMg==

> <s_epik_cmdline>
J2VwaWtfcHl0aG9uJywgJy1waCcsICc3LjAnLCAnLXRuJywgJzgnLCAnLW1hJywgJzIwMCcsICctbWV0YWxfYmluZGluZycsICctaW1hZScsICc8aW5maWxlLm1hZT4nLCAnLW9tYWUnLCAnPG91dGZpbGUubWFlPic=

> <r_lp_tautomer_probability>
1

> <r_epik_Ionization_Penalty>
0.739958

> <r_epik_Ionization_Penalty_Charging>
0

> <r_epik_Ionization_Penalty_Neutral>
0.739958

> <r_epik_State_Penalty>
0.765967

> <r_epik_Charging_Adjusted_Penalty>
0.765967

> <i_epik_Tot_Q>
0

> <i_epik_Tot_abs_Q>
0

> <r_epik_Metal_State_Penalty>
0.765947

> <b_epik_Metal_Only>
0

> <s_lp_Force_Field>
OPLS_2005

> <r_lp_Energy>
28.3858

> <b_lp_Chiralities_Consistent>
1

> <s_lp_Variant>
AV-unprocessed.smi:3336-8

> <Gold.Version>
5.8.1

> <Gold.Id.Protein>
6NUR|6NUR_protein|mol2

> <Gold.PLP.Fitness>
49.2428

> <Gold.PLP.PLP>
-43.3550

> <Gold.PLP.part.hbond>
-3.0000

> <Gold.PLP.part.metal>
0.0000

> <Gold.PLP.part.buried>
-5.1614

> <Gold.PLP.part.nonpolar>
-34.7797

> <Gold.PLP.part.repulsive>
0.1507

> <Gold.PLP.ligand.clash>
0.0000

> <Gold.PLP.ligand.torsion>
0.6649

> <Gold.PLP.Chemscore.Hbond>
2.3500

> <Gold.PLP.Chemscore.CHOScore>
0.0000

> <Gold.PLP.Chemscore.Metal>
0.0000

> <Gold.Chemscore.Hbonds>
donor molecule, donor type, donor heavy atom, donor atom, acceptor molecule, acceptor atom, score
      P1  H  7989  7998       L1    17  1.00
      P1  H  7997  8009       L1     9  0.35
      P1  H 10752 10763       L1    13  0.91

> <Gold.PLP.Chemscore.Internal.Correction>
0.1675

> <Gold.Rescore>
     Score         DG    S(hbond)    S(metal)    S(lipo)     H(rot)  DE(clash)    DE(int)     intcor
     14.11     -18.45       1.78        0.00      99.31       1.79       1.37       2.97       ----

> <Gold.Chemscore.Fitness>
14.1091

> <Gold.Chemscore.DG>
-18.4460

> <Gold.Chemscore.ZeroCoef>
-5.4800

> <Gold.Chemscore.Hbond>
1.7780

> <Gold.Chemscore.Metal>
0.0000

> <Gold.Chemscore.Lipo>
99.3067

> <Gold.Chemscore.Internal_Hbond>
0.0000

> <Gold.Chemscore.DEClash>
1.3668

> <Gold.Chemscore.DEInternal>
2.9701

> <Gold.Chemscore.Rot>
1.7935

> <Gold.Chemscore.Internal.Correction>
   9.000000E+99

> <Gold.Chemscore.Hbonds>
donor molecule, donor type, donor heavy atom, donor atom, acceptor molecule, acceptor atom, score
      P1  H  7989  7998       L1    17  0.30
      P1  H  7997  8009       L1     9  0.01
      P1  H 10752 10763       L1    13  0.89

> <Gold.Chemscore.Hbond.Weighted>
-5.9384

> <Gold.Chemscore.Metal.Weighted>
-0.0000

> <Gold.Chemscore.Lipo.Weighted>
-11.6189

> <Gold.Chemscore.Internal_Hbond.Weighted>
0.0000

> <Gold.Chemscore.DEClash.Weighted>
1.3668

> <Gold.Chemscore.DEInternal.Weighted>
2.9701

> <Gold.Chemscore.Rot.Weighted>
4.5912

> <Gold.Chemscore.Internal.Correction.Weighted>
   9.000000E+99

> <Gold.Protein.RotatedTorsions>
[ 6907 6896 6895 6894 ] final   43.79 input  -60.11 | X-H torsion
[ 7974 7965 7964 7962 ] final -151.21 input  175.53 | X-H torsion
[ 8008 7997 7996 7995 ] final  150.78 input   59.86 | X-H torsion
[ 10167 10162 10161 10158 ] final  106.20 input  -65.29 | X-H torsion
[ 10718 10713 10712 10709 ] final    5.00 input   66.30 | X-H torsion
[ 10763 10752 10751 10750 ] final  123.87 input  -60.55 | X-H torsion
[ 11005 11000 10999 10996 ] final   67.07 input  -57.11 | X-H torsion

> <Gold.Protein.ActiveResidues>
 VAL166  LYS551  ARG553  GLY616  TRP617  ASP618  TYR619  PRO620  LYS621  CYS622 
 ASP623  PHE694  ASN695  SER759  ASP760  ASP761  ALA762  ILE779  LEU786  VAL792 
 PHE793  MET794  SER795  GLU796  ALA797  LYS798  CYS799  TRP800  GLU811  SER814 

> <Gold.Protein.RotatedAtoms>
  152.2246  134.8380  160.0481 H   0  0  0  0  0  0  0  0  0  0  0  0  # atno 6907 bound_to 6896
  151.9151  133.3566  159.3885 H   0  0  0  0  0  0  0  0  0  0  0  0  # atno 6908 bound_to 6896
  150.7009  134.4617  159.5428 H   0  0  0  0  0  0  0  0  0  0  0  0  # atno 6909 bound_to 6896
  144.7863  140.4828  143.5804 H   0  0  0  0  0  0  0  0  0  0  0  0  # atno 7974 bound_to 7965
  156.2701  140.2065  156.6071 H   0  0  0  0  0  0  0  0  0  0  0  0  # atno 8008 bound_to 7997
  154.6860  140.0535  157.0339 H   0  0  0  0  0  0  0  0  0  0  0  0  # atno 8009 bound_to 7997
  155.0933  140.3198  155.4570 H   0  0  0  0  0  0  0  0  0  0  0  0  # atno 8010 bound_to 7997
  139.7029  144.7091  151.1155 H   0  0  0  0  0  0  0  0  0  0  0  0  # atno 10167 bound_to 10162
  156.9009  130.5721  149.5648 H   0  0  0  0  0  0  0  0  0  0  0  0  # atno 10718 bound_to 10713
  153.6524  135.3360  155.3104 H   0  0  0  0  0  0  0  0  0  0  0  0  # atno 10763 bound_to 10752
  154.8534  135.4344  154.1890 H   0  0  0  0  0  0  0  0  0  0  0  0  # atno 10764 bound_to 10752
  153.2836  135.7011  153.7436 H   0  0  0  0  0  0  0  0  0  0  0  0  # atno 10765 bound_to 10752
  139.9793  134.6770  156.0293 H   0  0  0  0  0  0  0  0  0  0  0  0  # atno 11005 bound_to 11000
  145.5914  139.1496  143.3180 LP  0  0  0  0  0  0  0  0  0  0  0  0  # atno 17320 bound_to 7965
  146.2096  140.6039  142.9065 LP  0  0  0  0  0  0  0  0  0  0  0  0  # atno 17321 bound_to 7965
  140.7714  143.5399  150.9325 LP  0  0  0  0  0  0  0  0  0  0  0  0  # atno 17342 bound_to 10162
  139.9081  143.6753  152.3120 LP  0  0  0  0  0  0  0  0  0  0  0  0  # atno 17343 bound_to 10162
  156.0582  130.5640  150.9137 LP  0  0  0  0  0  0  0  0  0  0  0  0  # atno 17370 bound_to 10713
  157.6027  131.0940  150.8933 LP  0  0  0  0  0  0  0  0  0  0  0  0  # atno 17371 bound_to 10713
  141.1467  133.6555  156.3889 LP  0  0  0  0  0  0  0  0  0  0  0  0  # atno 17394 bound_to 11000
  140.5129  134.6378  157.5291 LP  0  0  0  0  0  0  0  0  0  0  0  0  # atno 17395 bound_to 11000

$$$$
