#       Name:                AV-unprocessed.smi:3110
#       Creating user name   scv26
#       Creation time:       Fri Mar 27 17:20:09 2020


#       File generated by GOLD software.
#

@<TRIPOS>MOLECULE
AV-unprocessed.smi:3110
    36    37     1
SMALL
NO_CHARGES


@<TRIPOS>ATOM
      1 ****        -0.3132   1.3560   0.1756 O.2            1 S1                 0.0000
      2 ****        -0.7526   0.2058   0.1963 C.2            1 S1                 0.0000
      3 ****        -2.2629  -0.0516   0.1521 C.3            1 S1                 0.0000
      4 ****        -3.0269   0.9173  -0.7748 C.3            1 S1                 0.0000
      5 ****        -4.5099   0.6503  -0.7802 C.2            1 S1                 0.0000
      6 ****        -5.0080   0.5310  -2.0090 C.2            1 S1                 0.0000
      7 ****        -3.9582   0.6929  -3.0729 C.3            1 S1                 0.0000
      8 ****        -2.6410   0.8132  -2.2751 C.3            1 S1                 0.0000
      9 ****         0.0349  -0.8788   0.2625 N.am           1 S1                 0.0000
     10 ****         1.4919  -0.8503   0.3016 C.3            1 S1                 0.0000
     11 ****         2.0145  -0.5001   1.7049 C.3            1 S1                 0.0000
     12 ****         3.4768  -0.4557   1.7417 N.pl3          1 S1                 0.0000
     13 ****         4.3331  -1.4736   2.0741 C.2            1 S1                 0.0000
     14 ****         5.6027  -0.9673   1.9623 C.2            1 S1                 0.0000
     15 ****         5.4670   0.3366   1.5666 N.pl3          1 S1                 1.0000
     16 ****         4.1730   0.6456   1.4325 C.2            1 S1                 0.0000
     17 ****        -2.4486  -1.0805  -0.1607 H              1 S1                 0.0000
     18 ****        -2.6458   0.0351   1.1695 H              1 S1                 0.0000
     19 ****        -2.8936   1.9439  -0.4300 H              1 S1                 0.0000
     20 ****        -5.0857   0.5846   0.1315 H              1 S1                 0.0000
     21 ****        -6.0468   0.3535  -2.2462 H              1 S1                 0.0000
     22 ****        -3.9505  -0.1666  -3.7437 H              1 S1                 0.0000
     23 ****        -4.1602   1.5912  -3.6571 H              1 S1                 0.0000
     24 ****        -2.0548   1.6748  -2.5964 H              1 S1                 0.0000
     25 ****        -2.0309  -0.0727  -2.4568 H              1 S1                 0.0000
     26 ****        -0.4072  -1.7868   0.2760 H              1 S1                 0.0000
     27 ****         1.8590  -1.8325   0.0022 H              1 S1                 0.0000
     28 ****         1.8679  -0.1404  -0.4373 H              1 S1                 0.0000
     29 ****         1.6404   0.4704   2.0348 H              1 S1                 0.0000
     30 ****         1.6815  -1.2379   2.4362 H              1 S1                 0.0000
     31 ****         3.9854  -2.4563   2.3580 H              1 S1                 0.0000
     32 ****         6.5670  -1.4248   2.1304 H              1 S1                 0.0000
     33 ****         3.7700   1.5968   1.1324 H              1 S1                 0.0000
     34 ****         6.2333   0.9767   1.3992 H              1 S1                 0.0000
     35 ****        -0.9433   2.1312   0.1296 LP             1 S1                 0.0000
     36 ****         0.6736   1.5148   0.2048 LP             1 S1                 0.0000
@<TRIPOS>BOND
    1    1    2 2     
    2    2    3 1     
    3    2    9 am    
    4    3    4 1     
    5    3   17 1     
    6    3   18 1     
    7    4    8 1     
    8    4    5 1     
    9    4   19 1     
   10    5    6 2     
   11    5   20 1     
   12    6    7 1     
   13    6   21 1     
   14    7    8 1     
   15    7   22 1     
   16    7   23 1     
   17    8   24 1     
   18    8   25 1     
   19    9   10 1     
   20    9   26 1     
   21   10   11 1     
   22   10   27 1     
   23   10   28 1     
   24   11   12 1     
   25   11   29 1     
   26   11   30 1     
   27   12   16 1     
   28   12   13 1     
   29   13   14 2     
   30   13   31 1     
   31   14   15 1     
   32   14   32 1     
   33   15   16 2     
   34   15   34 1     
   35   16   33 1     
   36    1   35 1     
   37    1   36 1     
@<TRIPOS>SUBSTRUCTURE
      1 S1             1
@<TRIPOS>SET
LONE_PAIRS      STATIC     ATOMS    <user>   **** ""
2 35 36
DONOR_HYDROGENS      STATIC     ATOMS    <user>   **** ""
2 26 34
ATOM$BLUE        STATIC     ATOMS    COLORGROUP SYSTEM
2 35 36
ATOM$RED        STATIC     ATOMS    COLORGROUP SYSTEM
2 26 34
