AV-unprocessed.smi:1386|AV-procd|sdf|5637|dock4
  -GOLD-   22720 5253D 1   1.00000     0.00000
 Structure written by MMmdl.
 36 37  0  0  0  0  0  0  0  0  2 V2000
  149.6300  140.3578  158.0881 C   0  0  0  0  0  0  0  0  0  0  0  0
  151.0666  140.1276  157.6013 C   0  0  1  0  0  0  0  0  0  0  0  0
  151.1780  140.3129  156.0726 C   0  0  0  0  0  0  0  0  0  0  0  0
  150.1806  139.5356  155.3274 N   0  0  0  0  0  0  0  0  0  0  0  0
  148.8301  139.7639  155.2571 C   0  0  0  0  0  0  0  0  0  0  0  0
  148.3071  138.7743  154.4652 C   0  0  0  0  0  0  0  0  0  0  0  0
  149.3605  137.9903  154.0774 N   0  3  0  0  0  0  0  0  0  0  0  0
  150.4994  138.4586  154.5972 C   0  0  0  0  0  0  0  0  0  0  0  0
  151.9615  141.0486  158.3016 N   0  0  0  0  0  0  0  0  0  0  0  0
  151.8289  142.3863  158.3560 C   0  0  0  0  0  0  0  0  0  0  0  0
  150.9489  142.9846  157.7356 O   0  0  0  0  0  0  0  0  0  0  0  0
  152.7196  143.0128  159.1650 N   0  0  0  0  0  0  0  0  0  0  0  0
  153.8361  142.3707  159.8767 C   0  0  0  0  0  0  0  0  0  0  0  0
  153.3690  141.9833  161.2898 C   0  0  0  0  0  0  0  0  0  0  0  0
  152.8914  143.4559  162.2485 S   0  0  0  0  0  0  0  0  0  0  0  0
  151.8041  144.2827  161.0440 C   0  0  0  0  0  0  0  0  0  0  0  0
  152.4743  144.3711  159.6622 C   0  0  0  0  0  0  0  0  0  0  0  0
  148.9381  139.6637  157.6101 H   0  0  0  0  0  0  0  0  0  0  0  0
  149.2914  141.3704  157.8659 H   0  0  0  0  0  0  0  0  0  0  0  0
  149.5513  140.2092  159.1655 H   0  0  0  0  0  0  0  0  0  0  0  0
  151.3279  139.0970  157.8484 H   0  0  0  0  0  0  0  0  0  0  0  0
  151.0331  141.3607  155.8067 H   0  0  0  0  0  0  0  0  0  0  0  0
  152.1725  140.0322  155.7210 H   0  0  0  0  0  0  0  0  0  0  0  0
  148.3525  140.5847  155.7723 H   0  0  0  0  0  0  0  0  0  0  0  0
  147.2911  138.5744  154.1569 H   0  0  0  0  0  0  0  0  0  0  0  0
  151.4813  138.0415  154.4614 H   0  0  0  0  0  0  0  0  0  0  0  0
  152.7193  140.6332  158.8240 H   0  0  0  0  0  0  0  0  0  0  0  0
  154.2253  141.4961  159.3549 H   0  0  0  0  0  0  0  0  0  0  0  0
  154.6820  143.0569  159.9397 H   0  0  0  0  0  0  0  0  0  0  0  0
  152.5192  141.3025  161.2369 H   0  0  0  0  0  0  0  0  0  0  0  0
  154.1633  141.4615  161.8238 H   0  0  0  0  0  0  0  0  0  0  0  0
  150.8643  143.7331  160.9773 H   0  0  0  0  0  0  0  0  0  0  0  0
  151.5644  145.2793  161.4150 H   0  0  0  0  0  0  0  0  0  0  0  0
  153.4114  144.9255  159.7318 H   0  0  0  0  0  0  0  0  0  0  0  0
  151.8487  144.9475  158.9788 H   0  0  0  0  0  0  0  0  0  0  0  0
  149.2904  137.1750  153.4811 H   0  0  0  0  0  0  0  0  0  0  0  0
  1  2  1  0  0  0  0
  1 18  1  0  0  0  0
  1 19  1  0  0  0  0
  1 20  1  0  0  0  0
  2  3  1  0  0  0  0
  2  9  1  0  0  0  0
  2 21  1  0  0  0  0
  3  4  1  0  0  0  0
  3 22  1  0  0  0  0
  3 23  1  0  0  0  0
  4  8  1  0  0  0  0
  4  5  1  0  0  0  0
  5  6  2  0  0  0  0
  5 24  1  0  0  0  0
  6  7  1  0  0  0  0
  6 25  1  0  0  0  0
  7  8  2  0  0  0  0
  7 36  1  0  0  0  0
  8 26  1  0  0  0  0
  9 10  1  0  0  0  0
  9 27  1  0  0  0  0
 10 11  2  0  0  0  0
 10 12  1  0  0  0  0
 12 17  1  0  0  0  0
 12 13  1  0  0  0  0
 13 14  1  0  0  0  0
 13 28  1  0  0  0  0
 13 29  1  0  0  0  0
 14 15  1  0  0  0  0
 14 30  1  0  0  0  0
 14 31  1  0  0  0  0
 15 16  1  0  0  0  0
 16 17  1  0  0  0  0
 16 32  1  0  0  0  0
 16 33  1  0  0  0  0
 17 34  1  0  0  0  0
 17 35  1  0  0  0  0
M  CHG  1   7   1
M  END
> <s_m_source_file>
AV-unprocessed.smi

> <i_m_source_file_index>
1386

> <i_lp_mmshare_version>
43012

> <i_f3d_flags>
0

> <s_epik_input>
W2NIXTFuW2NIXVtjSF1uMVtDSDJdW0NAQEhdKFtDSDNdKVtOSF1DKD1PKU4yW0NIMl1bQ0gyXVNbQ0gyXVtDSDJdMg==

> <s_epik_cmdline>
J2VwaWtfcHl0aG9uJywgJy1waCcsICc3LjAnLCAnLXRuJywgJzgnLCAnLW1hJywgJzIwMCcsICctbWV0YWxfYmluZGluZycsICctaW1hZScsICc8aW5maWxlLm1hZT4nLCAnLW9tYWUnLCAnPG91dGZpbGUubWFlPic=

> <r_lp_tautomer_probability>
1

> <r_epik_Ionization_Penalty>
0.254941

> <r_epik_Ionization_Penalty_Charging>
0

> <r_epik_Ionization_Penalty_Neutral>
0.254941

> <r_epik_State_Penalty>
0.246388

> <r_epik_Charging_Adjusted_Penalty>
0.246388

> <i_epik_Tot_Q>
1

> <i_epik_Tot_abs_Q>
1

> <r_epik_Metal_State_Penalty>
0.536262

> <b_epik_Metal_Only>
0

> <s_lp_Force_Field>
OPLS_2005

> <r_lp_Energy>
25.7972

> <b_lp_Chiralities_Consistent>
1

> <s_lp_Variant>
AV-unprocessed.smi:1386-2

> <Gold.Version>
5.8.1

> <Gold.Id.Protein>
6NUR|6NUR_protein|mol2

> <Gold.PLP.Fitness>
47.1867

> <Gold.PLP.PLP>
-41.6629

> <Gold.PLP.part.hbond>
-2.0000

> <Gold.PLP.part.metal>
0.0000

> <Gold.PLP.part.buried>
-3.7050

> <Gold.PLP.part.nonpolar>
-34.7381

> <Gold.PLP.part.repulsive>
0.2836

> <Gold.PLP.ligand.clash>
0.0000

> <Gold.PLP.ligand.torsion>
0.2730

> <Gold.PLP.Chemscore.Hbond>
2.0000

> <Gold.PLP.Chemscore.CHOScore>
0.0000

> <Gold.PLP.Chemscore.Metal>
0.0000

> <Gold.Chemscore.Hbonds>
donor molecule, donor type, donor heavy atom, donor atom, acceptor molecule, acceptor atom, score
      L1  H     7    36       P1  7948  2.00

> <Gold.PLP.Chemscore.Internal.Correction>
0.0698

> <Gold.Rescore>
     Score         DG    S(hbond)    S(metal)    S(lipo)     H(rot)  DE(clash)    DE(int)     intcor
     13.19     -14.74       0.99        0.00      86.69       1.64       0.06       1.49       ----

> <Gold.Chemscore.Fitness>
13.1893

> <Gold.Chemscore.DG>
-14.7423

> <Gold.Chemscore.ZeroCoef>
-5.4800

> <Gold.Chemscore.Hbond>
0.9936

> <Gold.Chemscore.Metal>
0.0000

> <Gold.Chemscore.Lipo>
86.6945

> <Gold.Chemscore.Internal_Hbond>
0.0000

> <Gold.Chemscore.DEClash>
0.0606

> <Gold.Chemscore.DEInternal>
1.4924

> <Gold.Chemscore.Rot>
1.6404

> <Gold.Chemscore.Internal.Correction>
   9.000000E+99

> <Gold.Chemscore.Hbonds>
donor molecule, donor type, donor heavy atom, donor atom, acceptor molecule, acceptor atom, score
      L1  H     7    36       P1  7948  0.96

> <Gold.Chemscore.Hbond.Weighted>
-3.3186

> <Gold.Chemscore.Metal.Weighted>
-0.0000

> <Gold.Chemscore.Lipo.Weighted>
-10.1433

> <Gold.Chemscore.Internal_Hbond.Weighted>
0.0000

> <Gold.Chemscore.DEClash.Weighted>
0.0606

> <Gold.Chemscore.DEInternal.Weighted>
1.4924

> <Gold.Chemscore.Rot.Weighted>
4.1995

> <Gold.Chemscore.Internal.Correction.Weighted>
   9.000000E+99

> <Gold.Protein.RotatedTorsions>
[ 6907 6896 6895 6894 ] final  -29.88 input  -60.11 | X-H torsion
[ 7974 7965 7964 7962 ] final  -55.38 input  175.53 | X-H torsion
[ 8008 7997 7996 7995 ] final  177.99 input   59.86 | X-H torsion
[ 10167 10162 10161 10158 ] final   65.47 input  -65.29 | X-H torsion
[ 10718 10713 10712 10709 ] final -151.42 input   66.30 | X-H torsion
[ 10763 10752 10751 10750 ] final   41.33 input  -60.55 | X-H torsion
[ 11005 11000 10999 10996 ] final  -21.15 input  -57.11 | X-H torsion

> <Gold.Protein.ActiveResidues>
 VAL166  LYS551  ARG553  GLY616  TRP617  ASP618  TYR619  PRO620  LYS621  CYS622 
 ASP623  PHE694  ASN695  SER759  ASP760  ASP761  ALA762  ILE779  LEU786  VAL792 
 PHE793  MET794  SER795  GLU796  ALA797  LYS798  CYS799  TRP800  GLU811  SER814 

> <Gold.Protein.RotatedAtoms>
  151.1131  135.0038  159.8503 H   0  0  0  0  0  0  0  0  0  0  0  0  # atno 6907 bound_to 6896
  152.5444  134.1812  159.8646 H   0  0  0  0  0  0  0  0  0  0  0  0  # atno 6908 bound_to 6896
  151.1864  133.4649  159.2627 H   0  0  0  0  0  0  0  0  0  0  0  0  # atno 6909 bound_to 6896
  145.8749  140.8188  142.9869 H   0  0  0  0  0  0  0  0  0  0  0  0  # atno 7974 bound_to 7965
  156.0596  140.1344  156.9957 H   0  0  0  0  0  0  0  0  0  0  0  0  # atno 8008 bound_to 7997
  154.4475  140.0994  156.6568 H   0  0  0  0  0  0  0  0  0  0  0  0  # atno 8009 bound_to 7997
  155.5398  140.3460  155.4446 H   0  0  0  0  0  0  0  0  0  0  0  0  # atno 8010 bound_to 7997
  140.1109  144.4818  150.6978 H   0  0  0  0  0  0  0  0  0  0  0  0  # atno 10167 bound_to 10162
  156.4590  130.8204  151.2435 H   0  0  0  0  0  0  0  0  0  0  0  0  # atno 10718 bound_to 10713
  152.9911  135.6165  154.2770 H   0  0  0  0  0  0  0  0  0  0  0  0  # atno 10763 bound_to 10752
  154.2501  135.2785  155.2822 H   0  0  0  0  0  0  0  0  0  0  0  0  # atno 10764 bound_to 10752
  154.5295  135.5792  153.6805 H   0  0  0  0  0  0  0  0  0  0  0  0  # atno 10765 bound_to 10752
  140.8533  133.7840  155.9991 H   0  0  0  0  0  0  0  0  0  0  0  0  # atno 11005 bound_to 11000
  144.6726  140.1295  143.7444 LP  0  0  0  0  0  0  0  0  0  0  0  0  # atno 17320 bound_to 7965
  145.9093  139.2477  143.1447 LP  0  0  0  0  0  0  0  0  0  0  0  0  # atno 17321 bound_to 7965
  140.6926  143.2385  151.5090 LP  0  0  0  0  0  0  0  0  0  0  0  0  # atno 17342 bound_to 10162
  139.5619  144.2135  152.1705 LP  0  0  0  0  0  0  0  0  0  0  0  0  # atno 17343 bound_to 10162
  157.7499  131.0113  150.3340 LP  0  0  0  0  0  0  0  0  0  0  0  0  # atno 17370 bound_to 10713
  156.3736  130.3868  149.7156 LP  0  0  0  0  0  0  0  0  0  0  0  0  # atno 17371 bound_to 10713
  140.8765  134.2663  157.5165 LP  0  0  0  0  0  0  0  0  0  0  0  0  # atno 17394 bound_to 11000
  139.8704  134.9594  156.4329 LP  0  0  0  0  0  0  0  0  0  0  0  0  # atno 17395 bound_to 11000

$$$$
