AV-unprocessed.smi:1926|AV-procd|sdf|7794|dock5
  -GOLD-   22720 9533D 1   1.00000     0.00000
 Structure written by MMmdl.
 35 36  0  0  0  0  0  0  0  0  1 V2000
  151.4595  138.1925  154.5249 C   0  0  0  0  0  0  0  0  0  0  0  0
  150.1250  138.1994  154.0297 O   0  0  0  0  0  0  0  0  0  0  0  0
  149.4110  139.3822  154.0712 C   0  0  0  0  0  0  0  0  0  0  0  0
  149.9857  140.4601  154.6614 N   0  0  0  0  0  0  0  0  0  0  0  0
  149.2937  141.6167  154.7004 C   0  0  0  0  0  0  0  0  0  0  0  0
  148.0054  141.7610  154.1552 C   0  0  0  0  0  0  0  0  0  0  0  0
  147.4069  140.6448  153.5423 C   0  0  0  0  0  0  0  0  0  0  0  0
  148.1169  139.4191  153.4997 C   0  0  0  0  0  0  0  0  0  0  0  0
  147.6239  138.2228  152.9041 N   0  0  0  0  0  0  0  0  0  0  0  0
  146.3798  137.7138  152.9004 C   0  0  0  0  0  0  0  0  0  0  0  0
  145.3935  138.2205  153.4332 O   0  0  0  0  0  0  0  0  0  0  0  0
  146.3404  136.5497  152.2371 N   0  0  0  0  0  0  0  0  0  0  0  0
  145.1480  135.7288  152.0523 C   0  0  0  0  0  0  0  0  0  0  0  0
  145.3346  134.6722  150.9463 C   0  0  2  0  0  0  0  0  0  0  0  0
  144.1818  133.6994  150.7929 C   0  0  0  0  0  0  0  0  0  0  0  0
  144.8393  132.5568  150.0256 C   0  0  0  0  0  0  0  0  0  0  0  0
  146.1984  132.5348  150.4524 O   0  0  0  0  0  0  0  0  0  0  0  0
  146.4987  133.7136  151.1945 C   0  0  0  0  0  0  0  0  0  0  0  0
  151.8785  137.1924  154.4162 H   0  0  0  0  0  0  0  0  0  0  0  0
  151.4939  138.4522  155.5838 H   0  0  0  0  0  0  0  0  0  0  0  0
  152.0962  138.8799  153.9661 H   0  0  0  0  0  0  0  0  0  0  0  0
  149.7830  142.4526  155.1778 H   0  0  0  0  0  0  0  0  0  0  0  0
  147.4883  142.7079  154.2033 H   0  0  0  0  0  0  0  0  0  0  0  0
  146.4239  140.7636  153.1166 H   0  0  0  0  0  0  0  0  0  0  0  0
  148.3257  137.6614  152.4439 H   0  0  0  0  0  0  0  0  0  0  0  0
  147.1977  136.2038  151.8314 H   0  0  0  0  0  0  0  0  0  0  0  0
  144.8811  135.2467  152.9942 H   0  0  0  0  0  0  0  0  0  0  0  0
  144.3199  136.3920  151.8012 H   0  0  0  0  0  0  0  0  0  0  0  0
  145.4993  135.1680  149.9881 H   0  0  0  0  0  0  0  0  0  0  0  0
  143.8447  133.3499  151.7699 H   0  0  0  0  0  0  0  0  0  0  0  0
  143.3265  134.1249  150.2670 H   0  0  0  0  0  0  0  0  0  0  0  0
  144.3489  131.5994  150.2018 H   0  0  0  0  0  0  0  0  0  0  0  0
  144.8165  132.7569  148.9536 H   0  0  0  0  0  0  0  0  0  0  0  0
  147.4583  134.1377  150.8971 H   0  0  0  0  0  0  0  0  0  0  0  0
  146.5618  133.4453  152.2500 H   0  0  0  0  0  0  0  0  0  0  0  0
  1  2  1  0  0  0  0
  1 19  1  0  0  0  0
  1 20  1  0  0  0  0
  1 21  1  0  0  0  0
  2  3  1  0  0  0  0
  3  8  1  0  0  0  0
  3  4  2  0  0  0  0
  4  5  1  0  0  0  0
  5  6  2  0  0  0  0
  5 22  1  0  0  0  0
  6  7  1  0  0  0  0
  6 23  1  0  0  0  0
  7  8  2  0  0  0  0
  7 24  1  0  0  0  0
  8  9  1  0  0  0  0
  9 10  1  0  0  0  0
  9 25  1  0  0  0  0
 10 11  2  0  0  0  0
 10 12  1  0  0  0  0
 12 13  1  0  0  0  0
 12 26  1  0  0  0  0
 13 14  1  0  0  0  0
 13 27  1  0  0  0  0
 13 28  1  0  0  0  0
 14 18  1  0  0  0  0
 14 15  1  0  0  0  0
 14 29  1  0  0  0  0
 15 16  1  0  0  0  0
 15 30  1  0  0  0  0
 15 31  1  0  0  0  0
 16 17  1  0  0  0  0
 16 32  1  0  0  0  0
 16 33  1  0  0  0  0
 17 18  1  0  0  0  0
 18 34  1  0  0  0  0
 18 35  1  0  0  0  0
M  END
> <s_m_source_file>
AV-unprocessed.smi

> <i_m_source_file_index>
1926

> <i_lp_mmshare_version>
43012

> <i_f3d_flags>
0

> <s_epik_input>
W0NIM11PYzFuW2NIXVtjSF1bY0hdYzFbTkhdQyg9TylbTkhdW0NIMl1bQ0BASF0yW0NIMl1bQ0gyXU9bQ0gyXTI=

> <s_epik_cmdline>
J2VwaWtfcHl0aG9uJywgJy1waCcsICc3LjAnLCAnLXRuJywgJzgnLCAnLW1hJywgJzIwMCcsICctbWV0YWxfYmluZGluZycsICctaW1hZScsICc8aW5maWxlLm1hZT4nLCAnLW9tYWUnLCAnPG91dGZpbGUubWFlPic=

> <r_lp_tautomer_probability>
1

> <r_epik_Ionization_Penalty>
9.48928e-05

> <r_epik_Ionization_Penalty_Charging>
0

> <r_epik_Ionization_Penalty_Neutral>
9.48928e-05

> <r_epik_State_Penalty>
-0

> <r_epik_Charging_Adjusted_Penalty>
0

> <i_epik_Tot_Q>
0

> <i_epik_Tot_abs_Q>
0

> <r_epik_Metal_State_Penalty>
-0

> <b_epik_Metal_Only>
0

> <s_lp_Force_Field>
OPLS_2005

> <r_lp_Energy>
20.748

> <b_lp_Chiralities_Consistent>
1

> <s_lp_Variant>
AV-unprocessed.smi:1926-1

> <Gold.Version>
5.8.1

> <Gold.Id.Protein>
6NUR|6NUR_protein|mol2

> <Gold.PLP.Fitness>
41.9816

> <Gold.PLP.PLP>
-31.2586

> <Gold.PLP.part.hbond>
-3.5053

> <Gold.PLP.part.metal>
0.0000

> <Gold.PLP.part.buried>
-1.2808

> <Gold.PLP.part.nonpolar>
-28.3675

> <Gold.PLP.part.repulsive>
1.7972

> <Gold.PLP.ligand.clash>
0.0000

> <Gold.PLP.ligand.torsion>
0.4064

> <Gold.PLP.Chemscore.Hbond>
2.8720

> <Gold.PLP.Chemscore.CHOScore>
0.9715

> <Gold.PLP.Chemscore.Metal>
0.0000

> <Gold.Chemscore.Hbonds>
donor molecule, donor type, donor heavy atom, donor atom, acceptor molecule, acceptor atom, score
      L1  H     9    25       P1  7948  1.00
      L1  H    12    26       P1  7948  0.98
      P1  H  7989  7998       L1     4  0.87
      L1  C     5    22       P1  8028  0.97

> <Gold.PLP.Chemscore.Internal.Correction>
0.0054

> <Gold.Rescore>
     Score         DG    S(hbond)    S(metal)    S(lipo)     H(rot)  DE(clash)    DE(int)     intcor
     16.17     -16.78       2.24        0.00      65.49       1.50       0.31       0.29       ----

> <Gold.Chemscore.Fitness>
16.1680

> <Gold.Chemscore.DG>
-16.7751

> <Gold.Chemscore.ZeroCoef>
-5.4800

> <Gold.Chemscore.Hbond>
2.2351

> <Gold.Chemscore.Metal>
0.0000

> <Gold.Chemscore.Lipo>
65.4916

> <Gold.Chemscore.Internal_Hbond>
0.0000

> <Gold.Chemscore.DEClash>
0.3144

> <Gold.Chemscore.DEInternal>
0.2927

> <Gold.Chemscore.Rot>
1.4971

> <Gold.Chemscore.Internal.Correction>
   9.000000E+99

> <Gold.Chemscore.Hbonds>
donor molecule, donor type, donor heavy atom, donor atom, acceptor molecule, acceptor atom, score
      L1  H     9    25       P1  7948  0.98
      L1  H    12    26       P1  7948  0.92
      P1  H  7989  7998       L1     4  0.18

> <Gold.Chemscore.Hbond.Weighted>
-7.4652

> <Gold.Chemscore.Metal.Weighted>
-0.0000

> <Gold.Chemscore.Lipo.Weighted>
-7.6625

> <Gold.Chemscore.Internal_Hbond.Weighted>
0.0000

> <Gold.Chemscore.DEClash.Weighted>
0.3144

> <Gold.Chemscore.DEInternal.Weighted>
0.2927

> <Gold.Chemscore.Rot.Weighted>
3.8326

> <Gold.Chemscore.Internal.Correction.Weighted>
   9.000000E+99

> <Gold.Protein.RotatedTorsions>
[ 6907 6896 6895 6894 ] final   47.36 input  -60.11 | X-H torsion
[ 7974 7965 7964 7962 ] final -140.01 input  175.53 | X-H torsion
[ 8008 7997 7996 7995 ] final   12.70 input   59.86 | X-H torsion
[ 10167 10162 10161 10158 ] final   23.35 input  -65.29 | X-H torsion
[ 10718 10713 10712 10709 ] final -134.60 input   66.30 | X-H torsion
[ 10763 10752 10751 10750 ] final -166.47 input  -60.55 | X-H torsion
[ 11005 11000 10999 10996 ] final -147.35 input  -57.11 | X-H torsion

> <Gold.Protein.ActiveResidues>
 VAL166  LYS551  ARG553  GLY616  TRP617  ASP618  TYR619  PRO620  LYS621  CYS622 
 ASP623  PHE694  ASN695  SER759  ASP760  ASP761  ALA762  ILE779  LEU786  VAL792 
 PHE793  MET794  SER795  GLU796  ALA797  LYS798  CYS799  TRP800  GLU811  SER814 

> <Gold.Protein.RotatedAtoms>
  152.2672  134.7972  160.0420 H   0  0  0  0  0  0  0  0  0  0  0  0  # atno 6907 bound_to 6896
  151.8597  133.3450  159.3708 H   0  0  0  0  0  0  0  0  0  0  0  0  # atno 6908 bound_to 6896
  150.7138  134.5146  159.5668 H   0  0  0  0  0  0  0  0  0  0  0  0  # atno 6909 bound_to 6896
  144.8631  140.6250  143.5315 H   0  0  0  0  0  0  0  0  0  0  0  0  # atno 7974 bound_to 7965
  154.8243  140.2889  155.5765 H   0  0  0  0  0  0  0  0  0  0  0  0  # atno 8008 bound_to 7997
  156.3000  140.2544  156.3086 H   0  0  0  0  0  0  0  0  0  0  0  0  # atno 8009 bound_to 7997
  154.9303  140.0383  157.2034 H   0  0  0  0  0  0  0  0  0  0  0  0  # atno 8010 bound_to 7997
  140.5276  143.9897  150.6448 H   0  0  0  0  0  0  0  0  0  0  0  0  # atno 10167 bound_to 10162
  156.2571  130.7188  151.1109 H   0  0  0  0  0  0  0  0  0  0  0  0  # atno 10718 bound_to 10713
  154.6830  135.2958  154.9586 H   0  0  0  0  0  0  0  0  0  0  0  0  # atno 10763 bound_to 10752
  154.0575  135.6636  153.4811 H   0  0  0  0  0  0  0  0  0  0  0  0  # atno 10764 bound_to 10752
  153.0560  135.5144  154.7883 H   0  0  0  0  0  0  0  0  0  0  0  0  # atno 10765 bound_to 10752
  140.7726  134.3172  157.5070 H   0  0  0  0  0  0  0  0  0  0  0  0  # atno 11005 bound_to 11000
  145.4274  139.1554  143.4041 LP  0  0  0  0  0  0  0  0  0  0  0  0  # atno 17320 bound_to 7965
  146.2875  140.4388  142.8752 LP  0  0  0  0  0  0  0  0  0  0  0  0  # atno 17321 bound_to 7965
  140.3263  143.3105  152.0733 LP  0  0  0  0  0  0  0  0  0  0  0  0  # atno 17342 bound_to 10162
  139.4943  144.6540  151.6614 LP  0  0  0  0  0  0  0  0  0  0  0  0  # atno 17343 bound_to 10162
  157.7237  131.0665  150.6027 LP  0  0  0  0  0  0  0  0  0  0  0  0  # atno 17370 bound_to 10713
  156.6112  130.4380  149.5858 LP  0  0  0  0  0  0  0  0  0  0  0  0  # atno 17371 bound_to 10713
  139.8753  134.9270  156.3413 LP  0  0  0  0  0  0  0  0  0  0  0  0  # atno 17394 bound_to 11000
  140.9559  133.7420  156.0335 LP  0  0  0  0  0  0  0  0  0  0  0  0  # atno 17395 bound_to 11000

$$$$
