AV-unprocessed.smi:781|AV-procd|sdf|3712|dock7
  -GOLD-   22720 1133D 1   1.00000     0.00000
 Structure written by MMmdl.
 38 40  0  0  0  0  0  0  0  0  1 V2000
  149.5464  129.6274  153.3542 C   0  0  0  0  0  0  0  0  0  0  0  0
  149.6927  131.0275  153.8435 C   0  0  0  0  0  0  0  0  0  0  0  0
  149.3663  132.2400  153.3043 C   0  0  0  0  0  0  0  0  0  0  0  0
  149.7813  133.1572  154.3063 C   0  0  0  0  0  0  0  0  0  0  0  0
  149.6128  134.5537  154.1285 N   0  0  0  0  0  0  0  0  0  0  0  0
  149.7419  135.5188  155.0546 C   0  0  0  0  0  0  0  0  0  0  0  0
  150.0458  135.3360  156.2339 O   0  0  0  0  0  0  0  0  0  0  0  0
  149.5005  136.7290  154.5318 N   0  0  0  0  0  0  0  0  0  0  0  0
  149.5551  137.9849  155.2762 C   0  0  1  0  0  0  0  0  0  0  0  0
  150.6611  138.0135  156.3617 C   0  0  1  0  0  0  0  0  0  0  0  0
  152.0311  137.5974  155.7844 C   0  0  0  0  0  0  0  0  0  0  0  0
  152.3884  138.7883  154.8757 C   0  0  0  0  0  0  0  0  0  0  0  0
  151.1941  139.7418  155.0771 C   0  0  2  0  0  0  0  0  0  0  0  0
  150.8665  139.5113  156.5479 C   0  0  0  0  0  0  0  0  0  0  0  0
  149.9516  139.1698  154.3559 C   0  0  2  0  0  0  0  0  0  0  0  0
  148.8297  140.2116  154.1815 C   0  0  0  0  0  0  0  0  0  0  0  0
  149.3145  141.3343  153.4758 O   0  0  0  0  0  0  0  0  0  0  0  0
  150.3118  132.5589  155.3621 N   0  0  0  0  0  0  0  0  0  0  0  0
  150.2570  131.1908  155.0709 O   0  0  0  0  0  0  0  0  0  0  0  0
  149.4263  129.6038  152.2710 H   0  0  0  0  0  0  0  0  0  0  0  0
  148.6738  129.1520  153.8019 H   0  0  0  0  0  0  0  0  0  0  0  0
  150.4241  129.0330  153.6093 H   0  0  0  0  0  0  0  0  0  0  0  0
  148.9053  132.4356  152.3475 H   0  0  0  0  0  0  0  0  0  0  0  0
  149.3641  134.8497  153.1965 H   0  0  0  0  0  0  0  0  0  0  0  0
  149.2555  136.7896  153.5546 H   0  0  0  0  0  0  0  0  0  0  0  0
  148.5851  138.1747  155.7401 H   0  0  0  0  0  0  0  0  0  0  0  0
  150.3919  137.4751  157.2710 H   0  0  0  0  0  0  0  0  0  0  0  0
  152.7666  137.4982  156.5838 H   0  0  0  0  0  0  0  0  0  0  0  0
  152.0092  136.6492  155.2471 H   0  0  0  0  0  0  0  0  0  0  0  0
  153.3180  139.2544  155.2048 H   0  0  0  0  0  0  0  0  0  0  0  0
  152.5151  138.4935  153.8334 H   0  0  0  0  0  0  0  0  0  0  0  0
  151.4213  140.7750  154.8121 H   0  0  0  0  0  0  0  0  0  0  0  0
  149.9697  140.0327  156.8860 H   0  0  0  0  0  0  0  0  0  0  0  0
  151.6921  139.7559  157.2189 H   0  0  0  0  0  0  0  0  0  0  0  0
  150.2466  138.8226  153.3636 H   0  0  0  0  0  0  0  0  0  0  0  0
  147.9740  139.7946  153.6499 H   0  0  0  0  0  0  0  0  0  0  0  0
  148.4710  140.5480  155.1545 H   0  0  0  0  0  0  0  0  0  0  0  0
  149.4135  141.0979  152.5661 H   0  0  0  0  0  0  0  0  0  0  0  0
  1  2  1  0  0  0  0
  1 20  1  0  0  0  0
  1 21  1  0  0  0  0
  1 22  1  0  0  0  0
  2 19  1  0  0  0  0
  2  3  2  0  0  0  0
  3  4  1  0  0  0  0
  3 23  1  0  0  0  0
  4  5  1  0  0  0  0
  4 18  2  0  0  0  0
  5  6  1  0  0  0  0
  5 24  1  0  0  0  0
  6  7  2  0  0  0  0
  6  8  1  0  0  0  0
  8  9  1  0  0  0  0
  8 25  1  0  0  0  0
  9 15  1  0  0  0  0
  9 10  1  0  0  0  0
  9 26  1  0  0  0  0
 10 14  1  0  0  0  0
 10 11  1  0  0  0  0
 10 27  1  0  0  0  0
 11 12  1  0  0  0  0
 11 28  1  0  0  0  0
 11 29  1  0  0  0  0
 12 13  1  0  0  0  0
 12 30  1  0  0  0  0
 12 31  1  0  0  0  0
 13 14  1  0  0  0  0
 13 15  1  0  0  0  0
 13 32  1  0  0  0  0
 14 33  1  0  0  0  0
 14 34  1  0  0  0  0
 15 16  1  0  0  0  0
 15 35  1  0  0  0  0
 16 17  1  0  0  0  0
 16 36  1  0  0  0  0
 16 37  1  0  0  0  0
 17 38  1  0  0  0  0
 18 19  1  0  0  0  0
M  END
> <s_m_source_file>
AV-unprocessed.smi

> <i_m_source_file_index>
781

> <i_lp_mmshare_version>
43012

> <i_f3d_flags>
0

> <s_epik_input>
W0NIM11jMVtjSF1jKG5vMSlbTkhdQyg9TylbTkhdW0NASF0oW0NAQEhdMjMpW0NASF0oW0NIMl1bT0hdKVtDQEBIXShbQ0gyXTMpW0NIMl1bQ0gyXTI=

> <s_epik_cmdline>
J2VwaWtfcHl0aG9uJywgJy1waCcsICc3LjAnLCAnLXRuJywgJzgnLCAnLW1hJywgJzIwMCcsICctbWV0YWxfYmluZGluZycsICctaW1hZScsICc8aW5maWxlLm1hZT4nLCAnLW9tYWUnLCAnPG91dGZpbGUubWFlPic=

> <r_lp_tautomer_probability>
1

> <r_epik_Ionization_Penalty>
2.32222e-05

> <r_epik_Ionization_Penalty_Charging>
0

> <r_epik_Ionization_Penalty_Neutral>
2.32222e-05

> <r_epik_State_Penalty>
-0

> <r_epik_Charging_Adjusted_Penalty>
0

> <i_epik_Tot_Q>
0

> <i_epik_Tot_abs_Q>
0

> <r_epik_Metal_State_Penalty>
-0

> <b_epik_Metal_Only>
0

> <s_lp_Force_Field>
OPLS_2005

> <r_lp_Energy>
46.3898

> <b_lp_Chiralities_Consistent>
1

> <s_lp_Variant>
AV-unprocessed.smi:781-6

> <Gold.Version>
5.8.1

> <Gold.Id.Protein>
6NUR|6NUR_protein|mol2

> <Gold.PLP.Fitness>
40.6487

> <Gold.PLP.PLP>
-32.4474

> <Gold.PLP.part.hbond>
-5.0000

> <Gold.PLP.part.metal>
0.0000

> <Gold.PLP.part.buried>
-3.2042

> <Gold.PLP.part.nonpolar>
-24.9397

> <Gold.PLP.part.repulsive>
0.0448

> <Gold.PLP.ligand.clash>
0.0000

> <Gold.PLP.ligand.torsion>
0.4079

> <Gold.PLP.Chemscore.Hbond>
3.0000

> <Gold.PLP.Chemscore.CHOScore>
0.0000

> <Gold.PLP.Chemscore.Metal>
0.0000

> <Gold.Chemscore.Hbonds>
donor molecule, donor type, donor heavy atom, donor atom, acceptor molecule, acceptor atom, score
      L1  H     5    24       P1  7948  0.40
      L1  H     8    25       P1  7948  1.00
      L1  H    17    38       P1  7957  1.00

> <Gold.PLP.Chemscore.Internal.Correction>
0.0171

> <Gold.Rescore>
     Score         DG    S(hbond)    S(metal)    S(lipo)     H(rot)  DE(clash)    DE(int)     intcor
     14.38     -17.13       2.73        0.00      62.19       1.86       0.22       2.53       ----

> <Gold.Chemscore.Fitness>
14.3756

> <Gold.Chemscore.DG>
-17.1309

> <Gold.Chemscore.ZeroCoef>
-5.4800

> <Gold.Chemscore.Hbond>
2.7344

> <Gold.Chemscore.Metal>
0.0000

> <Gold.Chemscore.Lipo>
62.1895

> <Gold.Chemscore.Internal_Hbond>
0.0000

> <Gold.Chemscore.DEClash>
0.2233

> <Gold.Chemscore.DEInternal>
2.5320

> <Gold.Chemscore.Rot>
1.8587

> <Gold.Chemscore.Internal.Correction>
   9.000000E+99

> <Gold.Chemscore.Hbonds>
donor molecule, donor type, donor heavy atom, donor atom, acceptor molecule, acceptor atom, score
      L1  H     5    24       P1  7948  0.01
      L1  H     8    25       P1  7948  0.96
      L1  H    17    38       P1  7957  0.99

> <Gold.Chemscore.Hbond.Weighted>
-9.1330

> <Gold.Chemscore.Metal.Weighted>
-0.0000

> <Gold.Chemscore.Lipo.Weighted>
-7.2762

> <Gold.Chemscore.Internal_Hbond.Weighted>
0.0000

> <Gold.Chemscore.DEClash.Weighted>
0.2233

> <Gold.Chemscore.DEInternal.Weighted>
2.5320

> <Gold.Chemscore.Rot.Weighted>
4.7583

> <Gold.Chemscore.Internal.Correction.Weighted>
   9.000000E+99

> <Gold.Protein.RotatedTorsions>
[ 6907 6896 6895 6894 ] final -133.47 input  -60.11 | X-H torsion
[ 7974 7965 7964 7962 ] final  -17.15 input  175.53 | X-H torsion
[ 8008 7997 7996 7995 ] final  132.43 input   59.86 | X-H torsion
[ 10167 10162 10161 10158 ] final  -60.01 input  -65.29 | X-H torsion
[ 10718 10713 10712 10709 ] final -170.45 input   66.30 | X-H torsion
[ 10763 10752 10751 10750 ] final -164.46 input  -60.55 | X-H torsion
[ 11005 11000 10999 10996 ] final  113.18 input  -57.11 | X-H torsion

> <Gold.Protein.ActiveResidues>
 VAL166  LYS551  ARG553  GLY616  TRP617  ASP618  TYR619  PRO620  LYS621  CYS622 
 ASP623  PHE694  ASN695  SER759  ASP760  ASP761  ALA762  ILE779  LEU786  VAL792 
 PHE793  MET794  SER795  GLU796  ALA797  LYS798  CYS799  TRP800  GLU811  SER814 

> <Gold.Protein.RotatedAtoms>
  150.9745  133.6309  159.2732 H   0  0  0  0  0  0  0  0  0  0  0  0  # atno 6907 bound_to 6896
  151.3587  135.0898  159.9437 H   0  0  0  0  0  0  0  0  0  0  0  0  # atno 6908 bound_to 6896
  152.5194  133.9323  159.7641 H   0  0  0  0  0  0  0  0  0  0  0  0  # atno 6909 bound_to 6896
  146.1954  140.3738  142.8442 H   0  0  0  0  0  0  0  0  0  0  0  0  # atno 7974 bound_to 7965
  156.2982  140.2546  156.3089 H   0  0  0  0  0  0  0  0  0  0  0  0  # atno 8008 bound_to 7997
  154.9346  140.0397  157.2084 H   0  0  0  0  0  0  0  0  0  0  0  0  # atno 8009 bound_to 7997
  154.8185  140.2856  155.5807 H   0  0  0  0  0  0  0  0  0  0  0  0  # atno 8010 bound_to 7997
  140.6098  143.2384  151.5735 H   0  0  0  0  0  0  0  0  0  0  0  0  # atno 10167 bound_to 10162
  156.7264  130.9289  151.3101 H   0  0  0  0  0  0  0  0  0  0  0  0  # atno 10718 bound_to 10713
  154.7026  135.2991  154.9318 H   0  0  0  0  0  0  0  0  0  0  0  0  # atno 10763 bound_to 10752
  154.0245  135.6678  153.4779 H   0  0  0  0  0  0  0  0  0  0  0  0  # atno 10764 bound_to 10752
  153.0693  135.5070  154.8179 H   0  0  0  0  0  0  0  0  0  0  0  0  # atno 10765 bound_to 10752
  139.8946  134.9545  156.6699 H   0  0  0  0  0  0  0  0  0  0  0  0  # atno 11005 bound_to 11000
  144.8571  140.7086  143.6131 LP  0  0  0  0  0  0  0  0  0  0  0  0  # atno 17320 bound_to 7965
  145.3658  139.1670  143.4358 LP  0  0  0  0  0  0  0  0  0  0  0  0  # atno 17321 bound_to 7965
  139.5353  144.2800  152.1237 LP  0  0  0  0  0  0  0  0  0  0  0  0  # atno 17342 bound_to 10162
  140.1997  144.4670  150.6438 LP  0  0  0  0  0  0  0  0  0  0  0  0  # atno 17343 bound_to 10162
  157.6877  130.9202  150.0430 LP  0  0  0  0  0  0  0  0  0  0  0  0  # atno 17370 bound_to 10713
  156.1559  130.3643  149.9369 LP  0  0  0  0  0  0  0  0  0  0  0  0  # atno 17371 bound_to 10713
  140.7381  133.9001  155.8258 LP  0  0  0  0  0  0  0  0  0  0  0  0  # atno 17394 bound_to 11000
  141.0099  134.1034  157.4232 LP  0  0  0  0  0  0  0  0  0  0  0  0  # atno 17395 bound_to 11000

$$$$
