AV-unprocessed.smi:1|AV-procd|sdf|6|dock2
  -GOLD-   2262015 93D 1   1.00000     0.00000
 Structure written by MMmdl.
 57 62  0  0  0  0  0  0  0  0  1 V2000
  152.9980  140.0140  158.2334 O   0  0  0  0  0  0  0  0  0  0  0  0
  152.2071  140.8257  157.7518 C   0  0  0  0  0  0  0  0  0  0  0  0
  151.3243  140.4840  156.6512 N   0  0  0  0  0  0  0  0  0  0  0  0
  151.3062  139.3467  155.9178 C   0  0  0  0  0  0  0  0  0  0  0  0
  151.6611  139.3202  154.6063 N   0  0  0  0  0  0  0  0  0  0  0  0
  151.6061  138.1763  153.9183 C   0  0  0  0  0  0  0  0  0  0  0  0
  151.2266  136.9684  154.3391 N   0  0  0  0  0  0  0  0  0  0  0  0
  150.8684  136.9848  155.6565 C   0  0  0  0  0  0  0  0  0  0  0  0
  150.8812  138.1267  156.5053 C   0  0  0  0  0  0  0  0  0  0  0  0
  150.4527  137.7734  157.7780 N   0  0  0  0  0  0  0  0  0  0  0  0
  150.2080  136.4944  157.6849 C   0  0  0  0  0  0  0  0  0  0  0  0
  150.4325  135.9373  156.4456 N   0  0  0  0  0  0  0  0  0  0  0  0
  150.2492  134.5052  156.0506 C   0  0  1  0  0  0  0  0  0  0  0  0
  150.1182  133.7380  157.2077 O   0  0  0  0  0  0  0  0  0  0  0  0
  149.1810  132.6971  156.9814 C   0  0  1  0  0  0  0  0  0  0  0  0
  148.6192  132.1640  158.3052 C   0  0  0  0  0  0  0  0  0  0  0  0
  148.0198  133.2326  159.0198 O   0  0  0  0  0  0  0  0  0  0  0  0
  147.6954  133.0800  160.3183 C   0  0  0  0  0  0  0  0  0  0  0  0
  147.5637  131.9829  160.8647 O   0  0  0  0  0  0  0  0  0  0  0  0
  147.5129  134.3799  161.0266 C   0  0  0  0  0  0  0  0  0  0  0  0
  147.7185  135.5884  160.3208 C   0  0  0  0  0  0  0  0  0  0  0  0
  147.5543  136.8312  160.9629 C   0  0  0  0  0  0  0  0  0  0  0  0
  147.1832  136.8809  162.3191 C   0  0  0  0  0  0  0  0  0  0  0  0
  146.9752  135.6861  163.0325 C   0  0  0  0  0  0  0  0  0  0  0  0
  147.1385  134.4421  162.3919 C   0  0  0  0  0  0  0  0  0  0  0  0
  148.1510  133.3253  156.0429 C   0  0  1  0  0  0  0  0  0  0  0  0
  147.1823  134.0813  156.7485 O   0  0  0  0  0  0  0  0  0  0  0  0
  146.8502  135.4493  155.8530 S   0  0  0  0  0  0  0  0  0  0  0  0
  145.7356  135.1396  154.9445 O   0  0  0  0  0  0  0  0  0  0  0  0
  146.8343  136.6130  156.7518 O   0  0  0  0  0  0  0  0  0  0  0  0
  148.2556  135.4860  154.9502 O   0  0  0  0  0  0  0  0  0  0  0  0
  148.9868  134.2894  155.1891 C   0  0  1  0  0  0  0  0  0  0  0  0
  152.0304  142.1979  158.3340 C   0  0  0  0  0  0  0  0  0  0  0  0
  152.6751  142.5427  159.5432 C   0  0  0  0  0  0  0  0  0  0  0  0
  152.5302  143.8350  160.0849 C   0  0  0  0  0  0  0  0  0  0  0  0
  151.7468  144.7957  159.4180 C   0  0  0  0  0  0  0  0  0  0  0  0
  151.1110  144.4645  158.2067 C   0  0  0  0  0  0  0  0  0  0  0  0
  151.2537  143.1722  157.6647 C   0  0  0  0  0  0  0  0  0  0  0  0
  150.6552  141.1917  156.3857 H   0  0  0  0  0  0  0  0  0  0  0  0
  151.9079  138.2384  152.8833 H   0  0  0  0  0  0  0  0  0  0  0  0
  149.8584  135.9150  158.5271 H   0  0  0  0  0  0  0  0  0  0  0  0
  151.1687  134.2438  155.5255 H   0  0  0  0  0  0  0  0  0  0  0  0
  149.7054  131.8979  156.4548 H   0  0  0  0  0  0  0  0  0  0  0  0
  147.8683  131.3974  158.1108 H   0  0  0  0  0  0  0  0  0  0  0  0
  149.4113  131.7008  158.8958 H   0  0  0  0  0  0  0  0  0  0  0  0
  148.0044  135.5756  159.2788 H   0  0  0  0  0  0  0  0  0  0  0  0
  147.7139  137.7472  160.4134 H   0  0  0  0  0  0  0  0  0  0  0  0
  147.0588  137.8339  162.8119 H   0  0  0  0  0  0  0  0  0  0  0  0
  146.6907  135.7233  164.0736 H   0  0  0  0  0  0  0  0  0  0  0  0
  146.9719  133.5444  162.9693 H   0  0  0  0  0  0  0  0  0  0  0  0
  147.6367  132.5772  155.4386 H   0  0  0  0  0  0  0  0  0  0  0  0
  149.2825  133.8254  154.2478 H   0  0  0  0  0  0  0  0  0  0  0  0
  153.2820  141.8173  160.0658 H   0  0  0  0  0  0  0  0  0  0  0  0
  153.0225  144.0898  161.0119 H   0  0  0  0  0  0  0  0  0  0  0  0
  151.6375  145.7870  159.8327 H   0  0  0  0  0  0  0  0  0  0  0  0
  150.5156  145.2032  157.6906 H   0  0  0  0  0  0  0  0  0  0  0  0
  150.7647  142.9420  156.7293 H   0  0  0  0  0  0  0  0  0  0  0  0
  1  2  2  0  0  0  0
  2  3  1  0  0  0  0
  2 33  1  0  0  0  0
  3  4  1  0  0  0  0
  3 39  1  0  0  0  0
  4  9  1  0  0  0  0
  4  5  2  0  0  0  0
  5  6  1  0  0  0  0
  6  7  2  0  0  0  0
  6 40  1  0  0  0  0
  7  8  1  0  0  0  0
  8 12  1  0  0  0  0
  8  9  2  0  0  0  0
  9 10  1  0  0  0  0
 10 11  2  0  0  0  0
 11 12  1  0  0  0  0
 11 41  1  0  0  0  0
 12 13  1  0  0  0  0
 13 32  1  0  0  0  0
 13 14  1  0  0  0  0
 13 42  1  0  0  0  0
 14 15  1  0  0  0  0
 15 16  1  0  0  0  0
 15 26  1  0  0  0  0
 15 43  1  0  0  0  0
 16 17  1  0  0  0  0
 16 44  1  0  0  0  0
 16 45  1  0  0  0  0
 17 18  1  0  0  0  0
 18 19  2  0  0  0  0
 18 20  1  0  0  0  0
 20 25  1  0  0  0  0
 20 21  2  0  0  0  0
 21 22  1  0  0  0  0
 21 46  1  0  0  0  0
 22 23  2  0  0  0  0
 22 47  1  0  0  0  0
 23 24  1  0  0  0  0
 23 48  1  0  0  0  0
 24 25  2  0  0  0  0
 24 49  1  0  0  0  0
 25 50  1  0  0  0  0
 26 32  1  0  0  0  0
 26 27  1  0  0  0  0
 26 51  1  0  0  0  0
 27 28  1  0  0  0  0
 28 29  2  0  0  0  0
 28 30  2  0  0  0  0
 28 31  1  0  0  0  0
 31 32  1  0  0  0  0
 32 52  1  0  0  0  0
 33 38  1  0  0  0  0
 33 34  2  0  0  0  0
 34 35  1  0  0  0  0
 34 53  1  0  0  0  0
 35 36  2  0  0  0  0
 35 54  1  0  0  0  0
 36 37  1  0  0  0  0
 36 55  1  0  0  0  0
 37 38  2  0  0  0  0
 37 56  1  0  0  0  0
 38 57  1  0  0  0  0
M  END
> <s_m_source_file>
AV-unprocessed.smi

> <i_m_source_file_index>
1

> <i_lp_mmshare_version>
43012

> <i_f3d_flags>
0

> <s_epik_input>
W2NIXTFbY0hdW2NIXVtjSF1bY0hdYzFDKD1PKVtOSF1jKG5bY0hdbjIpYyhjMjMpbltjSF1uM1tDQEBIXShbQ0BIXShbQ0BIXTQ1KU9TKE81KSg9Tyk9TylPW0NASF00W0NIMl1PQyg9TyljNltjSF1bY0hdW2NIXVtjSF1bY0hdNg==

> <s_epik_cmdline>
J2VwaWtfcHl0aG9uJywgJy1waCcsICc3LjAnLCAnLXRuJywgJzgnLCAnLW1hJywgJzIwMCcsICctbWV0YWxfYmluZGluZycsICctaW1hZScsICc8aW5maWxlLm1hZT4nLCAnLW9tYWUnLCAnPG91dGZpbGUubWFlPic=

> <r_lp_tautomer_probability>
1

> <r_epik_Ionization_Penalty>
0.00195722

> <r_epik_Ionization_Penalty_Charging>
0

> <r_epik_Ionization_Penalty_Neutral>
0.00195722

> <r_epik_State_Penalty>
0.00633741

> <r_epik_Charging_Adjusted_Penalty>
0.00633741

> <i_epik_Tot_Q>
0

> <i_epik_Tot_abs_Q>
0

> <r_epik_Metal_State_Penalty>
0.341185

> <b_epik_Metal_Only>
0

> <s_epik_Chemistry_Notes>
This compound has an ester and may undergo hydrolysis at high or low pH. This compound contains an acetal/aminal-like group ( X-CH(R)-Y where X, Y are N, S, or O) that may be acid/base labile, releasing an aldehyde.

> <s_lp_Force_Field>
OPLS_2005

> <r_lp_Energy>
46.6539

> <b_lp_Chiralities_Consistent>
1

> <s_lp_Variant>
AV-unprocessed.smi:1-6

> <Gold.Version>
5.8.1

> <Gold.Id.Protein>
6NUR|6NUR_protein|mol2

> <Gold.PLP.Fitness>
67.4880

> <Gold.PLP.PLP>
-57.3115

> <Gold.PLP.part.hbond>
-4.0000

> <Gold.PLP.part.metal>
0.0000

> <Gold.PLP.part.buried>
-9.1190

> <Gold.PLP.part.nonpolar>
-46.3516

> <Gold.PLP.part.repulsive>
0.8406

> <Gold.PLP.ligand.clash>
0.0000

> <Gold.PLP.ligand.torsion>
1.3689

> <Gold.PLP.Chemscore.Hbond>
3.9120

> <Gold.PLP.Chemscore.CHOScore>
0.2537

> <Gold.PLP.Chemscore.Metal>
0.0000

> <Gold.Chemscore.Hbonds>
donor molecule, donor type, donor heavy atom, donor atom, acceptor molecule, acceptor atom, score
      P1  H  6896  6908       L1    14  0.57
      P1  H  7989  7998       L1     5  1.00
      P1  H  7997  8008       L1     1  1.00
      P1  H 10752 10764       L1     7  0.56
      L1  C     6    40       P1  7949  0.31

> <Gold.PLP.Chemscore.Internal.Correction>
0.4171

> <Gold.Rescore>
     Score         DG    S(hbond)    S(metal)    S(lipo)     H(rot)  DE(clash)    DE(int)     intcor
     19.16     -22.40       2.42        0.00     122.05       2.13       0.06       3.17       ----

> <Gold.Chemscore.Fitness>
19.1558

> <Gold.Chemscore.DG>
-22.3955

> <Gold.Chemscore.ZeroCoef>
-5.4800

> <Gold.Chemscore.Hbond>
2.4243

> <Gold.Chemscore.Metal>
0.0000

> <Gold.Chemscore.Lipo>
122.0486

> <Gold.Chemscore.Internal_Hbond>
0.0000

> <Gold.Chemscore.DEClash>
0.0648

> <Gold.Chemscore.DEInternal>
3.1749

> <Gold.Chemscore.Rot>
2.1333

> <Gold.Chemscore.Internal.Correction>
   9.000000E+99

> <Gold.Chemscore.Hbonds>
donor molecule, donor type, donor heavy atom, donor atom, acceptor molecule, acceptor atom, score
      P1  H  6896  6908       L1    14  0.45
      P1  H  7989  7998       L1     5  0.83
      P1  H  7997  8008       L1     1  0.51
      P1  H 10752 10764       L1     7  0.09

> <Gold.Chemscore.Hbond.Weighted>
-8.0972

> <Gold.Chemscore.Metal.Weighted>
-0.0000

> <Gold.Chemscore.Lipo.Weighted>
-14.2797

> <Gold.Chemscore.Internal_Hbond.Weighted>
0.0000

> <Gold.Chemscore.DEClash.Weighted>
0.0648

> <Gold.Chemscore.DEInternal.Weighted>
3.1749

> <Gold.Chemscore.Rot.Weighted>
5.4614

> <Gold.Chemscore.Internal.Correction.Weighted>
   9.000000E+99

> <Gold.Protein.RotatedTorsions>
[ 6907 6896 6895 6894 ] final  104.71 input  -60.11 | X-H torsion
[ 7974 7965 7964 7962 ] final   10.45 input  175.53 | X-H torsion
[ 8008 7997 7996 7995 ] final  -89.38 input   59.86 | X-H torsion
[ 10167 10162 10161 10158 ] final    8.91 input  -65.29 | X-H torsion
[ 10718 10713 10712 10709 ] final   -0.80 input   66.30 | X-H torsion
[ 10763 10752 10751 10750 ] final  -63.02 input  -60.55 | X-H torsion
[ 11005 11000 10999 10996 ] final -159.46 input  -57.11 | X-H torsion

> <Gold.Protein.ActiveResidues>
 VAL166  LYS551  ARG553  GLY616  TRP617  ASP618  TYR619  PRO620  LYS621  CYS622 
 ASP623  PHE694  ASN695  SER759  ASP760  ASP761  ALA762  ILE779  LEU786  VAL792 
 PHE793  MET794  SER795  GLU796  ALA797  LYS798  CYS799  TRP800  GLU811  SER814 

> <Gold.Protein.RotatedAtoms>
  152.5255  133.9636  159.7728 H   0  0  0  0  0  0  0  0  0  0  0  0  # atno 6907 bound_to 6896
  150.9922  133.6130  159.2714 H   0  0  0  0  0  0  0  0  0  0  0  0  # atno 6908 bound_to 6896
  151.3270  135.0838  159.9378 H   0  0  0  0  0  0  0  0  0  0  0  0  # atno 6909 bound_to 6896
  146.2388  139.9632  142.8456 H   0  0  0  0  0  0  0  0  0  0  0  0  # atno 7974 bound_to 7965
  154.6859  140.0542  157.0314 H   0  0  0  0  0  0  0  0  0  0  0  0  # atno 8008 bound_to 7997
  155.0886  140.3217  155.4561 H   0  0  0  0  0  0  0  0  0  0  0  0  # atno 8009 bound_to 7997
  156.2711  140.2052  156.6013 H   0  0  0  0  0  0  0  0  0  0  0  0  # atno 8010 bound_to 7997
  140.6286  143.8045  150.7265 H   0  0  0  0  0  0  0  0  0  0  0  0  # atno 10167 bound_to 10162
  156.8151  130.5437  149.5704 H   0  0  0  0  0  0  0  0  0  0  0  0  # atno 10718 bound_to 10713
  154.3087  135.6220  153.5456 H   0  0  0  0  0  0  0  0  0  0  0  0  # atno 10763 bound_to 10752
  152.9832  135.5696  154.5201 H   0  0  0  0  0  0  0  0  0  0  0  0  # atno 10764 bound_to 10752
  154.4847  135.2864  155.1520 H   0  0  0  0  0  0  0  0  0  0  0  0  # atno 10765 bound_to 10752
  140.6423  134.4538  157.5233 H   0  0  0  0  0  0  0  0  0  0  0  0  # atno 11005 bound_to 11000
  145.1751  140.9740  143.4299 LP  0  0  0  0  0  0  0  0  0  0  0  0  # atno 17320 bound_to 7965
  144.9993  139.3614  143.6176 LP  0  0  0  0  0  0  0  0  0  0  0  0  # atno 17321 bound_to 7965
  140.1651  143.4242  152.2040 LP  0  0  0  0  0  0  0  0  0  0  0  0  # atno 17342 bound_to 10162
  139.5503  144.7332  151.4456 LP  0  0  0  0  0  0  0  0  0  0  0  0  # atno 17343 bound_to 10162
  156.1021  130.5977  150.9911 LP  0  0  0  0  0  0  0  0  0  0  0  0  # atno 17370 bound_to 10713
  157.6486  131.0900  150.8100 LP  0  0  0  0  0  0  0  0  0  0  0  0  # atno 17371 bound_to 10713
  139.9075  134.8416  156.1649 LP  0  0  0  0  0  0  0  0  0  0  0  0  # atno 17394 bound_to 11000
  141.0597  133.6847  156.1929 LP  0  0  0  0  0  0  0  0  0  0  0  0  # atno 17395 bound_to 11000

$$$$
