AV-unprocessed.smi:2780|AV-procd|sdf|10716|dock5
  -GOLD-   2272015153D 1   1.00000     0.00000
 Structure written by MMmdl.
 47 49  0  0  0  0  0  0  0  0  2 V2000
  152.1139  138.1325  154.6037 C   0  0  0  0  0  0  0  0  0  0  0  0
  151.2176  139.3074  154.9567 C   0  0  0  0  0  0  0  0  0  0  0  0
  151.6187  140.2554  155.8263 C   0  0  0  0  0  0  0  0  0  0  0  0
  150.8072  141.4811  156.2025 C   0  0  0  0  0  0  0  0  0  0  0  0
  149.3694  141.4358  155.6617 C   0  0  0  0  0  0  0  0  0  0  0  0
  149.3165  140.8267  154.2489 C   0  0  2  0  0  0  0  0  0  0  0  0
  147.9334  141.0111  153.6017 C   0  0  0  0  0  0  0  0  0  0  0  0
  149.8663  139.3672  154.2387 C   0  0  2  0  0  0  0  0  0  0  0  0
  148.9020  138.3091  154.8337 C   0  0  0  0  0  0  0  0  0  0  0  0
  149.3401  136.9274  154.5520 N   0  3  0  0  0  0  0  0  0  0  0  0
  148.4519  135.8883  155.1061 C   0  0  0  0  0  0  0  0  0  0  0  0
  148.8420  134.4988  154.5846 C   0  0  0  0  0  0  0  0  0  0  0  0
  149.5999  133.7507  155.5707 N   0  0  0  0  0  0  0  0  0  0  0  0
  150.0115  134.1489  156.7842 C   0  0  0  0  0  0  0  0  0  0  0  0
  150.6759  133.2302  157.4835 N   0  0  0  0  0  0  0  0  0  0  0  0
  150.7087  132.1229  156.6596 N   0  0  0  0  0  0  0  0  0  0  0  0
  150.0747  132.4881  155.5393 C   0  0  0  0  0  0  0  0  0  0  0  0
  149.8516  131.5710  154.3783 C   0  0  0  0  0  0  0  0  0  0  0  0
  148.4547  131.2541  153.8913 C   0  0  0  0  0  0  0  0  0  0  0  0
  149.2713  130.1868  154.5712 C   0  0  0  0  0  0  0  0  0  0  0  0
  152.3028  138.1104  153.5301 H   0  0  0  0  0  0  0  0  0  0  0  0
  151.6601  137.1850  154.8915 H   0  0  0  0  0  0  0  0  0  0  0  0
  153.0773  138.2034  155.1098 H   0  0  0  0  0  0  0  0  0  0  0  0
  152.5933  140.1803  156.2867 H   0  0  0  0  0  0  0  0  0  0  0  0
  150.7973  141.5923  157.2872 H   0  0  0  0  0  0  0  0  0  0  0  0
  151.3254  142.3525  155.8011 H   0  0  0  0  0  0  0  0  0  0  0  0
  148.7413  140.8577  156.3396 H   0  0  0  0  0  0  0  0  0  0  0  0
  148.9562  142.4452  155.6586 H   0  0  0  0  0  0  0  0  0  0  0  0
  150.0020  141.4143  153.6353 H   0  0  0  0  0  0  0  0  0  0  0  0
  147.1407  140.5698  154.2062 H   0  0  0  0  0  0  0  0  0  0  0  0
  147.8982  140.5645  152.6077 H   0  0  0  0  0  0  0  0  0  0  0  0
  147.6983  142.0699  153.4894 H   0  0  0  0  0  0  0  0  0  0  0  0
  150.0617  139.1002  153.1987 H   0  0  0  0  0  0  0  0  0  0  0  0
  148.8435  138.4047  155.9172 H   0  0  0  0  0  0  0  0  0  0  0  0
  147.8891  138.4603  154.4606 H   0  0  0  0  0  0  0  0  0  0  0  0
  149.3809  136.8081  153.5498 H   0  0  0  0  0  0  0  0  0  0  0  0
  148.5046  135.9097  156.1954 H   0  0  0  0  0  0  0  0  0  0  0  0
  147.4227  136.1182  154.8282 H   0  0  0  0  0  0  0  0  0  0  0  0
  147.9556  133.9258  154.3130 H   0  0  0  0  0  0  0  0  0  0  0  0
  149.4447  134.5895  153.6799 H   0  0  0  0  0  0  0  0  0  0  0  0
  149.8124  135.1371  157.1723 H   0  0  0  0  0  0  0  0  0  0  0  0
  150.6301  131.7012  153.6294 H   0  0  0  0  0  0  0  0  0  0  0  0
  147.6154  131.6707  154.4452 H   0  0  0  0  0  0  0  0  0  0  0  0
  148.3062  131.1656  152.8171 H   0  0  0  0  0  0  0  0  0  0  0  0
  149.6699  129.3857  153.9522 H   0  0  0  0  0  0  0  0  0  0  0  0
  148.9707  129.8951  155.5758 H   0  0  0  0  0  0  0  0  0  0  0  0
  150.2680  136.7998  154.9301 H   0  0  0  0  0  0  0  0  0  0  0  0
  1  2  1  0  0  0  0
  1 21  1  0  0  0  0
  1 22  1  0  0  0  0
  1 23  1  0  0  0  0
  2  8  1  0  0  0  0
  2  3  2  0  0  0  0
  3  4  1  0  0  0  0
  3 24  1  0  0  0  0
  4  5  1  0  0  0  0
  4 25  1  0  0  0  0
  4 26  1  0  0  0  0
  5  6  1  0  0  0  0
  5 27  1  0  0  0  0
  5 28  1  0  0  0  0
  6  7  1  0  0  0  0
  6  8  1  0  0  0  0
  6 29  1  0  0  0  0
  7 30  1  0  0  0  0
  7 31  1  0  0  0  0
  7 32  1  0  0  0  0
  8  9  1  0  0  0  0
  8 33  1  0  0  0  0
  9 10  1  0  0  0  0
  9 34  1  0  0  0  0
  9 35  1  0  0  0  0
 10 11  1  0  0  0  0
 10 36  1  0  0  0  0
 10 47  1  0  0  0  0
 11 12  1  0  0  0  0
 11 37  1  0  0  0  0
 11 38  1  0  0  0  0
 12 13  1  0  0  0  0
 12 39  1  0  0  0  0
 12 40  1  0  0  0  0
 13 17  1  0  0  0  0
 13 14  1  0  0  0  0
 14 15  2  0  0  0  0
 14 41  1  0  0  0  0
 15 16  1  0  0  0  0
 16 17  2  0  0  0  0
 17 18  1  0  0  0  0
 18 20  1  0  0  0  0
 18 19  1  0  0  0  0
 18 42  1  0  0  0  0
 19 20  1  0  0  0  0
 19 43  1  0  0  0  0
 19 44  1  0  0  0  0
 20 45  1  0  0  0  0
 20 46  1  0  0  0  0
M  CHG  1  10   1
M  END
> <s_m_source_file>
AV-unprocessed.smi

> <i_m_source_file_index>
2780

> <i_lp_mmshare_version>
43012

> <i_f3d_flags>
0

> <s_epik_input>
W0NIM11DMT1bQ0hdW0NIMl1bQ0gyXVtDQEBIXShbQ0gzXSlbQ0BIXTFbQ0gyXVtOSF1bQ0gyXVtDSDJdbjJbY0hdbm5jMltDSF0zW0NIMl1bQ0gyXTM=

> <s_epik_cmdline>
J2VwaWtfcHl0aG9uJywgJy1waCcsICc3LjAnLCAnLXRuJywgJzgnLCAnLW1hJywgJzIwMCcsICctbWV0YWxfYmluZGluZycsICctaW1hZScsICc8aW5maWxlLm1hZT4nLCAnLW9tYWUnLCAnPG91dGZpbGUubWFlPic=

> <r_lp_tautomer_probability>
1

> <r_epik_Ionization_Penalty>
0.00176214

> <r_epik_Ionization_Penalty_Charging>
0.00175191

> <r_epik_Ionization_Penalty_Neutral>
1.02377e-05

> <r_epik_State_Penalty>
-0

> <r_epik_Charging_Adjusted_Penalty>
0.00175191

> <i_epik_Tot_Q>
1

> <i_epik_Tot_abs_Q>
1

> <r_epik_Metal_State_Penalty>
-0

> <b_epik_Metal_Only>
0

> <s_lp_Force_Field>
OPLS_2005

> <r_lp_Energy>
23.8201

> <b_lp_Chiralities_Consistent>
1

> <s_lp_Variant>
AV-unprocessed.smi:2780-4

> <Gold.Version>
5.8.1

> <Gold.Id.Protein>
6NUR|6NUR_protein|mol2

> <Gold.PLP.Fitness>
46.9630

> <Gold.PLP.PLP>
-38.6710

> <Gold.PLP.part.hbond>
-2.0000

> <Gold.PLP.part.metal>
0.0000

> <Gold.PLP.part.buried>
-1.5338

> <Gold.PLP.part.nonpolar>
-34.7789

> <Gold.PLP.part.repulsive>
0.0087

> <Gold.PLP.ligand.clash>
0.0000

> <Gold.PLP.ligand.torsion>
0.4566

> <Gold.PLP.Chemscore.Hbond>
2.9920

> <Gold.PLP.Chemscore.CHOScore>
0.0000

> <Gold.PLP.Chemscore.Metal>
0.0000

> <Gold.Chemscore.Hbonds>
donor molecule, donor type, donor heavy atom, donor atom, acceptor molecule, acceptor atom, score
      L1  H    10    36       P1  7948  2.00
      P1  H  6896  6907       L1    15  0.98

> <Gold.PLP.Chemscore.Internal.Correction>
0.2293

> <Gold.Rescore>
     Score         DG    S(hbond)    S(metal)    S(lipo)     H(rot)  DE(clash)    DE(int)     intcor
     15.98     -16.65       1.93        0.00      83.67       1.98       0.11       0.56       ----

> <Gold.Chemscore.Fitness>
15.9775

> <Gold.Chemscore.DG>
-16.6489

> <Gold.Chemscore.ZeroCoef>
-5.4800

> <Gold.Chemscore.Hbond>
1.9304

> <Gold.Chemscore.Metal>
0.0000

> <Gold.Chemscore.Lipo>
83.6732

> <Gold.Chemscore.Internal_Hbond>
0.0000

> <Gold.Chemscore.DEClash>
0.1081

> <Gold.Chemscore.DEInternal>
0.5633

> <Gold.Chemscore.Rot>
1.9799

> <Gold.Chemscore.Internal.Correction>
   9.000000E+99

> <Gold.Chemscore.Hbonds>
donor molecule, donor type, donor heavy atom, donor atom, acceptor molecule, acceptor atom, score
      L1  H    10    36       P1  7948  0.92
      P1  H  6896  6907       L1    15  0.92

> <Gold.Chemscore.Hbond.Weighted>
-6.4476

> <Gold.Chemscore.Metal.Weighted>
-0.0000

> <Gold.Chemscore.Lipo.Weighted>
-9.7898

> <Gold.Chemscore.Internal_Hbond.Weighted>
0.0000

> <Gold.Chemscore.DEClash.Weighted>
0.1081

> <Gold.Chemscore.DEInternal.Weighted>
0.5633

> <Gold.Chemscore.Rot.Weighted>
5.0685

> <Gold.Chemscore.Internal.Correction.Weighted>
   9.000000E+99

> <Gold.Protein.RotatedTorsions>
[ 6907 6896 6895 6894 ] final -146.53 input  -60.11 | X-H torsion
[ 7974 7965 7964 7962 ] final   50.48 input  175.53 | X-H torsion
[ 8008 7997 7996 7995 ] final  -60.97 input   59.86 | X-H torsion
[ 10167 10162 10161 10158 ] final   76.63 input  -65.29 | X-H torsion
[ 10718 10713 10712 10709 ] final  177.79 input   66.30 | X-H torsion
[ 10763 10752 10751 10750 ] final  147.14 input  -60.55 | X-H torsion
[ 11005 11000 10999 10996 ] final  -78.07 input  -57.11 | X-H torsion

> <Gold.Protein.ActiveResidues>
 VAL166  LYS551  ARG553  GLY616  TRP617  ASP618  TYR619  PRO620  LYS621  CYS622 
 ASP623  PHE694  ASN695  SER759  ASP760  ASP761  ALA762  ILE779  LEU786  VAL792 
 PHE793  MET794  SER795  GLU796  ALA797  LYS798  CYS799  TRP800  GLU811  SER814 

> <Gold.Protein.RotatedAtoms>
  151.1429  133.4959  159.2596 H   0  0  0  0  0  0  0  0  0  0  0  0  # atno 6907 bound_to 6896
  151.1635  135.0284  159.8731 H   0  0  0  0  0  0  0  0  0  0  0  0  # atno 6908 bound_to 6896
  152.5462  134.1300  159.8488 H   0  0  0  0  0  0  0  0  0  0  0  0  # atno 6909 bound_to 6896
  146.0008  139.4437  143.0016 H   0  0  0  0  0  0  0  0  0  0  0  0  # atno 7974 bound_to 7965
  154.4425  140.1028  156.6358 H   0  0  0  0  0  0  0  0  0  0  0  0  # atno 8008 bound_to 7997
  155.5556  140.3486  155.4460 H   0  0  0  0  0  0  0  0  0  0  0  0  # atno 8009 bound_to 7997
  156.0497  140.1301  157.0053 H   0  0  0  0  0  0  0  0  0  0  0  0  # atno 8010 bound_to 7997
  139.9901  144.5763  150.7825 H   0  0  0  0  0  0  0  0  0  0  0  0  # atno 10167 bound_to 10162
  156.9001  130.9876  151.3037 H   0  0  0  0  0  0  0  0  0  0  0  0  # atno 10718 bound_to 10713
  154.0335  135.2895  155.3365 H   0  0  0  0  0  0  0  0  0  0  0  0  # atno 10763 bound_to 10752
  154.6973  135.5202  153.8480 H   0  0  0  0  0  0  0  0  0  0  0  0  # atno 10764 bound_to 10752
  153.0630  135.6620  154.0545 H   0  0  0  0  0  0  0  0  0  0  0  0  # atno 10765 bound_to 10752
  141.1663  133.7048  156.7915 H   0  0  0  0  0  0  0  0  0  0  0  0  # atno 11005 bound_to 11000
  145.7491  140.9979  143.1260 LP  0  0  0  0  0  0  0  0  0  0  0  0  # atno 17320 bound_to 7965
  144.6919  139.9192  143.7467 LP  0  0  0  0  0  0  0  0  0  0  0  0  # atno 17321 bound_to 7965
  140.7458  143.2880  151.3408 LP  0  0  0  0  0  0  0  0  0  0  0  0  # atno 17342 bound_to 10162
  139.6346  144.0655  152.2505 LP  0  0  0  0  0  0  0  0  0  0  0  0  # atno 17343 bound_to 10162
  157.6031  130.8527  149.8833 LP  0  0  0  0  0  0  0  0  0  0  0  0  # atno 17370 bound_to 10713
  156.0586  130.3704  150.1033 LP  0  0  0  0  0  0  0  0  0  0  0  0  # atno 17371 bound_to 10713
  140.2321  134.8677  157.3488 LP  0  0  0  0  0  0  0  0  0  0  0  0  # atno 17394 bound_to 11000
  140.1880  134.4407  155.7732 LP  0  0  0  0  0  0  0  0  0  0  0  0  # atno 17395 bound_to 11000

$$$$
