AV-unprocessed.smi:2253|AV-procd|sdf|9118|dock8
  -GOLD-   2272012323D 1   1.00000     0.00000
 Structure written by MMmdl.
 52 54  0  0  0  0  0  0  0  0  3 V2000
  148.6558  133.0585  154.1091 C   0  0  0  0  0  0  0  0  0  0  0  0
  149.0018  134.2110  154.9692 N   0  3  2  0  0  0  0  0  0  0  0  0
  147.8687  135.1562  155.1313 C   0  0  0  0  0  0  0  0  0  0  0  0
  148.2336  136.3024  156.0938 C   0  0  0  0  0  0  0  0  0  0  0  0
  149.4849  137.0806  155.6189 C   0  0  2  0  0  0  0  0  0  0  0  0
  149.2306  137.8748  154.3663 N   0  3  2  0  0  0  0  0  0  0  0  0
  150.3981  138.6207  153.8133 C   0  0  0  0  0  0  0  0  0  0  0  0
  150.7573  139.8449  154.6760 C   0  0  0  0  0  0  0  0  0  0  0  0
  149.5565  140.7998  154.7865 C   0  0  2  0  0  0  0  0  0  0  0  0
  149.8823  141.9179  155.6678 N   0  0  0  0  0  0  0  0  0  0  0  0
  150.5399  141.8114  156.8324 C   0  0  0  0  0  0  0  0  0  0  0  0
  150.9655  140.7422  157.2670 O   0  0  0  0  0  0  0  0  0  0  0  0
  150.6605  143.0088  157.4320 N   0  0  0  0  0  0  0  0  0  0  0  0
  151.2579  143.3488  158.6789 C   0  0  0  0  0  0  0  0  0  0  0  0
  152.4587  142.7905  159.1833 C   0  0  0  0  0  0  0  0  0  0  0  0
  152.9302  143.2231  160.4391 C   0  0  0  0  0  0  0  0  0  0  0  0
  152.2990  144.1462  161.1944 N   0  0  0  0  0  0  0  0  0  0  0  0
  151.1562  144.6774  160.7116 C   0  0  0  0  0  0  0  0  0  0  0  0
  150.5985  144.3143  159.4693 C   0  0  0  0  0  0  0  0  0  0  0  0
  149.4457  144.8869  159.0455 F   0  0  0  0  0  0  0  0  0  0  0  0
  148.3176  140.0343  155.2909 C   0  0  0  0  0  0  0  0  0  0  0  0
  148.0483  138.7833  154.4304 C   0  0  0  0  0  0  0  0  0  0  0  0
  150.6201  136.0350  155.4906 C   0  0  0  0  0  0  0  0  0  0  0  0
  150.2455  134.8912  154.5293 C   0  0  0  0  0  0  0  0  0  0  0  0
  148.4349  133.3816  153.0908 H   0  0  0  0  0  0  0  0  0  0  0  0
  147.7822  132.5352  154.4992 H   0  0  0  0  0  0  0  0  0  0  0  0
  149.4802  132.3457  154.0706 H   0  0  0  0  0  0  0  0  0  0  0  0
  147.5792  135.5556  154.1580 H   0  0  0  0  0  0  0  0  0  0  0  0
  147.0038  134.6173  155.5206 H   0  0  0  0  0  0  0  0  0  0  0  0
  147.3743  136.9509  156.2515 H   0  0  0  0  0  0  0  0  0  0  0  0
  148.4376  135.8757  157.0771 H   0  0  0  0  0  0  0  0  0  0  0  0
  149.7744  137.7764  156.4060 H   0  0  0  0  0  0  0  0  0  0  0  0
  151.2633  137.9802  153.6558 H   0  0  0  0  0  0  0  0  0  0  0  0
  150.1322  138.9642  152.8125 H   0  0  0  0  0  0  0  0  0  0  0  0
  151.0799  139.5229  155.6669 H   0  0  0  0  0  0  0  0  0  0  0  0
  151.6052  140.3682  154.2324 H   0  0  0  0  0  0  0  0  0  0  0  0
  149.3454  141.1899  153.7886 H   0  0  0  0  0  0  0  0  0  0  0  0
  149.5670  142.8338  155.3826 H   0  0  0  0  0  0  0  0  0  0  0  0
  150.2587  143.7894  156.9335 H   0  0  0  0  0  0  0  0  0  0  0  0
  153.0289  142.0476  158.6495 H   0  0  0  0  0  0  0  0  0  0  0  0
  153.8419  142.8136  160.8483 H   0  0  0  0  0  0  0  0  0  0  0  0
  150.6704  145.4136  161.3347 H   0  0  0  0  0  0  0  0  0  0  0  0
  148.4490  139.7523  156.3359 H   0  0  0  0  0  0  0  0  0  0  0  0
  147.4422  140.6841  155.2639 H   0  0  0  0  0  0  0  0  0  0  0  0
  147.8144  139.1013  153.4133 H   0  0  0  0  0  0  0  0  0  0  0  0
  147.1526  138.2718  154.7743 H   0  0  0  0  0  0  0  0  0  0  0  0
  151.5701  136.4873  155.2109 H   0  0  0  0  0  0  0  0  0  0  0  0
  150.8094  135.6049  156.4755 H   0  0  0  0  0  0  0  0  0  0  0  0
  151.0593  134.1658  154.4932 H   0  0  0  0  0  0  0  0  0  0  0  0
  150.1174  135.2723  153.5152 H   0  0  0  0  0  0  0  0  0  0  0  0
  149.0049  137.1849  153.6641 H   0  0  0  0  0  0  0  0  0  0  0  0
  149.1918  133.8321  155.8866 H   0  0  0  0  0  0  0  0  0  0  0  0
  1  2  1  0  0  0  0
  1 25  1  0  0  0  0
  1 26  1  0  0  0  0
  1 27  1  0  0  0  0
  2 24  1  0  0  0  0
  2  3  1  0  0  0  0
  2 52  1  0  0  0  0
  3  4  1  0  0  0  0
  3 28  1  0  0  0  0
  3 29  1  0  0  0  0
  4  5  1  0  0  0  0
  4 30  1  0  0  0  0
  4 31  1  0  0  0  0
  5  6  1  0  0  0  0
  5 23  1  0  0  0  0
  5 32  1  0  0  0  0
  6 22  1  0  0  0  0
  6  7  1  0  0  0  0
  6 51  1  0  0  0  0
  7  8  1  0  0  0  0
  7 33  1  0  0  0  0
  7 34  1  0  0  0  0
  8  9  1  0  0  0  0
  8 35  1  0  0  0  0
  8 36  1  0  0  0  0
  9 10  1  0  0  0  0
  9 21  1  0  0  0  0
  9 37  1  0  0  0  0
 10 11  1  0  0  0  0
 10 38  1  0  0  0  0
 11 12  2  0  0  0  0
 11 13  1  0  0  0  0
 13 14  1  0  0  0  0
 13 39  1  0  0  0  0
 14 19  1  0  0  0  0
 14 15  2  0  0  0  0
 15 16  1  0  0  0  0
 15 40  1  0  0  0  0
 16 17  2  0  0  0  0
 16 41  1  0  0  0  0
 17 18  1  0  0  0  0
 18 19  2  0  0  0  0
 18 42  1  0  0  0  0
 19 20  1  0  0  0  0
 21 22  1  0  0  0  0
 21 43  1  0  0  0  0
 21 44  1  0  0  0  0
 22 45  1  0  0  0  0
 22 46  1  0  0  0  0
 23 24  1  0  0  0  0
 23 47  1  0  0  0  0
 23 48  1  0  0  0  0
 24 49  1  0  0  0  0
 24 50  1  0  0  0  0
M  CHG  1   2   1
M  CHG  1   6   1
M  END
> <s_m_source_file>
AV-unprocessed.smi

> <i_m_source_file_index>
2253

> <i_lp_mmshare_version>
43012

> <i_f3d_flags>
0

> <s_epik_input>
W0NIM11OMVtDSDJdW0NIMl1bQ0hdKFtDSDJdW0NIMl0xKU4yW0NIMl1bQ0gyXVtDSF0oW0NIMl1bQ0gyXTIpW05IXUMoPU8pW05IXWMzW2NIXVtjSF1uW2NIXWMzRg==

> <s_epik_cmdline>
J2VwaWtfcHl0aG9uJywgJy1waCcsICc3LjAnLCAnLXRuJywgJzgnLCAnLW1hJywgJzIwMCcsICctbWV0YWxfYmluZGluZycsICctaW1hZScsICc8aW5maWxlLm1hZT4nLCAnLW9tYWUnLCAnPG91dGZpbGUubWFlPic=

> <r_epik_Ionization_Penalty>
0.183544

> <r_epik_Ionization_Penalty_Charging>
0.180787

> <r_epik_Ionization_Penalty_Neutral>
0.00275649

> <r_epik_State_Penalty>
0.153592

> <r_epik_Charging_Adjusted_Penalty>
0.334379

> <i_epik_Tot_Q>
2

> <i_epik_Tot_abs_Q>
2

> <r_epik_Metal_State_Penalty>
0.153693

> <b_epik_Metal_Only>
0

> <s_lp_Force_Field>
OPLS_2005

> <r_lp_Energy>
53.0851

> <b_lp_Chiralities_Consistent>
1

> <s_lp_Variant>
AV-unprocessed.smi:2253-4

> <Gold.Version>
5.8.1

> <Gold.Id.Protein>
6NUR|6NUR_protein|mol2

> <Gold.PLP.Fitness>
43.3321

> <Gold.PLP.PLP>
-32.7809

> <Gold.PLP.part.hbond>
-3.0000

> <Gold.PLP.part.metal>
0.0000

> <Gold.PLP.part.buried>
1.8420

> <Gold.PLP.part.nonpolar>
-32.0117

> <Gold.PLP.part.repulsive>
0.3062

> <Gold.PLP.ligand.clash>
0.0031

> <Gold.PLP.ligand.torsion>
0.5881

> <Gold.PLP.Chemscore.Hbond>
3.8938

> <Gold.PLP.Chemscore.CHOScore>
0.0000

> <Gold.PLP.Chemscore.Metal>
0.0000

> <Gold.Chemscore.Hbonds>
donor molecule, donor type, donor heavy atom, donor atom, acceptor molecule, acceptor atom, score
      L1  H     6    51       P1  7948  2.00
      L1  H    10    38       P1  8028  1.00
      L1  H    13    39       P1  8028  0.89

> <Gold.PLP.Chemscore.Internal.Correction>
0.0494

> <Gold.Rescore>
     Score         DG    S(hbond)    S(metal)    S(lipo)     H(rot)  DE(clash)    DE(int)     intcor
     19.30     -23.70       2.61        0.00     108.57       1.26       2.31       2.09       ----

> <Gold.Chemscore.Fitness>
19.2970

> <Gold.Chemscore.DG>
-23.6994

> <Gold.Chemscore.ZeroCoef>
-5.4800

> <Gold.Chemscore.Hbond>
2.6143

> <Gold.Chemscore.Metal>
0.0000

> <Gold.Chemscore.Lipo>
108.5716

> <Gold.Chemscore.Internal_Hbond>
0.0000

> <Gold.Chemscore.DEClash>
2.3080

> <Gold.Chemscore.DEInternal>
2.0944

> <Gold.Chemscore.Rot>
1.2559

> <Gold.Chemscore.Internal.Correction>
   9.000000E+99

> <Gold.Chemscore.Hbonds>
donor molecule, donor type, donor heavy atom, donor atom, acceptor molecule, acceptor atom, score
      L1  H     6    51       P1  7948  0.93
      L1  H    10    38       P1  8028  0.93
      L1  H    13    39       P1  8028  0.84

> <Gold.Chemscore.Hbond.Weighted>
-8.7317

> <Gold.Chemscore.Metal.Weighted>
-0.0000

> <Gold.Chemscore.Lipo.Weighted>
-12.7029

> <Gold.Chemscore.Internal_Hbond.Weighted>
0.0000

> <Gold.Chemscore.DEClash.Weighted>
2.3080

> <Gold.Chemscore.DEInternal.Weighted>
2.0944

> <Gold.Chemscore.Rot.Weighted>
3.2151

> <Gold.Chemscore.Internal.Correction.Weighted>
   9.000000E+99

> <Gold.Protein.RotatedTorsions>
[ 6907 6896 6895 6894 ] final  105.36 input  -60.11 | X-H torsion
[ 7974 7965 7964 7962 ] final  -54.25 input  175.53 | X-H torsion
[ 8008 7997 7996 7995 ] final  126.20 input   59.86 | X-H torsion
[ 10167 10162 10161 10158 ] final   15.49 input  -65.29 | X-H torsion
[ 10718 10713 10712 10709 ] final -100.53 input   66.30 | X-H torsion
[ 10763 10752 10751 10750 ] final  114.27 input  -60.55 | X-H torsion
[ 11005 11000 10999 10996 ] final -119.54 input  -57.11 | X-H torsion

> <Gold.Protein.ActiveResidues>
 VAL166  LYS551  ARG553  GLY616  TRP617  ASP618  TYR619  PRO620  LYS621  CYS622 
 ASP623  PHE694  ASN695  SER759  ASP760  ASP761  ALA762  ILE779  LEU786  VAL792 
 PHE793  MET794  SER795  GLU796  ALA797  LYS798  CYS799  TRP800  GLU811  SER814 

> <Gold.Protein.RotatedAtoms>
  152.5233  133.9540  159.7685 H   0  0  0  0  0  0  0  0  0  0  0  0  # atno 6907 bound_to 6896
  150.9844  133.6204  159.2724 H   0  0  0  0  0  0  0  0  0  0  0  0  # atno 6908 bound_to 6896
  151.3370  135.0861  159.9411 H   0  0  0  0  0  0  0  0  0  0  0  0  # atno 6909 bound_to 6896
  145.8877  140.8095  142.9807 H   0  0  0  0  0  0  0  0  0  0  0  0  # atno 7974 bound_to 7965
  156.2857  140.2698  156.2073 H   0  0  0  0  0  0  0  0  0  0  0  0  # atno 8008 bound_to 7997
  155.0300  140.0386  157.2488 H   0  0  0  0  0  0  0  0  0  0  0  0  # atno 8009 bound_to 7997
  154.7362  140.2716  155.6418 H   0  0  0  0  0  0  0  0  0  0  0  0  # atno 8010 bound_to 7997
  140.5863  143.8883  150.6833 H   0  0  0  0  0  0  0  0  0  0  0  0  # atno 10167 bound_to 10162
  156.0166  130.5332  150.6830 H   0  0  0  0  0  0  0  0  0  0  0  0  # atno 10718 bound_to 10713
  153.5048  135.3630  155.2558 H   0  0  0  0  0  0  0  0  0  0  0  0  # atno 10763 bound_to 10752
  154.8745  135.4008  154.3436 H   0  0  0  0  0  0  0  0  0  0  0  0  # atno 10764 bound_to 10752
  153.4079  135.7077  153.6446 H   0  0  0  0  0  0  0  0  0  0  0  0  # atno 10765 bound_to 10752
  141.0208  134.0127  157.3285 H   0  0  0  0  0  0  0  0  0  0  0  0  # atno 11005 bound_to 11000
  144.6729  140.1481  143.7432 LP  0  0  0  0  0  0  0  0  0  0  0  0  # atno 17320 bound_to 7965
  145.8947  139.2395  143.1529 LP  0  0  0  0  0  0  0  0  0  0  0  0  # atno 17321 bound_to 7965
  140.2395  143.3675  152.1499 LP  0  0  0  0  0  0  0  0  0  0  0  0  # atno 17342 bound_to 10162
  139.5200  144.7027  151.5447 LP  0  0  0  0  0  0  0  0  0  0  0  0  # atno 17343 bound_to 10162
  157.4528  131.0874  151.0828 LP  0  0  0  0  0  0  0  0  0  0  0  0  # atno 17370 bound_to 10713
  157.1338  130.6113  149.5536 LP  0  0  0  0  0  0  0  0  0  0  0  0  # atno 17371 bound_to 10713
  139.9145  135.0195  156.7825 LP  0  0  0  0  0  0  0  0  0  0  0  0  # atno 17394 bound_to 11000
  140.6576  133.9674  155.7788 LP  0  0  0  0  0  0  0  0  0  0  0  0  # atno 17395 bound_to 11000

$$$$
