AV-unprocessed.smi:1722|AV-procd|sdf|6943|dock1
  -GOLD-   22720 8153D 1   1.00000     0.00000
 Structure written by MMmdl.
 39 40  0  0  0  0  0  0  0  0  1 V2000
  151.0916  137.0594  157.3473 O   0  0  0  0  0  0  0  0  0  0  0  0
  150.5328  138.0124  157.8889 C   0  0  0  0  0  0  0  0  0  0  0  0
  151.0309  139.4279  157.6033 C   0  0  0  0  0  0  0  0  0  0  0  0
  151.4659  140.0170  158.8217 O   0  0  0  0  0  0  0  0  0  0  0  0
  152.1120  141.2744  158.6730 C   0  0  0  0  0  0  0  0  0  0  0  0
  152.5842  141.7117  160.0709 C   0  0  0  0  0  0  0  0  0  0  0  0
  153.2354  143.1037  160.0360 C   0  0  0  0  0  0  0  0  0  0  0  0
  152.2809  144.1472  159.4348 C   0  0  0  0  0  0  0  0  0  0  0  0
  151.7990  143.7193  158.0397 C   0  0  0  0  0  0  0  0  0  0  0  0
  151.1528  142.3246  158.0733 C   0  0  0  0  0  0  0  0  0  0  0  0
  149.5105  137.9230  158.7630 N   0  0  0  0  0  0  0  0  0  0  0  0
  148.8154  136.7882  159.2132 C   0  0  0  0  0  0  0  0  0  0  0  0
  148.4117  136.5813  160.4940 C   0  0  0  0  0  0  0  0  0  0  0  0
  147.7042  135.3768  160.8952 C   0  0  0  0  0  0  0  0  0  0  0  0
  147.3084  135.1321  162.3432 C   0  0  0  0  0  0  0  0  0  0  0  0
  147.8104  133.9701  162.7589 F   0  0  0  0  0  0  0  0  0  0  0  0
  147.7712  136.0945  163.1424 F   0  0  0  0  0  0  0  0  0  0  0  0
  145.9826  135.0816  162.4738 F   0  0  0  0  0  0  0  0  0  0  0  0
  147.4933  134.4569  159.9359 C   0  0  0  0  0  0  0  0  0  0  0  0
  147.9046  134.6616  158.6168 N   0  0  0  0  0  0  0  0  0  0  0  0
  148.5565  135.7650  158.1864 C   0  0  0  0  0  0  0  0  0  0  0  0
  148.8922  135.8669  157.0070 O   0  0  0  0  0  0  0  0  0  0  0  0
  147.7009  133.9280  157.9534 H   0  0  0  0  0  0  0  0  0  0  0  0
  151.8524  139.3756  156.8875 H   0  0  0  0  0  0  0  0  0  0  0  0
  150.2289  140.0110  157.1502 H   0  0  0  0  0  0  0  0  0  0  0  0
  152.9898  141.1665  158.0332 H   0  0  0  0  0  0  0  0  0  0  0  0
  151.7365  141.7250  160.7575 H   0  0  0  0  0  0  0  0  0  0  0  0
  153.2914  140.9831  160.4688 H   0  0  0  0  0  0  0  0  0  0  0  0
  153.5265  143.4035  161.0431 H   0  0  0  0  0  0  0  0  0  0  0  0
  154.1528  143.0639  159.4474 H   0  0  0  0  0  0  0  0  0  0  0  0
  151.4214  144.2790  160.0934 H   0  0  0  0  0  0  0  0  0  0  0  0
  152.7773  145.1163  159.3765 H   0  0  0  0  0  0  0  0  0  0  0  0
  151.0872  144.4490  157.6529 H   0  0  0  0  0  0  0  0  0  0  0  0
  152.6426  143.7132  157.3483 H   0  0  0  0  0  0  0  0  0  0  0  0
  150.8575  142.0453  157.0624 H   0  0  0  0  0  0  0  0  0  0  0  0
  150.2365  142.3626  158.6637 H   0  0  0  0  0  0  0  0  0  0  0  0
  149.2085  138.7924  159.1795 H   0  0  0  0  0  0  0  0  0  0  0  0
  148.6175  137.3054  161.2650 H   0  0  0  0  0  0  0  0  0  0  0  0
  147.0067  133.5067  160.0999 H   0  0  0  0  0  0  0  0  0  0  0  0
  1  2  2  0  0  0  0
  2  3  1  0  0  0  0
  2 11  1  0  0  0  0
  3  4  1  0  0  0  0
  3 24  1  0  0  0  0
  3 25  1  0  0  0  0
  4  5  1  0  0  0  0
  5 10  1  0  0  0  0
  5  6  1  0  0  0  0
  5 26  1  0  0  0  0
  6  7  1  0  0  0  0
  6 27  1  0  0  0  0
  6 28  1  0  0  0  0
  7  8  1  0  0  0  0
  7 29  1  0  0  0  0
  7 30  1  0  0  0  0
  8  9  1  0  0  0  0
  8 31  1  0  0  0  0
  8 32  1  0  0  0  0
  9 10  1  0  0  0  0
  9 33  1  0  0  0  0
  9 34  1  0  0  0  0
 10 35  1  0  0  0  0
 10 36  1  0  0  0  0
 11 12  1  0  0  0  0
 11 37  1  0  0  0  0
 12 21  1  0  0  0  0
 12 13  2  0  0  0  0
 13 14  1  0  0  0  0
 13 38  1  0  0  0  0
 14 15  1  0  0  0  0
 14 19  2  0  0  0  0
 15 16  1  0  0  0  0
 15 17  1  0  0  0  0
 15 18  1  0  0  0  0
 19 20  1  0  0  0  0
 19 39  1  0  0  0  0
 20 23  1  0  0  0  0
 20 21  1  0  0  0  0
 21 22  2  0  0  0  0
M  END
> <s_m_source_file>
AV-unprocessed.smi

> <i_m_source_file_index>
1722

> <i_lp_mmshare_version>
43012

> <i_f3d_flags>
0

> <s_epik_input>
Tz1jMVtuSF1bY0hdYyhDKEYpKEYpRilbY0hdYzFbTkhdQyg9TylbQ0gyXU9bQ0hdMltDSDJdW0NIMl1bQ0gyXVtDSDJdW0NIMl0y

> <s_epik_cmdline>
J2VwaWtfcHl0aG9uJywgJy1waCcsICc3LjAnLCAnLXRuJywgJzgnLCAnLW1hJywgJzIwMCcsICctbWV0YWxfYmluZGluZycsICctaW1hZScsICc8aW5maWxlLm1hZT4nLCAnLW9tYWUnLCAnPG91dGZpbGUubWFlPic=

> <r_lp_tautomer_probability>
0.999

> <r_epik_Ionization_Penalty>
0.008897

> <r_epik_Ionization_Penalty_Charging>
0.00889691

> <r_epik_Ionization_Penalty_Neutral>
9.17026e-08

> <r_epik_State_Penalty>
0.00672877

> <r_epik_Charging_Adjusted_Penalty>
0.0156257

> <i_epik_Tot_Q>
0

> <i_epik_Tot_abs_Q>
0

> <r_epik_Metal_State_Penalty>
0.320955

> <b_epik_Metal_Only>
0

> <s_lp_Force_Field>
OPLS_2005

> <r_lp_Energy>
24.9811

> <b_lp_Chiralities_Consistent>
1

> <s_lp_Variant>
AV-unprocessed.smi:1722-1

> <Gold.Version>
5.8.1

> <Gold.Id.Protein>
6NUR|6NUR_protein|mol2

> <Gold.PLP.Fitness>
42.3251

> <Gold.PLP.PLP>
-42.8865

> <Gold.PLP.part.hbond>
0.0000

> <Gold.PLP.part.metal>
0.0000

> <Gold.PLP.part.buried>
-5.1347

> <Gold.PLP.part.nonpolar>
-38.1920

> <Gold.PLP.part.repulsive>
0.2522

> <Gold.PLP.ligand.clash>
0.0000

> <Gold.PLP.ligand.torsion>
0.4461

> <Gold.PLP.Chemscore.Hbond>
0.0000

> <Gold.PLP.Chemscore.CHOScore>
0.0000

> <Gold.PLP.Chemscore.Metal>
0.0000

> <Gold.PLP.Chemscore.Internal.Correction>
0.3307

> <Gold.Rescore>
     Score         DG    S(hbond)    S(metal)    S(lipo)     H(rot)  DE(clash)    DE(int)     intcor
      9.69     -12.17       0.00        0.00      92.05       1.59       0.04       2.44       ----

> <Gold.Chemscore.Fitness>
9.6890

> <Gold.Chemscore.DG>
-12.1682

> <Gold.Chemscore.ZeroCoef>
-5.4800

> <Gold.Chemscore.Hbond>
0.0000

> <Gold.Chemscore.Metal>
0.0000

> <Gold.Chemscore.Lipo>
92.0522

> <Gold.Chemscore.Internal_Hbond>
0.0000

> <Gold.Chemscore.DEClash>
0.0373

> <Gold.Chemscore.DEInternal>
2.4418

> <Gold.Chemscore.Rot>
1.5945

> <Gold.Chemscore.Internal.Correction>
   9.000000E+99

> <Gold.Chemscore.Hbond.Weighted>
-0.0000

> <Gold.Chemscore.Metal.Weighted>
-0.0000

> <Gold.Chemscore.Lipo.Weighted>
-10.7701

> <Gold.Chemscore.Internal_Hbond.Weighted>
0.0000

> <Gold.Chemscore.DEClash.Weighted>
0.0373

> <Gold.Chemscore.DEInternal.Weighted>
2.4418

> <Gold.Chemscore.Rot.Weighted>
4.0820

> <Gold.Chemscore.Internal.Correction.Weighted>
   9.000000E+99

> <Gold.Protein.RotatedTorsions>
[ 6907 6896 6895 6894 ] final   29.10 input  -60.11 | X-H torsion
[ 7974 7965 7964 7962 ] final  111.21 input  175.53 | X-H torsion
[ 8008 7997 7996 7995 ] final  -89.05 input   59.86 | X-H torsion
[ 10167 10162 10161 10158 ] final  -71.91 input  -65.29 | X-H torsion
[ 10718 10713 10712 10709 ] final   93.62 input   66.30 | X-H torsion
[ 10763 10752 10751 10750 ] final  -88.86 input  -60.55 | X-H torsion
[ 11005 11000 10999 10996 ] final -166.80 input  -57.11 | X-H torsion

> <Gold.Protein.ActiveResidues>
 VAL166  LYS551  ARG553  GLY616  TRP617  ASP618  TYR619  PRO620  LYS621  CYS622 
 ASP623  PHE694  ASN695  SER759  ASP760  ASP761  ALA762  ILE779  LEU786  VAL792 
 PHE793  MET794  SER795  GLU796  ALA797  LYS798  CYS799  TRP800  GLU811  SER814 

> <Gold.Protein.RotatedAtoms>
  152.0265  134.9792  160.0571 H   0  0  0  0  0  0  0  0  0  0  0  0  # atno 6907 bound_to 6896
  152.1286  133.4389  159.4718 H   0  0  0  0  0  0  0  0  0  0  0  0  # atno 6908 bound_to 6896
  150.6854  134.2367  159.4499 H   0  0  0  0  0  0  0  0  0  0  0  0  # atno 6909 bound_to 6896
  145.2451  139.2762  143.4097 H   0  0  0  0  0  0  0  0  0  0  0  0  # atno 7974 bound_to 7965
  154.6820  140.0546  157.0276 H   0  0  0  0  0  0  0  0  0  0  0  0  # atno 8008 bound_to 7997
  155.0937  140.3222  155.4547 H   0  0  0  0  0  0  0  0  0  0  0  0  # atno 8009 bound_to 7997
  156.2698  140.2043  156.6064 H   0  0  0  0  0  0  0  0  0  0  0  0  # atno 8010 bound_to 7997
  140.5235  143.2329  151.7388 H   0  0  0  0  0  0  0  0  0  0  0  0  # atno 10167 bound_to 10162
  157.6953  131.0484  150.4062 H   0  0  0  0  0  0  0  0  0  0  0  0  # atno 10718 bound_to 10713
  154.6491  135.5362  153.7880 H   0  0  0  0  0  0  0  0  0  0  0  0  # atno 10763 bound_to 10752
  153.0376  135.6478  154.1044 H   0  0  0  0  0  0  0  0  0  0  0  0  # atno 10764 bound_to 10752
  154.0962  135.2936  155.3241 H   0  0  0  0  0  0  0  0  0  0  0  0  # atno 10765 bound_to 10752
  140.5604  134.5339  157.5142 H   0  0  0  0  0  0  0  0  0  0  0  0  # atno 11005 bound_to 11000
  146.3318  140.2826  142.8611 LP  0  0  0  0  0  0  0  0  0  0  0  0  # atno 17320 bound_to 7965
  144.9553  140.8220  143.5546 LP  0  0  0  0  0  0  0  0  0  0  0  0  # atno 17321 bound_to 7965
  139.4931  144.4220  151.9967 LP  0  0  0  0  0  0  0  0  0  0  0  0  # atno 17342 bound_to 10162
  140.3318  144.3307  150.5986 LP  0  0  0  0  0  0  0  0  0  0  0  0  # atno 17343 bound_to 10162
  156.4451  130.3999  149.6672 LP  0  0  0  0  0  0  0  0  0  0  0  0  # atno 17370 bound_to 10713
  156.3842  130.7594  151.2590 LP  0  0  0  0  0  0  0  0  0  0  0  0  # atno 17371 bound_to 10713
  139.9411  134.7786  156.0677 LP  0  0  0  0  0  0  0  0  0  0  0  0  # atno 17394 bound_to 11000
  141.1118  133.6641  156.2997 LP  0  0  0  0  0  0  0  0  0  0  0  0  # atno 17395 bound_to 11000

$$$$
