AV-unprocessed.smi:1047|AV-procd|sdf|4589|dock8
  -GOLD-   22720 3 63D 1   1.00000     0.00000
 Structure written by MMmdl.
 57 59  0  0  0  0  0  0  0  0  3 V2000
  144.6355  132.4185  149.8497 C   0  0  0  0  0  0  0  0  0  0  0  0
  146.0773  132.7036  150.2932 C   0  0  0  0  0  0  0  0  0  0  0  0
  146.2070  133.6526  151.3977 N   0  0  0  0  0  0  0  0  0  0  0  0
  145.3924  133.2409  152.5359 C   0  0  0  0  0  0  0  0  0  0  0  0
  145.5078  134.2252  153.7116 C   0  0  0  0  0  0  0  0  0  0  0  0
  145.1512  135.5312  153.2708 O   0  0  0  0  0  0  0  0  0  0  0  0
  145.9640  135.9953  152.1958 C   0  0  2  0  0  0  0  0  0  0  0  0
  145.5155  137.4156  151.8268 C   0  0  0  0  0  0  0  0  0  0  0  0
  145.8398  138.3482  152.9208 N   0  3  0  0  0  0  0  0  0  0  0  0
  147.0504  139.1668  152.7156 C   0  0  0  0  0  0  0  0  0  0  0  0
  147.1650  140.2601  153.7991 C   0  0  2  0  0  0  0  0  0  0  0  0
  146.1231  141.1936  153.6103 O   0  0  0  0  0  0  0  0  0  0  0  0
  148.5011  141.0444  153.8160 C   0  0  0  0  0  0  0  0  0  0  0  0
  149.6512  140.2824  154.3246 N   0  0  0  0  0  0  0  0  0  0  0  0
  150.1895  139.1142  153.8779 C   0  0  0  0  0  0  0  0  0  0  0  0
  151.2319  138.8031  154.6969 N   0  3  0  0  0  0  0  0  0  0  0  0
  151.3716  139.7940  155.6710 C   0  0  0  0  0  0  0  0  0  0  0  0
  152.2712  139.9163  156.7225 C   0  0  0  0  0  0  0  0  0  0  0  0
  152.1465  141.0561  157.5480 C   0  0  0  0  0  0  0  0  0  0  0  0
  153.1084  141.2157  158.7132 C   0  0  0  0  0  0  0  0  0  0  0  0
  151.1479  142.0332  157.2985 C   0  0  0  0  0  0  0  0  0  0  0  0
  151.0250  143.2558  158.1919 C   0  0  0  0  0  0  0  0  0  0  0  0
  150.2450  141.8933  156.2202 C   0  0  0  0  0  0  0  0  0  0  0  0
  150.3731  140.7569  155.4257 C   0  0  0  0  0  0  0  0  0  0  0  0
  145.8357  135.0129  151.0151 C   0  0  0  0  0  0  0  0  0  0  0  0
  144.6280  131.7911  148.9584 H   0  0  0  0  0  0  0  0  0  0  0  0
  144.1081  133.3415  149.6075 H   0  0  0  0  0  0  0  0  0  0  0  0
  144.0673  131.8940  150.6174 H   0  0  0  0  0  0  0  0  0  0  0  0
  146.5718  131.7654  150.5490 H   0  0  0  0  0  0  0  0  0  0  0  0
  146.6124  133.0969  149.4277 H   0  0  0  0  0  0  0  0  0  0  0  0
  144.3468  133.1627  152.2334 H   0  0  0  0  0  0  0  0  0  0  0  0
  145.6947  132.2470  152.8678 H   0  0  0  0  0  0  0  0  0  0  0  0
  144.8427  133.9284  154.5225 H   0  0  0  0  0  0  0  0  0  0  0  0
  146.5219  134.2324  154.1144 H   0  0  0  0  0  0  0  0  0  0  0  0
  147.0049  136.0265  152.5241 H   0  0  0  0  0  0  0  0  0  0  0  0
  146.0316  137.7370  150.9212 H   0  0  0  0  0  0  0  0  0  0  0  0
  144.4449  137.4457  151.6208 H   0  0  0  0  0  0  0  0  0  0  0  0
  145.0508  138.9632  153.0634 H   0  0  0  0  0  0  0  0  0  0  0  0
  147.9422  138.5387  152.7111 H   0  0  0  0  0  0  0  0  0  0  0  0
  146.9733  139.6209  151.7264 H   0  0  0  0  0  0  0  0  0  0  0  0
  146.9948  139.8051  154.7751 H   0  0  0  0  0  0  0  0  0  0  0  0
  145.3097  140.7262  153.4940 H   0  0  0  0  0  0  0  0  0  0  0  0
  148.7601  141.3538  152.8019 H   0  0  0  0  0  0  0  0  0  0  0  0
  148.4084  141.9595  154.4028 H   0  0  0  0  0  0  0  0  0  0  0  0
  149.8451  138.5325  153.0345 H   0  0  0  0  0  0  0  0  0  0  0  0
  153.0328  139.1716  156.9039 H   0  0  0  0  0  0  0  0  0  0  0  0
  152.5641  141.2454  159.6573 H   0  0  0  0  0  0  0  0  0  0  0  0
  153.6814  142.1378  158.6141 H   0  0  0  0  0  0  0  0  0  0  0  0
  153.8165  140.3879  158.7630 H   0  0  0  0  0  0  0  0  0  0  0  0
  150.2110  143.9063  157.8707 H   0  0  0  0  0  0  0  0  0  0  0  0
  151.9453  143.8398  158.1712 H   0  0  0  0  0  0  0  0  0  0  0  0
  150.8265  142.9583  159.2217 H   0  0  0  0  0  0  0  0  0  0  0  0
  149.4867  142.6384  156.0291 H   0  0  0  0  0  0  0  0  0  0  0  0
  146.4713  135.3607  150.2014 H   0  0  0  0  0  0  0  0  0  0  0  0
  144.8113  135.0247  150.6393 H   0  0  0  0  0  0  0  0  0  0  0  0
  145.9782  137.8053  153.7609 H   0  0  0  0  0  0  0  0  0  0  0  0
  151.8093  137.9781  154.5913 H   0  0  0  0  0  0  0  0  0  0  0  0
  1  2  1  0  0  0  0
  1 26  1  0  0  0  0
  1 27  1  0  0  0  0
  1 28  1  0  0  0  0
  2  3  1  0  0  0  0
  2 29  1  0  0  0  0
  2 30  1  0  0  0  0
  3 25  1  0  0  0  0
  3  4  1  0  0  0  0
  4  5  1  0  0  0  0
  4 31  1  0  0  0  0
  4 32  1  0  0  0  0
  5  6  1  0  0  0  0
  5 33  1  0  0  0  0
  5 34  1  0  0  0  0
  6  7  1  0  0  0  0
  7  8  1  0  0  0  0
  7 25  1  0  0  0  0
  7 35  1  0  0  0  0
  8  9  1  0  0  0  0
  8 36  1  0  0  0  0
  8 37  1  0  0  0  0
  9 10  1  0  0  0  0
  9 38  1  0  0  0  0
  9 56  1  0  0  0  0
 10 11  1  0  0  0  0
 10 39  1  0  0  0  0
 10 40  1  0  0  0  0
 11 12  1  0  0  0  0
 11 13  1  0  0  0  0
 11 41  1  0  0  0  0
 12 42  1  0  0  0  0
 13 14  1  0  0  0  0
 13 43  1  0  0  0  0
 13 44  1  0  0  0  0
 14 24  1  0  0  0  0
 14 15  1  0  0  0  0
 15 16  2  0  0  0  0
 15 45  1  0  0  0  0
 16 17  1  0  0  0  0
 16 57  1  0  0  0  0
 17 24  2  0  0  0  0
 17 18  1  0  0  0  0
 18 19  2  0  0  0  0
 18 46  1  0  0  0  0
 19 20  1  0  0  0  0
 19 21  1  0  0  0  0
 20 47  1  0  0  0  0
 20 48  1  0  0  0  0
 20 49  1  0  0  0  0
 21 22  1  0  0  0  0
 21 23  2  0  0  0  0
 22 50  1  0  0  0  0
 22 51  1  0  0  0  0
 22 52  1  0  0  0  0
 23 24  1  0  0  0  0
 23 53  1  0  0  0  0
 25 54  1  0  0  0  0
 25 55  1  0  0  0  0
M  CHG  1   9   1
M  CHG  1  16   1
M  END
> <s_m_source_file>
AV-unprocessed.smi

> <i_m_source_file_index>
1047

> <i_lp_mmshare_version>
43012

> <i_f3d_flags>
0

> <s_epik_input>
W0NIM11bQ0gyXU4xW0NIMl1bQ0gyXU9bQ0BIXShbQ0gyXTEpW0NIMl1bTkhdW0NIMl1bQ0BIXShbT0hdKVtDSDJdbihbY0hdbjIpYyhjMjMpW2NIXWMoW0NIM10pYyhbY0hdMylbQ0gzXQ==

> <s_epik_cmdline>
J2VwaWtfcHl0aG9uJywgJy1waCcsICc3LjAnLCAnLXRuJywgJzgnLCAnLW1hJywgJzIwMCcsICctbWV0YWxfYmluZGluZycsICctaW1hZScsICc8aW5maWxlLm1hZT4nLCAnLW9tYWUnLCAnPG91dGZpbGUubWFlPic=

> <r_epik_Ionization_Penalty>
1.75732

> <r_epik_Ionization_Penalty_Charging>
1.18089

> <r_epik_Ionization_Penalty_Neutral>
0.576429

> <r_epik_State_Penalty>
1.69377

> <r_epik_Charging_Adjusted_Penalty>
2.87466

> <i_epik_Tot_Q>
2

> <i_epik_Tot_abs_Q>
2

> <r_epik_Metal_State_Penalty>
5.70174

> <b_epik_Metal_Only>
0

> <s_lp_Force_Field>
OPLS_2005

> <r_lp_Energy>
41.9229

> <b_lp_Chiralities_Consistent>
1

> <s_lp_Variant>
AV-unprocessed.smi:1047-30

> <Gold.Version>
5.8.1

> <Gold.Id.Protein>
6NUR|6NUR_protein|mol2

> <Gold.PLP.Fitness>
54.6477

> <Gold.PLP.PLP>
-42.0927

> <Gold.PLP.part.hbond>
-2.0000

> <Gold.PLP.part.metal>
0.0000

> <Gold.PLP.part.buried>
2.1427

> <Gold.PLP.part.nonpolar>
-41.6198

> <Gold.PLP.part.repulsive>
0.3111

> <Gold.PLP.ligand.clash>
0.0000

> <Gold.PLP.ligand.torsion>
0.5016

> <Gold.PLP.Chemscore.Hbond>
3.0000

> <Gold.PLP.Chemscore.CHOScore>
1.4705

> <Gold.PLP.Chemscore.Metal>
0.0000

> <Gold.Chemscore.Hbonds>
donor molecule, donor type, donor heavy atom, donor atom, acceptor molecule, acceptor atom, score
      L1  H     9    38       P1 10175  1.56
      L1  H    12    42       P1 10175  0.96
      L1  C    15    45       P1  7948  0.61
      L1  C    15    45       P1  7957  0.57

> <Gold.PLP.Chemscore.Internal.Correction>
0.1467

> <Gold.Rescore>
     Score         DG    S(hbond)    S(metal)    S(lipo)     H(rot)  DE(clash)    DE(int)     intcor
     16.87     -18.75       1.82        0.00     120.50       2.69       1.40       0.47       ----

> <Gold.Chemscore.Fitness>
16.8715

> <Gold.Chemscore.DG>
-18.7503

> <Gold.Chemscore.ZeroCoef>
-5.4800

> <Gold.Chemscore.Hbond>
1.8151

> <Gold.Chemscore.Metal>
0.0000

> <Gold.Chemscore.Lipo>
120.4997

> <Gold.Chemscore.Internal_Hbond>
0.0000

> <Gold.Chemscore.DEClash>
1.4045

> <Gold.Chemscore.DEInternal>
0.4743

> <Gold.Chemscore.Rot>
2.6917

> <Gold.Chemscore.Internal.Correction>
   9.000000E+99

> <Gold.Chemscore.Hbonds>
donor molecule, donor type, donor heavy atom, donor atom, acceptor molecule, acceptor atom, score
      L1  H     9    38       P1 10175  0.75
      L1  H    12    42       P1 10175  0.83

> <Gold.Chemscore.Hbond.Weighted>
-6.0625

> <Gold.Chemscore.Metal.Weighted>
-0.0000

> <Gold.Chemscore.Lipo.Weighted>
-14.0985

> <Gold.Chemscore.Internal_Hbond.Weighted>
0.0000

> <Gold.Chemscore.DEClash.Weighted>
1.4045

> <Gold.Chemscore.DEInternal.Weighted>
0.4743

> <Gold.Chemscore.Rot.Weighted>
6.8907

> <Gold.Chemscore.Internal.Correction.Weighted>
   9.000000E+99

> <Gold.Protein.RotatedTorsions>
[ 6907 6896 6895 6894 ] final  -91.77 input  -60.11 | X-H torsion
[ 7974 7965 7964 7962 ] final  134.08 input  175.53 | X-H torsion
[ 8008 7997 7996 7995 ] final  121.00 input   59.86 | X-H torsion
[ 10167 10162 10161 10158 ] final  -62.43 input  -65.29 | X-H torsion
[ 10718 10713 10712 10709 ] final   76.15 input   66.30 | X-H torsion
[ 10763 10752 10751 10750 ] final  174.96 input  -60.55 | X-H torsion
[ 11005 11000 10999 10996 ] final  101.92 input  -57.11 | X-H torsion

> <Gold.Protein.ActiveResidues>
 VAL166  LYS551  ARG553  GLY616  TRP617  ASP618  TYR619  PRO620  LYS621  CYS622 
 ASP623  PHE694  ASN695  SER759  ASP760  ASP761  ALA762  ILE779  LEU786  VAL792 
 PHE793  MET794  SER795  GLU796  ALA797  LYS798  CYS799  TRP800  GLU811  SER814 

> <Gold.Protein.RotatedAtoms>
  150.6897  134.2225  159.4402 H   0  0  0  0  0  0  0  0  0  0  0  0  # atno 6907 bound_to 6896
  152.0181  134.9836  160.0579 H   0  0  0  0  0  0  0  0  0  0  0  0  # atno 6908 bound_to 6896
  152.1424  133.4437  159.4810 H   0  0  0  0  0  0  0  0  0  0  0  0  # atno 6909 bound_to 6896
  144.9799  139.4515  143.5391 H   0  0  0  0  0  0  0  0  0  0  0  0  # atno 7974 bound_to 7965
  156.2667  140.2818  156.1238 H   0  0  0  0  0  0  0  0  0  0  0  0  # atno 8008 bound_to 7997
  155.1127  140.0391  157.2746 H   0  0  0  0  0  0  0  0  0  0  0  0  # atno 8009 bound_to 7997
  154.6730  140.2592  155.6993 H   0  0  0  0  0  0  0  0  0  0  0  0  # atno 8010 bound_to 7997
  140.5940  143.2347  151.6078 H   0  0  0  0  0  0  0  0  0  0  0  0  # atno 10167 bound_to 10162
  157.6662  130.9760  150.1455 H   0  0  0  0  0  0  0  0  0  0  0  0  # atno 10718 bound_to 10713
  154.4611  135.2768  155.1712 H   0  0  0  0  0  0  0  0  0  0  0  0  # atno 10763 bound_to 10752
  154.3500  135.6152  153.5641 H   0  0  0  0  0  0  0  0  0  0  0  0  # atno 10764 bound_to 10752
  152.9855  135.5809  154.4973 H   0  0  0  0  0  0  0  0  0  0  0  0  # atno 10765 bound_to 10752
  139.8775  134.9203  156.4980 H   0  0  0  0  0  0  0  0  0  0  0  0  # atno 11005 bound_to 11000
  146.3405  139.9066  142.8786 LP  0  0  0  0  0  0  0  0  0  0  0  0  # atno 17320 bound_to 7965
  145.2435  141.0018  143.3922 LP  0  0  0  0  0  0  0  0  0  0  0  0  # atno 17321 bound_to 7965
  139.5246  144.3100  152.1001 LP  0  0  0  0  0  0  0  0  0  0  0  0  # atno 17342 bound_to 10162
  140.2269  144.4408  150.6317 LP  0  0  0  0  0  0  0  0  0  0  0  0  # atno 17343 bound_to 10162
  156.2267  130.3678  149.8492 LP  0  0  0  0  0  0  0  0  0  0  0  0  # atno 17370 bound_to 10713
  156.6330  130.8673  151.3499 LP  0  0  0  0  0  0  0  0  0  0  0  0  # atno 17371 bound_to 10713
  140.8610  133.8060  155.9265 LP  0  0  0  0  0  0  0  0  0  0  0  0  # atno 17394 bound_to 11000
  140.9049  134.2332  157.5020 LP  0  0  0  0  0  0  0  0  0  0  0  0  # atno 17395 bound_to 11000

$$$$
