AV-unprocessed.smi:123|AV-procd|sdf|1145|dock10
  -GOLD-   2262018273D 1   1.00000     0.00000
 Structure written by MMmdl.
 43 45  0  0  0  0  0  0  0  0  1 V2000
  147.6781  134.6679  159.0445 C   0  0  0  0  0  0  0  0  0  0  0  0
  147.6015  136.1273  159.5295 C   0  0  2  0  0  0  0  0  0  0  0  0
  148.8659  136.8298  159.3039 N   0  0  0  0  0  0  0  0  0  0  0  0
  149.0222  138.0492  158.7611 C   0  0  0  0  0  0  0  0  0  0  0  0
  148.0807  138.7513  158.3882 O   0  0  0  0  0  0  0  0  0  0  0  0
  150.4736  138.5346  158.6243 C   0  0  0  0  0  0  0  0  0  0  0  0
  150.5867  139.9023  158.0721 N   0  0  0  0  0  0  0  0  0  0  0  0
  149.9961  140.1799  156.8142 C   0  0  0  0  0  0  0  0  0  0  0  0
  149.3811  139.3127  156.1917 O   0  0  0  0  0  0  0  0  0  0  0  0
  150.1790  141.5394  156.3189 C   0  0  0  0  0  0  0  0  0  0  0  0
  149.6569  141.8911  155.1316 F   0  0  0  0  0  0  0  0  0  0  0  0
  150.8701  142.4518  157.0326 C   0  0  0  0  0  0  0  0  0  0  0  0
  151.4401  142.1671  158.2602 N   0  0  0  0  0  0  0  0  0  0  0  0
  152.2266  143.2077  159.0272 C   0  0  1  0  0  0  0  0  0  0  0  0
  152.4024  144.4708  158.1773 C   0  0  0  0  0  0  0  0  0  0  0  0
  151.2132  145.3010  158.6083 C   0  0  0  0  0  0  0  0  0  0  0  0
  151.1020  144.9350  160.0842 C   0  0  0  0  0  0  0  0  0  0  0  0
  151.5118  143.5718  160.1735 O   0  0  0  0  0  0  0  0  0  0  0  0
  151.3174  140.8696  158.8027 C   0  0  0  0  0  0  0  0  0  0  0  0
  151.8448  140.5858  159.8807 O   0  0  0  0  0  0  0  0  0  0  0  0
  147.1109  136.2723  160.9408 C   0  0  0  0  0  0  0  0  0  0  0  0
  146.8429  135.3876  161.9505 C   0  0  0  0  0  0  0  0  0  0  0  0
  146.4015  136.1613  163.0593 C   0  0  0  0  0  0  0  0  0  0  0  0
  146.4260  137.4618  162.6438 C   0  0  0  0  0  0  0  0  0  0  0  0
  146.8524  137.5466  161.3547 O   0  0  0  0  0  0  0  0  0  0  0  0
  146.6980  134.1921  159.0870 H   0  0  0  0  0  0  0  0  0  0  0  0
  148.3585  134.0723  159.6540 H   0  0  0  0  0  0  0  0  0  0  0  0
  148.0230  134.6143  158.0114 H   0  0  0  0  0  0  0  0  0  0  0  0
  146.8790  136.6318  158.8871 H   0  0  0  0  0  0  0  0  0  0  0  0
  149.7027  136.3345  159.5755 H   0  0  0  0  0  0  0  0  0  0  0  0
  150.9548  138.4622  159.6007 H   0  0  0  0  0  0  0  0  0  0  0  0
  151.0219  137.8217  158.0060 H   0  0  0  0  0  0  0  0  0  0  0  0
  150.9794  143.4397  156.6111 H   0  0  0  0  0  0  0  0  0  0  0  0
  153.1641  142.7285  159.3133 H   0  0  0  0  0  0  0  0  0  0  0  0
  153.3342  144.9584  158.4666 H   0  0  0  0  0  0  0  0  0  0  0  0
  152.4327  144.2555  157.1086 H   0  0  0  0  0  0  0  0  0  0  0  0
  151.3538  146.3694  158.4427 H   0  0  0  0  0  0  0  0  0  0  0  0
  150.3181  144.9865  158.0702 H   0  0  0  0  0  0  0  0  0  0  0  0
  151.7861  145.5434  160.6770 H   0  0  0  0  0  0  0  0  0  0  0  0
  150.0949  145.0761  160.4775 H   0  0  0  0  0  0  0  0  0  0  0  0
  146.9561  134.3147  161.9001 H   0  0  0  0  0  0  0  0  0  0  0  0
  146.1031  135.8108  164.0363 H   0  0  0  0  0  0  0  0  0  0  0  0
  146.1837  138.4043  163.1126 H   0  0  0  0  0  0  0  0  0  0  0  0
  1  2  1  0  0  0  0
  1 26  1  0  0  0  0
  1 27  1  0  0  0  0
  1 28  1  0  0  0  0
  2  3  1  0  0  0  0
  2 21  1  0  0  0  0
  2 29  1  0  0  0  0
  3  4  1  0  0  0  0
  3 30  1  0  0  0  0
  4  5  2  0  0  0  0
  4  6  1  0  0  0  0
  6  7  1  0  0  0  0
  6 31  1  0  0  0  0
  6 32  1  0  0  0  0
  7 19  1  0  0  0  0
  7  8  1  0  0  0  0
  8  9  2  0  0  0  0
  8 10  1  0  0  0  0
 10 11  1  0  0  0  0
 10 12  2  0  0  0  0
 12 13  1  0  0  0  0
 12 33  1  0  0  0  0
 13 14  1  0  0  0  0
 13 19  1  0  0  0  0
 14 18  1  0  0  0  0
 14 15  1  0  0  0  0
 14 34  1  0  0  0  0
 15 16  1  0  0  0  0
 15 35  1  0  0  0  0
 15 36  1  0  0  0  0
 16 17  1  0  0  0  0
 16 37  1  0  0  0  0
 16 38  1  0  0  0  0
 17 18  1  0  0  0  0
 17 39  1  0  0  0  0
 17 40  1  0  0  0  0
 19 20  2  0  0  0  0
 21 25  1  0  0  0  0
 21 22  2  0  0  0  0
 22 23  1  0  0  0  0
 22 41  1  0  0  0  0
 23 24  2  0  0  0  0
 23 42  1  0  0  0  0
 24 25  1  0  0  0  0
 24 43  1  0  0  0  0
M  END
> <s_m_source_file>
AV-unprocessed.smi

> <i_m_source_file_index>
123

> <i_lp_mmshare_version>
43012

> <i_f3d_flags>
0

> <s_epik_input>
bzFbY0hdW2NIXVtjSF1jMVtDQEhdKFtDSDNdKVtOSF1DKD1PKVtDSDJdbjJjKD1PKWMoRilbY0hdbihjMj1PKVtDQEBIXTNbQ0gyXVtDSDJdW0NIMl1PMw==

> <s_epik_cmdline>
J2VwaWtfcHl0aG9uJywgJy1waCcsICc3LjAnLCAnLXRuJywgJzgnLCAnLW1hJywgJzIwMCcsICctbWV0YWxfYmluZGluZycsICctaW1hZScsICc8aW5maWxlLm1hZT4nLCAnLW9tYWUnLCAnPG91dGZpbGUubWFlPic=

> <r_lp_tautomer_probability>
1

> <r_epik_Ionization_Penalty>
2.31906e-08

> <r_epik_Ionization_Penalty_Charging>
3.85846e-09

> <r_epik_Ionization_Penalty_Neutral>
1.93321e-08

> <r_epik_State_Penalty>
-0

> <r_epik_Charging_Adjusted_Penalty>
3.85846e-09

> <i_epik_Tot_Q>
0

> <i_epik_Tot_abs_Q>
0

> <r_epik_Metal_State_Penalty>
-0

> <b_epik_Metal_Only>
0

> <s_epik_Chemistry_Notes>
This compound contains an acetal/aminal-like group ( X-CH(R)-Y where X, Y are N, S, or O) that may be acid/base labile, releasing an aldehyde.

> <s_lp_Force_Field>
OPLS_2005

> <r_lp_Energy>
21.1126

> <b_lp_Chiralities_Consistent>
1

> <s_lp_Variant>
AV-unprocessed.smi:123-3

> <Gold.Version>
5.8.1

> <Gold.Id.Protein>
6NUR|6NUR_protein|mol2

> <Gold.PLP.Fitness>
56.5153

> <Gold.PLP.PLP>
-50.0781

> <Gold.PLP.part.hbond>
-2.7798

> <Gold.PLP.part.metal>
0.0000

> <Gold.PLP.part.buried>
-6.6307

> <Gold.PLP.part.nonpolar>
-42.4685

> <Gold.PLP.part.repulsive>
0.2251

> <Gold.PLP.ligand.clash>
0.0000

> <Gold.PLP.ligand.torsion>
0.4663

> <Gold.PLP.Chemscore.Hbond>
1.4336

> <Gold.PLP.Chemscore.CHOScore>
0.9826

> <Gold.PLP.Chemscore.Metal>
0.0000

> <Gold.Chemscore.Hbonds>
donor molecule, donor type, donor heavy atom, donor atom, acceptor molecule, acceptor atom, score
      P1  H  6931  6943       L1    25  0.10
      P1  H  6934  6947       L1    25  1.00
      L1  C    12    33       P1  8028  0.64

> <Gold.PLP.Chemscore.Internal.Correction>
0.1211

> <Gold.Rescore>
     Score         DG    S(hbond)    S(metal)    S(lipo)     H(rot)  DE(clash)    DE(int)     intcor
      5.54     -13.63       0.67        0.00      99.34       2.23       1.16       6.92       ----

> <Gold.Chemscore.Fitness>
5.5421

> <Gold.Chemscore.DG>
-13.6302

> <Gold.Chemscore.ZeroCoef>
-5.4800

> <Gold.Chemscore.Hbond>
0.6729

> <Gold.Chemscore.Metal>
0.0000

> <Gold.Chemscore.Lipo>
99.3446

> <Gold.Chemscore.Internal_Hbond>
0.0000

> <Gold.Chemscore.DEClash>
1.1641

> <Gold.Chemscore.DEInternal>
6.9240

> <Gold.Chemscore.Rot>
2.2347

> <Gold.Chemscore.Internal.Correction>
   9.000000E+99

> <Gold.Chemscore.Hbonds>
donor molecule, donor type, donor heavy atom, donor atom, acceptor molecule, acceptor atom, score
      P1  H  6934  6947       L1    25  0.75

> <Gold.Chemscore.Hbond.Weighted>
-2.2476

> <Gold.Chemscore.Metal.Weighted>
-0.0000

> <Gold.Chemscore.Lipo.Weighted>
-11.6233

> <Gold.Chemscore.Internal_Hbond.Weighted>
0.0000

> <Gold.Chemscore.DEClash.Weighted>
1.1641

> <Gold.Chemscore.DEInternal.Weighted>
6.9240

> <Gold.Chemscore.Rot.Weighted>
5.7208

> <Gold.Chemscore.Internal.Correction.Weighted>
   9.000000E+99

> <Gold.Protein.RotatedTorsions>
[ 6907 6896 6895 6894 ] final  118.45 input  -60.11 | X-H torsion
[ 7974 7965 7964 7962 ] final  -48.09 input  175.53 | X-H torsion
[ 8008 7997 7996 7995 ] final  -35.99 input   59.86 | X-H torsion
[ 10167 10162 10161 10158 ] final  104.62 input  -65.29 | X-H torsion
[ 10718 10713 10712 10709 ] final -104.98 input   66.30 | X-H torsion
[ 10763 10752 10751 10750 ] final  -32.35 input  -60.55 | X-H torsion
[ 11005 11000 10999 10996 ] final  129.46 input  -57.11 | X-H torsion

> <Gold.Protein.ActiveResidues>
 VAL166  LYS551  ARG553  GLY616  TRP617  ASP618  TYR619  PRO620  LYS621  CYS622 
 ASP623  PHE694  ASN695  SER759  ASP760  ASP761  ALA762  ILE779  LEU786  VAL792 
 PHE793  MET794  SER795  GLU796  ALA797  LYS798  CYS799  TRP800  GLU811  SER814 

> <Gold.Protein.RotatedAtoms>
  152.4542  133.7690  159.6787 H   0  0  0  0  0  0  0  0  0  0  0  0  # atno 6907 bound_to 6896
  150.8463  133.7846  159.3048 H   0  0  0  0  0  0  0  0  0  0  0  0  # atno 6908 bound_to 6896
  151.5455  135.1071  159.9989 H   0  0  0  0  0  0  0  0  0  0  0  0  # atno 6909 bound_to 6896
  145.9548  140.7537  142.9486 H   0  0  0  0  0  0  0  0  0  0  0  0  # atno 7974 bound_to 7965
  154.4083  140.1642  156.2302 H   0  0  0  0  0  0  0  0  0  0  0  0  # atno 8008 bound_to 7997
  155.9289  140.3416  155.6210 H   0  0  0  0  0  0  0  0  0  0  0  0  # atno 8009 bound_to 7997
  155.7130  140.0759  157.2353 H   0  0  0  0  0  0  0  0  0  0  0  0  # atno 8010 bound_to 7997
  139.7162  144.7068  151.0947 H   0  0  0  0  0  0  0  0  0  0  0  0  # atno 10167 bound_to 10162
  156.0327  130.5541  150.7474 H   0  0  0  0  0  0  0  0  0  0  0  0  # atno 10718 bound_to 10713
  153.8123  135.6881  153.4839 H   0  0  0  0  0  0  0  0  0  0  0  0  # atno 10763 bound_to 10752
  153.1620  135.4576  154.9784 H   0  0  0  0  0  0  0  0  0  0  0  0  # atno 10764 bound_to 10752
  154.7962  135.3320  154.7603 H   0  0  0  0  0  0  0  0  0  0  0  0  # atno 10765 bound_to 10752
  139.9616  134.9601  156.9151 H   0  0  0  0  0  0  0  0  0  0  0  0  # atno 11005 bound_to 11000
  144.6803  140.2494  143.7333 LP  0  0  0  0  0  0  0  0  0  0  0  0  # atno 17320 bound_to 7965
  145.8121  139.2008  143.1987 LP  0  0  0  0  0  0  0  0  0  0  0  0  # atno 17321 bound_to 7965
  140.7744  143.5227  150.9517 LP  0  0  0  0  0  0  0  0  0  0  0  0  # atno 17342 bound_to 10162
  139.8913  143.6950  152.3145 LP  0  0  0  0  0  0  0  0  0  0  0  0  # atno 17343 bound_to 10162
  157.5027  131.0920  151.0295 LP  0  0  0  0  0  0  0  0  0  0  0  0  # atno 17370 bound_to 10713
  157.0671  130.5849  149.5396 LP  0  0  0  0  0  0  0  0  0  0  0  0  # atno 17371 bound_to 10713
  140.5487  134.0649  155.7362 LP  0  0  0  0  0  0  0  0  0  0  0  0  # atno 17394 bound_to 11000
  141.1294  133.9328  157.2568 LP  0  0  0  0  0  0  0  0  0  0  0  0  # atno 17395 bound_to 11000

$$$$
