AV-unprocessed.smi:1996|AV-procd|sdf|8084|dock7
  -GOLD-   2272010303D 1   1.00000     0.00000
 Structure written by MMmdl.
 33 34  0  0  0  0  0  0  0  0  1 V2000
  148.3506  140.1745  158.7061 O   0  0  0  0  0  0  0  0  0  0  0  0
  148.3591  141.4057  158.6919 C   0  0  0  0  0  0  0  0  0  0  0  0
  148.9609  142.1295  157.7368 N   0  0  0  0  0  0  0  0  0  0  0  0
  149.6671  141.5761  156.5873 C   0  0  0  0  0  0  0  0  0  0  0  0
  151.0892  142.1519  156.4701 C   0  0  0  0  0  0  0  0  0  0  0  0
  151.7447  142.3836  157.8212 C   0  0  0  0  0  0  0  0  0  0  0  0
  152.3248  141.3831  158.5124 C   0  0  0  0  0  0  0  0  0  0  0  0
  152.9830  141.5522  159.8707 C   0  0  0  0  0  0  0  0  0  0  0  0
  152.6346  142.8978  160.5294 C   0  0  0  0  0  0  0  0  0  0  0  0
  152.6907  144.0451  159.5131 C   0  0  0  0  0  0  0  0  0  0  0  0
  151.7090  143.8128  158.3505 C   0  0  0  0  0  0  0  0  0  0  0  0
  147.7767  142.1988  159.6083 N   0  0  0  0  0  0  0  0  0  0  0  0
  147.0302  141.8189  160.7551 C   0  0  0  0  0  0  0  0  0  0  0  0
  147.1400  140.6219  161.3529 N   0  0  0  0  0  0  0  0  0  0  0  0
  146.2952  140.5096  162.4496 N   0  0  0  0  0  0  0  0  0  0  0  0
  145.5830  141.6247  162.6358 C   0  0  0  0  0  0  0  0  0  0  0  0
  145.8749  142.9215  161.4896 S   0  0  0  0  0  0  0  0  0  0  0  0
  148.9214  143.1362  157.8042 H   0  0  0  0  0  0  0  0  0  0  0  0
  149.7056  140.4938  156.7118 H   0  0  0  0  0  0  0  0  0  0  0  0
  149.1011  141.7647  155.6733 H   0  0  0  0  0  0  0  0  0  0  0  0
  151.7121  141.4747  155.8841 H   0  0  0  0  0  0  0  0  0  0  0  0
  151.0691  143.0964  155.9250 H   0  0  0  0  0  0  0  0  0  0  0  0
  152.3471  140.3859  158.0973 H   0  0  0  0  0  0  0  0  0  0  0  0
  152.6804  140.7315  160.5215 H   0  0  0  0  0  0  0  0  0  0  0  0
  154.0615  141.4678  159.7343 H   0  0  0  0  0  0  0  0  0  0  0  0
  151.6315  142.8462  160.9546 H   0  0  0  0  0  0  0  0  0  0  0  0
  153.3128  143.0923  161.3605 H   0  0  0  0  0  0  0  0  0  0  0  0
  152.4710  144.9952  160.0008 H   0  0  0  0  0  0  0  0  0  0  0  0
  153.7056  144.1268  159.1216 H   0  0  0  0  0  0  0  0  0  0  0  0
  151.9339  144.5081  157.5410 H   0  0  0  0  0  0  0  0  0  0  0  0
  150.6922  144.0297  158.6795 H   0  0  0  0  0  0  0  0  0  0  0  0
  147.8720  143.1933  159.4647 H   0  0  0  0  0  0  0  0  0  0  0  0
  144.8807  141.6837  163.4541 H   0  0  0  0  0  0  0  0  0  0  0  0
  1  2  2  0  0  0  0
  2  3  1  0  0  0  0
  2 12  1  0  0  0  0
  3  4  1  0  0  0  0
  3 18  1  0  0  0  0
  4  5  1  0  0  0  0
  4 19  1  0  0  0  0
  4 20  1  0  0  0  0
  5  6  1  0  0  0  0
  5 21  1  0  0  0  0
  5 22  1  0  0  0  0
  6 11  1  0  0  0  0
  6  7  2  0  0  0  0
  7  8  1  0  0  0  0
  7 23  1  0  0  0  0
  8  9  1  0  0  0  0
  8 24  1  0  0  0  0
  8 25  1  0  0  0  0
  9 10  1  0  0  0  0
  9 26  1  0  0  0  0
  9 27  1  0  0  0  0
 10 11  1  0  0  0  0
 10 28  1  0  0  0  0
 10 29  1  0  0  0  0
 11 30  1  0  0  0  0
 11 31  1  0  0  0  0
 12 13  1  0  0  0  0
 12 32  1  0  0  0  0
 13 17  1  0  0  0  0
 13 14  2  0  0  0  0
 14 15  1  0  0  0  0
 15 16  2  0  0  0  0
 16 17  1  0  0  0  0
 16 33  1  0  0  0  0
M  END
> <s_m_source_file>
AV-unprocessed.smi

> <i_m_source_file_index>
1996

> <i_lp_mmshare_version>
43012

> <i_f3d_flags>
0

> <s_epik_input>
czFbY0hdbm5jMVtOSF1DKD1PKVtOSF1bQ0gyXVtDSDJdQzI9W0NIXVtDSDJdW0NIMl1bQ0gyXVtDSDJdMg==

> <s_epik_cmdline>
J2VwaWtfcHl0aG9uJywgJy1waCcsICc3LjAnLCAnLXRuJywgJzgnLCAnLW1hJywgJzIwMCcsICctbWV0YWxfYmluZGluZycsICctaW1hZScsICc8aW5maWxlLm1hZT4nLCAnLW9tYWUnLCAnPG91dGZpbGUubWFlPic=

> <r_lp_tautomer_probability>
1

> <r_epik_Ionization_Penalty>
0.00157076

> <r_epik_Ionization_Penalty_Charging>
0

> <r_epik_Ionization_Penalty_Neutral>
0.00157076

> <r_epik_State_Penalty>
-0

> <r_epik_Charging_Adjusted_Penalty>
0

> <i_epik_Tot_Q>
0

> <i_epik_Tot_abs_Q>
0

> <r_epik_Metal_State_Penalty>
0.323125

> <b_epik_Metal_Only>
0

> <s_lp_Force_Field>
OPLS_2005

> <r_lp_Energy>
6.02977

> <b_lp_Chiralities_Consistent>
1

> <s_lp_Variant>
AV-unprocessed.smi:1996-1

> <Gold.Version>
5.8.1

> <Gold.Id.Protein>
6NUR|6NUR_protein|mol2

> <Gold.PLP.Fitness>
44.0053

> <Gold.PLP.PLP>
-34.6711

> <Gold.PLP.part.hbond>
-5.4226

> <Gold.PLP.part.metal>
0.0000

> <Gold.PLP.part.buried>
-2.3997

> <Gold.PLP.part.nonpolar>
-26.6260

> <Gold.PLP.part.repulsive>
0.1853

> <Gold.PLP.ligand.clash>
0.0000

> <Gold.PLP.ligand.torsion>
0.5575

> <Gold.PLP.Chemscore.Hbond>
3.4804

> <Gold.PLP.Chemscore.CHOScore>
0.0000

> <Gold.PLP.Chemscore.Metal>
0.0000

> <Gold.PLP.Chemscore.Internal.Correction>
0.0080

> <Gold.Rescore>
     Score         DG    S(hbond)    S(metal)    S(lipo)     H(rot)  DE(clash)    DE(int)     intcor
     16.86     -18.75       2.10        0.00      88.96       1.62       0.08       1.82       ----

> <Gold.Chemscore.Fitness>
16.8554

> <Gold.Chemscore.DG>
-18.7528

> <Gold.Chemscore.ZeroCoef>
-5.4800

> <Gold.Chemscore.Hbond>
2.0968

> <Gold.Chemscore.Metal>
0.0000

> <Gold.Chemscore.Lipo>
88.9577

> <Gold.Chemscore.Internal_Hbond>
0.0000

> <Gold.Chemscore.DEClash>
0.0811

> <Gold.Chemscore.DEInternal>
1.8163

> <Gold.Chemscore.Rot>
1.6167

> <Gold.Chemscore.Internal.Correction>
   9.000000E+99

> <Gold.Chemscore.Hbond.Weighted>
-7.0034

> <Gold.Chemscore.Metal.Weighted>
-0.0000

> <Gold.Chemscore.Lipo.Weighted>
-10.4081

> <Gold.Chemscore.Internal_Hbond.Weighted>
0.0000

> <Gold.Chemscore.DEClash.Weighted>
0.0811

> <Gold.Chemscore.DEInternal.Weighted>
1.8163

> <Gold.Chemscore.Rot.Weighted>
4.1387

> <Gold.Chemscore.Internal.Correction.Weighted>
   9.000000E+99

> <Gold.Protein.RotatedTorsions>
[ 6907 6896 6895 6894 ] final  -18.13 input  -60.11 | X-H torsion
[ 7974 7965 7964 7962 ] final   50.08 input  175.53 | X-H torsion
[ 8008 7997 7996 7995 ] final  176.64 input   59.86 | X-H torsion
[ 10167 10162 10161 10158 ] final   16.90 input  -65.29 | X-H torsion
[ 10718 10713 10712 10709 ] final  -81.81 input   66.30 | X-H torsion
[ 10763 10752 10751 10750 ] final  101.23 input  -60.55 | X-H torsion
[ 11005 11000 10999 10996 ] final -158.11 input  -57.11 | X-H torsion

> <Gold.Protein.ActiveResidues>
 VAL166  LYS551  ARG553  GLY616  TRP617  ASP618  TYR619  PRO620  LYS621  CYS622 
 ASP623  PHE694  ASN695  SER759  ASP760  ASP761  ALA762  ILE779  LEU786  VAL792 
 PHE793  MET794  SER795  GLU796  ALA797  LYS798  CYS799  TRP800  GLU811  SER814 

> <Gold.Protein.RotatedAtoms>
  151.2829  135.0719  159.9175 H   0  0  0  0  0  0  0  0  0  0  0  0  # atno 6907 bound_to 6896
  152.5331  134.0012  159.7906 H   0  0  0  0  0  0  0  0  0  0  0  0  # atno 6908 bound_to 6896
  151.0269  133.5775  159.2696 H   0  0  0  0  0  0  0  0  0  0  0  0  # atno 6909 bound_to 6896
  146.0047  139.4477  142.9993 H   0  0  0  0  0  0  0  0  0  0  0  0  # atno 7974 bound_to 7965
  156.0743  140.1378  156.9791 H   0  0  0  0  0  0  0  0  0  0  0  0  # atno 8008 bound_to 7997
  154.4549  140.0965  156.6777 H   0  0  0  0  0  0  0  0  0  0  0  0  # atno 8009 bound_to 7997
  155.5179  140.3455  155.4403 H   0  0  0  0  0  0  0  0  0  0  0  0  # atno 8010 bound_to 7997
  140.5764  143.9064  150.6753 H   0  0  0  0  0  0  0  0  0  0  0  0  # atno 10167 bound_to 10162
  156.0044  130.4615  150.4009 H   0  0  0  0  0  0  0  0  0  0  0  0  # atno 10718 bound_to 10713
  153.3241  135.4051  155.1441 H   0  0  0  0  0  0  0  0  0  0  0  0  # atno 10763 bound_to 10752
  154.8607  135.3594  154.5558 H   0  0  0  0  0  0  0  0  0  0  0  0  # atno 10764 bound_to 10752
  153.5993  135.7071  153.5450 H   0  0  0  0  0  0  0  0  0  0  0  0  # atno 10765 bound_to 10752
  140.6573  134.4387  157.5235 H   0  0  0  0  0  0  0  0  0  0  0  0  # atno 11005 bound_to 11000
  145.7434  140.9999  143.1289 LP  0  0  0  0  0  0  0  0  0  0  0  0  # atno 17320 bound_to 7965
  144.6931  139.9127  143.7464 LP  0  0  0  0  0  0  0  0  0  0  0  0  # atno 17321 bound_to 7965
  140.2552  143.3564  152.1371 LP  0  0  0  0  0  0  0  0  0  0  0  0  # atno 17342 bound_to 10162
  139.5145  144.6949  151.5658 LP  0  0  0  0  0  0  0  0  0  0  0  0  # atno 17343 bound_to 10162
  157.2078  131.0453  151.2616 LP  0  0  0  0  0  0  0  0  0  0  0  0  # atno 17370 bound_to 10713
  157.3917  130.7285  149.6702 LP  0  0  0  0  0  0  0  0  0  0  0  0  # atno 17371 bound_to 10713
  139.9025  134.8523  156.1837 LP  0  0  0  0  0  0  0  0  0  0  0  0  # atno 17394 bound_to 11000
  141.0492  133.6897  156.1740 LP  0  0  0  0  0  0  0  0  0  0  0  0  # atno 17395 bound_to 11000

$$$$
