#       Name:                AV-unprocessed.smi:2368
#       Creating user name   scv26
#       Creation time:       Fri Mar 27 13:06:28 2020


#       File generated by GOLD software.
#

@<TRIPOS>MOLECULE
AV-unprocessed.smi:2368
    40    41     1
SMALL
NO_CHARGES


@<TRIPOS>ATOM
      1 ****        -5.5790   2.3176  -1.7916 C.3            1 S1                 0.0000
      2 ****        -4.3481   2.2505  -0.9085 C.ar           1 S1                 0.0000
      3 ****        -4.3249   3.0286   0.1957 N.pl3          1 S1                 1.0000
      4 ****        -3.2890   3.0483   1.0594 C.ar           1 S1                 0.0000
      5 ****        -2.1631   2.2356   0.8246 C.ar           1 S1                 0.0000
      6 ****        -2.1262   1.4101  -0.3282 C.ar           1 S1                 0.0000
      7 ****        -1.0387   0.5430  -0.6321 N.am           1 S1                 0.0000
      8 ****         0.2370   0.6141  -0.2155 C.2            1 S1                 0.0000
      9 ****         0.7046   1.5008   0.4983 O.2            1 S1                 0.0000
     10 ****         0.9601  -0.4097  -0.6904 N.am           1 S1                 0.0000
     11 ****         2.3720  -0.6362  -0.4027 C.3            1 S1                 0.0000
     12 ****         2.9308  -1.6971  -1.3108 C.2            1 S1                 0.0000
     13 ****         3.3879  -2.7554  -0.6450 C.2            1 S1                 0.0000
     14 ****         3.2047  -2.6341   0.8451 C.3            1 S1                 0.0000
     15 ****         4.5165  -2.8600   1.6143 C.3            1 S1                 0.0000
     16 ****         4.2752  -2.8290   3.0052 O.3            1 S1                 0.0000
     17 ****         2.6091  -1.2124   1.0182 C.3            1 S1                 0.0000
     18 ****        -3.2450   1.4131  -1.1984 C.ar           1 S1                 0.0000
     19 ****        -3.2664   0.4072  -2.6081 Cl             1 S1                 0.0000
     20 ****         2.9398   0.2843  -0.5496 H              1 S1                 0.0000
     21 ****         2.4702  -3.3838   1.1428 H              1 S1                 0.0000
     22 ****        -6.0412   1.3337  -1.8754 H              1 S1                 0.0000
     23 ****        -5.3092   2.6585  -2.7914 H              1 S1                 0.0000
     24 ****        -6.3215   3.0073  -1.3884 H              1 S1                 0.0000
     25 ****        -3.3937   3.7041   1.9115 H              1 S1                 0.0000
     26 ****        -1.3573   2.2531   1.5419 H              1 S1                 0.0000
     27 ****        -1.2478  -0.1948  -1.2893 H              1 S1                 0.0000
     28 ****         0.5013  -1.0911  -1.2773 H              1 S1                 0.0000
     29 ****         2.9548  -1.5811  -2.3845 H              1 S1                 0.0000
     30 ****         3.8280  -3.6305  -1.1000 H              1 S1                 0.0000
     31 ****         4.9449  -3.8300   1.3602 H              1 S1                 0.0000
     32 ****         5.2573  -2.1018   1.3578 H              1 S1                 0.0000
     33 ****         5.0928  -2.9746   3.4561 H              1 S1                 0.0000
     34 ****         3.3004  -0.5645   1.5586 H              1 S1                 0.0000
     35 ****         1.6939  -1.2493   1.6107 H              1 S1                 0.0000
     36 ****        -5.1304   3.6246   0.3879 H              1 S1                 0.0000
     37 ****         0.1201   2.2476   0.8155 LP             1 S1                 0.0000
     38 ****         1.6691   1.4746   0.7611 LP             1 S1                 0.0000
     39 ****         3.6229  -3.5463   3.2501 LP             1 S1                 0.0000
     40 ****         3.9025  -1.9375   3.2627 LP             1 S1                 0.0000
@<TRIPOS>BOND
    1    1    2 1     
    2    1   22 1     
    3    1   23 1     
    4    1   24 1     
    5    2   18 ar    
    6    2    3 ar    
    7    3    4 ar    
    8    3   36 1     
    9    4    5 ar    
   10    4   25 1     
   11    5    6 ar    
   12    5   26 1     
   13    6    7 1     
   14    6   18 ar    
   15    7    8 am    
   16    7   27 1     
   17    8    9 2     
   18    8   10 am    
   19   10   11 1     
   20   10   28 1     
   21   11   20 1     
   22   11   17 1     
   23   11   12 1     
   24   12   13 2     
   25   12   29 1     
   26   13   14 1     
   27   13   30 1     
   28   14   21 1     
   29   14   15 1     
   30   14   17 1     
   31   15   16 1     
   32   15   31 1     
   33   15   32 1     
   34   16   33 1     
   35   17   34 1     
   36   17   35 1     
   37   18   19 1     
   38    9   37 1     
   39    9   38 1     
   40   16   39 1     
   41   16   40 1     
@<TRIPOS>SUBSTRUCTURE
      1 S1             1
@<TRIPOS>SET
LONE_PAIRS      STATIC     ATOMS    <user>   **** ""
4 37 38 39 40
DONOR_HYDROGENS      STATIC     ATOMS    <user>   **** ""
4 36 27 28 33
ATOM$BLUE        STATIC     ATOMS    COLORGROUP SYSTEM
4 37 38 39 40
ATOM$RED        STATIC     ATOMS    COLORGROUP SYSTEM
4 36 27 28 33
