AV-unprocessed.smi:1974|AV-procd|sdf|7980|dock8
  -GOLD-   2272010163D 1   1.00000     0.00000
 Structure written by MMmdl.
 34 35  0  0  0  0  0  0  0  0  1 V2000
  151.1651  140.6852  157.0821 C   0  0  0  0  0  0  0  0  0  0  0  0
  150.3018  141.9097  156.7405 C   0  0  2  0  0  0  0  0  0  0  0  0
  149.7997  142.6166  158.0145 C   0  0  0  0  0  0  0  0  0  0  0  0
  150.7970  143.5024  158.5887 N   0  0  0  0  0  0  0  0  0  0  0  0
  151.3084  144.6717  158.0661 C   0  0  0  0  0  0  0  0  0  0  0  0
  152.2187  145.1533  158.9628 C   0  0  0  0  0  0  0  0  0  0  0  0
  152.1923  144.1979  160.0170 C   0  0  0  0  0  0  0  0  0  0  0  0
  151.3398  143.2116  159.7907 N   0  0  0  0  0  0  0  0  0  0  0  0
  149.1676  141.5023  155.9133 N   0  0  0  0  0  0  0  0  0  0  0  0
  149.2459  140.7734  154.7897 C   0  0  0  0  0  0  0  0  0  0  0  0
  150.3097  140.3750  154.3141 O   0  0  0  0  0  0  0  0  0  0  0  0
  147.9155  140.4690  154.0909 C   0  0  0  0  0  0  0  0  0  0  0  0
  146.8853  141.4657  154.3845 N   0  0  0  0  0  0  0  0  0  0  0  0
  146.9735  142.7832  153.7688 C   0  0  0  0  0  0  0  0  0  0  0  0
  145.6096  143.4604  153.9172 C   0  0  0  0  0  0  0  0  0  0  0  0
  144.7717  142.6984  155.3212 S   0  0  0  0  0  0  0  0  0  0  0  0
  145.8388  141.2550  155.2726 C   0  0  0  0  0  0  0  0  0  0  0  0
  145.6205  140.2526  155.9509 O   0  0  0  0  0  0  0  0  0  0  0  0
  152.0256  140.9700  157.6879 H   0  0  0  0  0  0  0  0  0  0  0  0
  151.5462  140.2046  156.1803 H   0  0  0  0  0  0  0  0  0  0  0  0
  150.5960  139.9414  157.6408 H   0  0  0  0  0  0  0  0  0  0  0  0
  150.9213  142.6144  156.1820 H   0  0  0  0  0  0  0  0  0  0  0  0
  148.8978  143.1932  157.8040 H   0  0  0  0  0  0  0  0  0  0  0  0
  149.5270  141.8797  158.7714 H   0  0  0  0  0  0  0  0  0  0  0  0
  150.9870  145.0578  157.1100 H   0  0  0  0  0  0  0  0  0  0  0  0
  152.8127  146.0514  158.8793 H   0  0  0  0  0  0  0  0  0  0  0  0
  152.7631  144.1920  160.9339 H   0  0  0  0  0  0  0  0  0  0  0  0
  148.2518  141.7915  156.2247 H   0  0  0  0  0  0  0  0  0  0  0  0
  148.0664  140.4129  153.0112 H   0  0  0  0  0  0  0  0  0  0  0  0
  147.5767  139.4813  154.4060 H   0  0  0  0  0  0  0  0  0  0  0  0
  147.7404  143.3568  154.2910 H   0  0  0  0  0  0  0  0  0  0  0  0
  147.2669  142.7137  152.7206 H   0  0  0  0  0  0  0  0  0  0  0  0
  145.6960  144.5394  154.0469 H   0  0  0  0  0  0  0  0  0  0  0  0
  145.0058  143.2791  153.0274 H   0  0  0  0  0  0  0  0  0  0  0  0
  1  2  1  0  0  0  0
  1 19  1  0  0  0  0
  1 20  1  0  0  0  0
  1 21  1  0  0  0  0
  2  3  1  0  0  0  0
  2  9  1  0  0  0  0
  2 22  1  0  0  0  0
  3  4  1  0  0  0  0
  3 23  1  0  0  0  0
  3 24  1  0  0  0  0
  4  8  1  0  0  0  0
  4  5  1  0  0  0  0
  5  6  2  0  0  0  0
  5 25  1  0  0  0  0
  6  7  1  0  0  0  0
  6 26  1  0  0  0  0
  7  8  2  0  0  0  0
  7 27  1  0  0  0  0
  9 10  1  0  0  0  0
  9 28  1  0  0  0  0
 10 11  2  0  0  0  0
 10 12  1  0  0  0  0
 12 13  1  0  0  0  0
 12 29  1  0  0  0  0
 12 30  1  0  0  0  0
 13 17  1  0  0  0  0
 13 14  1  0  0  0  0
 14 15  1  0  0  0  0
 14 31  1  0  0  0  0
 14 32  1  0  0  0  0
 15 16  1  0  0  0  0
 15 33  1  0  0  0  0
 15 34  1  0  0  0  0
 16 17  1  0  0  0  0
 17 18  2  0  0  0  0
M  END
> <s_m_source_file>
AV-unprocessed.smi

> <i_m_source_file_index>
1974

> <i_lp_mmshare_version>
43012

> <i_f3d_flags>
0

> <s_epik_input>
bjFbY0hdW2NIXVtjSF1uMVtDSDJdW0NAQEhdKFtDSDNdKVtOSF1DKD1PKVtDSDJdTjJbQ0gyXVtDSDJdU0MyPU8=

> <s_epik_cmdline>
J2VwaWtfcHl0aG9uJywgJy1waCcsICc3LjAnLCAnLXRuJywgJzgnLCAnLW1hJywgJzIwMCcsICctbWV0YWxfYmluZGluZycsICctaW1hZScsICc8aW5maWxlLm1hZT4nLCAnLW9tYWUnLCAnPG91dGZpbGUubWFlPic=

> <r_lp_tautomer_probability>
1

> <r_epik_Ionization_Penalty>
0.000283364

> <r_epik_Ionization_Penalty_Charging>
0

> <r_epik_Ionization_Penalty_Neutral>
0.000283364

> <r_epik_State_Penalty>
-0

> <r_epik_Charging_Adjusted_Penalty>
0

> <i_epik_Tot_Q>
0

> <i_epik_Tot_abs_Q>
0

> <r_epik_Metal_State_Penalty>
-0

> <b_epik_Metal_Only>
0

> <s_lp_Force_Field>
OPLS_2005

> <r_lp_Energy>
2.8686

> <b_lp_Chiralities_Consistent>
1

> <s_lp_Variant>
AV-unprocessed.smi:1974-1

> <Gold.Version>
5.8.1

> <Gold.Id.Protein>
6NUR|6NUR_protein|mol2

> <Gold.PLP.Fitness>
42.1886

> <Gold.PLP.PLP>
-37.9682

> <Gold.PLP.part.hbond>
-1.2861

> <Gold.PLP.part.metal>
0.0000

> <Gold.PLP.part.buried>
-5.8072

> <Gold.PLP.part.nonpolar>
-31.1075

> <Gold.PLP.part.repulsive>
0.2629

> <Gold.PLP.ligand.clash>
0.0000

> <Gold.PLP.ligand.torsion>
0.8743

> <Gold.PLP.Chemscore.Hbond>
0.9760

> <Gold.PLP.Chemscore.CHOScore>
0.9990

> <Gold.PLP.Chemscore.Metal>
0.0000

> <Gold.Chemscore.Hbonds>
donor molecule, donor type, donor heavy atom, donor atom, acceptor molecule, acceptor atom, score
      P1  H  7989  7998       L1    11  0.98
      L1  C     5    25       P1  8028  1.00

> <Gold.PLP.Chemscore.Internal.Correction>
0.0439

> <Gold.Rescore>
     Score         DG    S(hbond)    S(metal)    S(lipo)     H(rot)  DE(clash)    DE(int)     intcor
     12.15     -12.76       0.97        0.00      79.19       2.04       0.05       0.55       ----

> <Gold.Chemscore.Fitness>
12.1540

> <Gold.Chemscore.DG>
-12.7594

> <Gold.Chemscore.ZeroCoef>
-5.4800

> <Gold.Chemscore.Hbond>
0.9693

> <Gold.Chemscore.Metal>
0.0000

> <Gold.Chemscore.Lipo>
79.1947

> <Gold.Chemscore.Internal_Hbond>
0.0000

> <Gold.Chemscore.DEClash>
0.0529

> <Gold.Chemscore.DEInternal>
0.5526

> <Gold.Chemscore.Rot>
2.0405

> <Gold.Chemscore.Internal.Correction>
   9.000000E+99

> <Gold.Chemscore.Hbonds>
donor molecule, donor type, donor heavy atom, donor atom, acceptor molecule, acceptor atom, score
      P1  H  7989  7998       L1    11  0.93

> <Gold.Chemscore.Hbond.Weighted>
-3.2373

> <Gold.Chemscore.Metal.Weighted>
-0.0000

> <Gold.Chemscore.Lipo.Weighted>
-9.2658

> <Gold.Chemscore.Internal_Hbond.Weighted>
0.0000

> <Gold.Chemscore.DEClash.Weighted>
0.0529

> <Gold.Chemscore.DEInternal.Weighted>
0.5526

> <Gold.Chemscore.Rot.Weighted>
5.2237

> <Gold.Chemscore.Internal.Correction.Weighted>
   9.000000E+99

> <Gold.Protein.RotatedTorsions>
[ 6907 6896 6895 6894 ] final  -28.34 input  -60.11 | X-H torsion
[ 7974 7965 7964 7962 ] final  -49.32 input  175.53 | X-H torsion
[ 8008 7997 7996 7995 ] final   -2.95 input   59.86 | X-H torsion
[ 10167 10162 10161 10158 ] final  147.58 input  -65.29 | X-H torsion
[ 10718 10713 10712 10709 ] final -169.16 input   66.30 | X-H torsion
[ 10763 10752 10751 10750 ] final  124.91 input  -60.55 | X-H torsion
[ 11005 11000 10999 10996 ] final  103.92 input  -57.11 | X-H torsion

> <Gold.Protein.ActiveResidues>
 VAL166  LYS551  ARG553  GLY616  TRP617  ASP618  TYR619  PRO620  LYS621  CYS622 
 ASP623  PHE694  ASN695  SER759  ASP760  ASP761  ALA762  ILE779  LEU786  VAL792 
 PHE793  MET794  SER795  GLU796  ALA797  LYS798  CYS799  TRP800  GLU811  SER814 

> <Gold.Protein.RotatedAtoms>
  151.1344  135.0147  159.8596 H   0  0  0  0  0  0  0  0  0  0  0  0  # atno 6907 bound_to 6896
  152.5451  134.1573  159.8553 H   0  0  0  0  0  0  0  0  0  0  0  0  # atno 6908 bound_to 6896
  151.1642  133.4780  159.2627 H   0  0  0  0  0  0  0  0  0  0  0  0  # atno 6909 bound_to 6896
  145.9418  140.7655  142.9548 H   0  0  0  0  0  0  0  0  0  0  0  0  # atno 7974 bound_to 7965
  154.6301  140.2521  155.7444 H   0  0  0  0  0  0  0  0  0  0  0  0  # atno 8008 bound_to 7997
  156.2475  140.2908  156.0569 H   0  0  0  0  0  0  0  0  0  0  0  0  # atno 8009 bound_to 7997
  155.1758  140.0387  157.2862 H   0  0  0  0  0  0  0  0  0  0  0  0  # atno 8010 bound_to 7997
  139.4888  144.5744  151.6993 H   0  0  0  0  0  0  0  0  0  0  0  0  # atno 10167 bound_to 10162
  156.7075  130.9220  151.3086 H   0  0  0  0  0  0  0  0  0  0  0  0  # atno 10718 bound_to 10713
  153.6689  135.3333  155.3148 H   0  0  0  0  0  0  0  0  0  0  0  0  # atno 10763 bound_to 10752
  154.8496  135.4381  154.1725 H   0  0  0  0  0  0  0  0  0  0  0  0  # atno 10764 bound_to 10752
  153.2712  135.7000  153.7555 H   0  0  0  0  0  0  0  0  0  0  0  0  # atno 10765 bound_to 10752
  139.8787  134.9281  156.5283 H   0  0  0  0  0  0  0  0  0  0  0  0  # atno 11005 bound_to 11000
  144.6780  140.2293  143.7357 LP  0  0  0  0  0  0  0  0  0  0  0  0  # atno 17320 bound_to 7965
  145.8289  139.2077  143.1894 LP  0  0  0  0  0  0  0  0  0  0  0  0  # atno 17321 bound_to 7965
  140.5338  144.0689  150.6063 LP  0  0  0  0  0  0  0  0  0  0  0  0  # atno 17342 bound_to 10162
  140.3688  143.2866  152.0302 LP  0  0  0  0  0  0  0  0  0  0  0  0  # atno 17343 bound_to 10162
  157.6949  130.9271  150.0616 LP  0  0  0  0  0  0  0  0  0  0  0  0  # atno 17370 bound_to 10713
  156.1684  130.3645  149.9199 LP  0  0  0  0  0  0  0  0  0  0  0  0  # atno 17371 bound_to 10713
  140.8399  133.8213  155.9065 LP  0  0  0  0  0  0  0  0  0  0  0  0  # atno 17394 bound_to 11000
  140.9247  134.2097  157.4903 LP  0  0  0  0  0  0  0  0  0  0  0  0  # atno 17395 bound_to 11000

$$$$
