#       Name:                AV-unprocessed.smi:2157
#       Creating user name   scv26
#       Creation time:       Fri Mar 27 11:56:37 2020


#       File generated by GOLD software.
#

@<TRIPOS>MOLECULE
AV-unprocessed.smi:2157
    47    48     1
SMALL
NO_CHARGES


@<TRIPOS>ATOM
      1 ****        -3.8796  -3.4287   0.2002 C.3            1 S1                 0.0000
      2 ****        -3.4501  -2.0781  -0.3902 C.3            1 S1                 0.0000
      3 ****        -3.9553  -1.9099  -1.8359 C.3            1 S1                 0.0000
      4 ****        -3.5206  -0.5619  -2.4324 C.3            1 S1                 0.0000
      5 ****        -1.9956  -0.3882  -2.3649 C.3            1 S1                 0.0000
      6 ****        -1.4790  -0.5439  -0.9233 C.3            1 S1                 0.0000
      7 ****        -0.0240  -0.4272  -0.9079 N.am           1 S1                 0.0000
      8 ****         0.7114  -0.0377   0.1445 C.2            1 S1                 0.0000
      9 ****         0.2235   0.2629   1.2350 O.2            1 S1                 0.0000
     10 ****         2.2308  -0.0131  -0.0698 C.3            1 S1                 0.0000
     11 ****         2.9301   0.8730   0.8695 N.am           1 S1                 0.0000
     12 ****         3.4923   0.3465   2.0180 C.2            1 S1                 0.0000
     13 ****         4.1352   1.0931   2.9423 C.2            1 S1                 0.0000
     14 ****         4.2793   2.5340   2.7731 C.2            1 S1                 0.0000
     15 ****         4.8432   3.2527   3.5991 O.2            1 S1                 0.0000
     16 ****         3.7069   3.0446   1.5830 N.am           1 S1                 0.0000
     17 ****         3.7855   4.4678   1.3266 C.3            1 S1                 0.0000
     18 ****         3.0203   2.2607   0.6291 C.2            1 S1                 0.0000
     19 ****         2.5094   2.7591  -0.3771 O.2            1 S1                 0.0000
     20 ****        -1.9209  -1.8970  -0.3279 C.3            1 S1                 0.0000
     21 ****        -3.4617  -4.2606  -0.3671 H              1 S1                 0.0000
     22 ****        -4.9650  -3.5330   0.1935 H              1 S1                 0.0000
     23 ****        -3.5462  -3.5293   1.2335 H              1 S1                 0.0000
     24 ****        -3.9046  -1.2949   0.2183 H              1 S1                 0.0000
     25 ****        -3.5734  -2.7214  -2.4570 H              1 S1                 0.0000
     26 ****        -5.0429  -1.9870  -1.8621 H              1 S1                 0.0000
     27 ****        -3.8575  -0.4877  -3.4668 H              1 S1                 0.0000
     28 ****        -4.0052   0.2512  -1.8904 H              1 S1                 0.0000
     29 ****        -1.5196  -1.1266  -3.0121 H              1 S1                 0.0000
     30 ****        -1.7204   0.5913  -2.7580 H              1 S1                 0.0000
     31 ****        -1.9062   0.2618  -0.3228 H              1 S1                 0.0000
     32 ****         0.4598  -0.6600  -1.7629 H              1 S1                 0.0000
     33 ****         2.6045  -1.0324   0.0366 H              1 S1                 0.0000
     34 ****         2.4540   0.2756  -1.0986 H              1 S1                 0.0000
     35 ****         3.4079  -0.7165   2.1915 H              1 S1                 0.0000
     36 ****         4.5462   0.6179   3.8210 H              1 S1                 0.0000
     37 ****         4.0508   4.6119   0.2776 H              1 S1                 0.0000
     38 ****         4.5574   4.9299   1.9419 H              1 S1                 0.0000
     39 ****         2.8029   4.8854   1.5514 H              1 S1                 0.0000
     40 ****        -1.5865  -1.9726   0.7077 H              1 S1                 0.0000
     41 ****        -1.4352  -2.7110  -0.8682 H              1 S1                 0.0000
     42 ****        -0.7669   0.2228   1.3679 LP             1 S1                 0.0000
     43 ****         0.8177   0.5470   1.9875 LP             1 S1                 0.0000
     44 ****         5.2272   2.8521   4.4310 LP             1 S1                 0.0000
     45 ****         4.9169   4.2368   3.4380 LP             1 S1                 0.0000
     46 ****         2.0254   2.1786  -1.0319 LP             1 S1                 0.0000
     47 ****         2.5791   3.7436  -0.5378 LP             1 S1                 0.0000
@<TRIPOS>BOND
    1    1    2 1     
    2    1   21 1     
    3    1   22 1     
    4    1   23 1     
    5    2   20 1     
    6    2    3 1     
    7    2   24 1     
    8    3    4 1     
    9    3   25 1     
   10    3   26 1     
   11    4    5 1     
   12    4   27 1     
   13    4   28 1     
   14    5    6 1     
   15    5   29 1     
   16    5   30 1     
   17    6    7 1     
   18    6   20 1     
   19    6   31 1     
   20    7    8 am    
   21    7   32 1     
   22    8    9 2     
   23    8   10 1     
   24   10   11 1     
   25   10   33 1     
   26   10   34 1     
   27   11   18 am    
   28   11   12 1     
   29   12   13 2     
   30   12   35 1     
   31   13   14 1     
   32   13   36 1     
   33   14   15 2     
   34   14   16 am    
   35   16   17 1     
   36   16   18 am    
   37   17   37 1     
   38   17   38 1     
   39   17   39 1     
   40   18   19 2     
   41   20   40 1     
   42   20   41 1     
   43    9   42 1     
   44    9   43 1     
   45   15   44 1     
   46   15   45 1     
   47   19   46 1     
   48   19   47 1     
@<TRIPOS>SUBSTRUCTURE
      1 S1             1
@<TRIPOS>SET
LONE_PAIRS      STATIC     ATOMS    <user>   **** ""
6 42 43 44 45 46 47
DONOR_HYDROGENS      STATIC     ATOMS    <user>   **** ""
1 32
ATOM$BLUE        STATIC     ATOMS    COLORGROUP SYSTEM
6 42 43 44 45 46 47
ATOM$RED        STATIC     ATOMS    COLORGROUP SYSTEM
1 32
