AV-unprocessed.smi:2837|AV-procd|sdf|10925|dock1
  -GOLD-   2272015373D 1   1.00000     0.00000
 Structure written by MMmdl.
 33 35  0  0  0  0  0  0  0  0  2 V2000
  152.5048  142.8843  161.0441 F   0  0  0  0  0  0  0  0  0  0  0  0
  153.2330  142.0776  160.2353 C   0  0  0  0  0  0  0  0  0  0  0  0
  154.2414  141.5577  160.9771 F   0  0  0  0  0  0  0  0  0  0  0  0
  152.4431  141.0851  159.7458 O   0  0  0  0  0  0  0  0  0  0  0  0
  151.6114  141.3485  158.6814 C   0  0  0  0  0  0  0  0  0  0  0  0
  151.1816  140.2673  157.8842 C   0  0  0  0  0  0  0  0  0  0  0  0
  150.3389  140.5004  156.7780 C   0  0  0  0  0  0  0  0  0  0  0  0
  149.9414  141.8239  156.4738 C   0  0  0  0  0  0  0  0  0  0  0  0
  149.1087  142.1783  155.4032 N   0  0  0  0  0  0  0  0  0  0  0  0
  148.5737  141.1710  154.4942 C   0  0  1  0  0  0  0  0  0  0  0  0
  147.8124  140.0565  155.2163 C   0  0  0  0  0  0  0  0  0  0  0  0
  146.4684  140.0603  154.4744 C   0  0  1  0  0  0  0  0  0  0  0  0
  145.6024  141.2580  154.8845 C   0  0  0  0  0  0  0  0  0  0  0  0
  146.3293  142.4144  154.2012 C   0  0  0  0  0  0  0  0  0  0  0  0
  147.5026  141.6933  153.5153 C   0  0  2  0  0  0  0  0  0  0  0  0
  146.8751  140.4680  153.1786 O   0  0  0  0  0  0  0  0  0  0  0  0
  150.3830  142.8339  157.2553 N   0  3  0  0  0  0  0  0  0  0  0  0
  151.1888  142.6516  158.3243 C   0  0  0  0  0  0  0  0  0  0  0  0
  153.6477  142.6932  159.4366 H   0  0  0  0  0  0  0  0  0  0  0  0
  151.4943  139.2612  158.1226 H   0  0  0  0  0  0  0  0  0  0  0  0
  150.0126  139.6606  156.1834 H   0  0  0  0  0  0  0  0  0  0  0  0
  149.0227  143.1500  155.1424 H   0  0  0  0  0  0  0  0  0  0  0  0
  149.3926  140.7166  153.9352 H   0  0  0  0  0  0  0  0  0  0  0  0
  148.3259  139.1032  155.0859 H   0  0  0  0  0  0  0  0  0  0  0  0
  147.6871  140.2281  156.2865 H   0  0  0  0  0  0  0  0  0  0  0  0
  145.9437  139.1050  154.5030 H   0  0  0  0  0  0  0  0  0  0  0  0
  144.5897  141.1581  154.4919 H   0  0  0  0  0  0  0  0  0  0  0  0
  145.5396  141.3758  155.9669 H   0  0  0  0  0  0  0  0  0  0  0  0
  145.6810  142.8802  153.4584 H   0  0  0  0  0  0  0  0  0  0  0  0
  146.6492  143.1888  154.8985 H   0  0  0  0  0  0  0  0  0  0  0  0
  147.9070  142.2315  152.6580 H   0  0  0  0  0  0  0  0  0  0  0  0
  151.4692  143.5534  158.8491 H   0  0  0  0  0  0  0  0  0  0  0  0
  150.0966  143.7861  157.0266 H   0  0  0  0  0  0  0  0  0  0  0  0
  1  2  1  0  0  0  0
  2  3  1  0  0  0  0
  2  4  1  0  0  0  0
  2 19  1  0  0  0  0
  4  5  1  0  0  0  0
  5 18  1  0  0  0  0
  5  6  2  0  0  0  0
  6  7  1  0  0  0  0
  6 20  1  0  0  0  0
  7  8  2  0  0  0  0
  7 21  1  0  0  0  0
  8  9  1  0  0  0  0
  8 17  1  0  0  0  0
  9 10  1  0  0  0  0
  9 22  1  0  0  0  0
 10 15  1  0  0  0  0
 10 11  1  0  0  0  0
 10 23  1  0  0  0  0
 11 12  1  0  0  0  0
 11 24  1  0  0  0  0
 11 25  1  0  0  0  0
 12 16  1  0  0  0  0
 12 13  1  0  0  0  0
 12 26  1  0  0  0  0
 13 14  1  0  0  0  0
 13 27  1  0  0  0  0
 13 28  1  0  0  0  0
 14 15  1  0  0  0  0
 14 29  1  0  0  0  0
 14 30  1  0  0  0  0
 15 16  1  0  0  0  0
 15 31  1  0  0  0  0
 17 18  2  0  0  0  0
 17 33  1  0  0  0  0
 18 32  1  0  0  0  0
M  CHG  1  17   1
M  END
> <s_m_source_file>
AV-unprocessed.smi

> <i_m_source_file_index>
2837

> <i_lp_mmshare_version>
43012

> <i_f3d_flags>
0

> <s_epik_input>
RltDSF0oRilPYzFbY0hdW2NIXWMobltjSF0xKVtOSF1bQ0BIXShbQ0gyXVtDQEBIXTIzKVtDQEBIXShPMylbQ0gyXVtDSDJdMg==

> <s_epik_cmdline>
J2VwaWtfcHl0aG9uJywgJy1waCcsICc3LjAnLCAnLXRuJywgJzgnLCAnLW1hJywgJzIwMCcsICctbWV0YWxfYmluZGluZycsICctaW1hZScsICc8aW5maWxlLm1hZT4nLCAnLW9tYWUnLCAnPG91dGZpbGUubWFlPic=

> <r_lp_tautomer_probability>
0.999429

> <r_epik_Ionization_Penalty>
2.29716

> <r_epik_Ionization_Penalty_Charging>
2.29716

> <r_epik_Ionization_Penalty_Neutral>
1.42285e-06

> <r_epik_State_Penalty>
2.44762

> <r_epik_Charging_Adjusted_Penalty>
4.74478

> <i_epik_Tot_Q>
1

> <i_epik_Tot_abs_Q>
1

> <r_epik_Metal_State_Penalty>
6.53078

> <b_epik_Metal_Only>
0

> <s_lp_Force_Field>
OPLS_2005

> <r_lp_Energy>
46.8356

> <b_lp_Chiralities_Consistent>
1

> <s_lp_Variant>
AV-unprocessed.smi:2837-6

> <Gold.Version>
5.8.1

> <Gold.Id.Protein>
6NUR|6NUR_protein|mol2

> <Gold.PLP.Fitness>
42.2069

> <Gold.PLP.PLP>
-32.8155

> <Gold.PLP.part.hbond>
-2.0000

> <Gold.PLP.part.metal>
0.0000

> <Gold.PLP.part.buried>
-4.5456

> <Gold.PLP.part.nonpolar>
-26.8986

> <Gold.PLP.part.repulsive>
0.3757

> <Gold.PLP.ligand.clash>
0.0000

> <Gold.PLP.ligand.torsion>
0.5401

> <Gold.PLP.Chemscore.Hbond>
3.4808

> <Gold.PLP.Chemscore.CHOScore>
0.0000

> <Gold.PLP.Chemscore.Metal>
0.0000

> <Gold.Chemscore.Hbonds>
donor molecule, donor type, donor heavy atom, donor atom, acceptor molecule, acceptor atom, score
      L1  H     9    22       P1  8028  1.92
      L1  H    17    33       P1  8028  1.55

> <Gold.PLP.Chemscore.Internal.Correction>
0.0293

> <Gold.Rescore>
     Score         DG    S(hbond)    S(metal)    S(lipo)     H(rot)  DE(clash)    DE(int)     intcor
     14.71     -15.55       1.72        0.00      66.24       1.34       0.26       0.58       ----

> <Gold.Chemscore.Fitness>
14.7121

> <Gold.Chemscore.DG>
-15.5494

> <Gold.Chemscore.ZeroCoef>
-5.4800

> <Gold.Chemscore.Hbond>
1.7191

> <Gold.Chemscore.Metal>
0.0000

> <Gold.Chemscore.Lipo>
66.2381

> <Gold.Chemscore.Internal_Hbond>
0.0000

> <Gold.Chemscore.DEClash>
0.2589

> <Gold.Chemscore.DEInternal>
0.5783

> <Gold.Chemscore.Rot>
1.3368

> <Gold.Chemscore.Internal.Correction>
   9.000000E+99

> <Gold.Chemscore.Hbonds>
donor molecule, donor type, donor heavy atom, donor atom, acceptor molecule, acceptor atom, score
      L1  H     9    22       P1  8028  0.92
      L1  H    17    33       P1  8028  0.70

> <Gold.Chemscore.Hbond.Weighted>
-5.7418

> <Gold.Chemscore.Metal.Weighted>
-0.0000

> <Gold.Chemscore.Lipo.Weighted>
-7.7499

> <Gold.Chemscore.Internal_Hbond.Weighted>
0.0000

> <Gold.Chemscore.DEClash.Weighted>
0.2589

> <Gold.Chemscore.DEInternal.Weighted>
0.5783

> <Gold.Chemscore.Rot.Weighted>
3.4223

> <Gold.Chemscore.Internal.Correction.Weighted>
   9.000000E+99

> <Gold.Protein.RotatedTorsions>
[ 6907 6896 6895 6894 ] final   87.63 input  -60.11 | X-H torsion
[ 7974 7965 7964 7962 ] final  -27.51 input  175.53 | X-H torsion
[ 8008 7997 7996 7995 ] final   90.38 input   59.86 | X-H torsion
[ 10167 10162 10161 10158 ] final  -45.06 input  -65.29 | X-H torsion
[ 10718 10713 10712 10709 ] final  171.08 input   66.30 | X-H torsion
[ 10763 10752 10751 10750 ] final  -62.70 input  -60.55 | X-H torsion
[ 11005 11000 10999 10996 ] final  127.06 input  -57.11 | X-H torsion

> <Gold.Protein.ActiveResidues>
 VAL166  LYS551  ARG553  GLY616  TRP617  ASP618  TYR619  PRO620  LYS621  CYS622 
 ASP623  PHE694  ASN695  SER759  ASP760  ASP761  ALA762  ILE779  LEU786  VAL792 
 PHE793  MET794  SER795  GLU796  ALA797  LYS798  CYS799  TRP800  GLU811  SER814 

> <Gold.Protein.RotatedAtoms>
  152.5414  134.2246  159.8800 H   0  0  0  0  0  0  0  0  0  0  0  0  # atno 6907 bound_to 6896
  151.2221  133.4490  159.2608 H   0  0  0  0  0  0  0  0  0  0  0  0  # atno 6908 bound_to 6896
  151.0795  134.9862  159.8405 H   0  0  0  0  0  0  0  0  0  0  0  0  # atno 6909 bound_to 6896
  146.1352  140.5162  142.8676 H   0  0  0  0  0  0  0  0  0  0  0  0  # atno 7974 bound_to 7965
  156.0112  140.3350  155.6943 H   0  0  0  0  0  0  0  0  0  0  0  0  # atno 8008 bound_to 7997
  155.6154  140.0669  157.2711 H   0  0  0  0  0  0  0  0  0  0  0  0  # atno 8009 bound_to 7997
  154.4282  140.1786  156.1304 H   0  0  0  0  0  0  0  0  0  0  0  0  # atno 8010 bound_to 7997
  140.6873  143.2898  151.3585 H   0  0  0  0  0  0  0  0  0  0  0  0  # atno 10167 bound_to 10162
  156.9987  131.0169  151.2836 H   0  0  0  0  0  0  0  0  0  0  0  0  # atno 10718 bound_to 10713
  154.3038  135.6229  153.5436 H   0  0  0  0  0  0  0  0  0  0  0  0  # atno 10763 bound_to 10752
  152.9837  135.5685  154.5254 H   0  0  0  0  0  0  0  0  0  0  0  0  # atno 10764 bound_to 10752
  154.4890  135.2866  155.1488 H   0  0  0  0  0  0  0  0  0  0  0  0  # atno 10765 bound_to 10752
  139.9488  134.9625  156.8799 H   0  0  0  0  0  0  0  0  0  0  0  0  # atno 11005 bound_to 11000
  144.7733  140.5684  143.6655 LP  0  0  0  0  0  0  0  0  0  0  0  0  # atno 17320 bound_to 7965
  145.5171  139.1477  143.3573 LP  0  0  0  0  0  0  0  0  0  0  0  0  # atno 17321 bound_to 7965
  139.6242  144.0846  152.2419 LP  0  0  0  0  0  0  0  0  0  0  0  0  # atno 17342 bound_to 10162
  140.0300  144.6088  150.7495 LP  0  0  0  0  0  0  0  0  0  0  0  0  # atno 17343 bound_to 10162
  157.5406  130.8117  149.8024 LP  0  0  0  0  0  0  0  0  0  0  0  0  # atno 17370 bound_to 10713
  156.0179  130.3806  150.2052 LP  0  0  0  0  0  0  0  0  0  0  0  0  # atno 17371 bound_to 10713
  140.5770  134.0389  155.7450 LP  0  0  0  0  0  0  0  0  0  0  0  0  # atno 17394 bound_to 11000
  141.1145  133.9562  157.2847 LP  0  0  0  0  0  0  0  0  0  0  0  0  # atno 17395 bound_to 11000

$$$$
