AV-unprocessed.smi:1046|AV-procd|sdf|4557|dock7
  -GOLD-   22720 2593D 1   1.00000     0.00000
 Structure written by MMmdl.
 54 56  0  0  0  0  0  0  0  0  3 V2000
  151.7744  126.9471  155.6115 C   0  0  0  0  0  0  0  0  0  0  0  0
  151.1357  128.2652  155.2106 C   0  0  0  0  0  0  0  0  0  0  0  0
  149.7404  128.3146  154.9927 C   0  0  0  0  0  0  0  0  0  0  0  0
  149.1080  129.5204  154.6195 C   0  0  0  0  0  0  0  0  0  0  0  0
  147.7773  129.7929  154.3532 N   0  0  0  0  0  0  0  0  0  0  0  0
  147.8212  131.0890  154.0610 C   0  0  0  0  0  0  0  0  0  0  0  0
  149.0273  131.6878  154.0951 N   0  0  0  0  0  0  0  0  0  0  0  0
  149.3178  133.0787  153.7997 C   0  0  0  0  0  0  0  0  0  0  0  0
  148.4705  134.0478  154.6471 C   0  0  1  0  0  0  0  0  0  0  0  0
  149.0117  135.3443  154.4946 O   0  0  0  0  0  0  0  0  0  0  0  0
  146.9792  134.0818  154.2450 C   0  0  0  0  0  0  0  0  0  0  0  0
  146.7883  134.3025  152.7886 N   0  3  2  0  0  0  0  0  0  0  0  0
  145.5937  135.1267  152.4692 C   0  0  0  0  0  0  0  0  0  0  0  0
  145.4942  135.3936  150.9557 C   0  0  0  0  0  0  0  0  0  0  0  0
  145.4816  134.1326  150.1729 N   0  3  2  0  0  0  0  0  0  0  0  0
  144.1738  133.4236  150.2080 C   0  0  0  0  0  0  0  0  0  0  0  0
  143.7152  132.9664  148.8127 C   0  0  0  0  0  0  0  0  0  0  0  0
  143.4391  134.0914  148.0056 O   0  0  0  0  0  0  0  0  0  0  0  0
  146.6587  133.2878  150.5045 C   0  0  0  0  0  0  0  0  0  0  0  0
  146.7865  133.0321  152.0207 C   0  0  0  0  0  0  0  0  0  0  0  0
  149.9160  130.6852  154.4695 C   0  0  0  0  0  0  0  0  0  0  0  0
  151.3054  130.6490  154.6838 C   0  0  0  0  0  0  0  0  0  0  0  0
  151.9211  129.4358  155.0558 C   0  0  0  0  0  0  0  0  0  0  0  0
  153.4216  129.4064  155.2869 C   0  0  0  0  0  0  0  0  0  0  0  0
  151.0310  126.1541  155.6982 H   0  0  0  0  0  0  0  0  0  0  0  0
  152.2752  127.0425  156.5752 H   0  0  0  0  0  0  0  0  0  0  0  0
  152.5090  126.6366  154.8683 H   0  0  0  0  0  0  0  0  0  0  0  0
  149.1420  127.4231  155.1114 H   0  0  0  0  0  0  0  0  0  0  0  0
  146.9259  131.6338  153.7990 H   0  0  0  0  0  0  0  0  0  0  0  0
  150.3806  133.2490  153.9795 H   0  0  0  0  0  0  0  0  0  0  0  0
  149.1514  133.2519  152.7357 H   0  0  0  0  0  0  0  0  0  0  0  0
  148.5759  133.7645  155.6938 H   0  0  0  0  0  0  0  0  0  0  0  0
  148.9799  135.5819  153.5799 H   0  0  0  0  0  0  0  0  0  0  0  0
  146.5207  133.1372  154.5425 H   0  0  0  0  0  0  0  0  0  0  0  0
  146.4408  134.8610  154.7853 H   0  0  0  0  0  0  0  0  0  0  0  0
  144.6940  134.6216  152.8241 H   0  0  0  0  0  0  0  0  0  0  0  0
  145.6413  136.0811  152.9918 H   0  0  0  0  0  0  0  0  0  0  0  0
  144.6127  135.9937  150.7268 H   0  0  0  0  0  0  0  0  0  0  0  0
  146.3529  135.9860  150.6368 H   0  0  0  0  0  0  0  0  0  0  0  0
  144.2234  132.5703  150.8842 H   0  0  0  0  0  0  0  0  0  0  0  0
  143.4077  134.0847  150.6161 H   0  0  0  0  0  0  0  0  0  0  0  0
  144.4531  132.3327  148.3218 H   0  0  0  0  0  0  0  0  0  0  0  0
  142.8023  132.3763  148.8996 H   0  0  0  0  0  0  0  0  0  0  0  0
  144.2460  134.5613  147.8546 H   0  0  0  0  0  0  0  0  0  0  0  0
  146.6288  132.3441  149.9611 H   0  0  0  0  0  0  0  0  0  0  0  0
  147.5524  133.8059  150.1539 H   0  0  0  0  0  0  0  0  0  0  0  0
  147.7136  132.4905  152.2127 H   0  0  0  0  0  0  0  0  0  0  0  0
  145.9752  132.3942  152.3736 H   0  0  0  0  0  0  0  0  0  0  0  0
  151.8929  131.5472  154.5650 H   0  0  0  0  0  0  0  0  0  0  0  0
  153.8717  130.3827  155.1050 H   0  0  0  0  0  0  0  0  0  0  0  0
  153.8984  128.6887  154.6191 H   0  0  0  0  0  0  0  0  0  0  0  0
  153.6433  129.1225  156.3161 H   0  0  0  0  0  0  0  0  0  0  0  0
  147.5985  134.8202  152.4766 H   0  0  0  0  0  0  0  0  0  0  0  0
  145.5909  134.4117  149.2075 H   0  0  0  0  0  0  0  0  0  0  0  0
  1  2  1  0  0  0  0
  1 25  1  0  0  0  0
  1 26  1  0  0  0  0
  1 27  1  0  0  0  0
  2 23  1  0  0  0  0
  2  3  2  0  0  0  0
  3  4  1  0  0  0  0
  3 28  1  0  0  0  0
  4 21  2  0  0  0  0
  4  5  1  0  0  0  0
  5  6  2  0  0  0  0
  6  7  1  0  0  0  0
  6 29  1  0  0  0  0
  7  8  1  0  0  0  0
  7 21  1  0  0  0  0
  8  9  1  0  0  0  0
  8 30  1  0  0  0  0
  8 31  1  0  0  0  0
  9 10  1  0  0  0  0
  9 11  1  0  0  0  0
  9 32  1  0  0  0  0
 10 33  1  0  0  0  0
 11 12  1  0  0  0  0
 11 34  1  0  0  0  0
 11 35  1  0  0  0  0
 12 20  1  0  0  0  0
 12 13  1  0  0  0  0
 12 53  1  0  0  0  0
 13 14  1  0  0  0  0
 13 36  1  0  0  0  0
 13 37  1  0  0  0  0
 14 15  1  0  0  0  0
 14 38  1  0  0  0  0
 14 39  1  0  0  0  0
 15 16  1  0  0  0  0
 15 19  1  0  0  0  0
 15 54  1  0  0  0  0
 16 17  1  0  0  0  0
 16 40  1  0  0  0  0
 16 41  1  0  0  0  0
 17 18  1  0  0  0  0
 17 42  1  0  0  0  0
 17 43  1  0  0  0  0
 18 44  1  0  0  0  0
 19 20  1  0  0  0  0
 19 45  1  0  0  0  0
 19 46  1  0  0  0  0
 20 47  1  0  0  0  0
 20 48  1  0  0  0  0
 21 22  1  0  0  0  0
 22 23  2  0  0  0  0
 22 49  1  0  0  0  0
 23 24  1  0  0  0  0
 24 50  1  0  0  0  0
 24 51  1  0  0  0  0
 24 52  1  0  0  0  0
M  CHG  1  12   1
M  CHG  1  15   1
M  END
> <s_m_source_file>
AV-unprocessed.smi

> <i_m_source_file_index>
1046

> <i_lp_mmshare_version>
43012

> <i_f3d_flags>
0

> <s_epik_input>
W0NIM11jKFtjSF0xKWMoW0NIM10pW2NIXWMoYzEyKW4oW2NIXW4yKVtDSDJdW0NASF0oW09IXSlbQ0gyXU4zW0NIMl1bQ0gyXU4oW0NIMl1bQ0gyXTMpW0NIMl1bQ0gyXVtPSF0=

> <s_epik_cmdline>
J2VwaWtfcHl0aG9uJywgJy1waCcsICc3LjAnLCAnLXRuJywgJzgnLCAnLW1hJywgJzIwMCcsICctbWV0YWxfYmluZGluZycsICctaW1hZScsICc8aW5maWxlLm1hZT4nLCAnLW9tYWUnLCAnPG91dGZpbGUubWFlPic=

> <r_epik_Ionization_Penalty>
3.17398

> <r_epik_Ionization_Penalty_Charging>
3.09061

> <r_epik_Ionization_Penalty_Neutral>
0.0833726

> <r_epik_State_Penalty>
2.17606

> <r_epik_Charging_Adjusted_Penalty>
5.26667

> <i_epik_Tot_Q>
2

> <i_epik_Tot_abs_Q>
2

> <r_epik_Metal_State_Penalty>
2.08587

> <b_epik_Metal_Only>
0

> <s_lp_Force_Field>
OPLS_2005

> <r_lp_Energy>
29.1343

> <b_lp_Chiralities_Consistent>
1

> <s_lp_Variant>
AV-unprocessed.smi:1046-10

> <Gold.Version>
5.8.1

> <Gold.Id.Protein>
6NUR|6NUR_protein|mol2

> <Gold.PLP.Fitness>
58.8091

> <Gold.PLP.PLP>
-42.9465

> <Gold.PLP.part.hbond>
-6.8477

> <Gold.PLP.part.metal>
0.0000

> <Gold.PLP.part.buried>
-6.0429

> <Gold.PLP.part.nonpolar>
-29.9033

> <Gold.PLP.part.repulsive>
0.1399

> <Gold.PLP.ligand.clash>
0.0000

> <Gold.PLP.ligand.torsion>
1.1389

> <Gold.PLP.Chemscore.Hbond>
5.9913

> <Gold.PLP.Chemscore.CHOScore>
0.0000

> <Gold.PLP.Chemscore.Metal>
0.0000

> <Gold.Chemscore.Hbonds>
donor molecule, donor type, donor heavy atom, donor atom, acceptor molecule, acceptor atom, score
      L1  H    10    33       P1  7948  1.00
      L1  H    12    53       P1  7948  2.00
      L1  H    15    54       P1  7921  1.00
      L1  H    18    44       P1  7921  1.00
      P1  H 10192 10197       L1    18  1.00

> <Gold.PLP.Chemscore.Internal.Correction>
0.1667

> <Gold.Rescore>
     Score         DG    S(hbond)    S(metal)    S(lipo)     H(rot)  DE(clash)    DE(int)     intcor
     22.25     -23.80       4.81        0.00      91.15       3.28       0.20       1.34       ----

> <Gold.Chemscore.Fitness>
22.2533

> <Gold.Chemscore.DG>
-23.7965

> <Gold.Chemscore.ZeroCoef>
-5.4800

> <Gold.Chemscore.Hbond>
4.8073

> <Gold.Chemscore.Metal>
0.0000

> <Gold.Chemscore.Lipo>
91.1465

> <Gold.Chemscore.Internal_Hbond>
0.0000

> <Gold.Chemscore.DEClash>
0.2017

> <Gold.Chemscore.DEInternal>
1.3415

> <Gold.Chemscore.Rot>
3.2828

> <Gold.Chemscore.Internal.Correction>
   9.000000E+99

> <Gold.Chemscore.Hbonds>
donor molecule, donor type, donor heavy atom, donor atom, acceptor molecule, acceptor atom, score
      L1  H    10    33       P1  7948  0.82
      L1  H    12    53       P1  7948  0.88
      L1  H    15    54       P1  7921  0.91
      L1  H    18    44       P1  7921  0.99
      P1  H 10192 10197       L1    18  0.54

> <Gold.Chemscore.Hbond.Weighted>
-16.0563

> <Gold.Chemscore.Metal.Weighted>
-0.0000

> <Gold.Chemscore.Lipo.Weighted>
-10.6641

> <Gold.Chemscore.Internal_Hbond.Weighted>
0.0000

> <Gold.Chemscore.DEClash.Weighted>
0.2017

> <Gold.Chemscore.DEInternal.Weighted>
1.3415

> <Gold.Chemscore.Rot.Weighted>
8.4039

> <Gold.Chemscore.Internal.Correction.Weighted>
   9.000000E+99

> <Gold.Protein.RotatedTorsions>
[ 6907 6896 6895 6894 ] final   83.03 input  -60.11 | X-H torsion
[ 7974 7965 7964 7962 ] final  163.15 input  175.53 | X-H torsion
[ 8008 7997 7996 7995 ] final  -15.85 input   59.86 | X-H torsion
[ 10167 10162 10161 10158 ] final  -53.02 input  -65.29 | X-H torsion
[ 10718 10713 10712 10709 ] final  147.86 input   66.30 | X-H torsion
[ 10763 10752 10751 10750 ] final  -26.65 input  -60.55 | X-H torsion
[ 11005 11000 10999 10996 ] final   85.83 input  -57.11 | X-H torsion

> <Gold.Protein.ActiveResidues>
 VAL166  LYS551  ARG553  GLY616  TRP617  ASP618  TYR619  PRO620  LYS621  CYS622 
 ASP623  PHE694  ASN695  SER759  ASP760  ASP761  ALA762  ILE779  LEU786  VAL792 
 PHE793  MET794  SER795  GLU796  ALA797  LYS798  CYS799  TRP800  GLU811  SER814 

> <Gold.Protein.RotatedAtoms>
  152.5316  134.2958  159.9059 H   0  0  0  0  0  0  0  0  0  0  0  0  # atno 6907 bound_to 6896
  151.2909  133.4159  159.2640 H   0  0  0  0  0  0  0  0  0  0  0  0  # atno 6908 bound_to 6896
  151.0201  134.9479  159.8112 H   0  0  0  0  0  0  0  0  0  0  0  0  # atno 6909 bound_to 6896
  144.7603  139.8141  143.6335 H   0  0  0  0  0  0  0  0  0  0  0  0  # atno 7974 bound_to 7965
  154.5098  140.2185  155.9179 H   0  0  0  0  0  0  0  0  0  0  0  0  # atno 8008 bound_to 7997
  156.1538  140.3156  155.8658 H   0  0  0  0  0  0  0  0  0  0  0  0  # atno 8009 bound_to 7997
  155.3887  140.0477  157.3032 H   0  0  0  0  0  0  0  0  0  0  0  0  # atno 8010 bound_to 7997
  140.6507  143.2564  151.4731 H   0  0  0  0  0  0  0  0  0  0  0  0  # atno 10167 bound_to 10162
  157.3157  131.0895  151.1281 H   0  0  0  0  0  0  0  0  0  0  0  0  # atno 10718 bound_to 10713
  153.7194  135.6946  153.5016 H   0  0  0  0  0  0  0  0  0  0  0  0  # atno 10763 bound_to 10752
  153.2214  135.4368  155.0493 H   0  0  0  0  0  0  0  0  0  0  0  0  # atno 10764 bound_to 10752
  154.8289  135.3461  154.6728 H   0  0  0  0  0  0  0  0  0  0  0  0  # atno 10765 bound_to 10752
  139.8961  134.8313  156.2636 H   0  0  0  0  0  0  0  0  0  0  0  0  # atno 11005 bound_to 11000
  146.1659  139.4791  142.9958 LP  0  0  0  0  0  0  0  0  0  0  0  0  # atno 17320 bound_to 7965
  145.6641  141.0233  143.1693 LP  0  0  0  0  0  0  0  0  0  0  0  0  # atno 17321 bound_to 7965
  139.5722  144.1902  152.1852 LP  0  0  0  0  0  0  0  0  0  0  0  0  # atno 17342 bound_to 10162
  140.1202  144.5380  150.6868 LP  0  0  0  0  0  0  0  0  0  0  0  0  # atno 17343 bound_to 10162
  157.2585  130.6647  149.5964 LP  0  0  0  0  0  0  0  0  0  0  0  0  # atno 17370 bound_to 10713
  155.9681  130.4516  150.5742 LP  0  0  0  0  0  0  0  0  0  0  0  0  # atno 17371 bound_to 10713
  141.0147  133.7075  156.1168 LP  0  0  0  0  0  0  0  0  0  0  0  0  # atno 17394 bound_to 11000
  140.7319  134.4245  157.5565 LP  0  0  0  0  0  0  0  0  0  0  0  0  # atno 17395 bound_to 11000

$$$$
