AV-unprocessed.smi:241|AV-procd|sdf|1840|dock9
  -GOLD-   2262020453D 1   1.00000     0.00000
 Structure written by MMmdl.
 54 57  0  0  0  0  0  0  0  0  1 V2000
  151.9856  138.9268  154.7886 C   0  0  0  0  0  0  0  0  0  0  0  0
  150.8368  139.6211  154.3379 O   0  0  0  0  0  0  0  0  0  0  0  0
  149.6319  139.0590  154.8335 C   0  0  0  0  0  0  0  0  0  0  0  0
  148.4231  139.8531  154.3033 C   0  0  2  0  0  0  0  0  0  0  0  0
  148.5062  141.3676  154.5412 C   0  0  0  0  0  0  0  0  0  0  0  0
  147.0513  141.8135  154.7485 C   0  0  1  0  0  0  0  0  0  0  0  0
  146.7015  142.8194  153.8085 O   0  0  0  0  0  0  0  0  0  0  0  0
  145.4361  143.4104  154.0567 C   0  0  0  0  0  0  0  0  0  0  0  0
  146.2301  140.5303  154.5617 C   0  0  0  0  0  0  0  0  0  0  0  0
  147.1454  139.4427  154.8718 N   0  0  0  0  0  0  0  0  0  0  0  0
  146.7363  138.1929  154.5509 C   0  0  0  0  0  0  0  0  0  0  0  0
  146.6238  137.2346  155.5085 N   0  0  0  0  0  0  0  0  0  0  0  0
  146.1993  136.0100  155.1820 C   0  0  0  0  0  0  0  0  0  0  0  0
  145.8394  135.5420  153.9844 N   0  0  0  0  0  0  0  0  0  0  0  0
  145.9490  136.5030  153.0222 C   0  0  0  0  0  0  0  0  0  0  0  0
  146.3839  137.8431  153.2204 C   0  0  0  0  0  0  0  0  0  0  0  0
  146.3567  138.5357  152.0177 N   0  0  0  0  0  0  0  0  0  0  0  0
  145.9211  137.6574  151.1567 C   0  0  0  0  0  0  0  0  0  0  0  0
  145.6684  136.4033  151.6694 N   0  0  0  0  0  0  0  0  0  0  0  0
  145.1684  135.2597  150.9592 C   0  0  0  0  0  0  0  0  0  0  0  0
  144.0783  134.3532  151.5387 C   0  0  0  0  0  0  0  0  0  0  0  0
  144.7229  133.1413  150.8281 C   0  0  0  0  0  0  0  0  0  0  0  0
  144.7849  131.8488  151.6597 C   0  0  0  0  0  0  0  0  0  0  0  0
  145.7957  130.9800  151.1892 O   0  0  0  0  0  0  0  0  0  0  0  0
  144.1485  132.8187  149.4334 C   0  0  0  0  0  0  0  0  0  0  0  0
  142.9229  132.1214  149.5271 O   0  0  0  0  0  0  0  0  0  0  0  0
  146.0137  133.9934  150.8289 C   0  0  0  0  0  0  0  0  0  0  0  0
  148.3633  139.6911  153.2254 H   0  0  0  0  0  0  0  0  0  0  0  0
  146.9436  142.1859  155.7689 H   0  0  0  0  0  0  0  0  0  0  0  0
  152.8801  139.3928  154.3757 H   0  0  0  0  0  0  0  0  0  0  0  0
  151.9686  137.8846  154.4672 H   0  0  0  0  0  0  0  0  0  0  0  0
  152.0622  138.9585  155.8763 H   0  0  0  0  0  0  0  0  0  0  0  0
  149.5554  138.0188  154.5144 H   0  0  0  0  0  0  0  0  0  0  0  0
  149.6358  139.0561  155.9246 H   0  0  0  0  0  0  0  0  0  0  0  0
  149.0877  141.6000  155.4341 H   0  0  0  0  0  0  0  0  0  0  0  0
  148.9851  141.8717  153.7009 H   0  0  0  0  0  0  0  0  0  0  0  0
  145.2457  144.1869  153.3160 H   0  0  0  0  0  0  0  0  0  0  0  0
  145.4038  143.8741  155.0432 H   0  0  0  0  0  0  0  0  0  0  0  0
  144.6305  142.6790  153.9873 H   0  0  0  0  0  0  0  0  0  0  0  0
  145.3551  140.5118  155.2119 H   0  0  0  0  0  0  0  0  0  0  0  0
  145.8858  140.4611  153.5287 H   0  0  0  0  0  0  0  0  0  0  0  0
  146.1372  135.3046  155.9976 H   0  0  0  0  0  0  0  0  0  0  0  0
  145.7720  137.9095  150.1172 H   0  0  0  0  0  0  0  0  0  0  0  0
  144.8643  135.6153  149.9732 H   0  0  0  0  0  0  0  0  0  0  0  0
  144.1160  134.2699  152.6256 H   0  0  0  0  0  0  0  0  0  0  0  0
  143.0687  134.5939  151.2043 H   0  0  0  0  0  0  0  0  0  0  0  0
  144.9616  132.0580  152.7148 H   0  0  0  0  0  0  0  0  0  0  0  0
  143.8373  131.3117  151.6110 H   0  0  0  0  0  0  0  0  0  0  0  0
  146.5935  131.4751  151.0841 H   0  0  0  0  0  0  0  0  0  0  0  0
  143.9921  133.7244  148.8470 H   0  0  0  0  0  0  0  0  0  0  0  0
  144.8377  132.2024  148.8558 H   0  0  0  0  0  0  0  0  0  0  0  0
  142.2183  132.7288  149.3605 H   0  0  0  0  0  0  0  0  0  0  0  0
  146.6043  133.9417  149.9136 H   0  0  0  0  0  0  0  0  0  0  0  0
  146.6406  133.8202  151.7056 H   0  0  0  0  0  0  0  0  0  0  0  0
  1  2  1  0  0  0  0
  1 30  1  0  0  0  0
  1 31  1  0  0  0  0
  1 32  1  0  0  0  0
  2  3  1  0  0  0  0
  3  4  1  0  0  0  0
  3 33  1  0  0  0  0
  3 34  1  0  0  0  0
  4 28  1  0  0  0  0
  4 10  1  0  0  0  0
  4  5  1  0  0  0  0
  5  6  1  0  0  0  0
  5 35  1  0  0  0  0
  5 36  1  0  0  0  0
  6 29  1  0  0  0  0
  6  7  1  0  0  0  0
  6  9  1  0  0  0  0
  7  8  1  0  0  0  0
  8 37  1  0  0  0  0
  8 38  1  0  0  0  0
  8 39  1  0  0  0  0
  9 10  1  0  0  0  0
  9 40  1  0  0  0  0
  9 41  1  0  0  0  0
 10 11  1  0  0  0  0
 11 16  1  0  0  0  0
 11 12  2  0  0  0  0
 12 13  1  0  0  0  0
 13 14  2  0  0  0  0
 13 42  1  0  0  0  0
 14 15  1  0  0  0  0
 15 19  1  0  0  0  0
 15 16  2  0  0  0  0
 16 17  1  0  0  0  0
 17 18  2  0  0  0  0
 18 19  1  0  0  0  0
 18 43  1  0  0  0  0
 19 20  1  0  0  0  0
 20 27  1  0  0  0  0
 20 21  1  0  0  0  0
 20 44  1  0  0  0  0
 21 22  1  0  0  0  0
 21 45  1  0  0  0  0
 21 46  1  0  0  0  0
 22 23  1  0  0  0  0
 22 25  1  0  0  0  0
 22 27  1  0  0  0  0
 23 24  1  0  0  0  0
 23 47  1  0  0  0  0
 23 48  1  0  0  0  0
 24 49  1  0  0  0  0
 25 26  1  0  0  0  0
 25 50  1  0  0  0  0
 25 51  1  0  0  0  0
 26 52  1  0  0  0  0
 27 53  1  0  0  0  0
 27 54  1  0  0  0  0
M  END
> <s_m_source_file>
AV-unprocessed.smi

> <i_m_source_file_index>
241

> <i_lp_mmshare_version>
43012

> <i_f3d_flags>
0

> <s_epik_input>
W0NIM11PW0NIMl1bQ0BASF0xW0NIMl1bQ0BASF0oT1tDSDNdKVtDSDJdTjFjKG5bY0hdbjIpYyhjMjMpbltjSF1uM1tDSF0oW0NIMl00KVtDSDJdQzQoW0NIMl1bT0hdKVtDSDJdW09IXQ==

> <s_epik_cmdline>
J2VwaWtfcHl0aG9uJywgJy1waCcsICc3LjAnLCAnLXRuJywgJzgnLCAnLW1hJywgJzIwMCcsICctbWV0YWxfYmluZGluZycsICctaW1hZScsICc8aW5maWxlLm1hZT4nLCAnLW9tYWUnLCAnPG91dGZpbGUubWFlPic=

> <r_lp_tautomer_probability>
1

> <r_epik_Ionization_Penalty>
0.00568677

> <r_epik_Ionization_Penalty_Charging>
0

> <r_epik_Ionization_Penalty_Neutral>
0.00568677

> <r_epik_State_Penalty>
0.00400877

> <r_epik_Charging_Adjusted_Penalty>
0.00400877

> <i_epik_Tot_Q>
0

> <i_epik_Tot_abs_Q>
0

> <r_epik_Metal_State_Penalty>
-0

> <b_epik_Metal_Only>
0

> <s_lp_Force_Field>
OPLS_2005

> <r_lp_Energy>
60.5945

> <b_lp_Chiralities_Consistent>
1

> <s_lp_Variant>
AV-unprocessed.smi:241-1

> <Gold.Version>
5.8.1

> <Gold.Id.Protein>
6NUR|6NUR_protein|mol2

> <Gold.PLP.Fitness>
52.0659

> <Gold.PLP.PLP>
-43.0781

> <Gold.PLP.part.hbond>
-3.8347

> <Gold.PLP.part.metal>
0.0000

> <Gold.PLP.part.buried>
-4.0634

> <Gold.PLP.part.nonpolar>
-38.1657

> <Gold.PLP.part.repulsive>
0.8215

> <Gold.PLP.ligand.clash>
0.0000

> <Gold.PLP.ligand.torsion>
0.6305

> <Gold.PLP.Chemscore.Hbond>
2.6338

> <Gold.PLP.Chemscore.CHOScore>
0.5905

> <Gold.PLP.Chemscore.Metal>
0.0000

> <Gold.Chemscore.Hbonds>
donor molecule, donor type, donor heavy atom, donor atom, acceptor molecule, acceptor atom, score
      L1  H    26    52       P1 10186  0.88
      P1  H  7989  7998       L1     2  0.90
      P1  H 10785 10796       L1    26  0.71
      L1  C    18    43       P1 10171  0.62

> <Gold.PLP.Chemscore.Internal.Correction>
0.5762

> <Gold.Rescore>
     Score         DG    S(hbond)    S(metal)    S(lipo)     H(rot)  DE(clash)    DE(int)     intcor
     10.33     -13.40       2.23        0.00      90.93       3.97       2.29       0.78       ----

> <Gold.Chemscore.Fitness>
10.3269

> <Gold.Chemscore.DG>
-13.4039

> <Gold.Chemscore.ZeroCoef>
-5.4800

> <Gold.Chemscore.Hbond>
2.2321

> <Gold.Chemscore.Metal>
0.0000

> <Gold.Chemscore.Lipo>
90.9308

> <Gold.Chemscore.Internal_Hbond>
0.0000

> <Gold.Chemscore.DEClash>
2.2928

> <Gold.Chemscore.DEInternal>
0.7842

> <Gold.Chemscore.Rot>
3.9727

> <Gold.Chemscore.Internal.Correction>
   9.000000E+99

> <Gold.Chemscore.Hbonds>
donor molecule, donor type, donor heavy atom, donor atom, acceptor molecule, acceptor atom, score
      L1  H    26    52       P1 10186  0.85
      P1  H  7989  7998       L1     2  0.18
      P1  H 10785 10796       L1    26  0.50

> <Gold.Chemscore.Hbond.Weighted>
-7.4552

> <Gold.Chemscore.Metal.Weighted>
-0.0000

> <Gold.Chemscore.Lipo.Weighted>
-10.6389

> <Gold.Chemscore.Internal_Hbond.Weighted>
0.0000

> <Gold.Chemscore.DEClash.Weighted>
2.2928

> <Gold.Chemscore.DEInternal.Weighted>
0.7842

> <Gold.Chemscore.Rot.Weighted>
10.1702

> <Gold.Chemscore.Internal.Correction.Weighted>
   9.000000E+99

> <Gold.Protein.RotatedTorsions>
[ 6907 6896 6895 6894 ] final   84.42 input  -60.11 | X-H torsion
[ 7974 7965 7964 7962 ] final   40.68 input  175.53 | X-H torsion
[ 8008 7997 7996 7995 ] final   -3.38 input   59.86 | X-H torsion
[ 10167 10162 10161 10158 ] final   11.48 input  -65.29 | X-H torsion
[ 10718 10713 10712 10709 ] final  132.98 input   66.30 | X-H torsion
[ 10763 10752 10751 10750 ] final   18.72 input  -60.55 | X-H torsion
[ 11005 11000 10999 10996 ] final  156.26 input  -57.11 | X-H torsion

> <Gold.Protein.ActiveResidues>
 VAL166  LYS551  ARG553  GLY616  TRP617  ASP618  TYR619  PRO620  LYS621  CYS622 
 ASP623  PHE694  ASN695  SER759  ASP760  ASP761  ALA762  ILE779  LEU786  VAL792 
 PHE793  MET794  SER795  GLU796  ALA797  LYS798  CYS799  TRP800  GLU811  SER814 

> <Gold.Protein.RotatedAtoms>
  152.5352  134.2743  159.8983 H   0  0  0  0  0  0  0  0  0  0  0  0  # atno 6907 bound_to 6896
  151.2699  133.4254  159.2628 H   0  0  0  0  0  0  0  0  0  0  0  0  # atno 6908 bound_to 6896
  151.0377  134.9600  159.8201 H   0  0  0  0  0  0  0  0  0  0  0  0  # atno 6909 bound_to 6896
  146.0885  139.5504  142.9491 H   0  0  0  0  0  0  0  0  0  0  0  0  # atno 7974 bound_to 7965
  154.6256  140.2511  155.7496 H   0  0  0  0  0  0  0  0  0  0  0  0  # atno 8008 bound_to 7997
  156.2451  140.2917  156.0503 H   0  0  0  0  0  0  0  0  0  0  0  0  # atno 8009 bound_to 7997
  155.1827  140.0389  157.2875 H   0  0  0  0  0  0  0  0  0  0  0  0  # atno 8010 bound_to 7997
  140.6129  143.8369  150.7086 H   0  0  0  0  0  0  0  0  0  0  0  0  # atno 10167 bound_to 10162
  157.4818  131.1086  150.9671 H   0  0  0  0  0  0  0  0  0  0  0  0  # atno 10718 bound_to 10713
  153.1224  135.6722  153.9313 H   0  0  0  0  0  0  0  0  0  0  0  0  # atno 10763 bound_to 10752
  153.8824  135.3056  155.3447 H   0  0  0  0  0  0  0  0  0  0  0  0  # atno 10764 bound_to 10752
  154.7634  135.4976  153.9587 H   0  0  0  0  0  0  0  0  0  0  0  0  # atno 10765 bound_to 10752
  140.1659  134.8577  157.2631 H   0  0  0  0  0  0  0  0  0  0  0  0  # atno 11005 bound_to 11000
  145.6084  141.0343  143.1980 LP  0  0  0  0  0  0  0  0  0  0  0  0  # atno 17320 bound_to 7965
  144.7343  139.7633  143.7335 LP  0  0  0  0  0  0  0  0  0  0  0  0  # atno 17321 bound_to 7965
  140.1942  143.4012  152.1840 LP  0  0  0  0  0  0  0  0  0  0  0  0  # atno 17342 bound_to 10162
  139.5375  144.7224  151.4843 LP  0  0  0  0  0  0  0  0  0  0  0  0  # atno 17343 bound_to 10162
  157.0402  130.5746  149.5355 LP  0  0  0  0  0  0  0  0  0  0  0  0  # atno 17370 bound_to 10713
  156.0126  130.5218  150.8035 LP  0  0  0  0  0  0  0  0  0  0  0  0  # atno 17371 bound_to 10713
  140.2435  134.3768  155.7471 LP  0  0  0  0  0  0  0  0  0  0  0  0  # atno 17394 bound_to 11000
  141.2213  133.7278  156.8825 LP  0  0  0  0  0  0  0  0  0  0  0  0  # atno 17395 bound_to 11000

$$$$
