AV-unprocessed.smi:795|AV-procd|sdf|3764|dock1
  -GOLD-   22720 1193D 1   1.00000     0.00000
 Structure written by MMmdl.
 49 52  0  0  0  0  0  0  0  0  1 V2000
  153.6675  142.1176  160.3455 C   0  0  0  0  0  0  0  0  0  0  0  0
  153.5911  140.6187  160.4572 C   0  0  0  0  0  0  0  0  0  0  0  0
  152.9999  139.9950  159.4922 N   0  0  0  0  0  0  0  0  0  0  0  0
  152.8698  138.6194  159.4953 N   0  0  0  0  0  0  0  0  0  0  0  0
  152.1352  138.0956  158.3355 C   0  0  0  0  0  0  0  0  0  0  0  0
  151.5900  139.2172  157.4421 C   0  0  0  0  0  0  0  0  0  0  0  0
  152.3574  139.9676  156.8387 O   0  0  0  0  0  0  0  0  0  0  0  0
  150.2545  139.3240  157.3777 N   0  0  0  0  0  0  0  0  0  0  0  0
  149.5158  140.2857  156.5617 C   0  0  2  0  0  0  0  0  0  0  0  0
  147.9964  139.9845  156.5934 C   0  0  2  0  0  0  0  0  0  0  0  0
  147.6928  138.6289  155.9106 C   0  0  0  0  0  0  0  0  0  0  0  0
  148.1707  138.6733  154.4433 C   0  0  1  0  0  0  0  0  0  0  0  0
  147.4249  139.7984  153.6935 C   0  0  0  0  0  0  0  0  0  0  0  0
  147.7232  141.1518  154.3743 C   0  0  1  0  0  0  0  0  0  0  0  0
  147.2454  141.1072  155.8433 C   0  0  0  0  0  0  0  0  0  0  0  0
  149.2432  141.4247  154.3294 C   0  0  0  0  0  0  0  0  0  0  0  0
  149.9890  140.3005  155.0824 C   0  0  2  0  0  0  0  0  0  0  0  0
  149.6898  138.9450  154.4000 C   0  0  0  0  0  0  0  0  0  0  0  0
  153.3424  137.7978  160.4768 C   0  0  0  0  0  0  0  0  0  0  0  0
  153.2070  136.5741  160.4405 O   0  0  0  0  0  0  0  0  0  0  0  0
  154.0132  138.5111  161.5663 C   0  0  0  0  0  0  0  0  0  0  0  0
  154.5207  137.6882  162.6166 C   0  0  0  0  0  0  0  0  0  0  0  0
  154.9120  137.0199  163.4769 N   0  0  0  0  0  0  0  0  0  0  0  0
  154.1403  139.8617  161.5772 C   0  0  0  0  0  0  0  0  0  0  0  0
  154.8247  140.6502  162.6854 C   0  0  0  0  0  0  0  0  0  0  0  0
  154.7043  142.4548  160.3526 H   0  0  0  0  0  0  0  0  0  0  0  0
  153.1497  142.5940  161.1781 H   0  0  0  0  0  0  0  0  0  0  0  0
  153.2102  142.4807  159.4236 H   0  0  0  0  0  0  0  0  0  0  0  0
  152.7915  137.4460  157.7526 H   0  0  0  0  0  0  0  0  0  0  0  0
  151.3040  137.4602  158.6450 H   0  0  0  0  0  0  0  0  0  0  0  0
  149.7033  138.6705  157.9148 H   0  0  0  0  0  0  0  0  0  0  0  0
  149.6812  141.2724  156.9992 H   0  0  0  0  0  0  0  0  0  0  0  0
  147.6510  139.9549  157.6277 H   0  0  0  0  0  0  0  0  0  0  0  0
  148.1801  137.8107  156.4421 H   0  0  0  0  0  0  0  0  0  0  0  0
  146.6230  138.4205  155.9502 H   0  0  0  0  0  0  0  0  0  0  0  0
  147.9599  137.7168  153.9641 H   0  0  0  0  0  0  0  0  0  0  0  0
  147.7352  139.8253  152.6483 H   0  0  0  0  0  0  0  0  0  0  0  0
  146.3516  139.6044  153.6915 H   0  0  0  0  0  0  0  0  0  0  0  0
  147.1967  141.9472  153.8460 H   0  0  0  0  0  0  0  0  0  0  0  0
  146.1691  140.9345  155.8847 H   0  0  0  0  0  0  0  0  0  0  0  0
  147.4206  142.0688  156.3271 H   0  0  0  0  0  0  0  0  0  0  0  0
  149.5867  141.4787  153.2956 H   0  0  0  0  0  0  0  0  0  0  0  0
  149.4671  142.3934  154.7779 H   0  0  0  0  0  0  0  0  0  0  0  0
  151.0599  140.4995  155.0333 H   0  0  0  0  0  0  0  0  0  0  0  0
  150.2346  138.1385  154.8919 H   0  0  0  0  0  0  0  0  0  0  0  0
  150.0390  138.9607  153.3669 H   0  0  0  0  0  0  0  0  0  0  0  0
  155.1653  140.0092  163.4978 H   0  0  0  0  0  0  0  0  0  0  0  0
  154.1402  141.3827  163.1144 H   0  0  0  0  0  0  0  0  0  0  0  0
  155.6953  141.1790  162.2961 H   0  0  0  0  0  0  0  0  0  0  0  0
  1  2  1  0  0  0  0
  1 26  1  0  0  0  0
  1 27  1  0  0  0  0
  1 28  1  0  0  0  0
  2 24  1  0  0  0  0
  2  3  2  0  0  0  0
  3  4  1  0  0  0  0
  4  5  1  0  0  0  0
  4 19  1  0  0  0  0
  5  6  1  0  0  0  0
  5 29  1  0  0  0  0
  5 30  1  0  0  0  0
  6  7  2  0  0  0  0
  6  8  1  0  0  0  0
  8  9  1  0  0  0  0
  8 31  1  0  0  0  0
  9 17  1  0  0  0  0
  9 10  1  0  0  0  0
  9 32  1  0  0  0  0
 10 15  1  0  0  0  0
 10 11  1  0  0  0  0
 10 33  1  0  0  0  0
 11 12  1  0  0  0  0
 11 34  1  0  0  0  0
 11 35  1  0  0  0  0
 12 18  1  0  0  0  0
 12 13  1  0  0  0  0
 12 36  1  0  0  0  0
 13 14  1  0  0  0  0
 13 37  1  0  0  0  0
 13 38  1  0  0  0  0
 14 15  1  0  0  0  0
 14 16  1  0  0  0  0
 14 39  1  0  0  0  0
 15 40  1  0  0  0  0
 15 41  1  0  0  0  0
 16 17  1  0  0  0  0
 16 42  1  0  0  0  0
 16 43  1  0  0  0  0
 17 18  1  0  0  0  0
 17 44  1  0  0  0  0
 18 45  1  0  0  0  0
 18 46  1  0  0  0  0
 19 20  2  0  0  0  0
 19 21  1  0  0  0  0
 21 22  1  0  0  0  0
 21 24  2  0  0  0  0
 22 23  3  0  0  0  0
 24 25  1  0  0  0  0
 25 47  1  0  0  0  0
 25 48  1  0  0  0  0
 25 49  1  0  0  0  0
M  END
> <s_m_source_file>
AV-unprocessed.smi

> <i_m_source_file_index>
795

> <i_lp_mmshare_version>
43012

> <i_f3d_flags>
0

> <s_epik_input>
TiNDYyhjMVtDSDNdKWMoPU8pbihuYzFbQ0gzXSlbQ0gyXUMoPU8pW05IXVtDQEhdKFtDQEhdMjMpW0NAQEhdNFtDSDJdW0NASF0oW0NIMl0zKVtDSDJdW0NASF0oW0NIMl0yKVtDSDJdNA==

> <s_epik_cmdline>
J2VwaWtfcHl0aG9uJywgJy1waCcsICc3LjAnLCAnLXRuJywgJzgnLCAnLW1hJywgJzIwMCcsICctbWV0YWxfYmluZGluZycsICctaW1hZScsICc8aW5maWxlLm1hZT4nLCAnLW9tYWUnLCAnPG91dGZpbGUubWFlPic=

> <r_lp_tautomer_probability>
1

> <r_epik_Ionization_Penalty>
2.02301e-08

> <r_epik_Ionization_Penalty_Charging>
2.3673e-11

> <r_epik_Ionization_Penalty_Neutral>
2.02064e-08

> <r_epik_State_Penalty>
-0

> <r_epik_Charging_Adjusted_Penalty>
2.3673e-11

> <i_epik_Tot_Q>
0

> <i_epik_Tot_abs_Q>
0

> <r_epik_Metal_State_Penalty>
-0

> <b_epik_Metal_Only>
0

> <s_lp_Force_Field>
OPLS_2005

> <r_lp_Energy>
43.8057

> <b_lp_Chiralities_Consistent>
1

> <s_lp_Variant>
AV-unprocessed.smi:795-1

> <Gold.Version>
5.8.1

> <Gold.Id.Protein>
6NUR|6NUR_protein|mol2

> <Gold.PLP.Fitness>
41.6682

> <Gold.PLP.PLP>
-35.9221

> <Gold.PLP.part.hbond>
-2.0000

> <Gold.PLP.part.metal>
0.0000

> <Gold.PLP.part.buried>
-2.9293

> <Gold.PLP.part.nonpolar>
-30.3434

> <Gold.PLP.part.repulsive>
0.0425

> <Gold.PLP.ligand.clash>
0.0000

> <Gold.PLP.ligand.torsion>
0.1298

> <Gold.PLP.Chemscore.Hbond>
2.0000

> <Gold.PLP.Chemscore.CHOScore>
0.0000

> <Gold.PLP.Chemscore.Metal>
0.0000

> <Gold.Chemscore.Hbonds>
donor molecule, donor type, donor heavy atom, donor atom, acceptor molecule, acceptor atom, score
      P1  H  6896  6907       L1    20  1.00
      P1  H  7997  8010       L1     7  0.99

> <Gold.PLP.Chemscore.Internal.Correction>
0.0057

> <Gold.Rescore>
     Score         DG    S(hbond)    S(metal)    S(lipo)     H(rot)  DE(clash)    DE(int)     intcor
     16.42     -19.07       1.99        0.00      91.01       1.44       0.06       2.59       ----

> <Gold.Chemscore.Fitness>
16.4232

> <Gold.Chemscore.DG>
-19.0742

> <Gold.Chemscore.ZeroCoef>
-5.4800

> <Gold.Chemscore.Hbond>
1.9890

> <Gold.Chemscore.Metal>
0.0000

> <Gold.Chemscore.Lipo>
91.0086

> <Gold.Chemscore.Internal_Hbond>
0.0000

> <Gold.Chemscore.DEClash>
0.0610

> <Gold.Chemscore.DEInternal>
2.5900

> <Gold.Chemscore.Rot>
1.4442

> <Gold.Chemscore.Internal.Correction>
   9.000000E+99

> <Gold.Chemscore.Hbonds>
donor molecule, donor type, donor heavy atom, donor atom, acceptor molecule, acceptor atom, score
      P1  H  6896  6907       L1    20  0.99
      P1  H  7997  8010       L1     7  0.91

> <Gold.Chemscore.Hbond.Weighted>
-6.6433

> <Gold.Chemscore.Metal.Weighted>
-0.0000

> <Gold.Chemscore.Lipo.Weighted>
-10.6480

> <Gold.Chemscore.Internal_Hbond.Weighted>
0.0000

> <Gold.Chemscore.DEClash.Weighted>
0.0610

> <Gold.Chemscore.DEInternal.Weighted>
2.5900

> <Gold.Chemscore.Rot.Weighted>
3.6971

> <Gold.Chemscore.Internal.Correction.Weighted>
   9.000000E+99

> <Gold.Protein.RotatedTorsions>
[ 6907 6896 6895 6894 ] final   43.49 input  -60.11 | X-H torsion
[ 7974 7965 7964 7962 ] final  162.44 input  175.53 | X-H torsion
[ 8008 7997 7996 7995 ] final   58.01 input   59.86 | X-H torsion
[ 10167 10162 10161 10158 ] final    2.35 input  -65.29 | X-H torsion
[ 10718 10713 10712 10709 ] final -124.94 input   66.30 | X-H torsion
[ 10763 10752 10751 10750 ] final  177.21 input  -60.55 | X-H torsion
[ 11005 11000 10999 10996 ] final  -59.70 input  -57.11 | X-H torsion

> <Gold.Protein.ActiveResidues>
 VAL166  LYS551  ARG553  GLY616  TRP617  ASP618  TYR619  PRO620  LYS621  CYS622 
 ASP623  PHE694  ASN695  SER759  ASP760  ASP761  ALA762  ILE779  LEU786  VAL792 
 PHE793  MET794  SER795  GLU796  ALA797  LYS798  CYS799  TRP800  GLU811  SER814 

> <Gold.Protein.RotatedAtoms>
  152.2209  134.8413  160.0485 H   0  0  0  0  0  0  0  0  0  0  0  0  # atno 6907 bound_to 6896
  151.9197  133.3577  159.3901 H   0  0  0  0  0  0  0  0  0  0  0  0  # atno 6908 bound_to 6896
  150.7000  134.4573  159.5408 H   0  0  0  0  0  0  0  0  0  0  0  0  # atno 6909 bound_to 6896
  144.7636  139.8040  143.6323 H   0  0  0  0  0  0  0  0  0  0  0  0  # atno 7974 bound_to 7965
  155.5431  140.3484  155.4451 H   0  0  0  0  0  0  0  0  0  0  0  0  # atno 8008 bound_to 7997
  156.0637  140.1346  156.9937 H   0  0  0  0  0  0  0  0  0  0  0  0  # atno 8009 bound_to 7997
  154.4492  140.0980  156.6540 H   0  0  0  0  0  0  0  0  0  0  0  0  # atno 8010 bound_to 7997
  140.6639  143.7231  150.7790 H   0  0  0  0  0  0  0  0  0  0  0  0  # atno 10167 bound_to 10162
  156.1632  130.6616  151.0078 H   0  0  0  0  0  0  0  0  0  0  0  0  # atno 10718 bound_to 10713
  154.4914  135.2779  155.1494 H   0  0  0  0  0  0  0  0  0  0  0  0  # atno 10763 bound_to 10752
  154.3164  135.6218  153.5492 H   0  0  0  0  0  0  0  0  0  0  0  0  # atno 10764 bound_to 10752
  152.9888  135.5732  154.5336 H   0  0  0  0  0  0  0  0  0  0  0  0  # atno 10765 bound_to 10752
  141.1258  133.6618  156.5111 H   0  0  0  0  0  0  0  0  0  0  0  0  # atno 11005 bound_to 11000
  146.1724  139.4880  142.9919 LP  0  0  0  0  0  0  0  0  0  0  0  0  # atno 17320 bound_to 7965
  145.6539  141.0256  143.1745 LP  0  0  0  0  0  0  0  0  0  0  0  0  # atno 17321 bound_to 7965
  140.0904  143.4883  152.2481 LP  0  0  0  0  0  0  0  0  0  0  0  0  # atno 17342 bound_to 10162
  139.5882  144.7539  151.3468 LP  0  0  0  0  0  0  0  0  0  0  0  0  # atno 17343 bound_to 10162
  157.6748  131.0853  150.7522 LP  0  0  0  0  0  0  0  0  0  0  0  0  # atno 17370 bound_to 10713
  156.7584  130.4791  149.5442 LP  0  0  0  0  0  0  0  0  0  0  0  0  # atno 17371 bound_to 10713
  140.4368  134.7052  157.4971 LP  0  0  0  0  0  0  0  0  0  0  0  0  # atno 17394 bound_to 11000
  140.0256  134.6482  155.9177 LP  0  0  0  0  0  0  0  0  0  0  0  0  # atno 17395 bound_to 11000

$$$$
