AV-unprocessed.smi:2915|AV-procd|sdf|11187|dock9
  -GOLD-   2272016 83D 1   1.00000     0.00000
 Structure written by MMmdl.
 41 42  0  0  0  0  0  0  0  0  1 V2000
  152.8416  142.9417  161.7618 C   0  0  0  0  0  0  0  0  0  0  0  0
  152.3313  143.5440  160.4978 C   0  0  0  0  0  0  0  0  0  0  0  0
  152.1668  142.8564  159.3648 N   0  0  0  0  0  0  0  0  0  0  0  0
  151.6681  143.6461  158.3232 C   0  0  0  0  0  0  0  0  0  0  0  0
  151.4144  143.0365  156.9726 C   0  0  0  0  0  0  0  0  0  0  0  0
  150.5878  141.7467  157.0612 C   0  0  0  0  0  0  0  0  0  0  0  0
  151.0843  140.6934  157.4642 O   0  0  0  0  0  0  0  0  0  0  0  0
  149.3088  141.8537  156.6694 N   0  0  0  0  0  0  0  0  0  0  0  0
  148.3249  140.7709  156.6316 C   0  0  0  0  0  0  0  0  0  0  0  0
  147.2798  140.9194  155.4895 C   0  0  0  0  0  0  0  0  0  0  0  0
  147.9837  140.5139  154.1628 C   0  0  0  0  0  0  0  0  0  0  0  0
  147.0911  139.9235  153.0502 C   0  0  0  0  0  0  0  0  0  0  0  0
  147.7022  138.7671  152.5208 O   0  0  0  0  0  0  0  0  0  0  0  0
  146.0296  140.0385  155.7644 C   0  0  0  0  0  0  0  0  0  0  0  0
  144.8118  140.9252  155.5019 C   0  0  0  0  0  0  0  0  0  0  0  0
  145.2828  142.3215  155.8912 C   0  0  0  0  0  0  0  0  0  0  0  0
  146.7368  142.3738  155.4187 C   0  0  0  0  0  0  0  0  0  0  0  0
  151.4697  144.9558  158.6858 C   0  0  0  0  0  0  0  0  0  0  0  0
  151.8871  145.2400  160.3527 S   0  0  0  0  0  0  0  0  0  0  0  0
  152.9276  141.8589  161.6648 H   0  0  0  0  0  0  0  0  0  0  0  0
  152.1600  143.1656  162.5824 H   0  0  0  0  0  0  0  0  0  0  0  0
  153.8233  143.3516  161.9990 H   0  0  0  0  0  0  0  0  0  0  0  0
  150.8867  143.7437  156.3319 H   0  0  0  0  0  0  0  0  0  0  0  0
  152.3587  142.8138  156.4736 H   0  0  0  0  0  0  0  0  0  0  0  0
  148.9913  142.7591  156.3551 H   0  0  0  0  0  0  0  0  0  0  0  0
  148.8215  139.8021  156.5559 H   0  0  0  0  0  0  0  0  0  0  0  0
  147.8162  140.7656  157.5962 H   0  0  0  0  0  0  0  0  0  0  0  0
  148.5060  141.3854  153.7647 H   0  0  0  0  0  0  0  0  0  0  0  0
  148.7625  139.7837  154.3884 H   0  0  0  0  0  0  0  0  0  0  0  0
  146.1103  139.6421  153.4314 H   0  0  0  0  0  0  0  0  0  0  0  0
  146.9306  140.6277  152.2354 H   0  0  0  0  0  0  0  0  0  0  0  0
  148.3247  139.0307  151.8603 H   0  0  0  0  0  0  0  0  0  0  0  0
  146.0065  139.1235  155.1726 H   0  0  0  0  0  0  0  0  0  0  0  0
  145.9947  139.7131  156.8039 H   0  0  0  0  0  0  0  0  0  0  0  0
  144.5553  140.9042  154.4421 H   0  0  0  0  0  0  0  0  0  0  0  0
  143.9329  140.6076  156.0639 H   0  0  0  0  0  0  0  0  0  0  0  0
  144.6708  143.1097  155.4521 H   0  0  0  0  0  0  0  0  0  0  0  0
  145.2432  142.4340  156.9757 H   0  0  0  0  0  0  0  0  0  0  0  0
  147.3222  143.0806  156.0069 H   0  0  0  0  0  0  0  0  0  0  0  0
  146.7606  142.7578  154.4002 H   0  0  0  0  0  0  0  0  0  0  0  0
  151.0978  145.7660  158.0763 H   0  0  0  0  0  0  0  0  0  0  0  0
  1  2  1  0  0  0  0
  1 20  1  0  0  0  0
  1 21  1  0  0  0  0
  1 22  1  0  0  0  0
  2 19  1  0  0  0  0
  2  3  2  0  0  0  0
  3  4  1  0  0  0  0
  4  5  1  0  0  0  0
  4 18  2  0  0  0  0
  5  6  1  0  0  0  0
  5 23  1  0  0  0  0
  5 24  1  0  0  0  0
  6  7  2  0  0  0  0
  6  8  1  0  0  0  0
  8  9  1  0  0  0  0
  8 25  1  0  0  0  0
  9 10  1  0  0  0  0
  9 26  1  0  0  0  0
  9 27  1  0  0  0  0
 10 17  1  0  0  0  0
 10 11  1  0  0  0  0
 10 14  1  0  0  0  0
 11 12  1  0  0  0  0
 11 28  1  0  0  0  0
 11 29  1  0  0  0  0
 12 13  1  0  0  0  0
 12 30  1  0  0  0  0
 12 31  1  0  0  0  0
 13 32  1  0  0  0  0
 14 15  1  0  0  0  0
 14 33  1  0  0  0  0
 14 34  1  0  0  0  0
 15 16  1  0  0  0  0
 15 35  1  0  0  0  0
 15 36  1  0  0  0  0
 16 17  1  0  0  0  0
 16 37  1  0  0  0  0
 16 38  1  0  0  0  0
 17 39  1  0  0  0  0
 17 40  1  0  0  0  0
 18 19  1  0  0  0  0
 18 41  1  0  0  0  0
M  END
> <s_m_source_file>
AV-unprocessed.smi

> <i_m_source_file_index>
2915

> <i_lp_mmshare_version>
43012

> <i_f3d_flags>
0

> <s_epik_input>
W0NIM11jMW5jKFtjSF1zMSlbQ0gyXUMoPU8pW05IXVtDSDJdQzIoW0NIMl1bQ0gyXVtPSF0pW0NIMl1bQ0gyXVtDSDJdW0NIMl0y

> <s_epik_cmdline>
J2VwaWtfcHl0aG9uJywgJy1waCcsICc3LjAnLCAnLXRuJywgJzgnLCAnLW1hJywgJzIwMCcsICctbWV0YWxfYmluZGluZycsICctaW1hZScsICc8aW5maWxlLm1hZT4nLCAnLW9tYWUnLCAnPG91dGZpbGUubWFlPic=

> <r_lp_tautomer_probability>
1

> <r_epik_Ionization_Penalty>
5.95244e-05

> <r_epik_Ionization_Penalty_Charging>
0

> <r_epik_Ionization_Penalty_Neutral>
5.95244e-05

> <r_epik_State_Penalty>
-0

> <r_epik_Charging_Adjusted_Penalty>
0

> <i_epik_Tot_Q>
0

> <i_epik_Tot_abs_Q>
0

> <r_epik_Metal_State_Penalty>
-0

> <b_epik_Metal_Only>
0

> <s_lp_Force_Field>
OPLS_2005

> <r_lp_Energy>
27.9647

> <b_lp_Chiralities_Consistent>
1

> <s_lp_Variant>
AV-unprocessed.smi:2915-1

> <Gold.Version>
5.8.1

> <Gold.Id.Protein>
6NUR|6NUR_protein|mol2

> <Gold.PLP.Fitness>
40.2750

> <Gold.PLP.PLP>
-37.2532

> <Gold.PLP.part.hbond>
-2.7324

> <Gold.PLP.part.metal>
0.0000

> <Gold.PLP.part.buried>
-3.2809

> <Gold.PLP.part.nonpolar>
-30.4416

> <Gold.PLP.part.repulsive>
0.0293

> <Gold.PLP.ligand.clash>
0.0000

> <Gold.PLP.ligand.torsion>
1.5042

> <Gold.PLP.Chemscore.Hbond>
2.0000

> <Gold.PLP.Chemscore.CHOScore>
0.0000

> <Gold.PLP.Chemscore.Metal>
0.0000

> <Gold.Chemscore.Hbonds>
donor molecule, donor type, donor heavy atom, donor atom, acceptor molecule, acceptor atom, score
      L1  H     8    25       P1  8028  0.88
      L1  H    13    32       P1  7957  1.00

> <Gold.PLP.Chemscore.Internal.Correction>
0.0303

> <Gold.Rescore>
     Score         DG    S(hbond)    S(metal)    S(lipo)     H(rot)  DE(clash)    DE(int)     intcor
     16.00     -17.97       1.99        0.00     103.53       2.45       0.65       1.32       ----

> <Gold.Chemscore.Fitness>
16.0009

> <Gold.Chemscore.DG>
-17.9690

> <Gold.Chemscore.ZeroCoef>
-5.4800

> <Gold.Chemscore.Hbond>
1.9881

> <Gold.Chemscore.Metal>
0.0000

> <Gold.Chemscore.Lipo>
103.5268

> <Gold.Chemscore.Internal_Hbond>
0.0000

> <Gold.Chemscore.DEClash>
0.6531

> <Gold.Chemscore.DEInternal>
1.3150

> <Gold.Chemscore.Rot>
2.4469

> <Gold.Chemscore.Internal.Correction>
   9.000000E+99

> <Gold.Chemscore.Hbonds>
donor molecule, donor type, donor heavy atom, donor atom, acceptor molecule, acceptor atom, score
      L1  H     8    25       P1  8028  0.85
      L1  H    13    32       P1  7957  0.95

> <Gold.Chemscore.Hbond.Weighted>
-6.6404

> <Gold.Chemscore.Metal.Weighted>
-0.0000

> <Gold.Chemscore.Lipo.Weighted>
-12.1126

> <Gold.Chemscore.Internal_Hbond.Weighted>
0.0000

> <Gold.Chemscore.DEClash.Weighted>
0.6531

> <Gold.Chemscore.DEInternal.Weighted>
1.3150

> <Gold.Chemscore.Rot.Weighted>
6.2640

> <Gold.Chemscore.Internal.Correction.Weighted>
   9.000000E+99

> <Gold.Protein.RotatedTorsions>
[ 6907 6896 6895 6894 ] final    9.85 input  -60.11 | X-H torsion
[ 7974 7965 7964 7962 ] final  -37.05 input  175.53 | X-H torsion
[ 8008 7997 7996 7995 ] final  130.94 input   59.86 | X-H torsion
[ 10167 10162 10161 10158 ] final -115.34 input  -65.29 | X-H torsion
[ 10718 10713 10712 10709 ] final  -33.78 input   66.30 | X-H torsion
[ 10763 10752 10751 10750 ] final  -92.84 input  -60.55 | X-H torsion
[ 11005 11000 10999 10996 ] final   97.27 input  -57.11 | X-H torsion

> <Gold.Protein.ActiveResidues>
 VAL166  LYS551  ARG553  GLY616  TRP617  ASP618  TYR619  PRO620  LYS621  CYS622 
 ASP623  PHE694  ASN695  SER759  ASP760  ASP761  ALA762  ILE779  LEU786  VAL792 
 PHE793  MET794  SER795  GLU796  ALA797  LYS798  CYS799  TRP800  GLU811  SER814 

> <Gold.Protein.RotatedAtoms>
  151.7287  135.0879  160.0296 H   0  0  0  0  0  0  0  0  0  0  0  0  # atno 6907 bound_to 6896
  152.3555  133.6227  159.5984 H   0  0  0  0  0  0  0  0  0  0  0  0  # atno 6908 bound_to 6896
  150.7568  133.9423  159.3501 H   0  0  0  0  0  0  0  0  0  0  0  0  # atno 6909 bound_to 6896
  146.0608  140.6351  142.8998 H   0  0  0  0  0  0  0  0  0  0  0  0  # atno 7974 bound_to 7965
  156.2962  140.2583  156.2845 H   0  0  0  0  0  0  0  0  0  0  0  0  # atno 8008 bound_to 7997
  154.9570  140.0393  157.2190 H   0  0  0  0  0  0  0  0  0  0  0  0  # atno 8009 bound_to 7997
  154.7982  140.2823  155.5945 H   0  0  0  0  0  0  0  0  0  0  0  0  # atno 8010 bound_to 7997
  140.0912  143.4698  152.1869 H   0  0  0  0  0  0  0  0  0  0  0  0  # atno 10167 bound_to 10162
  156.3585  130.4320  149.7644 H   0  0  0  0  0  0  0  0  0  0  0  0  # atno 10718 bound_to 10713
  154.6901  135.5216  153.8380 H   0  0  0  0  0  0  0  0  0  0  0  0  # atno 10763 bound_to 10752
  153.0626  135.6573  154.0438 H   0  0  0  0  0  0  0  0  0  0  0  0  # atno 10764 bound_to 10752
  154.0313  135.2985  155.3348 H   0  0  0  0  0  0  0  0  0  0  0  0  # atno 10765 bound_to 10752
  139.8777  134.8992  156.4281 H   0  0  0  0  0  0  0  0  0  0  0  0  # atno 11005 bound_to 11000
  144.7174  140.4256  143.7034 LP  0  0  0  0  0  0  0  0  0  0  0  0  # atno 17320 bound_to 7965
  145.6563  139.1573  143.2833 LP  0  0  0  0  0  0  0  0  0  0  0  0  # atno 17321 bound_to 7965
  139.5724  144.7469  151.3856 LP  0  0  0  0  0  0  0  0  0  0  0  0  # atno 17342 bound_to 10162
  140.7028  143.7590  150.7431 LP  0  0  0  0  0  0  0  0  0  0  0  0  # atno 17343 bound_to 10162
  156.4817  130.8044  151.3058 LP  0  0  0  0  0  0  0  0  0  0  0  0  # atno 17370 bound_to 10713
  157.7470  131.0003  150.2923 LP  0  0  0  0  0  0  0  0  0  0  0  0  # atno 17371 bound_to 10713
  140.9086  133.7728  155.9764 LP  0  0  0  0  0  0  0  0  0  0  0  0  # atno 17394 bound_to 11000
  140.8572  134.2884  157.5250 LP  0  0  0  0  0  0  0  0  0  0  0  0  # atno 17395 bound_to 11000

$$$$
