#       Name:                AV-unprocessed.smi:657
#       Creating user name   scv26
#       Creation time:       Fri Mar 27 00:16:31 2020


#       File generated by GOLD software.
#

@<TRIPOS>MOLECULE
AV-unprocessed.smi:657
    50    51     1
SMALL
NO_CHARGES


@<TRIPOS>ATOM
      1 ****        -2.1731   3.9080  -0.3134 C.3            1 S1                 0.0000
      2 ****        -1.8262   2.4141  -0.4548 C.3            1 S1                 0.0000
      3 ****        -2.2174   1.8672  -1.8431 C.3            1 S1                 0.0000
      4 ****        -2.3747   1.6214   0.6690 N.3            1 S1                 0.0000
      5 ****        -3.8470   1.5741   0.6882 C.3            1 S1                 0.0000
      6 ****        -4.3641   1.0010   2.0183 C.3            1 S1                 0.0000
      7 ****        -3.8256  -0.4113   2.2515 C.3            1 S1                 0.0000
      8 ****        -2.2979  -0.3847   2.1683 C.3            1 S1                 0.0000
      9 ****        -1.8192   0.2380   0.8356 C.3            1 S1                 0.0000
     10 ****        -0.2830   0.1434   0.7566 C.2            1 S1                 0.0000
     11 ****         0.4159   0.5744   1.6746 O.2            1 S1                 0.0000
     12 ****         0.2260  -0.4011  -0.3597 N.am           1 S1                 0.0000
     13 ****         1.6465  -0.5644  -0.6422 C.3            1 S1                 0.0000
     14 ****         2.2097  -1.8338   0.0153 C.3            1 S1                 0.0000
     15 ****         3.6661  -2.0180  -0.3063 C.2            1 S1                 0.0000
     16 ****         4.7900  -1.5763   0.4486 C.2            1 S1                 0.0000
     17 ****         5.9446  -1.8954  -0.1133 N.2            1 S1                 0.0000
     18 ****         5.5997  -2.5498  -1.2412 N.pl3          1 S1                 0.0000
     19 ****         6.6345  -3.0525  -2.1191 C.3            1 S1                 0.0000
     20 ****         4.2318  -2.6390  -1.3839 C.2            1 S1                 0.0000
     21 ****        -1.5821   4.5033  -1.0100 H              1 S1                 0.0000
     22 ****        -1.9544   4.2717   0.6912 H              1 S1                 0.0000
     23 ****        -3.2194   4.1196  -0.5315 H              1 S1                 0.0000
     24 ****        -0.7393   2.3975  -0.3948 H              1 S1                 0.0000
     25 ****        -1.7130   2.4292  -2.6294 H              1 S1                 0.0000
     26 ****        -3.2882   1.9498  -2.0290 H              1 S1                 0.0000
     27 ****        -1.9340   0.8224  -1.9661 H              1 S1                 0.0000
     28 ****        -4.2768   2.5668   0.5719 H              1 S1                 0.0000
     29 ****        -4.2208   0.9715  -0.1406 H              1 S1                 0.0000
     30 ****        -4.0664   1.6527   2.8411 H              1 S1                 0.0000
     31 ****        -5.4543   0.9845   2.0165 H              1 S1                 0.0000
     32 ****        -4.1473  -0.7859   3.2235 H              1 S1                 0.0000
     33 ****        -4.2281  -1.0922   1.5006 H              1 S1                 0.0000
     34 ****        -1.9051   0.1847   3.0125 H              1 S1                 0.0000
     35 ****        -1.9135  -1.4002   2.2751 H              1 S1                 0.0000
     36 ****        -2.2170  -0.3826   0.0301 H              1 S1                 0.0000
     37 ****        -0.4196  -0.7187  -1.0680 H              1 S1                 0.0000
     38 ****         1.7692  -0.6203  -1.7243 H              1 S1                 0.0000
     39 ****         2.1997   0.3169  -0.3127 H              1 S1                 0.0000
     40 ****         2.0647  -1.7801   1.0950 H              1 S1                 0.0000
     41 ****         1.6337  -2.6978  -0.3180 H              1 S1                 0.0000
     42 ****         4.7998  -1.0347   1.3831 H              1 S1                 0.0000
     43 ****         6.1862  -3.5494  -2.9798 H              1 S1                 0.0000
     44 ****         7.2587  -3.7676  -1.5824 H              1 S1                 0.0000
     45 ****         7.2545  -2.2269  -2.4698 H              1 S1                 0.0000
     46 ****         3.7777  -3.1302  -2.2319 H              1 S1                 0.0000
     47 ****        -2.0528   2.1429   1.4592 LP             1 S1                 0.0000
     48 ****        -0.0129   0.9888   2.4773 LP             1 S1                 0.0000
     49 ****         1.4121   0.5100   1.6172 LP             1 S1                 0.0000
     50 ****         6.8652  -1.6963   0.2225 LP             1 S1                 0.0000
@<TRIPOS>BOND
    1    1    2 1     
    2    1   21 1     
    3    1   22 1     
    4    1   23 1     
    5    2    3 1     
    6    2    4 1     
    7    2   24 1     
    8    3   25 1     
    9    3   26 1     
   10    3   27 1     
   11    4    9 1     
   12    4    5 1     
   13    5    6 1     
   14    5   28 1     
   15    5   29 1     
   16    6    7 1     
   17    6   30 1     
   18    6   31 1     
   19    7    8 1     
   20    7   32 1     
   21    7   33 1     
   22    8    9 1     
   23    8   34 1     
   24    8   35 1     
   25    9   10 1     
   26    9   36 1     
   27   10   11 2     
   28   10   12 am    
   29   12   13 1     
   30   12   37 1     
   31   13   14 1     
   32   13   38 1     
   33   13   39 1     
   34   14   15 1     
   35   14   40 1     
   36   14   41 1     
   37   15   20 2     
   38   15   16 1     
   39   16   17 2     
   40   16   42 1     
   41   17   18 1     
   42   18   19 1     
   43   18   20 1     
   44   19   43 1     
   45   19   44 1     
   46   19   45 1     
   47   20   46 1     
   48    4   47 1     
   49   11   48 1     
   50   11   49 1     
   51   17   50 1     
@<TRIPOS>SUBSTRUCTURE
      1 S1             1
@<TRIPOS>SET
LONE_PAIRS      STATIC     ATOMS    <user>   **** ""
4 47 48 49 50
DONOR_HYDROGENS      STATIC     ATOMS    <user>   **** ""
1 37
ATOM$BLUE        STATIC     ATOMS    COLORGROUP SYSTEM
4 47 48 49 50
ATOM$RED        STATIC     ATOMS    COLORGROUP SYSTEM
1 37
