#       Name:                AV-unprocessed.smi:1047
#       Creating user name   scv26
#       Creation time:       Fri Mar 27 03:08:41 2020


#       File generated by GOLD software.
#

@<TRIPOS>MOLECULE
AV-unprocessed.smi:1047
    62    64     1
SMALL
NO_CHARGES


@<TRIPOS>ATOM
      1 ****        -4.5421   3.4003   1.9208 C.3            1 S1                 0.0000
      2 ****        -4.7053   3.7249   0.4291 C.3            1 S1                 0.0000
      3 ****        -5.2680   2.5862  -0.3446 N.4            1 S1                 1.0000
      4 ****        -5.8694   2.9913  -1.6386 C.3            1 S1                 0.0000
      5 ****        -4.7846   3.2467  -2.7003 C.3            1 S1                 0.0000
      6 ****        -3.9787   2.0831  -2.8424 O.3            1 S1                 0.0000
      7 ****        -3.2922   1.7424  -1.6425 C.3            1 S1                 0.0000
      8 ****        -2.3970   0.5312  -1.9484 C.3            1 S1                 0.0000
      9 ****        -1.4373   0.2913  -0.8741 N.3            1 S1                 0.0000
     10 ****        -0.5513  -0.8410  -1.1305 C.3            1 S1                 0.0000
     11 ****         0.4287  -1.0586   0.0348 C.3            1 S1                 0.0000
     12 ****         1.4493  -0.0845  -0.0599 O.3            1 S1                 0.0000
     13 ****         1.0595  -2.4651  -0.0067 C.3            1 S1                 0.0000
     14 ****         1.9864  -2.7133   1.1077 N.pl3          1 S1                 0.0000
     15 ****         1.7304  -3.1670   2.3647 C.2            1 S1                 0.0000
     16 ****         2.9177  -3.2334   3.0278 N.pl3          1 S1                 1.0000
     17 ****         3.9477  -2.8149   2.1829 C.ar           1 S1                 0.0000
     18 ****         5.3161  -2.7064   2.4013 C.ar           1 S1                 0.0000
     19 ****         6.1058  -2.2385   1.3270 C.ar           1 S1                 0.0000
     20 ****         7.6052  -2.1056   1.5330 C.3            1 S1                 0.0000
     21 ****         5.5161  -1.8970   0.0824 C.ar           1 S1                 0.0000
     22 ****         6.3737  -1.3896  -1.0644 C.3            1 S1                 0.0000
     23 ****         4.1226  -2.0166  -0.1202 C.ar           1 S1                 0.0000
     24 ****         3.3580  -2.4794   0.9485 C.ar           1 S1                 0.0000
     25 ****        -4.3380   1.4445  -0.5428 C.3            1 S1                 0.0000
     26 ****        -4.2261   4.2868   2.4714 H              1 S1                 0.0000
     27 ****        -3.7906   2.6307   2.0941 H              1 S1                 0.0000
     28 ****        -5.4822   3.0606   2.3568 H              1 S1                 0.0000
     29 ****        -5.3849   4.5744   0.3503 H              1 S1                 0.0000
     30 ****        -3.7563   4.0548   0.0072 H              1 S1                 0.0000
     31 ****        -6.5234   2.1875  -1.9794 H              1 S1                 0.0000
     32 ****        -6.5046   3.8687  -1.5124 H              1 S1                 0.0000
     33 ****        -5.2478   3.4719  -3.6610 H              1 S1                 0.0000
     34 ****        -4.1663   4.1066  -2.4390 H              1 S1                 0.0000
     35 ****        -2.6559   2.5810  -1.3555 H              1 S1                 0.0000
     36 ****        -3.0113  -0.3538  -2.1185 H              1 S1                 0.0000
     37 ****        -1.8559   0.7153  -2.8774 H              1 S1                 0.0000
     38 ****        -1.9305   0.1455   0.0009 H              1 S1                 0.0000
     39 ****        -1.1576  -1.7391  -1.2558 H              1 S1                 0.0000
     40 ****        -0.0069  -0.7047  -2.0663 H              1 S1                 0.0000
     41 ****        -0.0893  -0.9328   0.9869 H              1 S1                 0.0000
     42 ****         1.0470   0.7708  -0.0505 H              1 S1                 0.0000
     43 ****         0.2769  -3.2221   0.0578 H              1 S1                 0.0000
     44 ****         1.5755  -2.6419  -0.9507 H              1 S1                 0.0000
     45 ****         0.7609  -3.4287   2.7636 H              1 S1                 0.0000
     46 ****         5.7575  -2.9665   3.3524 H              1 S1                 0.0000
     47 ****         7.9193  -1.0704   1.3979 H              1 S1                 0.0000
     48 ****         8.1472  -2.7284   0.8210 H              1 S1                 0.0000
     49 ****         7.8995  -2.4149   2.5365 H              1 S1                 0.0000
     50 ****         5.7714  -1.1714  -1.9470 H              1 S1                 0.0000
     51 ****         7.1183  -2.1348  -1.3455 H              1 S1                 0.0000
     52 ****         6.8904  -0.4729  -0.7794 H              1 S1                 0.0000
     53 ****         3.6738  -1.7497  -1.0656 H              1 S1                 0.0000
     54 ****        -3.8525   1.1713   0.3930 H              1 S1                 0.0000
     55 ****        -4.9308   0.5771  -0.8362 H              1 S1                 0.0000
     56 ****        -6.0331   2.2407   0.2174 H              1 S1                 0.0000
     57 ****         3.0149  -3.5420   3.9867 H              1 S1                 0.0000
     58 ****        -3.3039   2.2468  -3.5619 LP             1 S1                 0.0000
     59 ****        -4.5657   1.3170  -3.1040 LP             1 S1                 0.0000
     60 ****        -0.8588   1.1052  -0.8211 LP             1 S1                 0.0000
     61 ****         1.9574  -0.2094  -0.9120 LP             1 S1                 0.0000
     62 ****         2.0735  -0.1727   0.7164 LP             1 S1                 0.0000
@<TRIPOS>BOND
    1    1    2 1     
    2    1   26 1     
    3    1   27 1     
    4    1   28 1     
    5    2    3 1     
    6    2   29 1     
    7    2   30 1     
    8    3   25 1     
    9    3    4 1     
   10    3   56 1     
   11    4    5 1     
   12    4   31 1     
   13    4   32 1     
   14    5    6 1     
   15    5   33 1     
   16    5   34 1     
   17    6    7 1     
   18    7    8 1     
   19    7   25 1     
   20    7   35 1     
   21    8    9 1     
   22    8   36 1     
   23    8   37 1     
   24    9   10 1     
   25    9   38 1     
   26   10   11 1     
   27   10   39 1     
   28   10   40 1     
   29   11   12 1     
   30   11   13 1     
   31   11   41 1     
   32   12   42 1     
   33   13   14 1     
   34   13   43 1     
   35   13   44 1     
   36   14   24 1     
   37   14   15 1     
   38   15   16 2     
   39   15   45 1     
   40   16   17 1     
   41   16   57 1     
   42   17   24 ar    
   43   17   18 ar    
   44   18   19 ar    
   45   18   46 1     
   46   19   20 1     
   47   19   21 ar    
   48   20   47 1     
   49   20   48 1     
   50   20   49 1     
   51   21   22 1     
   52   21   23 ar    
   53   22   50 1     
   54   22   51 1     
   55   22   52 1     
   56   23   24 ar    
   57   23   53 1     
   58   25   54 1     
   59   25   55 1     
   60    6   58 1     
   61    6   59 1     
   62    9   60 1     
   63   12   61 1     
   64   12   62 1     
@<TRIPOS>SUBSTRUCTURE
      1 S1             1
@<TRIPOS>SET
LONE_PAIRS      STATIC     ATOMS    <user>   **** ""
5 58 59 60 61 62
DONOR_HYDROGENS      STATIC     ATOMS    <user>   **** ""
4 56 38 42 57
ATOM$BLUE        STATIC     ATOMS    COLORGROUP SYSTEM
5 58 59 60 61 62
ATOM$RED        STATIC     ATOMS    COLORGROUP SYSTEM
4 56 38 42 57
