AV-unprocessed.smi:2297|AV-procd|sdf|9222|dock7
  -GOLD-   2272012443D 1   1.00000     0.00000
 Structure written by MMmdl.
 44 45  0  0  0  0  0  0  0  0  1 V2000
  151.7516  145.3216  159.1950 C   0  0  0  0  0  0  0  0  0  0  0  0
  152.0657  143.8402  159.1541 C   0  0  0  0  0  0  0  0  0  0  0  0
  152.7589  143.2294  160.2182 C   0  0  0  0  0  0  0  0  0  0  0  0
  153.0486  141.8519  160.1737 C   0  0  0  0  0  0  0  0  0  0  0  0
  153.7956  141.2023  161.3203 C   0  0  0  0  0  0  0  0  0  0  0  0
  152.6416  141.0871  159.0615 C   0  0  0  0  0  0  0  0  0  0  0  0
  151.9475  141.6826  157.9886 C   0  0  0  0  0  0  0  0  0  0  0  0
  151.5889  140.8586  156.9437 O   0  0  0  0  0  0  0  0  0  0  0  0
  150.8839  141.4276  155.8466 C   0  0  0  0  0  0  0  0  0  0  0  0
  149.9966  140.3630  155.1792 C   0  0  2  0  0  0  0  0  0  0  0  0
  150.8018  139.6340  154.2747 O   0  0  0  0  0  0  0  0  0  0  0  0
  148.7739  140.9649  154.4504 C   0  0  0  0  0  0  0  0  0  0  0  0
  147.8052  139.9336  154.0431 N   0  0  0  0  0  0  0  0  0  0  0  0
  147.4953  139.8765  152.6746 C   0  0  0  0  0  0  0  0  0  0  0  0
  146.6593  139.0099  152.2033 N   0  0  0  0  0  0  0  0  0  0  0  0
  146.0366  138.1018  153.0646 C   0  0  0  0  0  0  0  0  0  0  0  0
  145.0664  137.1352  152.4091 C   0  0  0  0  0  0  0  0  0  0  0  0
  146.2964  138.1026  154.4007 C   0  0  0  0  0  0  0  0  0  0  0  0
  145.6437  137.1429  155.3879 C   0  0  0  0  0  0  0  0  0  0  0  0
  147.2536  139.0763  154.9498 C   0  0  0  0  0  0  0  0  0  0  0  0
  147.5482  139.1223  156.1458 O   0  0  0  0  0  0  0  0  0  0  0  0
  151.6630  143.0703  158.0441 C   0  0  0  0  0  0  0  0  0  0  0  0
  152.0291  145.7620  160.1532 H   0  0  0  0  0  0  0  0  0  0  0  0
  150.6849  145.4871  159.0420 H   0  0  0  0  0  0  0  0  0  0  0  0
  152.2969  145.8439  158.4086 H   0  0  0  0  0  0  0  0  0  0  0  0
  153.0703  143.8158  161.0705 H   0  0  0  0  0  0  0  0  0  0  0  0
  153.9326  140.1336  161.1526 H   0  0  0  0  0  0  0  0  0  0  0  0
  153.2454  141.3326  162.2524 H   0  0  0  0  0  0  0  0  0  0  0  0
  154.7794  141.6576  161.4356 H   0  0  0  0  0  0  0  0  0  0  0  0
  152.8621  140.0301  159.0256 H   0  0  0  0  0  0  0  0  0  0  0  0
  150.2820  142.2812  156.1643 H   0  0  0  0  0  0  0  0  0  0  0  0
  151.6053  141.7872  155.1112 H   0  0  0  0  0  0  0  0  0  0  0  0
  149.6736  139.6689  155.9560 H   0  0  0  0  0  0  0  0  0  0  0  0
  150.2691  138.9701  153.8644 H   0  0  0  0  0  0  0  0  0  0  0  0
  148.2669  141.6660  155.1161 H   0  0  0  0  0  0  0  0  0  0  0  0
  149.0958  141.5827  153.6092 H   0  0  0  0  0  0  0  0  0  0  0  0
  148.0081  140.6061  152.0453 H   0  0  0  0  0  0  0  0  0  0  0  0
  144.0614  137.2751  152.8077 H   0  0  0  0  0  0  0  0  0  0  0  0
  145.3733  136.1046  152.5891 H   0  0  0  0  0  0  0  0  0  0  0  0
  145.0226  137.2860  151.3299 H   0  0  0  0  0  0  0  0  0  0  0  0
  146.4050  136.5560  155.9030 H   0  0  0  0  0  0  0  0  0  0  0  0
  144.9547  136.4440  154.9169 H   0  0  0  0  0  0  0  0  0  0  0  0
  145.0822  137.7011  156.1381 H   0  0  0  0  0  0  0  0  0  0  0  0
  151.1351  143.5678  157.2447 H   0  0  0  0  0  0  0  0  0  0  0  0
  1  2  1  0  0  0  0
  1 23  1  0  0  0  0
  1 24  1  0  0  0  0
  1 25  1  0  0  0  0
  2 22  1  0  0  0  0
  2  3  2  0  0  0  0
  3  4  1  0  0  0  0
  3 26  1  0  0  0  0
  4  5  1  0  0  0  0
  4  6  2  0  0  0  0
  5 27  1  0  0  0  0
  5 28  1  0  0  0  0
  5 29  1  0  0  0  0
  6  7  1  0  0  0  0
  6 30  1  0  0  0  0
  7  8  1  0  0  0  0
  7 22  2  0  0  0  0
  8  9  1  0  0  0  0
  9 10  1  0  0  0  0
  9 31  1  0  0  0  0
  9 32  1  0  0  0  0
 10 11  1  0  0  0  0
 10 12  1  0  0  0  0
 10 33  1  0  0  0  0
 11 34  1  0  0  0  0
 12 13  1  0  0  0  0
 12 35  1  0  0  0  0
 12 36  1  0  0  0  0
 13 20  1  0  0  0  0
 13 14  1  0  0  0  0
 14 15  2  0  0  0  0
 14 37  1  0  0  0  0
 15 16  1  0  0  0  0
 16 17  1  0  0  0  0
 16 18  2  0  0  0  0
 17 38  1  0  0  0  0
 17 39  1  0  0  0  0
 17 40  1  0  0  0  0
 18 19  1  0  0  0  0
 18 20  1  0  0  0  0
 19 41  1  0  0  0  0
 19 42  1  0  0  0  0
 19 43  1  0  0  0  0
 20 21  2  0  0  0  0
 22 44  1  0  0  0  0
M  END
> <s_m_source_file>
AV-unprocessed.smi

> <i_m_source_file_index>
2297

> <i_lp_mmshare_version>
43012

> <i_f3d_flags>
0

> <s_epik_input>
W0NIM11jMVtjSF1jKFtDSDNdKVtjSF1jKFtjSF0xKU9bQ0gyXVtDQEhdKFtPSF0pW0NIMl1uMltjSF1uYyhbQ0gzXSljKFtDSDNdKWMyPU8=

> <s_epik_cmdline>
J2VwaWtfcHl0aG9uJywgJy1waCcsICc3LjAnLCAnLXRuJywgJzgnLCAnLW1hJywgJzIwMCcsICctbWV0YWxfYmluZGluZycsICctaW1hZScsICc8aW5maWxlLm1hZT4nLCAnLW9tYWUnLCAnPG91dGZpbGUubWFlPic=

> <r_lp_tautomer_probability>
1

> <r_epik_Ionization_Penalty>
3.72236e-05

> <r_epik_Ionization_Penalty_Charging>
8.38864e-08

> <r_epik_Ionization_Penalty_Neutral>
3.71397e-05

> <r_epik_State_Penalty>
-0

> <r_epik_Charging_Adjusted_Penalty>
8.38864e-08

> <i_epik_Tot_Q>
0

> <i_epik_Tot_abs_Q>
0

> <r_epik_Metal_State_Penalty>
-0

> <b_epik_Metal_Only>
0

> <s_lp_Force_Field>
OPLS_2005

> <r_lp_Energy>
24.6499

> <b_lp_Chiralities_Consistent>
1

> <s_lp_Variant>
AV-unprocessed.smi:2297-1

> <Gold.Version>
5.8.1

> <Gold.Id.Protein>
6NUR|6NUR_protein|mol2

> <Gold.PLP.Fitness>
46.0690

> <Gold.PLP.PLP>
-41.4944

> <Gold.PLP.part.hbond>
-1.0000

> <Gold.PLP.part.metal>
0.0000

> <Gold.PLP.part.buried>
-4.1690

> <Gold.PLP.part.nonpolar>
-36.8654

> <Gold.PLP.part.repulsive>
0.3181

> <Gold.PLP.ligand.clash>
0.0000

> <Gold.PLP.ligand.torsion>
0.5081

> <Gold.PLP.Chemscore.Hbond>
1.0000

> <Gold.PLP.Chemscore.CHOScore>
0.8345

> <Gold.PLP.Chemscore.Metal>
0.0000

> <Gold.Chemscore.Hbonds>
donor molecule, donor type, donor heavy atom, donor atom, acceptor molecule, acceptor atom, score
      P1  H  7989  7998       L1    11  1.00
      L1  C    14    37       P1  7957  0.50

> <Gold.PLP.Chemscore.Internal.Correction>
0.0874

> <Gold.Rescore>
     Score         DG    S(hbond)    S(metal)    S(lipo)     H(rot)  DE(clash)    DE(int)     intcor
     14.50     -16.31       0.93        0.00     116.91       2.32       0.12       1.69       ----

> <Gold.Chemscore.Fitness>
14.5026

> <Gold.Chemscore.DG>
-16.3073

> <Gold.Chemscore.ZeroCoef>
-5.4800

> <Gold.Chemscore.Hbond>
0.9274

> <Gold.Chemscore.Metal>
0.0000

> <Gold.Chemscore.Lipo>
116.9084

> <Gold.Chemscore.Internal_Hbond>
0.0000

> <Gold.Chemscore.DEClash>
0.1166

> <Gold.Chemscore.DEInternal>
1.6881

> <Gold.Chemscore.Rot>
2.3236

> <Gold.Chemscore.Internal.Correction>
   9.000000E+99

> <Gold.Chemscore.Hbonds>
donor molecule, donor type, donor heavy atom, donor atom, acceptor molecule, acceptor atom, score
      P1  H  7989  7998       L1    11  0.35

> <Gold.Chemscore.Hbond.Weighted>
-3.0974

> <Gold.Chemscore.Metal.Weighted>
-0.0000

> <Gold.Chemscore.Lipo.Weighted>
-13.6783

> <Gold.Chemscore.Internal_Hbond.Weighted>
0.0000

> <Gold.Chemscore.DEClash.Weighted>
0.1166

> <Gold.Chemscore.DEInternal.Weighted>
1.6881

> <Gold.Chemscore.Rot.Weighted>
5.9484

> <Gold.Chemscore.Internal.Correction.Weighted>
   9.000000E+99

> <Gold.Protein.RotatedTorsions>
[ 6907 6896 6895 6894 ] final  -67.35 input  -60.11 | X-H torsion
[ 7974 7965 7964 7962 ] final  121.42 input  175.53 | X-H torsion
[ 8008 7997 7996 7995 ] final   46.51 input   59.86 | X-H torsion
[ 10167 10162 10161 10158 ] final  -64.22 input  -65.29 | X-H torsion
[ 10718 10713 10712 10709 ] final -138.98 input   66.30 | X-H torsion
[ 10763 10752 10751 10750 ] final   49.62 input  -60.55 | X-H torsion
[ 11005 11000 10999 10996 ] final  155.97 input  -57.11 | X-H torsion

> <Gold.Protein.ActiveResidues>
 VAL166  LYS551  ARG553  GLY616  TRP617  ASP618  TYR619  PRO620  LYS621  CYS622 
 ASP623  PHE694  ASN695  SER759  ASP760  ASP761  ALA762  ILE779  LEU786  VAL792 
 PHE793  MET794  SER795  GLU796  ALA797  LYS798  CYS799  TRP800  GLU811  SER814 

> <Gold.Protein.RotatedAtoms>
  150.7414  134.5893  159.5978 H   0  0  0  0  0  0  0  0  0  0  0  0  # atno 6907 bound_to 6896
  152.3285  134.7287  160.0304 H   0  0  0  0  0  0  0  0  0  0  0  0  # atno 6908 bound_to 6896
  151.7779  133.3311  159.3499 H   0  0  0  0  0  0  0  0  0  0  0  0  # atno 6909 bound_to 6896
  145.1195  139.3398  143.4721 H   0  0  0  0  0  0  0  0  0  0  0  0  # atno 7974 bound_to 7965
  155.3537  140.3415  155.4239 H   0  0  0  0  0  0  0  0  0  0  0  0  # atno 8008 bound_to 7997
  156.1750  140.1644  156.8413 H   0  0  0  0  0  0  0  0  0  0  0  0  # atno 8009 bound_to 7997
  154.5273  140.0753  156.8264 H   0  0  0  0  0  0  0  0  0  0  0  0  # atno 8010 bound_to 7997
  140.5816  143.2328  151.6331 H   0  0  0  0  0  0  0  0  0  0  0  0  # atno 10167 bound_to 10162
  156.3055  130.7452  151.1515 H   0  0  0  0  0  0  0  0  0  0  0  0  # atno 10718 bound_to 10713
  152.9786  135.5905  154.4119 H   0  0  0  0  0  0  0  0  0  0  0  0  # atno 10763 bound_to 10752
  154.3753  135.2767  155.2244 H   0  0  0  0  0  0  0  0  0  0  0  0  # atno 10764 bound_to 10752
  154.4182  135.6065  153.6048 H   0  0  0  0  0  0  0  0  0  0  0  0  # atno 10765 bound_to 10752
  140.1631  134.8595  157.2599 H   0  0  0  0  0  0  0  0  0  0  0  0  # atno 11005 bound_to 11000
  146.3522  140.1148  142.8602 LP  0  0  0  0  0  0  0  0  0  0  0  0  # atno 17320 bound_to 7965
  145.0756  140.9186  143.4856 LP  0  0  0  0  0  0  0  0  0  0  0  0  # atno 17321 bound_to 7965
  139.5173  144.3320  152.0818 LP  0  0  0  0  0  0  0  0  0  0  0  0  # atno 17342 bound_to 10162
  140.2471  144.4208  150.6237 LP  0  0  0  0  0  0  0  0  0  0  0  0  # atno 17343 bound_to 10162
  157.7378  131.0547  150.5331 LP  0  0  0  0  0  0  0  0  0  0  0  0  # atno 17370 bound_to 10713
  156.5463  130.4220  149.6129 LP  0  0  0  0  0  0  0  0  0  0  0  0  # atno 17371 bound_to 10713
  140.2465  134.3733  155.7459 LP  0  0  0  0  0  0  0  0  0  0  0  0  # atno 17394 bound_to 11000
  141.2211  133.7293  156.8870 LP  0  0  0  0  0  0  0  0  0  0  0  0  # atno 17395 bound_to 11000

$$$$
