AV-unprocessed.smi:1797|AV-procd|sdf|7258|dock8
  -GOLD-   22720 8513D 1   1.00000     0.00000
 Structure written by MMmdl.
 29 30  0  0  0  0  0  0  0  0  2 V2000
  148.3334  140.3726  154.4533 C   0  0  0  0  0  0  0  0  0  0  0  0
  149.3930  139.3332  154.5856 C   0  0  0  0  0  0  0  0  0  0  0  0
  150.6957  139.6149  154.5043 N   0  0  0  0  0  0  0  0  0  0  0  0
  151.4855  138.4846  154.6577 N   0  0  0  0  0  0  0  0  0  0  0  0
  150.7719  137.3687  154.8651 C   0  0  0  0  0  0  0  0  0  0  0  0
  151.3454  136.1642  155.0428 N   0  5  0  0  0  0  0  0  0  0  0  0
  150.6230  135.0223  155.1887 C   0  0  0  0  0  0  0  0  0  0  0  0
  150.7959  134.2290  156.1131 O   0  0  0  0  0  0  0  0  0  0  0  0
  149.6724  134.7575  154.2711 N   0  0  0  0  0  0  0  0  0  0  0  0
  148.7998  133.5878  154.2402 C   0  0  1  0  0  0  0  0  0  0  0  0
  147.9119  133.5974  152.9869 C   0  0  0  0  0  0  0  0  0  0  0  0
  146.9918  132.3666  152.9526 C   0  0  0  0  0  0  0  0  0  0  0  0
  147.7113  131.0525  153.2917 C   0  0  0  0  0  0  0  0  0  0  0  0
  147.1846  129.9817  152.9971 O   0  0  0  0  0  0  0  0  0  0  0  0
  148.8889  131.1012  153.9391 N   0  0  0  0  0  0  0  0  0  0  0  0
  149.6524  132.3066  154.2607 C   0  0  0  0  0  0  0  0  0  0  0  0
  149.0294  137.6387  154.8658 S   0  0  0  0  0  0  0  0  0  0  0  0
  148.2215  140.9119  155.3940 H   0  0  0  0  0  0  0  0  0  0  0  0
  147.3796  139.9102  154.1986 H   0  0  0  0  0  0  0  0  0  0  0  0
  148.5961  141.0830  153.6689 H   0  0  0  0  0  0  0  0  0  0  0  0
  149.5479  135.4321  153.5305 H   0  0  0  0  0  0  0  0  0  0  0  0
  148.1631  133.5904  155.1271 H   0  0  0  0  0  0  0  0  0  0  0  0
  147.3048  134.5030  152.9586 H   0  0  0  0  0  0  0  0  0  0  0  0
  148.5336  133.6161  152.0903 H   0  0  0  0  0  0  0  0  0  0  0  0
  146.1874  132.4965  153.6773 H   0  0  0  0  0  0  0  0  0  0  0  0
  146.5191  132.2822  151.9737 H   0  0  0  0  0  0  0  0  0  0  0  0
  149.3212  130.2206  154.1786 H   0  0  0  0  0  0  0  0  0  0  0  0
  150.4600  132.3829  153.5311 H   0  0  0  0  0  0  0  0  0  0  0  0
  150.1230  132.1811  155.2362 H   0  0  0  0  0  0  0  0  0  0  0  0
  1  2  1  0  0  0  0
  1 18  1  0  0  0  0
  1 19  1  0  0  0  0
  1 20  1  0  0  0  0
  2 17  1  0  0  0  0
  2  3  2  0  0  0  0
  3  4  1  0  0  0  0
  4  5  2  0  0  0  0
  5  6  1  0  0  0  0
  5 17  1  0  0  0  0
  6  7  1  0  0  0  0
  7  8  2  0  0  0  0
  7  9  1  0  0  0  0
  9 10  1  0  0  0  0
  9 21  1  0  0  0  0
 10 16  1  0  0  0  0
 10 11  1  0  0  0  0
 10 22  1  0  0  0  0
 11 12  1  0  0  0  0
 11 23  1  0  0  0  0
 11 24  1  0  0  0  0
 12 13  1  0  0  0  0
 12 25  1  0  0  0  0
 12 26  1  0  0  0  0
 13 14  2  0  0  0  0
 13 15  1  0  0  0  0
 15 16  1  0  0  0  0
 15 27  1  0  0  0  0
 16 28  1  0  0  0  0
 16 29  1  0  0  0  0
M  CHG  1   6  -1
M  END
> <s_m_source_file>
AV-unprocessed.smi

> <i_m_source_file_index>
1797

> <i_lp_mmshare_version>
43012

> <i_f3d_flags>
0

> <s_epik_input>
W0NIM11jMW5uYyhzMSlbTkhdQyg9TylbTkhdW0NAQEhdMltDSDJdW0NIMl1DKD1PKVtOSF1bQ0gyXTI=

> <s_epik_cmdline>
J2VwaWtfcHl0aG9uJywgJy1waCcsICc3LjAnLCAnLXRuJywgJzgnLCAnLW1hJywgJzIwMCcsICctbWV0YWxfYmluZGluZycsICctaW1hZScsICc8aW5maWxlLm1hZT4nLCAnLW9tYWUnLCAnPG91dGZpbGUubWFlPic=

> <r_lp_tautomer_probability>
1

> <r_epik_Ionization_Penalty>
3.31792

> <r_epik_Ionization_Penalty_Charging>
3.17379

> <r_epik_Ionization_Penalty_Neutral>
0.144127

> <r_epik_State_Penalty>
3.17099

> <r_epik_Charging_Adjusted_Penalty>
6.34478

> <i_epik_Tot_Q>
-1

> <i_epik_Tot_abs_Q>
1

> <r_epik_Metal_State_Penalty>
0.468583

> <b_epik_Metal_Only>
1

> <s_lp_Force_Field>
OPLS_2005

> <r_lp_Energy>
8.48183

> <b_lp_Chiralities_Consistent>
1

> <s_lp_Variant>
AV-unprocessed.smi:1797-4

> <Gold.Version>
5.8.1

> <Gold.Id.Protein>
6NUR|6NUR_protein|mol2

> <Gold.PLP.Fitness>
34.6179

> <Gold.PLP.PLP>
-24.0239

> <Gold.PLP.part.hbond>
-3.0000

> <Gold.PLP.part.metal>
0.0000

> <Gold.PLP.part.buried>
-4.3798

> <Gold.PLP.part.nonpolar>
-18.5827

> <Gold.PLP.part.repulsive>
0.5451

> <Gold.PLP.ligand.clash>
0.0000

> <Gold.PLP.ligand.torsion>
0.4786

> <Gold.PLP.Chemscore.Hbond>
3.8500

> <Gold.PLP.Chemscore.CHOScore>
0.0000

> <Gold.PLP.Chemscore.Metal>
0.0000

> <Gold.Chemscore.Hbonds>
donor molecule, donor type, donor heavy atom, donor atom, acceptor molecule, acceptor atom, score
      L1  H     9    21       P1  7948  0.75
      P1  H  7989  7998       L1     3  1.00
      P1  H 10752 10764       L1     6  2.00

> <Gold.PLP.Chemscore.Internal.Correction>
0.0012

> <Gold.Rescore>
     Score         DG    S(hbond)    S(metal)    S(lipo)     H(rot)  DE(clash)    DE(int)     intcor
     12.20     -13.82       2.01        0.00      35.85       1.00       0.01       1.61       ----

> <Gold.Chemscore.Fitness>
12.1957

> <Gold.Chemscore.DG>
-13.8152

> <Gold.Chemscore.ZeroCoef>
-5.4800

> <Gold.Chemscore.Hbond>
2.0060

> <Gold.Chemscore.Metal>
0.0000

> <Gold.Chemscore.Lipo>
35.8549

> <Gold.Chemscore.Internal_Hbond>
0.0000

> <Gold.Chemscore.DEClash>
0.0059

> <Gold.Chemscore.DEInternal>
1.6136

> <Gold.Chemscore.Rot>
1.0000

> <Gold.Chemscore.Internal.Correction>
   9.000000E+99

> <Gold.Chemscore.Hbonds>
donor molecule, donor type, donor heavy atom, donor atom, acceptor molecule, acceptor atom, score
      L1  H     9    21       P1  7948  0.09
      P1  H  7989  7998       L1     3  0.70
      P1  H 10752 10764       L1     6  0.45

> <Gold.Chemscore.Hbond.Weighted>
-6.7002

> <Gold.Chemscore.Metal.Weighted>
-0.0000

> <Gold.Chemscore.Lipo.Weighted>
-4.1950

> <Gold.Chemscore.Internal_Hbond.Weighted>
0.0000

> <Gold.Chemscore.DEClash.Weighted>
0.0059

> <Gold.Chemscore.DEInternal.Weighted>
1.6136

> <Gold.Chemscore.Rot.Weighted>
2.5600

> <Gold.Chemscore.Internal.Correction.Weighted>
   9.000000E+99

> <Gold.Protein.RotatedTorsions>
[ 6907 6896 6895 6894 ] final  134.00 input  -60.11 | X-H torsion
[ 7974 7965 7964 7962 ] final  103.95 input  175.53 | X-H torsion
[ 8008 7997 7996 7995 ] final  148.45 input   59.86 | X-H torsion
[ 10167 10162 10161 10158 ] final   26.83 input  -65.29 | X-H torsion
[ 10718 10713 10712 10709 ] final  143.59 input   66.30 | X-H torsion
[ 10763 10752 10751 10750 ] final  -62.42 input  -60.55 | X-H torsion
[ 11005 11000 10999 10996 ] final  133.09 input  -57.11 | X-H torsion

> <Gold.Protein.ActiveResidues>
 VAL166  LYS551  ARG553  GLY616  TRP617  ASP618  TYR619  PRO620  LYS621  CYS622 
 ASP623  PHE694  ASN695  SER759  ASP760  ASP761  ALA762  ILE779  LEU786  VAL792 
 PHE793  MET794  SER795  GLU796  ALA797  LYS798  CYS799  TRP800  GLU811  SER814 

> <Gold.Protein.RotatedAtoms>
  152.3160  133.5802  159.5711 H   0  0  0  0  0  0  0  0  0  0  0  0  # atno 6907 bound_to 6896
  150.7346  134.0082  159.3670 H   0  0  0  0  0  0  0  0  0  0  0  0  # atno 6908 bound_to 6896
  151.7971  135.0720  160.0446 H   0  0  0  0  0  0  0  0  0  0  0  0  # atno 6909 bound_to 6896
  145.3392  139.2466  143.3618 H   0  0  0  0  0  0  0  0  0  0  0  0  # atno 7974 bound_to 7965
  156.2790  140.2128  156.5701 H   0  0  0  0  0  0  0  0  0  0  0  0  # atno 8008 bound_to 7997
  154.7143  140.0509  157.0602 H   0  0  0  0  0  0  0  0  0  0  0  0  # atno 8009 bound_to 7997
  155.0564  140.3162  155.4678 H   0  0  0  0  0  0  0  0  0  0  0  0  # atno 8010 bound_to 7997
  140.4989  144.0346  150.6325 H   0  0  0  0  0  0  0  0  0  0  0  0  # atno 10167 bound_to 10162
  157.3672  131.0973  151.0861 H   0  0  0  0  0  0  0  0  0  0  0  0  # atno 10718 bound_to 10713
  154.2996  135.6237  153.5419 H   0  0  0  0  0  0  0  0  0  0  0  0  # atno 10763 bound_to 10752
  152.9842  135.5675  154.5299 H   0  0  0  0  0  0  0  0  0  0  0  0  # atno 10764 bound_to 10752
  154.4926  135.2868  155.1460 H   0  0  0  0  0  0  0  0  0  0  0  0  # atno 10765 bound_to 10752
  139.9830  134.9541  156.9676 H   0  0  0  0  0  0  0  0  0  0  0  0  # atno 11005 bound_to 11000
  146.3014  140.3986  142.8702 LP  0  0  0  0  0  0  0  0  0  0  0  0  # atno 17320 bound_to 7965
  144.8803  140.7392  143.5990 LP  0  0  0  0  0  0  0  0  0  0  0  0  # atno 17321 bound_to 7965
  140.3637  143.2893  152.0355 LP  0  0  0  0  0  0  0  0  0  0  0  0  # atno 17342 bound_to 10162
  139.4867  144.6283  151.7120 LP  0  0  0  0  0  0  0  0  0  0  0  0  # atno 17343 bound_to 10162
  157.1979  130.6381  149.5728 LP  0  0  0  0  0  0  0  0  0  0  0  0  # atno 17370 bound_to 10713
  155.9748  130.4700  150.6416 LP  0  0  0  0  0  0  0  0  0  0  0  0  # atno 17371 bound_to 10713
  140.5058  134.1052  155.7260 LP  0  0  0  0  0  0  0  0  0  0  0  0  # atno 17394 bound_to 11000
  141.1500  133.8987  157.2122 LP  0  0  0  0  0  0  0  0  0  0  0  0  # atno 17395 bound_to 11000

$$$$
