AV-unprocessed.smi:3|AV-procd|sdf|29|dock3
  -GOLD-   2262015143D 1   1.00000     0.00000
 Structure written by MMmdl.
 34 36  0  0  0  0  0  0  0  0  2 V2000
  151.1081  142.2778  156.5414 C   0  0  0  0  0  0  0  0  0  0  0  0
  151.6890  140.9596  156.7545 N   0  0  0  0  0  0  0  0  0  0  0  0
  152.1072  140.6124  158.1148 C   0  0  0  0  0  0  0  0  0  0  0  0
  152.6559  141.8163  158.8800 C   0  0  1  0  0  0  0  0  0  0  0  0
  151.7019  142.8933  159.4192 C   0  0  0  0  0  0  0  0  0  0  0  0
  152.6141  143.0388  160.6411 C   0  0  1  0  0  0  0  0  0  0  0  0
  151.9929  143.2368  161.8911 O   0  0  0  0  0  0  0  0  0  0  0  0
  153.1265  141.6289  160.3292 C   0  0  0  0  0  0  0  0  0  0  0  0
  151.5724  139.9650  155.7513 C   0  0  0  0  0  0  0  0  0  0  0  0
  152.6649  139.1875  155.5086 N   0  0  0  0  0  0  0  0  0  0  0  0
  152.6828  138.2126  154.5908 C   0  0  0  0  0  0  0  0  0  0  0  0
  151.6260  137.9225  153.8291 N   0  3  0  0  0  0  0  0  0  0  0  0
  150.5124  138.6714  154.0228 C   0  0  0  0  0  0  0  0  0  0  0  0
  149.3023  138.5782  153.3688 N   0  0  0  0  0  0  0  0  0  0  0  0
  148.4266  139.5285  153.8594 C   0  0  0  0  0  0  0  0  0  0  0  0
  149.0573  140.2514  154.8401 C   0  0  0  0  0  0  0  0  0  0  0  0
  150.3969  139.7245  154.9709 C   0  0  0  0  0  0  0  0  0  0  0  0
  153.4614  142.3018  158.3248 H   0  0  0  0  0  0  0  0  0  0  0  0
  153.3880  143.7924  160.4851 H   0  0  0  0  0  0  0  0  0  0  0  0
  149.0597  137.9268  152.6357 H   0  0  0  0  0  0  0  0  0  0  0  0
  151.6464  142.8104  155.7574 H   0  0  0  0  0  0  0  0  0  0  0  0
  151.1682  142.8827  157.4468 H   0  0  0  0  0  0  0  0  0  0  0  0
  150.0552  142.1990  156.2699 H   0  0  0  0  0  0  0  0  0  0  0  0
  151.3038  140.1305  158.6718 H   0  0  0  0  0  0  0  0  0  0  0  0
  152.8828  139.8497  158.0370 H   0  0  0  0  0  0  0  0  0  0  0  0
  151.6297  143.7831  158.7932 H   0  0  0  0  0  0  0  0  0  0  0  0
  150.7152  142.5041  159.6757 H   0  0  0  0  0  0  0  0  0  0  0  0
  151.2342  142.6740  161.9155 H   0  0  0  0  0  0  0  0  0  0  0  0
  152.5761  140.8495  160.8593 H   0  0  0  0  0  0  0  0  0  0  0  0
  154.2038  141.5017  160.4400 H   0  0  0  0  0  0  0  0  0  0  0  0
  153.5735  137.6210  154.4377 H   0  0  0  0  0  0  0  0  0  0  0  0
  147.4225  139.6149  153.4696 H   0  0  0  0  0  0  0  0  0  0  0  0
  148.6207  141.0622  155.4025 H   0  0  0  0  0  0  0  0  0  0  0  0
  151.6482  137.1786  153.1318 H   0  0  0  0  0  0  0  0  0  0  0  0
  1  2  1  0  0  0  0
  1 21  1  0  0  0  0
  1 22  1  0  0  0  0
  1 23  1  0  0  0  0
  2  3  1  0  0  0  0
  2  9  1  0  0  0  0
  3  4  1  0  0  0  0
  3 24  1  0  0  0  0
  3 25  1  0  0  0  0
  4 18  1  0  0  0  0
  4  8  1  0  0  0  0
  4  5  1  0  0  0  0
  5  6  1  0  0  0  0
  5 26  1  0  0  0  0
  5 27  1  0  0  0  0
  6 19  1  0  0  0  0
  6  7  1  0  0  0  0
  6  8  1  0  0  0  0
  7 28  1  0  0  0  0
  8 29  1  0  0  0  0
  8 30  1  0  0  0  0
  9 17  1  0  0  0  0
  9 10  2  0  0  0  0
 10 11  1  0  0  0  0
 11 12  2  0  0  0  0
 11 31  1  0  0  0  0
 12 13  1  0  0  0  0
 12 34  1  0  0  0  0
 13 17  2  0  0  0  0
 13 14  1  0  0  0  0
 14 20  1  0  0  0  0
 14 15  1  0  0  0  0
 15 16  2  0  0  0  0
 15 32  1  0  0  0  0
 16 17  1  0  0  0  0
 16 33  1  0  0  0  0
M  CHG  1  12   1
M  END
> <s_m_source_file>
AV-unprocessed.smi

> <i_m_source_file_index>
3

> <i_lp_mmshare_version>
43012

> <i_f3d_flags>
0

> <s_epik_input>
W25IXTFbY0hdW2NIXWMoYzEyKWMobltjSF1uMilOKFtDSDNdKVtDSDJdW0NASF0zW0NIMl1bQ0BASF0oW09IXSlbQ0gyXTM=

> <s_epik_cmdline>
J2VwaWtfcHl0aG9uJywgJy1waCcsICc3LjAnLCAnLXRuJywgJzgnLCAnLW1hJywgJzIwMCcsICctbWV0YWxfYmluZGluZycsICctaW1hZScsICc8aW5maWxlLm1hZT4nLCAnLW9tYWUnLCAnPG91dGZpbGUubWFlPic=

> <r_lp_tautomer_probability>
1.75997e-05

> <r_epik_Ionization_Penalty>
2.28439

> <r_epik_Ionization_Penalty_Charging>
2.28438

> <r_epik_Ionization_Penalty_Neutral>
1.03791e-05

> <r_epik_State_Penalty>
2.43392

> <r_epik_Charging_Adjusted_Penalty>
4.7183

> <i_epik_Tot_Q>
1

> <i_epik_Tot_abs_Q>
1

> <r_epik_Metal_State_Penalty>
2.4464

> <b_epik_Metal_Only>
0

> <s_lp_Force_Field>
OPLS_2005

> <r_lp_Energy>
16.7386

> <b_lp_Chiralities_Consistent>
1

> <s_lp_Variant>
AV-unprocessed.smi:3-3

> <Gold.Version>
5.8.1

> <Gold.Id.Protein>
6NUR|6NUR_protein|mol2

> <Gold.PLP.Fitness>
51.0496

> <Gold.PLP.PLP>
-39.3012

> <Gold.PLP.part.hbond>
-5.0507

> <Gold.PLP.part.metal>
0.0000

> <Gold.PLP.part.buried>
-3.3240

> <Gold.PLP.part.nonpolar>
-30.6669

> <Gold.PLP.part.repulsive>
0.2190

> <Gold.PLP.ligand.clash>
0.0000

> <Gold.PLP.ligand.torsion>
1.2006

> <Gold.PLP.Chemscore.Hbond>
4.6488

> <Gold.PLP.Chemscore.CHOScore>
0.0000

> <Gold.PLP.Chemscore.Metal>
0.0000

> <Gold.Chemscore.Hbonds>
donor molecule, donor type, donor heavy atom, donor atom, acceptor molecule, acceptor atom, score
      L1  H    12    34       P1  7949  1.76
      L1  H    14    20       P1  7948  2.00
      P1  H  7997  8009       L1    10  0.96

> <Gold.PLP.Chemscore.Internal.Correction>
0.2034

> <Gold.Rescore>
     Score         DG    S(hbond)    S(metal)    S(lipo)     H(rot)  DE(clash)    DE(int)     intcor
     16.39     -17.72       2.48        0.00      74.63       1.86       0.06       1.28       ----

> <Gold.Chemscore.Fitness>
16.3885

> <Gold.Chemscore.DG>
-17.7231

> <Gold.Chemscore.ZeroCoef>
-5.4800

> <Gold.Chemscore.Hbond>
2.4803

> <Gold.Chemscore.Metal>
0.0000

> <Gold.Chemscore.Lipo>
74.6307

> <Gold.Chemscore.Internal_Hbond>
0.0000

> <Gold.Chemscore.DEClash>
0.0572

> <Gold.Chemscore.DEInternal>
1.2774

> <Gold.Chemscore.Rot>
1.8645

> <Gold.Chemscore.Internal.Correction>
   9.000000E+99

> <Gold.Chemscore.Hbonds>
donor molecule, donor type, donor heavy atom, donor atom, acceptor molecule, acceptor atom, score
      L1  H    12    34       P1  7949  0.82
      L1  H    14    20       P1  7948  0.97
      P1  H  7997  8009       L1    10  0.67

> <Gold.Chemscore.Hbond.Weighted>
-8.2843

> <Gold.Chemscore.Metal.Weighted>
-0.0000

> <Gold.Chemscore.Lipo.Weighted>
-8.7318

> <Gold.Chemscore.Internal_Hbond.Weighted>
0.0000

> <Gold.Chemscore.DEClash.Weighted>
0.0572

> <Gold.Chemscore.DEInternal.Weighted>
1.2774

> <Gold.Chemscore.Rot.Weighted>
4.7730

> <Gold.Chemscore.Internal.Correction.Weighted>
   9.000000E+99

> <Gold.Protein.RotatedTorsions>
[ 6907 6896 6895 6894 ] final  -92.06 input  -60.11 | X-H torsion
[ 7974 7965 7964 7962 ] final   58.75 input  175.53 | X-H torsion
[ 8008 7997 7996 7995 ] final -149.06 input   59.86 | X-H torsion
[ 10167 10162 10161 10158 ] final  161.12 input  -65.29 | X-H torsion
[ 10718 10713 10712 10709 ] final  -34.33 input   66.30 | X-H torsion
[ 10763 10752 10751 10750 ] final  -53.71 input  -60.55 | X-H torsion
[ 11005 11000 10999 10996 ] final -102.59 input  -57.11 | X-H torsion

> <Gold.Protein.ActiveResidues>
 VAL166  LYS551  ARG553  GLY616  TRP617  ASP618  TYR619  PRO620  LYS621  CYS622 
 ASP623  PHE694  ASN695  SER759  ASP760  ASP761  ALA762  ILE779  LEU786  VAL792 
 PHE793  MET794  SER795  GLU796  ALA797  LYS798  CYS799  TRP800  GLU811  SER814 

> <Gold.Protein.RotatedAtoms>
  150.6901  134.2181  159.4385 H   0  0  0  0  0  0  0  0  0  0  0  0  # atno 6907 bound_to 6896
  152.0139  134.9858  160.0578 H   0  0  0  0  0  0  0  0  0  0  0  0  # atno 6908 bound_to 6896
  152.1462  133.4459  159.4828 H   0  0  0  0  0  0  0  0  0  0  0  0  # atno 6909 bound_to 6896
  145.9148  139.3682  143.0514 H   0  0  0  0  0  0  0  0  0  0  0  0  # atno 7974 bound_to 7965
  155.6015  140.0662  157.2731 H   0  0  0  0  0  0  0  0  0  0  0  0  # atno 8008 bound_to 7997
  154.4277  140.1817  156.1226 H   0  0  0  0  0  0  0  0  0  0  0  0  # atno 8009 bound_to 7997
  156.0155  140.3322  155.6988 H   0  0  0  0  0  0  0  0  0  0  0  0  # atno 8010 bound_to 7997
  139.4846  144.4568  151.8758 H   0  0  0  0  0  0  0  0  0  0  0  0  # atno 10167 bound_to 10162
  156.3518  130.4309  149.7698 H   0  0  0  0  0  0  0  0  0  0  0  0  # atno 10718 bound_to 10713
  154.1632  135.6471  153.4991 H   0  0  0  0  0  0  0  0  0  0  0  0  # atno 10763 bound_to 10752
  153.0105  135.5365  154.6689 H   0  0  0  0  0  0  0  0  0  0  0  0  # atno 10764 bound_to 10752
  154.6008  135.2943  155.0509 H   0  0  0  0  0  0  0  0  0  0  0  0  # atno 10765 bound_to 10752
  141.1182  133.8571  157.1379 H   0  0  0  0  0  0  0  0  0  0  0  0  # atno 11005 bound_to 11000
  145.8626  140.9466  143.0692 LP  0  0  0  0  0  0  0  0  0  0  0  0  # atno 17320 bound_to 7965
  144.6746  140.0550  143.7477 LP  0  0  0  0  0  0  0  0  0  0  0  0  # atno 17321 bound_to 7965
  140.4028  144.2471  150.5892 LP  0  0  0  0  0  0  0  0  0  0  0  0  # atno 17342 bound_to 10162
  140.5041  143.2309  151.8634 LP  0  0  0  0  0  0  0  0  0  0  0  0  # atno 17343 bound_to 10162
  156.4895  130.8078  151.3089 LP  0  0  0  0  0  0  0  0  0  0  0  0  # atno 17370 bound_to 10713
  157.7462  130.9980  150.2836 LP  0  0  0  0  0  0  0  0  0  0  0  0  # atno 17371 bound_to 10713
  140.0120  134.9984  157.0414 LP  0  0  0  0  0  0  0  0  0  0  0  0  # atno 17394 bound_to 11000
  140.4584  134.1510  155.7188 LP  0  0  0  0  0  0  0  0  0  0  0  0  # atno 17395 bound_to 11000

$$$$
