#       Name:                AV-unprocessed.smi:2039
#       Creating user name   scv26
#       Creation time:       Fri Mar 27 10:55:22 2020


#       File generated by GOLD software.
#

@<TRIPOS>MOLECULE
AV-unprocessed.smi:2039
    39    40     1
SMALL
NO_CHARGES


@<TRIPOS>ATOM
      1 ****        -6.5933   2.3231  -0.8457 C.3            1 S1                 0.0000
      2 ****        -5.2113   2.1696  -0.3098 C.2            1 S1                 0.0000
      3 ****        -4.9532   2.0341   0.9932 N.2            1 S1                 0.0000
      4 ****        -3.5951   1.9043   1.2460 N.2            1 S1                 0.0000
      5 ****        -2.8477   1.9339   0.1333 C.2            1 S1                 0.0000
      6 ****        -1.5088   1.8270   0.1613 N.pl3          1 S1                -1.0000
      7 ****        -0.9203   0.6350  -0.0894 C.2            1 S1                 0.0000
      8 ****        -1.4973  -0.4222  -0.3549 O.2            1 S1                 0.0000
      9 ****         0.4190   0.6708  -0.0295 N.am           1 S1                 0.0000
     10 ****         1.3220  -0.4545  -0.2575 C.3            1 S1                 0.0000
     11 ****         1.4560  -1.3124   1.0167 C.3            1 S1                 0.0000
     12 ****         2.4502  -2.4695   0.8159 C.3            1 S1                 0.0000
     13 ****         3.8266  -1.9809   0.3254 C.3            1 S1                 0.0000
     14 ****         4.4943  -1.2871   1.3609 O.3            1 S1                 0.0000
     15 ****         3.6992  -1.0798  -0.9173 C.3            1 S1                 0.0000
     16 ****         2.6983   0.0698  -0.7049 C.3            1 S1                 0.0000
     17 ****        -3.7909   2.1490  -1.3413 S.3            1 S1                 0.0000
     18 ****        -7.0852   1.3514  -0.8888 H              1 S1                 0.0000
     19 ****        -6.5653   2.7471  -1.8496 H              1 S1                 0.0000
     20 ****        -7.1760   2.9850  -0.2045 H              1 S1                 0.0000
     21 ****         0.8464   1.5578   0.1929 H              1 S1                 0.0000
     22 ****         0.9204  -1.0743  -1.0616 H              1 S1                 0.0000
     23 ****         1.7851  -0.6885   1.8490 H              1 S1                 0.0000
     24 ****         0.4841  -1.7158   1.3026 H              1 S1                 0.0000
     25 ****         2.5564  -3.0374   1.7409 H              1 S1                 0.0000
     26 ****         2.0377  -3.1621   0.0811 H              1 S1                 0.0000
     27 ****         4.4425  -2.8454   0.0758 H              1 S1                 0.0000
     28 ****         4.5763  -1.8639   2.1048 H              1 S1                 0.0000
     29 ****         4.6749  -0.6811  -1.1973 H              1 S1                 0.0000
     30 ****         3.3655  -1.6850  -1.7611 H              1 S1                 0.0000
     31 ****         2.5968   0.6402  -1.6289 H              1 S1                 0.0000
     32 ****         3.0913   0.7621   0.0412 H              1 S1                 0.0000
     33 ****        -5.6566   2.0270   1.7040 LP             1 S1                 0.0000
     34 ****        -3.2128   1.7994   2.1641 LP             1 S1                 0.0000
     35 ****        -0.9473   2.6284   0.3675 LP             1 S1                 0.0000
     36 ****        -2.4959  -0.4491  -0.4003 LP             1 S1                 0.0000
     37 ****        -0.9665  -1.2525  -0.5248 LP             1 S1                 0.0000
     38 ****         3.9672  -0.4773   1.6187 LP             1 S1                 0.0000
     39 ****         5.4025  -1.0082   1.0488 LP             1 S1                 0.0000
@<TRIPOS>BOND
    1    1    2 1     
    2    1   18 1     
    3    1   19 1     
    4    1   20 1     
    5    2   17 1     
    6    2    3 2     
    7    3    4 1     
    8    4    5 2     
    9    5    6 1     
   10    5   17 1     
   11    6    7 1     
   12    7    8 2     
   13    7    9 am    
   14    9   10 1     
   15    9   21 1     
   16   10   16 1     
   17   10   11 1     
   18   10   22 1     
   19   11   12 1     
   20   11   23 1     
   21   11   24 1     
   22   12   13 1     
   23   12   25 1     
   24   12   26 1     
   25   13   14 1     
   26   13   15 1     
   27   13   27 1     
   28   14   28 1     
   29   15   16 1     
   30   15   29 1     
   31   15   30 1     
   32   16   31 1     
   33   16   32 1     
   34    3   33 1     
   35    4   34 1     
   36    6   35 1     
   37    8   36 1     
   38    8   37 1     
   39   14   38 1     
   40   14   39 1     
@<TRIPOS>SUBSTRUCTURE
      1 S1             1
@<TRIPOS>SET
LONE_PAIRS      STATIC     ATOMS    <user>   **** ""
7 33 34 35 36 37 38 39
DONOR_HYDROGENS      STATIC     ATOMS    <user>   **** ""
2 21 28
ATOM$BLUE        STATIC     ATOMS    COLORGROUP SYSTEM
7 33 34 35 36 37 38 39
ATOM$RED        STATIC     ATOMS    COLORGROUP SYSTEM
2 21 28
