AV-unprocessed.smi:3145|AV-procd|sdf|11980|dock1
  -GOLD-   2272017383D 1   1.00000     0.00000
 Structure written by MMmdl.
 35 35  0  0  0  0  0  0  0  0  2 V2000
  148.3958  137.9586  155.0493 C   0  0  0  0  0  0  0  0  0  0  0  0
  148.4085  139.1447  154.0755 C   0  0  1  0  0  0  0  0  0  0  0  0
  149.7686  139.8731  154.1237 C   0  0  0  0  0  0  0  0  0  0  0  0
  150.1136  140.3444  155.4528 N   0  0  0  0  0  0  0  0  0  0  0  0
  150.2373  141.6441  155.8966 C   0  0  0  0  0  0  0  0  0  0  0  0
  150.5878  141.5906  157.2152 C   0  0  0  0  0  0  0  0  0  0  0  0
  150.6517  140.1966  157.4931 C   0  0  0  0  0  0  0  0  0  0  0  0
  150.3686  139.4529  156.4355 N   0  0  0  0  0  0  0  0  0  0  0  0
  148.1071  138.6602  152.7091 N   0  3  0  0  0  0  0  0  0  0  0  0
  146.6952  138.7962  152.2908 C   0  0  0  0  0  0  0  0  0  0  0  0
  145.8581  137.5921  152.7220 C   0  0  0  0  0  0  0  0  0  0  0  0
  146.2866  136.8030  153.5647 O   0  0  0  0  0  0  0  0  0  0  0  0
  144.6541  137.4692  152.1453 N   0  0  0  0  0  0  0  0  0  0  0  0
  143.7115  136.3958  152.4304 C   0  0  0  0  0  0  0  0  0  0  0  0
  142.8379  136.7521  153.6377 C   0  0  0  0  0  0  0  0  0  0  0  0
  141.6947  135.8407  153.7979 C   0  0  0  0  0  0  0  0  0  0  0  0
  140.7956  135.1239  153.9241 N   0  0  0  0  0  0  0  0  0  0  0  0
  148.5881  138.2871  156.0711 H   0  0  0  0  0  0  0  0  0  0  0  0
  149.1571  137.2220  154.7894 H   0  0  0  0  0  0  0  0  0  0  0  0
  147.4286  137.4547  155.0444 H   0  0  0  0  0  0  0  0  0  0  0  0
  147.6239  139.8336  154.3936 H   0  0  0  0  0  0  0  0  0  0  0  0
  150.5627  139.2011  153.7952 H   0  0  0  0  0  0  0  0  0  0  0  0
  149.7761  140.7184  153.4331 H   0  0  0  0  0  0  0  0  0  0  0  0
  150.0701  142.4891  155.2446 H   0  0  0  0  0  0  0  0  0  0  0  0
  150.7683  142.4214  157.8813 H   0  0  0  0  0  0  0  0  0  0  0  0
  150.8944  139.7067  158.4248 H   0  0  0  0  0  0  0  0  0  0  0  0
  148.6928  139.1585  152.0541 H   0  0  0  0  0  0  0  0  0  0  0  0
  146.2719  139.6974  152.7356 H   0  0  0  0  0  0  0  0  0  0  0  0
  146.6327  138.9110  151.2086 H   0  0  0  0  0  0  0  0  0  0  0  0
  144.3726  138.1606  151.4650 H   0  0  0  0  0  0  0  0  0  0  0  0
  143.0815  136.2172  151.5574 H   0  0  0  0  0  0  0  0  0  0  0  0
  144.2618  135.4745  152.6265 H   0  0  0  0  0  0  0  0  0  0  0  0
  143.4230  136.7174  154.5569 H   0  0  0  0  0  0  0  0  0  0  0  0
  142.4448  137.7643  153.5394 H   0  0  0  0  0  0  0  0  0  0  0  0
  148.3405  137.6787  152.6598 H   0  0  0  0  0  0  0  0  0  0  0  0
  1  2  1  0  0  0  0
  1 18  1  0  0  0  0
  1 19  1  0  0  0  0
  1 20  1  0  0  0  0
  2  3  1  0  0  0  0
  2  9  1  0  0  0  0
  2 21  1  0  0  0  0
  3  4  1  0  0  0  0
  3 22  1  0  0  0  0
  3 23  1  0  0  0  0
  4  8  1  0  0  0  0
  4  5  1  0  0  0  0
  5  6  2  0  0  0  0
  5 24  1  0  0  0  0
  6  7  1  0  0  0  0
  6 25  1  0  0  0  0
  7  8  2  0  0  0  0
  7 26  1  0  0  0  0
  9 10  1  0  0  0  0
  9 27  1  0  0  0  0
  9 35  1  0  0  0  0
 10 11  1  0  0  0  0
 10 28  1  0  0  0  0
 10 29  1  0  0  0  0
 11 12  2  0  0  0  0
 11 13  1  0  0  0  0
 13 14  1  0  0  0  0
 13 30  1  0  0  0  0
 14 15  1  0  0  0  0
 14 31  1  0  0  0  0
 14 32  1  0  0  0  0
 15 16  1  0  0  0  0
 15 33  1  0  0  0  0
 15 34  1  0  0  0  0
 16 17  3  0  0  0  0
M  CHG  1   9   1
M  END
> <s_m_source_file>
AV-unprocessed.smi

> <i_m_source_file_index>
3145

> <i_lp_mmshare_version>
43012

> <i_f3d_flags>
0

> <s_epik_input>
bjFbY0hdW2NIXVtjSF1uMVtDSDJdW0NAQEhdKFtDSDNdKVtOSF1bQ0gyXUMoPU8pW05IXVtDSDJdW0NIMl1DI04=

> <s_epik_cmdline>
J2VwaWtfcHl0aG9uJywgJy1waCcsICc3LjAnLCAnLXRuJywgJzgnLCAnLW1hJywgJzIwMCcsICctbWV0YWxfYmluZGluZycsICctaW1hZScsICc8aW5maWxlLm1hZT4nLCAnLW9tYWUnLCAnPG91dGZpbGUubWFlPic=

> <r_lp_tautomer_probability>
1

> <r_epik_Ionization_Penalty>
0.190162

> <r_epik_Ionization_Penalty_Charging>
0.190142

> <r_epik_Ionization_Penalty_Neutral>
2.0165e-05

> <r_epik_State_Penalty>
0.179787

> <r_epik_Charging_Adjusted_Penalty>
0.369929

> <i_epik_Tot_Q>
1

> <i_epik_Tot_abs_Q>
1

> <r_epik_Metal_State_Penalty>
0.191786

> <b_epik_Metal_Only>
0

> <s_lp_Force_Field>
OPLS_2005

> <r_lp_Energy>
4.60732

> <b_lp_Chiralities_Consistent>
1

> <s_lp_Variant>
AV-unprocessed.smi:3145-2

> <Gold.Version>
5.8.1

> <Gold.Id.Protein>
6NUR|6NUR_protein|mol2

> <Gold.PLP.Fitness>
45.6011

> <Gold.PLP.PLP>
-29.5472

> <Gold.PLP.part.hbond>
-4.9217

> <Gold.PLP.part.metal>
0.0000

> <Gold.PLP.part.buried>
-2.9572

> <Gold.PLP.part.nonpolar>
-22.3975

> <Gold.PLP.part.repulsive>
0.3875

> <Gold.PLP.ligand.clash>
0.0000

> <Gold.PLP.ligand.torsion>
1.1257

> <Gold.PLP.Chemscore.Hbond>
4.9913

> <Gold.PLP.Chemscore.CHOScore>
1.0000

> <Gold.PLP.Chemscore.Metal>
0.0000

> <Gold.Chemscore.Hbonds>
donor molecule, donor type, donor heavy atom, donor atom, acceptor molecule, acceptor atom, score
      L1  H     9    27       P1  7957  1.00
      L1  H     9    35       P1  7948  2.00
      L1  H    13    30       P1 10171  1.00
      P1  H 11000 11005       L1    17  0.94
      L1  C     5    24       P1  8028  0.94

> <Gold.PLP.Chemscore.Internal.Correction>
0.3316

> <Gold.Rescore>
     Score         DG    S(hbond)    S(metal)    S(lipo)     H(rot)  DE(clash)    DE(int)     intcor
     12.63     -16.70       3.92        0.00      47.14       2.89       0.26       3.81       ----

> <Gold.Chemscore.Fitness>
12.6290

> <Gold.Chemscore.DG>
-16.6968

> <Gold.Chemscore.ZeroCoef>
-5.4800

> <Gold.Chemscore.Hbond>
3.9215

> <Gold.Chemscore.Metal>
0.0000

> <Gold.Chemscore.Lipo>
47.1446

> <Gold.Chemscore.Internal_Hbond>
0.0000

> <Gold.Chemscore.DEClash>
0.2566

> <Gold.Chemscore.DEInternal>
3.8113

> <Gold.Chemscore.Rot>
2.8894

> <Gold.Chemscore.Internal.Correction>
   9.000000E+99

> <Gold.Chemscore.Hbonds>
donor molecule, donor type, donor heavy atom, donor atom, acceptor molecule, acceptor atom, score
      L1  H     9    27       P1  7957  0.93
      L1  H     9    35       P1  7948  0.97
      L1  H    13    30       P1 10171  0.95
      P1  H 11000 11005       L1    17  0.86

> <Gold.Chemscore.Hbond.Weighted>
-13.0977

> <Gold.Chemscore.Metal.Weighted>
-0.0000

> <Gold.Chemscore.Lipo.Weighted>
-5.5159

> <Gold.Chemscore.Internal_Hbond.Weighted>
0.0000

> <Gold.Chemscore.DEClash.Weighted>
0.2566

> <Gold.Chemscore.DEInternal.Weighted>
3.8113

> <Gold.Chemscore.Rot.Weighted>
7.3968

> <Gold.Chemscore.Internal.Correction.Weighted>
   9.000000E+99

> <Gold.Protein.RotatedTorsions>
[ 6907 6896 6895 6894 ] final   62.29 input  -60.11 | X-H torsion
[ 7974 7965 7964 7962 ] final   14.03 input  175.53 | X-H torsion
[ 8008 7997 7996 7995 ] final  -50.90 input   59.86 | X-H torsion
[ 10167 10162 10161 10158 ] final -120.97 input  -65.29 | X-H torsion
[ 10718 10713 10712 10709 ] final  118.08 input   66.30 | X-H torsion
[ 10763 10752 10751 10750 ] final   34.91 input  -60.55 | X-H torsion
[ 11005 11000 10999 10996 ] final   17.37 input  -57.11 | X-H torsion

> <Gold.Protein.ActiveResidues>
 VAL166  LYS551  ARG553  GLY616  TRP617  ASP618  TYR619  PRO620  LYS621  CYS622 
 ASP623  PHE694  ASN695  SER759  ASP760  ASP761  ALA762  ILE779  LEU786  VAL792 
 PHE793  MET794  SER795  GLU796  ALA797  LYS798  CYS799  TRP800  GLU811  SER814 

> <Gold.Protein.RotatedAtoms>
  152.4160  134.6041  160.0007 H   0  0  0  0  0  0  0  0  0  0  0  0  # atno 6907 bound_to 6896
  151.6205  133.3334  159.3095 H   0  0  0  0  0  0  0  0  0  0  0  0  # atno 6908 bound_to 6896
  150.8048  134.7205  159.6700 H   0  0  0  0  0  0  0  0  0  0  0  0  # atno 6909 bound_to 6896
  146.2315  139.9102  142.8525 H   0  0  0  0  0  0  0  0  0  0  0  0  # atno 7974 bound_to 7965
  154.4071  140.1261  156.4742 H   0  0  0  0  0  0  0  0  0  0  0  0  # atno 8008 bound_to 7997
  155.7149  140.3493  155.4970 H   0  0  0  0  0  0  0  0  0  0  0  0  # atno 8009 bound_to 7997
  155.9267  140.1062  157.1155 H   0  0  0  0  0  0  0  0  0  0  0  0  # atno 8010 bound_to 7997
  140.0301  143.5257  152.2180 H   0  0  0  0  0  0  0  0  0  0  0  0  # atno 10167 bound_to 10162
  157.6054  131.1044  150.7706 H   0  0  0  0  0  0  0  0  0  0  0  0  # atno 10718 bound_to 10713
  153.0142  135.6347  154.1744 H   0  0  0  0  0  0  0  0  0  0  0  0  # atno 10763 bound_to 10752
  154.1484  135.2830  155.3143 H   0  0  0  0  0  0  0  0  0  0  0  0  # atno 10764 bound_to 10752
  154.6072  135.5568  153.7496 H   0  0  0  0  0  0  0  0  0  0  0  0  # atno 10765 bound_to 10752
  140.4367  134.1364  155.7686 H   0  0  0  0  0  0  0  0  0  0  0  0  # atno 11005 bound_to 11000
  145.2237  140.9945  143.4030 LP  0  0  0  0  0  0  0  0  0  0  0  0  # atno 17320 bound_to 7965
  144.9588  139.4002  143.6366 LP  0  0  0  0  0  0  0  0  0  0  0  0  # atno 17321 bound_to 7965
  139.6082  144.7602  151.3014 LP  0  0  0  0  0  0  0  0  0  0  0  0  # atno 17342 bound_to 10162
  140.7306  143.6876  150.7948 LP  0  0  0  0  0  0  0  0  0  0  0  0  # atno 17343 bound_to 10162
  156.8095  130.4948  149.5358 LP  0  0  0  0  0  0  0  0  0  0  0  0  # atno 17370 bound_to 10713
  156.1139  130.6060  151.0090 LP  0  0  0  0  0  0  0  0  0  0  0  0  # atno 17371 bound_to 10713
  141.1723  133.8584  157.1532 LP  0  0  0  0  0  0  0  0  0  0  0  0  # atno 17394 bound_to 11000
  140.0097  134.9993  157.0369 LP  0  0  0  0  0  0  0  0  0  0  0  0  # atno 17395 bound_to 11000

$$$$
