AV-unprocessed.smi:1047|AV-procd|sdf|4597|dock5
  -GOLD-   22720 3 83D 1   1.00000     0.00000
 Structure written by MMmdl.
 57 59  0  0  0  0  0  0  0  0  3 V2000
  143.2293  132.8831  151.3157 C   0  0  0  0  0  0  0  0  0  0  0  0
  144.2877  133.7916  151.9573 C   0  0  0  0  0  0  0  0  0  0  0  0
  144.0037  134.0701  153.3901 N   0  3  2  0  0  0  0  0  0  0  0  0
  142.8633  134.9961  153.5998 C   0  0  0  0  0  0  0  0  0  0  0  0
  143.2730  136.4564  153.3349 C   0  0  0  0  0  0  0  0  0  0  0  0
  144.3666  136.8058  154.1749 O   0  0  0  0  0  0  0  0  0  0  0  0
  145.5149  135.9967  153.9400 C   0  0  1  0  0  0  0  0  0  0  0  0
  146.6824  136.5225  154.7938 C   0  0  0  0  0  0  0  0  0  0  0  0
  147.9684  135.9686  154.3766 N   0  0  0  0  0  0  0  0  0  0  0  0
  149.1011  136.4944  155.1350 C   0  0  0  0  0  0  0  0  0  0  0  0
  149.2107  138.0262  155.0286 C   0  0  2  0  0  0  0  0  0  0  0  0
  149.1739  138.4100  153.6677 O   0  0  0  0  0  0  0  0  0  0  0  0
  150.4425  138.6196  155.7440 C   0  0  0  0  0  0  0  0  0  0  0  0
  150.3358  140.0693  155.9535 N   0  0  0  0  0  0  0  0  0  0  0  0
  149.6397  141.0055  155.2529 C   0  0  0  0  0  0  0  0  0  0  0  0
  149.8698  142.2123  155.8410 N   0  3  0  0  0  0  0  0  0  0  0  0
  150.7270  142.0441  156.9307 C   0  0  0  0  0  0  0  0  0  0  0  0
  151.2469  142.9656  157.8318 C   0  0  0  0  0  0  0  0  0  0  0  0
  152.1014  142.4686  158.8421 C   0  0  0  0  0  0  0  0  0  0  0  0
  152.6853  143.4495  159.8446 C   0  0  0  0  0  0  0  0  0  0  0  0
  152.4089  141.0854  158.9232 C   0  0  0  0  0  0  0  0  0  0  0  0
  153.3276  140.5619  160.0142 C   0  0  0  0  0  0  0  0  0  0  0  0
  151.8712  140.1643  157.9957 C   0  0  0  0  0  0  0  0  0  0  0  0
  151.0304  140.6712  157.0078 C   0  0  0  0  0  0  0  0  0  0  0  0
  145.1790  134.5063  154.1871 C   0  0  0  0  0  0  0  0  0  0  0  0
  143.4134  132.7787  150.2463 H   0  0  0  0  0  0  0  0  0  0  0  0
  142.2278  133.2969  151.4385 H   0  0  0  0  0  0  0  0  0  0  0  0
  143.2349  131.8805  151.7423 H   0  0  0  0  0  0  0  0  0  0  0  0
  145.2825  133.3648  151.8303 H   0  0  0  0  0  0  0  0  0  0  0  0
  144.2881  134.7337  151.4078 H   0  0  0  0  0  0  0  0  0  0  0  0
  142.0154  134.7115  152.9757 H   0  0  0  0  0  0  0  0  0  0  0  0
  142.5268  134.8992  154.6330 H   0  0  0  0  0  0  0  0  0  0  0  0
  143.5357  136.6111  152.2874 H   0  0  0  0  0  0  0  0  0  0  0  0
  142.4386  137.1234  153.5519 H   0  0  0  0  0  0  0  0  0  0  0  0
  145.8079  136.1288  152.8977 H   0  0  0  0  0  0  0  0  0  0  0  0
  146.7113  137.6103  154.7199 H   0  0  0  0  0  0  0  0  0  0  0  0
  146.4991  136.2898  155.8434 H   0  0  0  0  0  0  0  0  0  0  0  0
  148.1158  136.1490  153.3885 H   0  0  0  0  0  0  0  0  0  0  0  0
  149.0153  136.2090  156.1844 H   0  0  0  0  0  0  0  0  0  0  0  0
  150.0248  136.0446  154.7690 H   0  0  0  0  0  0  0  0  0  0  0  0
  148.3134  138.4450  155.4850 H   0  0  0  0  0  0  0  0  0  0  0  0
  148.8529  137.6807  153.1599 H   0  0  0  0  0  0  0  0  0  0  0  0
  150.6003  138.1410  156.7114 H   0  0  0  0  0  0  0  0  0  0  0  0
  151.3480  138.4453  155.1613 H   0  0  0  0  0  0  0  0  0  0  0  0
  149.0177  140.8241  154.3882 H   0  0  0  0  0  0  0  0  0  0  0  0
  151.0087  144.0170  157.7637 H   0  0  0  0  0  0  0  0  0  0  0  0
  153.7750  143.4170  159.8239 H   0  0  0  0  0  0  0  0  0  0  0  0
  152.3498  143.2105  160.8543 H   0  0  0  0  0  0  0  0  0  0  0  0
  152.3794  144.4732  159.6257 H   0  0  0  0  0  0  0  0  0  0  0  0
  153.4342  139.4779  159.9605 H   0  0  0  0  0  0  0  0  0  0  0  0
  152.9319  140.8077  160.9999 H   0  0  0  0  0  0  0  0  0  0  0  0
  154.3216  141.0001  159.9197 H   0  0  0  0  0  0  0  0  0  0  0  0
  152.1046  139.1115  158.0561 H   0  0  0  0  0  0  0  0  0  0  0  0
  144.9300  134.3529  155.2377 H   0  0  0  0  0  0  0  0  0  0  0  0
  146.0463  133.8779  153.9890 H   0  0  0  0  0  0  0  0  0  0  0  0
  143.7102  133.1830  153.7742 H   0  0  0  0  0  0  0  0  0  0  0  0
  149.4716  143.0850  155.5185 H   0  0  0  0  0  0  0  0  0  0  0  0
  1  2  1  0  0  0  0
  1 26  1  0  0  0  0
  1 27  1  0  0  0  0
  1 28  1  0  0  0  0
  2  3  1  0  0  0  0
  2 29  1  0  0  0  0
  2 30  1  0  0  0  0
  3 25  1  0  0  0  0
  3  4  1  0  0  0  0
  3 56  1  0  0  0  0
  4  5  1  0  0  0  0
  4 31  1  0  0  0  0
  4 32  1  0  0  0  0
  5  6  1  0  0  0  0
  5 33  1  0  0  0  0
  5 34  1  0  0  0  0
  6  7  1  0  0  0  0
  7  8  1  0  0  0  0
  7 25  1  0  0  0  0
  7 35  1  0  0  0  0
  8  9  1  0  0  0  0
  8 36  1  0  0  0  0
  8 37  1  0  0  0  0
  9 10  1  0  0  0  0
  9 38  1  0  0  0  0
 10 11  1  0  0  0  0
 10 39  1  0  0  0  0
 10 40  1  0  0  0  0
 11 12  1  0  0  0  0
 11 13  1  0  0  0  0
 11 41  1  0  0  0  0
 12 42  1  0  0  0  0
 13 14  1  0  0  0  0
 13 43  1  0  0  0  0
 13 44  1  0  0  0  0
 14 24  1  0  0  0  0
 14 15  1  0  0  0  0
 15 16  2  0  0  0  0
 15 45  1  0  0  0  0
 16 17  1  0  0  0  0
 16 57  1  0  0  0  0
 17 24  2  0  0  0  0
 17 18  1  0  0  0  0
 18 19  2  0  0  0  0
 18 46  1  0  0  0  0
 19 20  1  0  0  0  0
 19 21  1  0  0  0  0
 20 47  1  0  0  0  0
 20 48  1  0  0  0  0
 20 49  1  0  0  0  0
 21 22  1  0  0  0  0
 21 23  2  0  0  0  0
 22 50  1  0  0  0  0
 22 51  1  0  0  0  0
 22 52  1  0  0  0  0
 23 24  1  0  0  0  0
 23 53  1  0  0  0  0
 25 54  1  0  0  0  0
 25 55  1  0  0  0  0
M  CHG  1   3   1
M  CHG  1  16   1
M  END
> <s_m_source_file>
AV-unprocessed.smi

> <i_m_source_file_index>
1047

> <i_lp_mmshare_version>
43012

> <i_f3d_flags>
0

> <s_epik_input>
W0NIM11bQ0gyXU4xW0NIMl1bQ0gyXU9bQ0BIXShbQ0gyXTEpW0NIMl1bTkhdW0NIMl1bQ0BIXShbT0hdKVtDSDJdbihbY0hdbjIpYyhjMjMpW2NIXWMoW0NIM10pYyhbY0hdMylbQ0gzXQ==

> <s_epik_cmdline>
J2VwaWtfcHl0aG9uJywgJy1waCcsICc3LjAnLCAnLXRuJywgJzgnLCAnLW1hJywgJzIwMCcsICctbWV0YWxfYmluZGluZycsICctaW1hZScsICc8aW5maWxlLm1hZT4nLCAnLW9tYWUnLCAnPG91dGZpbGUubWFlPic=

> <r_epik_Ionization_Penalty>
2.03028

> <r_epik_Ionization_Penalty_Charging>
1.21256

> <r_epik_Ionization_Penalty_Neutral>
0.817715

> <r_epik_State_Penalty>
2.54959

> <r_epik_Charging_Adjusted_Penalty>
3.76215

> <i_epik_Tot_Q>
2

> <i_epik_Tot_abs_Q>
2

> <r_epik_Metal_State_Penalty>
6.52811

> <b_epik_Metal_Only>
0

> <s_lp_Force_Field>
OPLS_2005

> <r_lp_Energy>
43.5189

> <b_lp_Chiralities_Consistent>
1

> <s_lp_Variant>
AV-unprocessed.smi:1047-38

> <Gold.Version>
5.8.1

> <Gold.Id.Protein>
6NUR|6NUR_protein|mol2

> <Gold.PLP.Fitness>
57.5139

> <Gold.PLP.PLP>
-40.8529

> <Gold.PLP.part.hbond>
-5.0000

> <Gold.PLP.part.metal>
0.0000

> <Gold.PLP.part.buried>
-6.3288

> <Gold.PLP.part.nonpolar>
-32.1065

> <Gold.PLP.part.repulsive>
0.2289

> <Gold.PLP.ligand.clash>
0.0000

> <Gold.PLP.ligand.torsion>
0.6977

> <Gold.PLP.Chemscore.Hbond>
5.9825

> <Gold.PLP.Chemscore.CHOScore>
0.0000

> <Gold.PLP.Chemscore.Metal>
0.0000

> <Gold.Chemscore.Hbonds>
donor molecule, donor type, donor heavy atom, donor atom, acceptor molecule, acceptor atom, score
      L1  H     3    56       P1 10957  2.00
      L1  H     9    38       P1  7948  1.00
      L1  H    12    42       P1  7948  1.00
      L1  H    16    57       P1  8028  2.00

> <Gold.PLP.Chemscore.Internal.Correction>
0.1089

> <Gold.Rescore>
     Score         DG    S(hbond)    S(metal)    S(lipo)     H(rot)  DE(clash)    DE(int)     intcor
     23.35     -24.20       3.96        0.00     106.07       2.71       0.03       0.82       ----

> <Gold.Chemscore.Fitness>
23.3472

> <Gold.Chemscore.DG>
-24.1967

> <Gold.Chemscore.ZeroCoef>
-5.4800

> <Gold.Chemscore.Hbond>
3.9643

> <Gold.Chemscore.Metal>
0.0000

> <Gold.Chemscore.Lipo>
106.0733

> <Gold.Chemscore.Internal_Hbond>
0.0000

> <Gold.Chemscore.DEClash>
0.0285

> <Gold.Chemscore.DEInternal>
0.8211

> <Gold.Chemscore.Rot>
2.7088

> <Gold.Chemscore.Internal.Correction>
   9.000000E+99

> <Gold.Chemscore.Hbonds>
donor molecule, donor type, donor heavy atom, donor atom, acceptor molecule, acceptor atom, score
      L1  H     3    56       P1 10957  0.92
      L1  H     9    38       P1  7948  0.99
      L1  H    12    42       P1  7948  0.98
      L1  H    16    57       P1  8028  0.99

> <Gold.Chemscore.Hbond.Weighted>
-13.2408

> <Gold.Chemscore.Metal.Weighted>
-0.0000

> <Gold.Chemscore.Lipo.Weighted>
-12.4106

> <Gold.Chemscore.Internal_Hbond.Weighted>
0.0000

> <Gold.Chemscore.DEClash.Weighted>
0.0285

> <Gold.Chemscore.DEInternal.Weighted>
0.8211

> <Gold.Chemscore.Rot.Weighted>
6.9346

> <Gold.Chemscore.Internal.Correction.Weighted>
   9.000000E+99

> <Gold.Protein.RotatedTorsions>
[ 6907 6896 6895 6894 ] final   21.00 input  -60.11 | X-H torsion
[ 7974 7965 7964 7962 ] final -175.93 input  175.53 | X-H torsion
[ 8008 7997 7996 7995 ] final  100.48 input   59.86 | X-H torsion
[ 10167 10162 10161 10158 ] final   93.79 input  -65.29 | X-H torsion
[ 10718 10713 10712 10709 ] final  135.17 input   66.30 | X-H torsion
[ 10763 10752 10751 10750 ] final   50.10 input  -60.55 | X-H torsion
[ 11005 11000 10999 10996 ] final   14.24 input  -57.11 | X-H torsion

> <Gold.Protein.ActiveResidues>
 VAL166  LYS551  ARG553  GLY616  TRP617  ASP618  TYR619  PRO620  LYS621  CYS622 
 ASP623  PHE694  ASN695  SER759  ASP760  ASP761  ALA762  ILE779  LEU786  VAL792 
 PHE793  MET794  SER795  GLU796  ALA797  LYS798  CYS799  TRP800  GLU811  SER814 

> <Gold.Protein.RotatedAtoms>
  151.9051  135.0362  160.0509 H   0  0  0  0  0  0  0  0  0  0  0  0  # atno 6907 bound_to 6896
  152.2326  133.5066  159.5233 H   0  0  0  0  0  0  0  0  0  0  0  0  # atno 6908 bound_to 6896
  150.7030  134.1112  159.4043 H   0  0  0  0  0  0  0  0  0  0  0  0  # atno 6909 bound_to 6896
  144.7127  140.1247  143.6403 H   0  0  0  0  0  0  0  0  0  0  0  0  # atno 7974 bound_to 7965
  156.1208  140.3212  155.8205 H   0  0  0  0  0  0  0  0  0  0  0  0  # atno 8008 bound_to 7997
  155.4508  140.0532  157.3018 H   0  0  0  0  0  0  0  0  0  0  0  0  # atno 8009 bound_to 7997
  154.4826  140.2059  155.9743 H   0  0  0  0  0  0  0  0  0  0  0  0  # atno 8010 bound_to 7997
  139.8146  144.6758  150.9596 H   0  0  0  0  0  0  0  0  0  0  0  0  # atno 10167 bound_to 10162
  157.4597  131.1072  150.9934 H   0  0  0  0  0  0  0  0  0  0  0  0  # atno 10718 bound_to 10713
  152.9785  135.5890  154.4197 H   0  0  0  0  0  0  0  0  0  0  0  0  # atno 10763 bound_to 10752
  154.3823  135.2767  155.2206 H   0  0  0  0  0  0  0  0  0  0  0  0  # atno 10764 bound_to 10752
  154.4114  135.6080  153.6010 H   0  0  0  0  0  0  0  0  0  0  0  0  # atno 10765 bound_to 10752
  140.4717  134.1024  155.7734 H   0  0  0  0  0  0  0  0  0  0  0  0  # atno 11005 bound_to 11000
  145.9340  139.2624  143.1308 LP  0  0  0  0  0  0  0  0  0  0  0  0  # atno 17320 bound_to 7965
  145.9493  140.8920  143.0267 LP  0  0  0  0  0  0  0  0  0  0  0  0  # atno 17321 bound_to 7965
  140.7816  143.4151  151.0930 LP  0  0  0  0  0  0  0  0  0  0  0  0  # atno 17342 bound_to 10162
  139.7815  143.8348  152.3138 LP  0  0  0  0  0  0  0  0  0  0  0  0  # atno 17343 bound_to 10162
  157.0735  130.5874  149.5407 LP  0  0  0  0  0  0  0  0  0  0  0  0  # atno 17370 bound_to 10713
  156.0023  130.5104  150.7708 LP  0  0  0  0  0  0  0  0  0  0  0  0  # atno 17371 bound_to 10713
  141.1574  133.8858  157.1942 LP  0  0  0  0  0  0  0  0  0  0  0  0  # atno 17394 bound_to 11000
  139.9881  135.0075  156.9910 LP  0  0  0  0  0  0  0  0  0  0  0  0  # atno 17395 bound_to 11000

$$$$
