#       Name:                AV-unprocessed.smi:1328
#       Creating user name   scv26
#       Creation time:       Fri Mar 27 05:05:16 2020


#       File generated by GOLD software.
#

@<TRIPOS>MOLECULE
AV-unprocessed.smi:1328
    45    46     1
SMALL
NO_CHARGES


@<TRIPOS>ATOM
      1 ****        -2.2603   1.4996  -2.7541 C.3            1 S1                 0.0000
      2 ****        -2.4447   2.2645  -1.4749 C.2            1 S1                 0.0000
      3 ****        -2.6638   3.5677  -1.5231 N.2            1 S1                 0.0000
      4 ****        -2.7884   3.9849  -0.1946 O.3            1 S1                 0.0000
      5 ****        -2.6406   2.9028   0.6111 C.2            1 S1                 0.0000
      6 ****        -2.7330   3.1470   2.0794 C.3            1 S1                 0.0000
      7 ****        -2.4211   1.7778  -0.1359 C.2            1 S1                 0.0000
      8 ****        -2.1995   0.3639   0.3362 C.3            1 S1                 0.0000
      9 ****        -0.7325   0.1801   0.7219 C.2            1 S1                 0.0000
     10 ****        -0.3840   0.3149   1.8945 O.2            1 S1                 0.0000
     11 ****         0.1121  -0.1178  -0.2782 N.am           1 S1                 0.0000
     12 ****         1.5604  -0.2775  -0.1640 C.3            1 S1                 0.0000
     13 ****         2.2262   0.4914  -1.3147 C.3            1 S1                 0.0000
     14 ****         1.9468  -1.7713  -0.1722 C.3            1 S1                 0.0000
     15 ****         1.3344  -2.6061   0.9550 C.3            1 S1                 0.0000
     16 ****         2.3124  -3.7535   1.0527 C.3            1 S1                 0.0000
     17 ****         3.6431  -3.0428   0.8297 C.3            1 S1                 0.0000
     18 ****         3.3555  -1.9247  -0.0061 O.3            1 S1                 0.0000
     19 ****        -3.2026   1.0624  -3.0842 H              1 S1                 0.0000
     20 ****        -1.5433   0.6885  -2.6288 H              1 S1                 0.0000
     21 ****        -1.8912   2.1412  -3.5550 H              1 S1                 0.0000
     22 ****        -1.7774   3.4954   2.4715 H              1 S1                 0.0000
     23 ****        -3.0031   2.2347   2.6113 H              1 S1                 0.0000
     24 ****        -3.4870   3.9020   2.3021 H              1 S1                 0.0000
     25 ****        -2.8254   0.1308   1.1984 H              1 S1                 0.0000
     26 ****        -2.4653  -0.3631  -0.4322 H              1 S1                 0.0000
     27 ****        -0.2772  -0.2106  -1.2049 H              1 S1                 0.0000
     28 ****         1.9080   0.1648   0.7713 H              1 S1                 0.0000
     29 ****         3.3132   0.4352  -1.2504 H              1 S1                 0.0000
     30 ****         1.9518   1.5465  -1.2919 H              1 S1                 0.0000
     31 ****         1.9295   0.0907  -2.2848 H              1 S1                 0.0000
     32 ****         1.6784  -2.2222  -1.1292 H              1 S1                 0.0000
     33 ****         1.3268  -2.0447   1.8906 H              1 S1                 0.0000
     34 ****         0.3154  -2.9303   0.7416 H              1 S1                 0.0000
     35 ****         2.2647  -4.2816   2.0053 H              1 S1                 0.0000
     36 ****         2.1291  -4.4714   0.2522 H              1 S1                 0.0000
     37 ****         4.0398  -2.6729   1.7758 H              1 S1                 0.0000
     38 ****         4.3923  -3.6950   0.3801 H              1 S1                 0.0000
     39 ****        -2.7272   4.1380  -2.3421 LP             1 S1                 0.0000
     40 ****        -3.6908   4.3913  -0.0517 LP             1 S1                 0.0000
     41 ****        -2.0815   4.6606   0.0146 LP             1 S1                 0.0000
     42 ****        -1.0607   0.5445   2.5940 LP             1 S1                 0.0000
     43 ****         0.5760   0.1948   2.1478 LP             1 S1                 0.0000
     44 ****         3.7292  -1.0969   0.4122 LP             1 S1                 0.0000
     45 ****         3.7786  -2.0660  -0.9012 LP             1 S1                 0.0000
@<TRIPOS>BOND
    1    1    2 1     
    2    1   19 1     
    3    1   20 1     
    4    1   21 1     
    5    2    7 1     
    6    2    3 2     
    7    3    4 1     
    8    4    5 1     
    9    5    6 1     
   10    5    7 2     
   11    6   22 1     
   12    6   23 1     
   13    6   24 1     
   14    7    8 1     
   15    8    9 1     
   16    8   25 1     
   17    8   26 1     
   18    9   10 2     
   19    9   11 am    
   20   11   12 1     
   21   11   27 1     
   22   12   13 1     
   23   12   14 1     
   24   12   28 1     
   25   13   29 1     
   26   13   30 1     
   27   13   31 1     
   28   14   18 1     
   29   14   15 1     
   30   14   32 1     
   31   15   16 1     
   32   15   33 1     
   33   15   34 1     
   34   16   17 1     
   35   16   35 1     
   36   16   36 1     
   37   17   18 1     
   38   17   37 1     
   39   17   38 1     
   40    3   39 1     
   41    4   40 1     
   42    4   41 1     
   43   10   42 1     
   44   10   43 1     
   45   18   44 1     
   46   18   45 1     
@<TRIPOS>SUBSTRUCTURE
      1 S1             1
@<TRIPOS>SET
LONE_PAIRS      STATIC     ATOMS    <user>   **** ""
7 39 40 41 42 43 44 45
DONOR_HYDROGENS      STATIC     ATOMS    <user>   **** ""
1 27
ATOM$BLUE        STATIC     ATOMS    COLORGROUP SYSTEM
7 39 40 41 42 43 44 45
ATOM$RED        STATIC     ATOMS    COLORGROUP SYSTEM
1 27
