AV-unprocessed.smi:2664|AV-procd|sdf|10327|dock1
  -GOLD-   2272014343D 1   1.00000     0.00000
 Structure written by MMmdl.
 43 44  0  0  0  0  0  0  0  0  1 V2000
  144.3089  136.5977  152.0056 O   0  0  0  0  0  0  0  0  0  0  0  0
  145.5237  136.4007  152.0061 C   0  0  0  0  0  0  0  0  0  0  0  0
  146.1396  135.3377  151.4605 N   0  0  0  0  0  0  0  0  0  0  0  0
  145.5640  134.1990  150.8337 C   0  0  0  0  0  0  0  0  0  0  0  0
  146.4150  133.1144  150.5364 C   0  0  0  0  0  0  0  0  0  0  0  0
  145.8668  131.9655  149.9320 C   0  0  0  0  0  0  0  0  0  0  0  0
  144.5581  131.8410  149.6270 N   0  0  0  0  0  0  0  0  0  0  0  0
  143.7421  132.8746  149.9242 C   0  0  0  0  0  0  0  0  0  0  0  0
  144.1877  134.0675  150.5279 C   0  0  0  0  0  0  0  0  0  0  0  0
  146.4145  137.2479  152.5443 N   0  0  0  0  0  0  0  0  0  0  0  0
  146.1044  138.5075  153.2265 C   0  0  1  0  0  0  0  0  0  0  0  0
  145.3998  138.1895  154.5703 C   0  0  0  0  0  0  0  0  0  0  0  0
  144.8277  139.4104  155.3154 C   0  0  0  0  0  0  0  0  0  0  0  0
  143.7075  139.9299  154.6309 O   0  0  0  0  0  0  0  0  0  0  0  0
  147.3981  139.3584  153.3871 C   0  0  0  0  0  0  0  0  0  0  0  0
  148.4215  138.7047  154.3484 C   0  0  0  0  0  0  0  0  0  0  0  0
  149.6927  139.5523  154.5185 C   0  0  0  0  0  0  0  0  0  0  0  0
  149.3601  140.9716  154.9941 C   0  0  0  0  0  0  0  0  0  0  0  0
  148.3693  141.6443  154.0367 C   0  0  0  0  0  0  0  0  0  0  0  0
  147.0955  140.8008  153.8700 C   0  0  0  0  0  0  0  0  0  0  0  0
  147.1486  135.3629  151.4637 H   0  0  0  0  0  0  0  0  0  0  0  0
  147.4706  133.1591  150.7613 H   0  0  0  0  0  0  0  0  0  0  0  0
  146.4969  131.1225  149.6897 H   0  0  0  0  0  0  0  0  0  0  0  0
  142.6982  132.7446  149.6796 H   0  0  0  0  0  0  0  0  0  0  0  0
  143.4690  134.8406  150.7516 H   0  0  0  0  0  0  0  0  0  0  0  0
  147.3916  137.0017  152.4847 H   0  0  0  0  0  0  0  0  0  0  0  0
  145.4082  139.0908  152.6215 H   0  0  0  0  0  0  0  0  0  0  0  0
  144.5898  137.4825  154.3873 H   0  0  0  0  0  0  0  0  0  0  0  0
  146.0872  137.6880  155.2498 H   0  0  0  0  0  0  0  0  0  0  0  0
  144.5487  139.1653  156.3401 H   0  0  0  0  0  0  0  0  0  0  0  0
  145.5839  140.1934  155.3758 H   0  0  0  0  0  0  0  0  0  0  0  0
  144.0002  140.3050  153.8141 H   0  0  0  0  0  0  0  0  0  0  0  0
  147.8689  139.4346  152.4056 H   0  0  0  0  0  0  0  0  0  0  0  0
  147.9590  138.5449  155.3234 H   0  0  0  0  0  0  0  0  0  0  0  0
  148.7240  137.7241  153.9851 H   0  0  0  0  0  0  0  0  0  0  0  0
  150.3653  139.0721  155.2297 H   0  0  0  0  0  0  0  0  0  0  0  0
  150.2295  139.6000  153.5701 H   0  0  0  0  0  0  0  0  0  0  0  0
  148.9337  140.9327  155.9972 H   0  0  0  0  0  0  0  0  0  0  0  0
  150.2721  141.5650  155.0662 H   0  0  0  0  0  0  0  0  0  0  0  0
  148.1112  142.6363  154.4080 H   0  0  0  0  0  0  0  0  0  0  0  0
  148.8404  141.7915  153.0640 H   0  0  0  0  0  0  0  0  0  0  0  0
  146.4403  141.3164  153.1684 H   0  0  0  0  0  0  0  0  0  0  0  0
  146.5581  140.7630  154.8189 H   0  0  0  0  0  0  0  0  0  0  0  0
  1  2  2  0  0  0  0
  2  3  1  0  0  0  0
  2 10  1  0  0  0  0
  3  4  1  0  0  0  0
  3 21  1  0  0  0  0
  4  9  1  0  0  0  0
  4  5  2  0  0  0  0
  5  6  1  0  0  0  0
  5 22  1  0  0  0  0
  6  7  2  0  0  0  0
  6 23  1  0  0  0  0
  7  8  1  0  0  0  0
  8  9  2  0  0  0  0
  8 24  1  0  0  0  0
  9 25  1  0  0  0  0
 10 11  1  0  0  0  0
 10 26  1  0  0  0  0
 11 12  1  0  0  0  0
 11 15  1  0  0  0  0
 11 27  1  0  0  0  0
 12 13  1  0  0  0  0
 12 28  1  0  0  0  0
 12 29  1  0  0  0  0
 13 14  1  0  0  0  0
 13 30  1  0  0  0  0
 13 31  1  0  0  0  0
 14 32  1  0  0  0  0
 15 20  1  0  0  0  0
 15 16  1  0  0  0  0
 15 33  1  0  0  0  0
 16 17  1  0  0  0  0
 16 34  1  0  0  0  0
 16 35  1  0  0  0  0
 17 18  1  0  0  0  0
 17 36  1  0  0  0  0
 17 37  1  0  0  0  0
 18 19  1  0  0  0  0
 18 38  1  0  0  0  0
 18 39  1  0  0  0  0
 19 20  1  0  0  0  0
 19 40  1  0  0  0  0
 19 41  1  0  0  0  0
 20 42  1  0  0  0  0
 20 43  1  0  0  0  0
M  END
> <s_m_source_file>
AV-unprocessed.smi

> <i_m_source_file_index>
2664

> <i_lp_mmshare_version>
43012

> <i_f3d_flags>
0

> <s_epik_input>
W2NIXTFbY0hdbltjSF1bY0hdYzFbTkhdQyg9TylbTkhdW0NASF0oW0NIMl1bQ0gyXVtPSF0pW0NIXTJbQ0gyXVtDSDJdW0NIMl1bQ0gyXVtDSDJdMg==

> <s_epik_cmdline>
J2VwaWtfcHl0aG9uJywgJy1waCcsICc3LjAnLCAnLXRuJywgJzgnLCAnLW1hJywgJzIwMCcsICctbWV0YWxfYmluZGluZycsICctaW1hZScsICc8aW5maWxlLm1hZT4nLCAnLW9tYWUnLCAnPG91dGZpbGUubWFlPic=

> <r_epik_Ionization_Penalty>
0.119281

> <r_epik_Ionization_Penalty_Charging>
0

> <r_epik_Ionization_Penalty_Neutral>
0.119281

> <r_epik_State_Penalty>
0.108806

> <r_epik_Charging_Adjusted_Penalty>
0.108806

> <i_epik_Tot_Q>
0

> <i_epik_Tot_abs_Q>
0

> <r_epik_Metal_State_Penalty>
0.0904205

> <b_epik_Metal_Only>
0

> <s_lp_Force_Field>
OPLS_2005

> <r_lp_Energy>
21.6864

> <b_lp_Chiralities_Consistent>
1

> <s_lp_Variant>
AV-unprocessed.smi:2664-2

> <Gold.Version>
5.8.1

> <Gold.Id.Protein>
6NUR|6NUR_protein|mol2

> <Gold.PLP.Fitness>
49.8232

> <Gold.PLP.PLP>
-35.5101

> <Gold.PLP.part.hbond>
-4.0000

> <Gold.PLP.part.metal>
0.0000

> <Gold.PLP.part.buried>
-4.8138

> <Gold.PLP.part.nonpolar>
-28.5975

> <Gold.PLP.part.repulsive>
0.4193

> <Gold.PLP.ligand.clash>
0.0000

> <Gold.PLP.ligand.torsion>
0.2520

> <Gold.PLP.Chemscore.Hbond>
3.1128

> <Gold.PLP.Chemscore.CHOScore>
1.8118

> <Gold.PLP.Chemscore.Metal>
0.0000

> <Gold.Chemscore.Hbonds>
donor molecule, donor type, donor heavy atom, donor atom, acceptor molecule, acceptor atom, score
      L1  H     3    21       P1  7948  1.00
      L1  H    10    26       P1  7948  1.00
      L1  H    14    32       P1 10175  0.51
      P1  H 10785 10796       L1     7  0.11
      L1  C     6    23       P1 10747  0.92
      L1  C     8    24       P1 10186  0.97

> <Gold.PLP.Chemscore.Internal.Correction>
0.0433

> <Gold.Rescore>
     Score         DG    S(hbond)    S(metal)    S(lipo)     H(rot)  DE(clash)    DE(int)     intcor
     18.34     -19.98       2.96        0.00      88.06       2.23       0.04       1.60       ----

> <Gold.Chemscore.Fitness>
18.3374

> <Gold.Chemscore.DG>
-19.9793

> <Gold.Chemscore.ZeroCoef>
-5.4800

> <Gold.Chemscore.Hbond>
2.9619

> <Gold.Chemscore.Metal>
0.0000

> <Gold.Chemscore.Lipo>
88.0588

> <Gold.Chemscore.Internal_Hbond>
0.0000

> <Gold.Chemscore.DEClash>
0.0383

> <Gold.Chemscore.DEInternal>
1.6036

> <Gold.Chemscore.Rot>
2.2251

> <Gold.Chemscore.Internal.Correction>
   9.000000E+99

> <Gold.Chemscore.Hbonds>
donor molecule, donor type, donor heavy atom, donor atom, acceptor molecule, acceptor atom, score
      L1  H     3    21       P1  7948  0.90
      L1  H    10    26       P1  7948  0.99
      L1  H    14    32       P1 10175  0.50
      P1  H 10785 10796       L1     7  0.08

> <Gold.Chemscore.Hbond.Weighted>
-9.8926

> <Gold.Chemscore.Metal.Weighted>
-0.0000

> <Gold.Chemscore.Lipo.Weighted>
-10.3029

> <Gold.Chemscore.Internal_Hbond.Weighted>
0.0000

> <Gold.Chemscore.DEClash.Weighted>
0.0383

> <Gold.Chemscore.DEInternal.Weighted>
1.6036

> <Gold.Chemscore.Rot.Weighted>
5.6962

> <Gold.Chemscore.Internal.Correction.Weighted>
   9.000000E+99

> <Gold.Protein.RotatedTorsions>
[ 6907 6896 6895 6894 ] final -126.79 input  -60.11 | X-H torsion
[ 7974 7965 7964 7962 ] final  134.14 input  175.53 | X-H torsion
[ 8008 7997 7996 7995 ] final  -37.42 input   59.86 | X-H torsion
[ 10167 10162 10161 10158 ] final  112.88 input  -65.29 | X-H torsion
[ 10718 10713 10712 10709 ] final -147.01 input   66.30 | X-H torsion
[ 10763 10752 10751 10750 ] final   14.34 input  -60.55 | X-H torsion
[ 11005 11000 10999 10996 ] final -131.76 input  -57.11 | X-H torsion

> <Gold.Protein.ActiveResidues>
 VAL166  LYS551  ARG553  GLY616  TRP617  ASP618  TYR619  PRO620  LYS621  CYS622 
 ASP623  PHE694  ASN695  SER759  ASP760  ASP761  ALA762  ILE779  LEU786  VAL792 
 PHE793  MET794  SER795  GLU796  ALA797  LYS798  CYS799  TRP800  GLU811  SER814 

> <Gold.Protein.RotatedAtoms>
  150.9005  133.7124  159.2879 H   0  0  0  0  0  0  0  0  0  0  0  0  # atno 6907 bound_to 6896
  151.4644  135.1039  159.9743 H   0  0  0  0  0  0  0  0  0  0  0  0  # atno 6908 bound_to 6896
  152.4874  133.8361  159.7183 H   0  0  0  0  0  0  0  0  0  0  0  0  # atno 6909 bound_to 6896
  144.9794  139.4521  143.5394 H   0  0  0  0  0  0  0  0  0  0  0  0  # atno 7974 bound_to 7965
  154.4054  140.1604  156.2534 H   0  0  0  0  0  0  0  0  0  0  0  0  # atno 8008 bound_to 7997
  155.9099  140.3428  155.6068 H   0  0  0  0  0  0  0  0  0  0  0  0  # atno 8009 bound_to 7997
  155.7348  140.0785  157.2263 H   0  0  0  0  0  0  0  0  0  0  0  0  # atno 8010 bound_to 7997
  139.6502  144.7128  151.2062 H   0  0  0  0  0  0  0  0  0  0  0  0  # atno 10167 bound_to 10162
  156.4021  130.7939  151.2150 H   0  0  0  0  0  0  0  0  0  0  0  0  # atno 10718 bound_to 10713
  153.1632  135.6799  153.8713 H   0  0  0  0  0  0  0  0  0  0  0  0  # atno 10763 bound_to 10752
  153.8101  135.3144  155.3401 H   0  0  0  0  0  0  0  0  0  0  0  0  # atno 10764 bound_to 10752
  154.7947  135.4814  154.0223 H   0  0  0  0  0  0  0  0  0  0  0  0  # atno 10765 bound_to 10752
  140.9230  134.1419  157.4298 H   0  0  0  0  0  0  0  0  0  0  0  0  # atno 11005 bound_to 11000
  146.3404  139.9056  142.8788 LP  0  0  0  0  0  0  0  0  0  0  0  0  # atno 17320 bound_to 7965
  145.2443  141.0021  143.3917 LP  0  0  0  0  0  0  0  0  0  0  0  0  # atno 17321 bound_to 7965
  140.7534  143.6162  150.8557 LP  0  0  0  0  0  0  0  0  0  0  0  0  # atno 17342 bound_to 10162
  139.9809  143.5952  152.2943 LP  0  0  0  0  0  0  0  0  0  0  0  0  # atno 17343 bound_to 10162
  157.7504  131.0283  150.4045 LP  0  0  0  0  0  0  0  0  0  0  0  0  # atno 17370 bound_to 10713
  156.4326  130.3975  149.6750 LP  0  0  0  0  0  0  0  0  0  0  0  0  # atno 17371 bound_to 10713
  139.8779  134.9978  156.5867 LP  0  0  0  0  0  0  0  0  0  0  0  0  # atno 17394 bound_to 11000
  140.7962  133.8542  155.8688 LP  0  0  0  0  0  0  0  0  0  0  0  0  # atno 17395 bound_to 11000

$$$$
