AV-unprocessed.smi:281|AV-procd|sdf|2106|dock3
  -GOLD-   2262021393D 1   1.00000     0.00000
 Structure written by MMmdl.
 55 59  0  0  0  0  0  0  0  0  1 V2000
  151.3359  143.8654  160.2294 C   0  0  0  0  0  0  0  0  0  0  0  0
  151.8411  142.7819  159.2713 C   0  0  1  0  0  0  0  0  0  0  0  0
  152.8166  141.8120  159.9609 C   0  0  0  0  0  0  0  0  0  0  0  0
  153.1819  140.7430  159.0427 N   0  0  0  0  0  0  0  0  0  0  0  0
  154.1650  139.9388  159.4968 C   0  0  0  0  0  0  0  0  0  0  0  0
  154.6880  139.0490  158.6188 N   0  0  0  0  0  0  0  0  0  0  0  0
  155.6629  138.2221  159.0090 C   0  0  0  0  0  0  0  0  0  0  0  0
  156.2450  138.1227  160.2062 N   0  0  0  0  0  0  0  0  0  0  0  0
  155.7157  139.0147  161.0925 C   0  0  0  0  0  0  0  0  0  0  0  0
  154.6826  139.9555  160.8228 C   0  0  0  0  0  0  0  0  0  0  0  0
  154.4104  140.7015  161.9632 N   0  0  0  0  0  0  0  0  0  0  0  0
  155.2366  140.2289  162.8561 C   0  0  0  0  0  0  0  0  0  0  0  0
  156.0503  139.2061  162.4220 N   0  0  0  0  0  0  0  0  0  0  0  0
  157.0570  138.4995  163.2004 C   0  0  0  0  0  0  0  0  0  0  0  0
  156.4830  137.3620  164.0801 C   0  0  1  0  0  0  0  0  0  0  0  0
  157.4830  136.9259  164.9826 O   0  0  0  0  0  0  0  0  0  0  0  0
  155.2535  137.8065  164.8761 C   0  0  0  0  0  0  0  0  0  0  0  0
  154.1020  137.0738  164.1985 C   0  0  0  0  0  0  0  0  0  0  0  0
  154.6966  135.8455  163.8200 O   0  0  0  0  0  0  0  0  0  0  0  0
  155.9704  136.1526  163.2724 C   0  0  0  0  0  0  0  0  0  0  0  0
  152.0230  140.0210  158.5365 C   0  0  0  0  0  0  0  0  0  0  0  0
  151.0209  140.9998  157.8744 C   0  0  1  0  0  0  0  0  0  0  0  0
  151.5195  141.5453  156.5398 C   0  0  0  0  0  0  0  0  0  0  0  0
  151.1184  140.4572  155.5503 C   0  0  0  0  0  0  0  0  0  0  0  0
  149.9360  139.8714  156.0821 O   0  0  0  0  0  0  0  0  0  0  0  0
  149.7088  140.3386  157.4092 C   0  0  1  0  0  0  0  0  0  0  0  0
  149.1425  139.2195  158.2955 C   0  0  0  0  0  0  0  0  0  0  0  0
  150.7093  142.0568  158.7880 O   0  0  0  0  0  0  0  0  0  0  0  0
  152.1618  144.4600  160.6203 H   0  0  0  0  0  0  0  0  0  0  0  0
  150.8075  143.4274  161.0767 H   0  0  0  0  0  0  0  0  0  0  0  0
  150.6487  144.5434  159.7228 H   0  0  0  0  0  0  0  0  0  0  0  0
  152.3437  143.2718  158.4362 H   0  0  0  0  0  0  0  0  0  0  0  0
  153.7121  142.3456  160.2827 H   0  0  0  0  0  0  0  0  0  0  0  0
  152.3523  141.3908  160.8534 H   0  0  0  0  0  0  0  0  0  0  0  0
  156.0280  137.5410  158.2546 H   0  0  0  0  0  0  0  0  0  0  0  0
  155.2723  140.6171  163.8635 H   0  0  0  0  0  0  0  0  0  0  0  0
  157.8051  138.1036  162.5122 H   0  0  0  0  0  0  0  0  0  0  0  0
  157.5746  139.2290  163.8248 H   0  0  0  0  0  0  0  0  0  0  0  0
  157.2351  137.1913  165.8552 H   0  0  0  0  0  0  0  0  0  0  0  0
  155.3190  137.4788  165.9151 H   0  0  0  0  0  0  0  0  0  0  0  0
  155.1077  138.8873  164.8841 H   0  0  0  0  0  0  0  0  0  0  0  0
  153.2485  136.9247  164.8600 H   0  0  0  0  0  0  0  0  0  0  0  0
  153.7642  137.6098  163.3101 H   0  0  0  0  0  0  0  0  0  0  0  0
  155.8193  136.4146  162.2248 H   0  0  0  0  0  0  0  0  0  0  0  0
  156.6374  135.2899  163.3033 H   0  0  0  0  0  0  0  0  0  0  0  0
  152.3385  139.2512  157.8311 H   0  0  0  0  0  0  0  0  0  0  0  0
  151.5466  139.5100  159.3731 H   0  0  0  0  0  0  0  0  0  0  0  0
  150.9901  142.4673  156.2952 H   0  0  0  0  0  0  0  0  0  0  0  0
  152.5884  141.7606  156.5182 H   0  0  0  0  0  0  0  0  0  0  0  0
  150.9516  140.8500  154.5471 H   0  0  0  0  0  0  0  0  0  0  0  0
  151.8914  139.6903  155.4886 H   0  0  0  0  0  0  0  0  0  0  0  0
  148.9514  141.1196  157.3225 H   0  0  0  0  0  0  0  0  0  0  0  0
  148.9973  139.5659  159.3190 H   0  0  0  0  0  0  0  0  0  0  0  0
  149.8016  138.3514  158.3199 H   0  0  0  0  0  0  0  0  0  0  0  0
  148.1762  138.8831  157.9196 H   0  0  0  0  0  0  0  0  0  0  0  0
  1  2  1  0  0  0  0
  1 29  1  0  0  0  0
  1 30  1  0  0  0  0
  1 31  1  0  0  0  0
  2 28  1  0  0  0  0
  2  3  1  0  0  0  0
  2 32  1  0  0  0  0
  3  4  1  0  0  0  0
  3 33  1  0  0  0  0
  3 34  1  0  0  0  0
  4  5  1  0  0  0  0
  4 21  1  0  0  0  0
  5 10  1  0  0  0  0
  5  6  2  0  0  0  0
  6  7  1  0  0  0  0
  7  8  2  0  0  0  0
  7 35  1  0  0  0  0
  8  9  1  0  0  0  0
  9 13  1  0  0  0  0
  9 10  2  0  0  0  0
 10 11  1  0  0  0  0
 11 12  2  0  0  0  0
 12 13  1  0  0  0  0
 12 36  1  0  0  0  0
 13 14  1  0  0  0  0
 14 15  1  0  0  0  0
 14 37  1  0  0  0  0
 14 38  1  0  0  0  0
 15 20  1  0  0  0  0
 15 16  1  0  0  0  0
 15 17  1  0  0  0  0
 16 39  1  0  0  0  0
 17 18  1  0  0  0  0
 17 40  1  0  0  0  0
 17 41  1  0  0  0  0
 18 19  1  0  0  0  0
 18 42  1  0  0  0  0
 18 43  1  0  0  0  0
 19 20  1  0  0  0  0
 20 44  1  0  0  0  0
 20 45  1  0  0  0  0
 21 22  1  0  0  0  0
 21 46  1  0  0  0  0
 21 47  1  0  0  0  0
 22 26  1  0  0  0  0
 22 23  1  0  0  0  0
 22 28  1  0  0  0  0
 23 24  1  0  0  0  0
 23 48  1  0  0  0  0
 23 49  1  0  0  0  0
 24 25  1  0  0  0  0
 24 50  1  0  0  0  0
 24 51  1  0  0  0  0
 25 26  1  0  0  0  0
 26 27  1  0  0  0  0
 26 52  1  0  0  0  0
 27 53  1  0  0  0  0
 27 54  1  0  0  0  0
 27 55  1  0  0  0  0
M  END
> <s_m_source_file>
AV-unprocessed.smi

> <i_m_source_file_index>
281

> <i_lp_mmshare_version>
43012

> <i_f3d_flags>
0

> <s_epik_input>
W0NIM11bQ0BASF0xT1tDSDJdW0NIMl1bQ0BAXTEyW0NIMl1OKFtDSDJdW0NASF0oTzIpW0NIM10pYyhuW2NIXW4zKWMoYzM0KW5bY0hdbjRbQ0gyXVtDQEBdNShbT0hdKVtDSDJdW0NIMl1PW0NIMl01

> <s_epik_cmdline>
J2VwaWtfcHl0aG9uJywgJy1waCcsICc3LjAnLCAnLXRuJywgJzgnLCAnLW1hJywgJzIwMCcsICctbWV0YWxfYmluZGluZycsICctaW1hZScsICc8aW5maWxlLm1hZT4nLCAnLW9tYWUnLCAnPG91dGZpbGUubWFlPic=

> <r_lp_tautomer_probability>
1

> <r_epik_Ionization_Penalty>
0.00571331

> <r_epik_Ionization_Penalty_Charging>
0

> <r_epik_Ionization_Penalty_Neutral>
0.00571331

> <r_epik_State_Penalty>
0.00399586

> <r_epik_Charging_Adjusted_Penalty>
0.00399586

> <i_epik_Tot_Q>
0

> <i_epik_Tot_abs_Q>
0

> <r_epik_Metal_State_Penalty>
-0

> <b_epik_Metal_Only>
0

> <s_lp_Force_Field>
OPLS_2005

> <r_lp_Energy>
56.3854

> <b_lp_Chiralities_Consistent>
1

> <s_lp_Variant>
AV-unprocessed.smi:281-6

> <Gold.Version>
5.8.1

> <Gold.Id.Protein>
6NUR|6NUR_protein|mol2

> <Gold.PLP.Fitness>
37.1468

> <Gold.PLP.PLP>
-35.0136

> <Gold.PLP.part.hbond>
-1.0000

> <Gold.PLP.part.metal>
0.0000

> <Gold.PLP.part.buried>
-4.4784

> <Gold.PLP.part.nonpolar>
-28.9730

> <Gold.PLP.part.repulsive>
0.0881

> <Gold.PLP.ligand.clash>
0.0000

> <Gold.PLP.ligand.torsion>
0.4948

> <Gold.PLP.Chemscore.Hbond>
1.0000

> <Gold.PLP.Chemscore.CHOScore>
0.0000

> <Gold.PLP.Chemscore.Metal>
0.0000

> <Gold.Chemscore.Hbonds>
donor molecule, donor type, donor heavy atom, donor atom, acceptor molecule, acceptor atom, score
      P1  H  7997  8010       L1     6  1.00

> <Gold.PLP.Chemscore.Internal.Correction>
0.1228

> <Gold.Rescore>
     Score         DG    S(hbond)    S(metal)    S(lipo)     H(rot)  DE(clash)    DE(int)     intcor
     11.21     -14.51       0.82        0.00      99.54       2.09       1.45       1.85       ----

> <Gold.Chemscore.Fitness>
11.2095

> <Gold.Chemscore.DG>
-14.5075

> <Gold.Chemscore.ZeroCoef>
-5.4800

> <Gold.Chemscore.Hbond>
0.8198

> <Gold.Chemscore.Metal>
0.0000

> <Gold.Chemscore.Lipo>
99.5448

> <Gold.Chemscore.Internal_Hbond>
0.0000

> <Gold.Chemscore.DEClash>
1.4484

> <Gold.Chemscore.DEInternal>
1.8496

> <Gold.Chemscore.Rot>
2.0927

> <Gold.Chemscore.Internal.Correction>
   9.000000E+99

> <Gold.Chemscore.Hbonds>
donor molecule, donor type, donor heavy atom, donor atom, acceptor molecule, acceptor atom, score
      P1  H  7997  8010       L1     6  0.36

> <Gold.Chemscore.Hbond.Weighted>
-2.7381

> <Gold.Chemscore.Metal.Weighted>
-0.0000

> <Gold.Chemscore.Lipo.Weighted>
-11.6467

> <Gold.Chemscore.Internal_Hbond.Weighted>
0.0000

> <Gold.Chemscore.DEClash.Weighted>
1.4484

> <Gold.Chemscore.DEInternal.Weighted>
1.8496

> <Gold.Chemscore.Rot.Weighted>
5.3573

> <Gold.Chemscore.Internal.Correction.Weighted>
   9.000000E+99

> <Gold.Protein.RotatedTorsions>
[ 6907 6896 6895 6894 ] final   79.73 input  -60.11 | X-H torsion
[ 7974 7965 7964 7962 ] final  -15.17 input  175.53 | X-H torsion
[ 8008 7997 7996 7995 ] final    3.85 input   59.86 | X-H torsion
[ 10167 10162 10161 10158 ] final    7.13 input  -65.29 | X-H torsion
[ 10718 10713 10712 10709 ] final  -71.70 input   66.30 | X-H torsion
[ 10763 10752 10751 10750 ] final  126.45 input  -60.55 | X-H torsion
[ 11005 11000 10999 10996 ] final   90.58 input  -57.11 | X-H torsion

> <Gold.Protein.ActiveResidues>
 VAL166  LYS551  ARG553  GLY616  TRP617  ASP618  TYR619  PRO620  LYS621  CYS622 
 ASP623  PHE694  ASN695  SER759  ASP760  ASP761  ALA762  ILE779  LEU786  VAL792 
 PHE793  MET794  SER795  GLU796  ALA797  LYS798  CYS799  TRP800  GLU811  SER814 

> <Gold.Protein.RotatedAtoms>
  152.5209  134.3466  159.9235 H   0  0  0  0  0  0  0  0  0  0  0  0  # atno 6907 bound_to 6896
  151.3416  133.3954  159.2679 H   0  0  0  0  0  0  0  0  0  0  0  0  # atno 6908 bound_to 6896
  150.9798  134.9174  159.7895 H   0  0  0  0  0  0  0  0  0  0  0  0  # atno 6909 bound_to 6896
  146.2043  140.3454  142.8412 H   0  0  0  0  0  0  0  0  0  0  0  0  # atno 7974 bound_to 7965
  154.7087  140.2688  155.6650 H   0  0  0  0  0  0  0  0  0  0  0  0  # atno 8008 bound_to 7997
  156.2788  140.2757  156.1646 H   0  0  0  0  0  0  0  0  0  0  0  0  # atno 8009 bound_to 7997
  155.0664  140.0372  157.2584 H   0  0  0  0  0  0  0  0  0  0  0  0  # atno 8010 bound_to 7997
  140.6389  143.7821  150.7399 H   0  0  0  0  0  0  0  0  0  0  0  0  # atno 10167 bound_to 10162
  156.0351  130.4357  150.2483 H   0  0  0  0  0  0  0  0  0  0  0  0  # atno 10718 bound_to 10713
  153.6934  135.3295  155.3207 H   0  0  0  0  0  0  0  0  0  0  0  0  # atno 10763 bound_to 10752
  154.8433  135.4437  154.1484 H   0  0  0  0  0  0  0  0  0  0  0  0  # atno 10764 bound_to 10752
  153.2532  135.6983  153.7734 H   0  0  0  0  0  0  0  0  0  0  0  0  # atno 10765 bound_to 10752
  139.8853  134.8622  156.3305 H   0  0  0  0  0  0  0  0  0  0  0  0  # atno 11005 bound_to 11000
  144.8756  140.7331  143.6019 LP  0  0  0  0  0  0  0  0  0  0  0  0  # atno 17320 bound_to 7965
  145.3374  139.1742  143.4504 LP  0  0  0  0  0  0  0  0  0  0  0  0  # atno 17321 bound_to 7965
  140.1448  143.4409  152.2170 LP  0  0  0  0  0  0  0  0  0  0  0  0  # atno 17342 bound_to 10162
  139.5599  144.7398  151.4186 LP  0  0  0  0  0  0  0  0  0  0  0  0  # atno 17343 bound_to 10162
  157.0583  131.0082  151.3231 LP  0  0  0  0  0  0  0  0  0  0  0  0  # atno 17370 bound_to 10713
  157.5090  130.7926  149.7684 LP  0  0  0  0  0  0  0  0  0  0  0  0  # atno 17371 bound_to 10713
  140.9726  133.7318  156.0556 LP  0  0  0  0  0  0  0  0  0  0  0  0  # atno 17394 bound_to 11000
  140.7852  134.3680  157.5478 LP  0  0  0  0  0  0  0  0  0  0  0  0  # atno 17395 bound_to 11000

$$$$
