#       Name:                AV-unprocessed.smi:526
#       Creating user name   scv26
#       Creation time:       Thu Mar 26 23:29:17 2020


#       File generated by GOLD software.
#

@<TRIPOS>MOLECULE
AV-unprocessed.smi:526
    37    37     1
SMALL
NO_CHARGES


@<TRIPOS>ATOM
      1 ****        -4.8654   0.3784  -0.5981 C.2            1 S1                 0.0000
      2 ****        -3.8979   0.9906   0.1047 C.2            1 S1                 0.0000
      3 ****        -4.1959   2.1422   1.0463 C.3            1 S1                 0.0000
      4 ****        -2.4423   0.5719   0.0064 C.3            1 S1                 0.0000
      5 ****        -1.8509  -0.2357   1.5271 S.3            1 S1                 0.0000
      6 ****        -0.1063  -0.6508   1.1727 C.2            1 S1                 0.0000
      7 ****         0.2908  -0.2584  -0.0983 N.pl3          1 S1                 0.0000
      8 ****         1.5826  -0.5241  -0.5125 C.2            1 S1                 0.0000
      9 ****         1.8998  -0.0620  -1.9239 C.3            1 S1                 0.0000
     10 ****         2.4655  -1.1462   0.3053 C.2            1 S1                 0.0000
     11 ****         3.9032  -1.4643  -0.1106 C.3            1 S1                 0.0000
     12 ****         4.8931  -0.3025   0.0391 C.2            1 S1                 0.0000
     13 ****         6.0566  -0.5091  -0.3690 O.co2          1 S1                 0.0000
     14 ****         4.4877   0.7657   0.5497 O.co2          1 S1                -1.0000
     15 ****         2.0121  -1.5333   1.6583 C.2            1 S1                 0.0000
     16 ****         2.7657  -2.0853   2.4589 O.2            1 S1                 0.0000
     17 ****         0.6838  -1.2506   2.0130 N.2            1 S1                 0.0000
     18 ****        -0.3234   0.2142  -0.7448 H              1 S1                 0.0000
     19 ****        -5.8975   0.6869  -0.5177 H              1 S1                 0.0000
     20 ****        -4.6413  -0.4417  -1.2645 H              1 S1                 0.0000
     21 ****        -3.6342   3.0282   0.7496 H              1 S1                 0.0000
     22 ****        -3.9166   1.8854   2.0681 H              1 S1                 0.0000
     23 ****        -5.2564   2.3964   1.0406 H              1 S1                 0.0000
     24 ****        -2.3186  -0.1174  -0.8299 H              1 S1                 0.0000
     25 ****        -1.8360   1.4535  -0.2047 H              1 S1                 0.0000
     26 ****         2.7415   0.6308  -1.9172 H              1 S1                 0.0000
     27 ****         1.0509   0.4482  -2.3805 H              1 S1                 0.0000
     28 ****         2.1581  -0.9131  -2.5541 H              1 S1                 0.0000
     29 ****         3.9076  -1.7759  -1.1551 H              1 S1                 0.0000
     30 ****         4.2849  -2.3230   0.4425 H              1 S1                 0.0000
     31 ****         6.7463   0.2116  -0.2992 LP             1 S1                 0.0000
     32 ****         6.2975  -1.3950  -0.7654 LP             1 S1                 0.0000
     33 ****         5.1139   1.5380   0.6567 LP             1 S1                 0.0000
     34 ****         3.5375   0.8470   0.8506 LP             1 S1                 0.0000
     35 ****         3.7113  -2.2829   2.2007 LP             1 S1                 0.0000
     36 ****         2.4325  -2.3363   3.3677 LP             1 S1                 0.0000
     37 ****         0.3435  -1.5118   2.9163 LP             1 S1                 0.0000
@<TRIPOS>BOND
    1    1    2 2     
    2    1   19 1     
    3    1   20 1     
    4    2    3 1     
    5    2    4 1     
    6    3   21 1     
    7    3   22 1     
    8    3   23 1     
    9    4   24 1     
   10    4   25 1     
   11    4    5 1     
   12    5    6 1     
   13    6   17 2     
   14    6    7 1     
   15    7    8 1     
   16    7   18 1     
   17    8   10 2     
   18    8    9 1     
   19    9   26 1     
   20    9   27 1     
   21    9   28 1     
   22   10   15 1     
   23   10   11 1     
   24   11   12 1     
   25   11   29 1     
   26   11   30 1     
   27   12   13 ar    
   28   12   14 ar    
   29   15   17 1     
   30   15   16 2     
   31   13   31 1     
   32   13   32 1     
   33   14   33 1     
   34   14   34 1     
   35   16   35 1     
   36   16   36 1     
   37   17   37 1     
@<TRIPOS>SUBSTRUCTURE
      1 S1             1
@<TRIPOS>SET
LONE_PAIRS      STATIC     ATOMS    <user>   **** ""
7 31 32 33 34 35 36 37
DONOR_HYDROGENS      STATIC     ATOMS    <user>   **** ""
1 18
ATOM$BLUE        STATIC     ATOMS    COLORGROUP SYSTEM
7 31 32 33 34 35 36 37
ATOM$RED        STATIC     ATOMS    COLORGROUP SYSTEM
1 18
