AV-unprocessed.smi:491|AV-procd|sdf|2707|dock5
  -GOLD-   2262023153D 1   1.00000     0.00000
 Structure written by MMmdl.
 45 46  0  0  0  0  0  0  0  0  1 V2000
  151.9876  145.6057  160.0872 C   0  0  0  0  0  0  0  0  0  0  0  0
  151.8689  144.4371  161.0768 C   0  0  0  0  0  0  0  0  0  0  0  0
  152.3306  143.1878  160.5295 N   0  0  0  0  0  0  0  0  0  0  0  0
  153.2682  142.4134  161.1802 C   0  0  0  0  0  0  0  0  0  0  0  0
  153.7126  141.2409  160.6834 C   0  0  0  0  0  0  0  0  0  0  0  0
  154.6853  140.4556  161.3685 C   0  0  0  0  0  0  0  0  0  0  0  0
  155.4879  139.8388  161.9294 N   0  0  0  0  0  0  0  0  0  0  0  0
  153.2149  140.7247  159.4109 C   0  0  0  0  0  0  0  0  0  0  0  0
  153.6081  139.6726  158.9047 O   0  0  0  0  0  0  0  0  0  0  0  0
  152.2397  141.5267  158.7644 N   0  0  0  0  0  0  0  0  0  0  0  0
  151.7098  141.0778  157.4546 C   0  0  0  0  0  0  0  0  0  0  0  0
  150.4398  140.2110  157.5378 C   0  0  0  0  0  0  0  0  0  0  0  0
  150.5061  139.0924  158.0454 O   0  0  0  0  0  0  0  0  0  0  0  0
  149.3009  140.7164  157.0396 N   0  0  0  0  0  0  0  0  0  0  0  0
  148.0156  140.0352  157.0069 C   0  0  0  0  0  0  0  0  0  0  0  0
  147.0079  140.8003  156.1272 C   0  0  0  0  0  0  0  0  0  0  0  0
  147.5196  140.9168  154.6771 C   0  0  0  0  0  0  0  0  0  0  0  0
  146.5201  141.6629  153.7784 C   0  0  0  0  0  0  0  0  0  0  0  0
  146.1913  143.0518  154.3461 C   0  0  0  0  0  0  0  0  0  0  0  0
  145.6740  142.9493  155.7889 C   0  0  0  0  0  0  0  0  0  0  0  0
  146.6707  142.2011  156.6889 C   0  0  0  0  0  0  0  0  0  0  0  0
  151.7839  142.7567  159.2986 C   0  0  0  0  0  0  0  0  0  0  0  0
  150.9439  143.4332  158.6999 O   0  0  0  0  0  0  0  0  0  0  0  0
  151.5977  146.5236  160.5271 H   0  0  0  0  0  0  0  0  0  0  0  0
  151.4216  145.4084  159.1763 H   0  0  0  0  0  0  0  0  0  0  0  0
  153.0242  145.7904  159.8044 H   0  0  0  0  0  0  0  0  0  0  0  0
  152.4169  144.6140  162.0042 H   0  0  0  0  0  0  0  0  0  0  0  0
  150.8271  144.2747  161.3563 H   0  0  0  0  0  0  0  0  0  0  0  0
  153.6634  142.7588  162.1250 H   0  0  0  0  0  0  0  0  0  0  0  0
  151.4966  141.9315  156.8097 H   0  0  0  0  0  0  0  0  0  0  0  0
  152.4641  140.5179  156.8998 H   0  0  0  0  0  0  0  0  0  0  0  0
  149.3321  141.6433  156.6409 H   0  0  0  0  0  0  0  0  0  0  0  0
  148.1584  139.0219  156.6281 H   0  0  0  0  0  0  0  0  0  0  0  0
  147.6293  139.9464  158.0237 H   0  0  0  0  0  0  0  0  0  0  0  0
  146.0840  140.2194  156.1051 H   0  0  0  0  0  0  0  0  0  0  0  0
  148.4773  141.4395  154.6652 H   0  0  0  0  0  0  0  0  0  0  0  0
  147.7061  139.9239  154.2658 H   0  0  0  0  0  0  0  0  0  0  0  0
  146.9272  141.7605  152.7716 H   0  0  0  0  0  0  0  0  0  0  0  0
  145.6036  141.0783  153.6861 H   0  0  0  0  0  0  0  0  0  0  0  0
  147.0837  143.6785  154.3207 H   0  0  0  0  0  0  0  0  0  0  0  0
  145.4486  143.5447  153.7181 H   0  0  0  0  0  0  0  0  0  0  0  0
  145.4894  143.9466  156.1892 H   0  0  0  0  0  0  0  0  0  0  0  0
  144.7145  142.4305  155.7972 H   0  0  0  0  0  0  0  0  0  0  0  0
  146.2489  142.1228  157.6914 H   0  0  0  0  0  0  0  0  0  0  0  0
  147.5848  142.7884  156.7857 H   0  0  0  0  0  0  0  0  0  0  0  0
  1  2  1  0  0  0  0
  1 24  1  0  0  0  0
  1 25  1  0  0  0  0
  1 26  1  0  0  0  0
  2  3  1  0  0  0  0
  2 27  1  0  0  0  0
  2 28  1  0  0  0  0
  3 22  1  0  0  0  0
  3  4  1  0  0  0  0
  4  5  2  0  0  0  0
  4 29  1  0  0  0  0
  5  6  1  0  0  0  0
  5  8  1  0  0  0  0
  6  7  3  0  0  0  0
  8  9  2  0  0  0  0
  8 10  1  0  0  0  0
 10 11  1  0  0  0  0
 10 22  1  0  0  0  0
 11 12  1  0  0  0  0
 11 30  1  0  0  0  0
 11 31  1  0  0  0  0
 12 13  2  0  0  0  0
 12 14  1  0  0  0  0
 14 15  1  0  0  0  0
 14 32  1  0  0  0  0
 15 16  1  0  0  0  0
 15 33  1  0  0  0  0
 15 34  1  0  0  0  0
 16 21  1  0  0  0  0
 16 17  1  0  0  0  0
 16 35  1  0  0  0  0
 17 18  1  0  0  0  0
 17 36  1  0  0  0  0
 17 37  1  0  0  0  0
 18 19  1  0  0  0  0
 18 38  1  0  0  0  0
 18 39  1  0  0  0  0
 19 20  1  0  0  0  0
 19 40  1  0  0  0  0
 19 41  1  0  0  0  0
 20 21  1  0  0  0  0
 20 42  1  0  0  0  0
 20 43  1  0  0  0  0
 21 44  1  0  0  0  0
 21 45  1  0  0  0  0
 22 23  2  0  0  0  0
M  END
> <s_m_source_file>
AV-unprocessed.smi

> <i_m_source_file_index>
491

> <i_lp_mmshare_version>
43012

> <i_f3d_flags>
0

> <s_epik_input>
W0NIM11bQ0gyXW4xW2NIXWMoQyNOKWMoPU8pbihjMT1PKVtDSDJdQyg9TylbTkhdW0NIMl1bQ0hdMltDSDJdW0NIMl1bQ0gyXVtDSDJdW0NIMl0y

> <s_epik_cmdline>
J2VwaWtfcHl0aG9uJywgJy1waCcsICc3LjAnLCAnLXRuJywgJzgnLCAnLW1hJywgJzIwMCcsICctbWV0YWxfYmluZGluZycsICctaW1hZScsICc8aW5maWxlLm1hZT4nLCAnLW9tYWUnLCAnPG91dGZpbGUubWFlPic=

> <r_lp_tautomer_probability>
1

> <r_epik_Ionization_Penalty>
1.98356e-08

> <r_epik_Ionization_Penalty_Charging>
3.77777e-11

> <r_epik_Ionization_Penalty_Neutral>
1.97978e-08

> <r_epik_State_Penalty>
-0

> <r_epik_Charging_Adjusted_Penalty>
3.77777e-11

> <i_epik_Tot_Q>
0

> <i_epik_Tot_abs_Q>
0

> <r_epik_Metal_State_Penalty>
-0

> <b_epik_Metal_Only>
0

> <s_lp_Force_Field>
OPLS_2005

> <r_lp_Energy>
13.3995

> <b_lp_Chiralities_Consistent>
1

> <s_lp_Variant>
AV-unprocessed.smi:491-1

> <Gold.Version>
5.8.1

> <Gold.Id.Protein>
6NUR|6NUR_protein|mol2

> <Gold.PLP.Fitness>
47.3058

> <Gold.PLP.PLP>
-45.3166

> <Gold.PLP.part.hbond>
-1.0000

> <Gold.PLP.part.metal>
0.0000

> <Gold.PLP.part.buried>
-7.6202

> <Gold.PLP.part.nonpolar>
-36.5868

> <Gold.PLP.part.repulsive>
0.1224

> <Gold.PLP.ligand.clash>
0.0000

> <Gold.PLP.ligand.torsion>
0.5222

> <Gold.PLP.Chemscore.Hbond>
1.0000

> <Gold.PLP.Chemscore.CHOScore>
0.0000

> <Gold.PLP.Chemscore.Metal>
0.0000

> <Gold.Chemscore.Hbonds>
donor molecule, donor type, donor heavy atom, donor atom, acceptor molecule, acceptor atom, score
      P1  H  7997  8009       L1     9  0.81

> <Gold.PLP.Chemscore.Internal.Correction>
0.0335

> <Gold.Rescore>
     Score         DG    S(hbond)    S(metal)    S(lipo)     H(rot)  DE(clash)    DE(int)     intcor
     11.82     -13.22       0.93        0.00      82.18       1.95       0.22       1.19       ----

> <Gold.Chemscore.Fitness>
11.8183

> <Gold.Chemscore.DG>
-13.2248

> <Gold.Chemscore.ZeroCoef>
-5.4800

> <Gold.Chemscore.Hbond>
0.9313

> <Gold.Chemscore.Metal>
0.0000

> <Gold.Chemscore.Lipo>
82.1843

> <Gold.Chemscore.Internal_Hbond>
0.0000

> <Gold.Chemscore.DEClash>
0.2156

> <Gold.Chemscore.DEInternal>
1.1909

> <Gold.Chemscore.Rot>
1.9458

> <Gold.Chemscore.Internal.Correction>
   9.000000E+99

> <Gold.Chemscore.Hbonds>
donor molecule, donor type, donor heavy atom, donor atom, acceptor molecule, acceptor atom, score
      P1  H  7997  8009       L1     9  0.66

> <Gold.Chemscore.Hbond.Weighted>
-3.1105

> <Gold.Chemscore.Metal.Weighted>
-0.0000

> <Gold.Chemscore.Lipo.Weighted>
-9.6156

> <Gold.Chemscore.Internal_Hbond.Weighted>
0.0000

> <Gold.Chemscore.DEClash.Weighted>
0.2156

> <Gold.Chemscore.DEInternal.Weighted>
1.1909

> <Gold.Chemscore.Rot.Weighted>
4.9813

> <Gold.Chemscore.Internal.Correction.Weighted>
   9.000000E+99

> <Gold.Protein.RotatedTorsions>
[ 6907 6896 6895 6894 ] final -111.24 input  -60.11 | X-H torsion
[ 7974 7965 7964 7962 ] final    3.67 input  175.53 | X-H torsion
[ 8008 7997 7996 7995 ] final  135.86 input   59.86 | X-H torsion
[ 10167 10162 10161 10158 ] final  -36.52 input  -65.29 | X-H torsion
[ 10718 10713 10712 10709 ] final   98.41 input   66.30 | X-H torsion
[ 10763 10752 10751 10750 ] final  -10.57 input  -60.55 | X-H torsion
[ 11005 11000 10999 10996 ] final  -89.93 input  -57.11 | X-H torsion

> <Gold.Protein.ActiveResidues>
 VAL166  LYS551  ARG553  GLY616  TRP617  ASP618  TYR619  PRO620  LYS621  CYS622 
 ASP623  PHE694  ASN695  SER759  ASP760  ASP761  ALA762  ILE779  LEU786  VAL792 
 PHE793  MET794  SER795  GLU796  ALA797  LYS798  CYS799  TRP800  GLU811  SER814 

> <Gold.Protein.RotatedAtoms>
  150.7677  133.9263  159.3413 H   0  0  0  0  0  0  0  0  0  0  0  0  # atno 6907 bound_to 6896
  151.7157  135.0902  160.0285 H   0  0  0  0  0  0  0  0  0  0  0  0  # atno 6908 bound_to 6896
  152.3681  133.6345  159.6102 H   0  0  0  0  0  0  0  0  0  0  0  0  # atno 6909 bound_to 6896
  146.2445  140.0650  142.8366 H   0  0  0  0  0  0  0  0  0  0  0  0  # atno 7974 bound_to 7965
  156.3003  140.2460  156.3651 H   0  0  0  0  0  0  0  0  0  0  0  0  # atno 8008 bound_to 7997
  154.8841  140.0411  157.1819 H   0  0  0  0  0  0  0  0  0  0  0  0  # atno 8009 bound_to 7997
  154.8666  140.2928  155.5511 H   0  0  0  0  0  0  0  0  0  0  0  0  # atno 8010 bound_to 7997
  140.7140  143.3403  151.2371 H   0  0  0  0  0  0  0  0  0  0  0  0  # atno 10167 bound_to 10162
  157.6896  131.0639  150.4791 H   0  0  0  0  0  0  0  0  0  0  0  0  # atno 10718 bound_to 10713
  153.4712  135.7017  153.5992 H   0  0  0  0  0  0  0  0  0  0  0  0  # atno 10763 bound_to 10752
  153.4246  135.3817  155.2132 H   0  0  0  0  0  0  0  0  0  0  0  0  # atno 10764 bound_to 10752
  154.8725  135.3936  154.4150 H   0  0  0  0  0  0  0  0  0  0  0  0  # atno 10765 bound_to 10752
  141.1575  133.7660  156.9665 H   0  0  0  0  0  0  0  0  0  0  0  0  # atno 11005 bound_to 11000
  145.0866  140.9257  143.4794 LP  0  0  0  0  0  0  0  0  0  0  0  0  # atno 17320 bound_to 7965
  145.0814  139.2957  143.5781 LP  0  0  0  0  0  0  0  0  0  0  0  0  # atno 17321 bound_to 7965
  139.6909  143.9694  152.2858 LP  0  0  0  0  0  0  0  0  0  0  0  0  # atno 17342 bound_to 10162
  139.9355  144.6715  150.8319 LP  0  0  0  0  0  0  0  0  0  0  0  0  # atno 17343 bound_to 10162
  156.5124  130.4142  149.6294 LP  0  0  0  0  0  0  0  0  0  0  0  0  # atno 17370 bound_to 10713
  156.3228  130.7290  151.2205 LP  0  0  0  0  0  0  0  0  0  0  0  0  # atno 17371 bound_to 10713
  140.1158  134.9448  157.2131 LP  0  0  0  0  0  0  0  0  0  0  0  0  # atno 17394 bound_to 11000
  140.3136  134.2996  155.7261 LP  0  0  0  0  0  0  0  0  0  0  0  0  # atno 17395 bound_to 11000

$$$$
