#       Name:                AV-unprocessed.smi:1467
#       Creating user name   scv26
#       Creation time:       Fri Mar 27 06:04:19 2020


#       File generated by GOLD software.
#

@<TRIPOS>MOLECULE
AV-unprocessed.smi:1467
    46    47     1
SMALL
NO_CHARGES


@<TRIPOS>ATOM
      1 ****        -4.5979   3.4745   1.9809 C.3            1 S1                 0.0000
      2 ****        -3.1071   3.6964   2.2454 C.2            1 S1                 0.0000
      3 ****        -2.7768   4.1720   3.3315 O.2            1 S1                 0.0000
      4 ****        -2.2067   3.3666   1.2884 N.am           1 S1                 0.0000
      5 ****        -2.5181   2.7162   0.0122 C.3            1 S1                 0.0000
      6 ****        -1.9211   1.2972   0.0139 C.3            1 S1                 0.0000
      7 ****        -0.4595   1.3173   0.2937 N.4            1 S1                 1.0000
      8 ****         0.1266  -0.0468   0.2868 C.3            1 S1                 0.0000
      9 ****         1.6514  -0.0365   0.0651 C.3            1 S1                 0.0000
     10 ****         2.1892  -1.3903  -0.0056 N.am           1 S1                 0.0000
     11 ****         2.1508  -2.1724  -1.0938 C.2            1 S1                 0.0000
     12 ****         1.6412  -1.8248  -2.1592 O.2            1 S1                 0.0000
     13 ****         2.7245  -3.3646  -0.8627 N.am           1 S1                 0.0000
     14 ****         2.8899  -4.4321  -1.7817 C.2            1 S1                 0.0000
     15 ****         3.4597  -5.6948  -1.4626 C.2            1 S1                 0.0000
     16 ****         3.4916  -6.4922  -2.5207 N.2            1 S1                 0.0000
     17 ****         2.9500  -5.7499  -3.5128 N.pl3          1 S1                 0.0000
     18 ****         2.5701  -4.4889  -3.1093 C.2            1 S1                 0.0000
     19 ****        -0.1191   2.1044   1.5117 C.3            1 S1                 0.0000
     20 ****        -0.7600   3.5039   1.4773 C.3            1 S1                 0.0000
     21 ****         2.8491  -6.1129  -4.4502 H              1 S1                 0.0000
     22 ****        -4.8081   2.4192   1.8060 H              1 S1                 0.0000
     23 ****        -4.9280   4.0515   1.1169 H              1 S1                 0.0000
     24 ****        -5.1910   3.7936   2.8386 H              1 S1                 0.0000
     25 ****        -3.5837   2.6637  -0.2056 H              1 S1                 0.0000
     26 ****        -2.0831   3.3016  -0.7993 H              1 S1                 0.0000
     27 ****        -2.4242   0.6857   0.7651 H              1 S1                 0.0000
     28 ****        -2.1031   0.8259  -0.9529 H              1 S1                 0.0000
     29 ****        -0.1253  -0.5621   1.2150 H              1 S1                 0.0000
     30 ****        -0.3352  -0.6201  -0.5185 H              1 S1                 0.0000
     31 ****         1.9033   0.5142  -0.8431 H              1 S1                 0.0000
     32 ****         2.1600   0.4677   0.8860 H              1 S1                 0.0000
     33 ****         2.6283  -1.7535   0.8280 H              1 S1                 0.0000
     34 ****         3.0841  -3.5263   0.0666 H              1 S1                 0.0000
     35 ****         3.8428  -6.0520  -0.5180 H              1 S1                 0.0000
     36 ****         2.1247  -3.7752  -3.7865 H              1 S1                 0.0000
     37 ****        -0.4599   1.5662   2.3978 H              1 S1                 0.0000
     38 ****         0.9607   2.2139   1.6030 H              1 S1                 0.0000
     39 ****        -0.3457   4.0862   0.6530 H              1 S1                 0.0000
     40 ****        -0.5001   4.0503   2.3851 H              1 S1                 0.0000
     41 ****        -0.0437   1.8075  -0.4855 H              1 S1                 0.0000
     42 ****        -3.4747   4.4011   4.0100 LP             1 S1                 0.0000
     43 ****        -1.8105   4.3293   3.5354 LP             1 S1                 0.0000
     44 ****         1.2281  -0.9180  -2.2435 LP             1 S1                 0.0000
     45 ****         1.6404  -2.4492  -2.9403 LP             1 S1                 0.0000
     46 ****         3.8373  -7.4291  -2.5734 LP             1 S1                 0.0000
@<TRIPOS>BOND
    1    1    2 1     
    2    1   22 1     
    3    1   23 1     
    4    1   24 1     
    5    2    3 2     
    6    2    4 am    
    7    4   20 1     
    8    4    5 1     
    9    5    6 1     
   10    5   25 1     
   11    5   26 1     
   12    6    7 1     
   13    6   27 1     
   14    6   28 1     
   15    7    8 1     
   16    7   19 1     
   17    7   41 1     
   18    8    9 1     
   19    8   29 1     
   20    8   30 1     
   21    9   10 1     
   22    9   31 1     
   23    9   32 1     
   24   10   11 am    
   25   10   33 1     
   26   11   12 2     
   27   11   13 am    
   28   13   14 1     
   29   13   34 1     
   30   14   18 2     
   31   14   15 1     
   32   15   16 2     
   33   15   35 1     
   34   16   17 1     
   35   17   21 1     
   36   17   18 1     
   37   18   36 1     
   38   19   20 1     
   39   19   37 1     
   40   19   38 1     
   41   20   39 1     
   42   20   40 1     
   43    3   42 1     
   44    3   43 1     
   45   12   44 1     
   46   12   45 1     
   47   16   46 1     
@<TRIPOS>SUBSTRUCTURE
      1 S1             1
@<TRIPOS>SET
LONE_PAIRS      STATIC     ATOMS    <user>   **** ""
5 42 43 44 45 46
DONOR_HYDROGENS      STATIC     ATOMS    <user>   **** ""
4 41 33 34 21
ATOM$BLUE        STATIC     ATOMS    COLORGROUP SYSTEM
5 42 43 44 45 46
ATOM$RED        STATIC     ATOMS    COLORGROUP SYSTEM
4 41 33 34 21
