AV-unprocessed.smi:1660|AV-procd|sdf|6652|dock10
  -GOLD-   22720 7363D 1   1.00000     0.00000
 Structure written by MMmdl.
 42 43  0  0  0  0  0  0  0  0  1 V2000
  150.5584  129.3559  155.7613 C   0  0  0  0  0  0  0  0  0  0  0  0
  151.1147  130.2730  156.6971 O   0  0  0  0  0  0  0  0  0  0  0  0
  151.0322  131.6224  156.4206 C   0  0  0  0  0  0  0  0  0  0  0  0
  151.9464  132.4949  157.0432 C   0  0  0  0  0  0  0  0  0  0  0  0
  151.8691  133.8734  156.7678 C   0  0  0  0  0  0  0  0  0  0  0  0
  150.8806  134.3370  155.8668 C   0  0  0  0  0  0  0  0  0  0  0  0
  150.6881  135.7019  155.5189 N   0  0  0  0  0  0  0  0  0  0  0  0
  151.5563  136.7234  155.6195 C   0  0  0  0  0  0  0  0  0  0  0  0
  152.7168  136.6367  156.0205 O   0  0  0  0  0  0  0  0  0  0  0  0
  151.0058  137.8721  155.2048 N   0  0  0  0  0  0  0  0  0  0  0  0
  151.7018  139.1520  155.1855 C   0  0  0  0  0  0  0  0  0  0  0  0
  151.0742  140.1296  156.1959 C   0  0  0  0  0  0  0  0  0  0  0  0
  152.0578  140.6259  157.2711 C   0  0  0  0  0  0  0  0  0  0  0  0
  153.1203  140.0233  157.4322 O   0  0  0  0  0  0  0  0  0  0  0  0
  151.7298  141.7144  158.0077 N   0  0  0  0  0  0  0  0  0  0  0  0
  152.6317  142.3179  158.9926 C   0  0  0  0  0  0  0  0  0  0  0  0
  153.0304  143.7161  158.4867 C   0  0  0  0  0  0  0  0  0  0  0  0
  151.8599  144.5051  158.2836 O   0  0  0  0  0  0  0  0  0  0  0  0
  150.9442  143.9249  157.3572 C   0  0  0  0  0  0  0  0  0  0  0  0
  150.5216  142.5305  157.8533 C   0  0  0  0  0  0  0  0  0  0  0  0
  150.0057  133.3831  155.3070 C   0  0  0  0  0  0  0  0  0  0  0  0
  150.0741  132.0604  155.5668 N   0  0  0  0  0  0  0  0  0  0  0  0
  150.7031  128.3387  156.1246 H   0  0  0  0  0  0  0  0  0  0  0  0
  151.0469  129.4327  154.7888 H   0  0  0  0  0  0  0  0  0  0  0  0
  149.4859  129.5131  155.6376 H   0  0  0  0  0  0  0  0  0  0  0  0
  152.6924  132.1139  157.7252 H   0  0  0  0  0  0  0  0  0  0  0  0
  152.5573  134.5412  157.2617 H   0  0  0  0  0  0  0  0  0  0  0  0
  149.7969  135.9177  155.0963 H   0  0  0  0  0  0  0  0  0  0  0  0
  150.0486  137.8616  154.8844 H   0  0  0  0  0  0  0  0  0  0  0  0
  152.7548  138.9855  155.4203 H   0  0  0  0  0  0  0  0  0  0  0  0
  151.6552  139.5691  154.1776 H   0  0  0  0  0  0  0  0  0  0  0  0
  150.6826  140.9929  155.6560 H   0  0  0  0  0  0  0  0  0  0  0  0
  150.2318  139.6444  156.6906 H   0  0  0  0  0  0  0  0  0  0  0  0
  152.1213  142.3961  159.9536 H   0  0  0  0  0  0  0  0  0  0  0  0
  153.5270  141.7216  159.1739 H   0  0  0  0  0  0  0  0  0  0  0  0
  153.6703  144.2134  159.2156 H   0  0  0  0  0  0  0  0  0  0  0  0
  153.5982  143.6453  157.5573 H   0  0  0  0  0  0  0  0  0  0  0  0
  150.0735  144.5744  157.2678 H   0  0  0  0  0  0  0  0  0  0  0  0
  151.4016  143.8638  156.3682 H   0  0  0  0  0  0  0  0  0  0  0  0
  149.7842  142.1055  157.1746 H   0  0  0  0  0  0  0  0  0  0  0  0
  150.0200  142.6149  158.8184 H   0  0  0  0  0  0  0  0  0  0  0  0
  149.2265  133.6885  154.6240 H   0  0  0  0  0  0  0  0  0  0  0  0
  1  2  1  0  0  0  0
  1 23  1  0  0  0  0
  1 24  1  0  0  0  0
  1 25  1  0  0  0  0
  2  3  1  0  0  0  0
  3 22  1  0  0  0  0
  3  4  2  0  0  0  0
  4  5  1  0  0  0  0
  4 26  1  0  0  0  0
  5  6  2  0  0  0  0
  5 27  1  0  0  0  0
  6  7  1  0  0  0  0
  6 21  1  0  0  0  0
  7  8  1  0  0  0  0
  7 28  1  0  0  0  0
  8  9  2  0  0  0  0
  8 10  1  0  0  0  0
 10 11  1  0  0  0  0
 10 29  1  0  0  0  0
 11 12  1  0  0  0  0
 11 30  1  0  0  0  0
 11 31  1  0  0  0  0
 12 13  1  0  0  0  0
 12 32  1  0  0  0  0
 12 33  1  0  0  0  0
 13 14  2  0  0  0  0
 13 15  1  0  0  0  0
 15 20  1  0  0  0  0
 15 16  1  0  0  0  0
 16 17  1  0  0  0  0
 16 34  1  0  0  0  0
 16 35  1  0  0  0  0
 17 18  1  0  0  0  0
 17 36  1  0  0  0  0
 17 37  1  0  0  0  0
 18 19  1  0  0  0  0
 19 20  1  0  0  0  0
 19 38  1  0  0  0  0
 19 39  1  0  0  0  0
 20 40  1  0  0  0  0
 20 41  1  0  0  0  0
 21 22  2  0  0  0  0
 21 42  1  0  0  0  0
M  END
> <s_m_source_file>
AV-unprocessed.smi

> <i_m_source_file_index>
1660

> <i_lp_mmshare_version>
43012

> <i_f3d_flags>
0

> <s_epik_input>
W0NIM11PYzFbY0hdW2NIXWMoW2NIXW4xKVtOSF1DKD1PKVtOSF1bQ0gyXVtDSDJdQyg9TylOMltDSDJdW0NIMl1PW0NIMl1bQ0gyXTI=

> <s_epik_cmdline>
J2VwaWtfcHl0aG9uJywgJy1waCcsICc3LjAnLCAnLXRuJywgJzgnLCAnLW1hJywgJzIwMCcsICctbWV0YWxfYmluZGluZycsICctaW1hZScsICc8aW5maWxlLm1hZT4nLCAnLW9tYWUnLCAnPG91dGZpbGUubWFlPic=

> <r_lp_tautomer_probability>
1

> <r_epik_Ionization_Penalty>
8.54597e-05

> <r_epik_Ionization_Penalty_Charging>
0

> <r_epik_Ionization_Penalty_Neutral>
8.54597e-05

> <r_epik_State_Penalty>
-0

> <r_epik_Charging_Adjusted_Penalty>
0

> <i_epik_Tot_Q>
0

> <i_epik_Tot_abs_Q>
0

> <r_epik_Metal_State_Penalty>
-0

> <b_epik_Metal_Only>
0

> <s_lp_Force_Field>
OPLS_2005

> <r_lp_Energy>
25.5639

> <b_lp_Chiralities_Consistent>
1

> <s_lp_Variant>
AV-unprocessed.smi:1660-1

> <Gold.Version>
5.8.1

> <Gold.Id.Protein>
6NUR|6NUR_protein|mol2

> <Gold.PLP.Fitness>
46.6770

> <Gold.PLP.PLP>
-39.1270

> <Gold.PLP.part.hbond>
-2.9753

> <Gold.PLP.part.metal>
0.0000

> <Gold.PLP.part.buried>
-4.3581

> <Gold.PLP.part.nonpolar>
-32.2679

> <Gold.PLP.part.repulsive>
0.3423

> <Gold.PLP.ligand.clash>
0.0000

> <Gold.PLP.ligand.torsion>
1.0082

> <Gold.PLP.Chemscore.Hbond>
2.1825

> <Gold.PLP.Chemscore.CHOScore>
0.9967

> <Gold.PLP.Chemscore.Metal>
0.0000

> <Gold.Chemscore.Hbonds>
donor molecule, donor type, donor heavy atom, donor atom, acceptor molecule, acceptor atom, score
      P1  H  7997  8009       L1    14  0.83
      P1  H 10752 10765       L1     9  0.72

> <Gold.PLP.Chemscore.Internal.Correction>
0.0286

> <Gold.Rescore>
     Score         DG    S(hbond)    S(metal)    S(lipo)     H(rot)  DE(clash)    DE(int)     intcor
     16.02     -18.47       2.51        0.00      80.65       1.88       0.50       1.94       ----

> <Gold.Chemscore.Fitness>
16.0200

> <Gold.Chemscore.DG>
-18.4668

> <Gold.Chemscore.ZeroCoef>
-5.4800

> <Gold.Chemscore.Hbond>
2.5063

> <Gold.Chemscore.Metal>
0.0000

> <Gold.Chemscore.Lipo>
80.6483

> <Gold.Chemscore.Internal_Hbond>
0.0000

> <Gold.Chemscore.DEClash>
0.5022

> <Gold.Chemscore.DEInternal>
1.9445

> <Gold.Chemscore.Rot>
1.8828

> <Gold.Chemscore.Internal.Correction>
   9.000000E+99

> <Gold.Chemscore.Hbonds>
donor molecule, donor type, donor heavy atom, donor atom, acceptor molecule, acceptor atom, score
      P1  H  7997  8009       L1    14  0.79
      P1  H 10752 10765       L1     9  0.10

> <Gold.Chemscore.Hbond.Weighted>
-8.3709

> <Gold.Chemscore.Metal.Weighted>
-0.0000

> <Gold.Chemscore.Lipo.Weighted>
-9.4358

> <Gold.Chemscore.Internal_Hbond.Weighted>
0.0000

> <Gold.Chemscore.DEClash.Weighted>
0.5022

> <Gold.Chemscore.DEInternal.Weighted>
1.9445

> <Gold.Chemscore.Rot.Weighted>
4.8200

> <Gold.Chemscore.Internal.Correction.Weighted>
   9.000000E+99

> <Gold.Protein.RotatedTorsions>
[ 6907 6896 6895 6894 ] final -113.88 input  -60.11 | X-H torsion
[ 7974 7965 7964 7962 ] final -138.03 input  175.53 | X-H torsion
[ 8008 7997 7996 7995 ] final  174.37 input   59.86 | X-H torsion
[ 10167 10162 10161 10158 ] final  118.13 input  -65.29 | X-H torsion
[ 10718 10713 10712 10709 ] final  -17.85 input   66.30 | X-H torsion
[ 10763 10752 10751 10750 ] final -151.90 input  -60.55 | X-H torsion
[ 11005 11000 10999 10996 ] final  121.68 input  -57.11 | X-H torsion

> <Gold.Protein.ActiveResidues>
 VAL166  LYS551  ARG553  GLY616  TRP617  ASP618  TYR619  PRO620  LYS621  CYS622 
 ASP623  PHE694  ASN695  SER759  ASP760  ASP761  ALA762  ILE779  LEU786  VAL792 
 PHE793  MET794  SER795  GLU796  ALA797  LYS798  CYS799  TRP800  GLU811  SER814 

> <Gold.Protein.RotatedAtoms>
  150.7861  133.8881  159.3305 H   0  0  0  0  0  0  0  0  0  0  0  0  # atno 6907 bound_to 6896
  151.6731  135.0971  160.0211 H   0  0  0  0  0  0  0  0  0  0  0  0  # atno 6908 bound_to 6896
  152.3925  133.6661  159.6285 H   0  0  0  0  0  0  0  0  0  0  0  0  # atno 6909 bound_to 6896
  144.8792  140.6482  143.5217 H   0  0  0  0  0  0  0  0  0  0  0  0  # atno 7974 bound_to 7965
  156.0981  140.1436  156.9504 H   0  0  0  0  0  0  0  0  0  0  0  0  # atno 8008 bound_to 7997
  154.4684  140.0918  156.7127 H   0  0  0  0  0  0  0  0  0  0  0  0  # atno 8009 bound_to 7997
  155.4807  140.3445  155.4341 H   0  0  0  0  0  0  0  0  0  0  0  0  # atno 8010 bound_to 7997
  139.6132  144.7086  151.2797 H   0  0  0  0  0  0  0  0  0  0  0  0  # atno 10167 bound_to 10162
  156.5677  130.4741  149.6377 H   0  0  0  0  0  0  0  0  0  0  0  0  # atno 10718 bound_to 10713
  154.8028  135.3249  154.7507 H   0  0  0  0  0  0  0  0  0  0  0  0  # atno 10763 bound_to 10752
  153.8171  135.6891  153.4837 H   0  0  0  0  0  0  0  0  0  0  0  0  # atno 10764 bound_to 10752
  153.1755  135.4606  154.9903 H   0  0  0  0  0  0  0  0  0  0  0  0  # atno 10765 bound_to 10752
  139.9236  134.9639  156.7995 H   0  0  0  0  0  0  0  0  0  0  0  0  # atno 11005 bound_to 11000
  145.3986  139.1602  143.4190 LP  0  0  0  0  0  0  0  0  0  0  0  0  # atno 17320 bound_to 7965
  146.2983  140.4081  142.8713 LP  0  0  0  0  0  0  0  0  0  0  0  0  # atno 17321 bound_to 7965
  140.7333  143.6798  150.8011 LP  0  0  0  0  0  0  0  0  0  0  0  0  # atno 17342 bound_to 10162
  140.0396  143.5360  152.2724 LP  0  0  0  0  0  0  0  0  0  0  0  0  # atno 17343 bound_to 10162
  156.2742  130.7034  151.1840 LP  0  0  0  0  0  0  0  0  0  0  0  0  # atno 17370 bound_to 10713
  157.7355  131.0572  150.5467 LP  0  0  0  0  0  0  0  0  0  0  0  0  # atno 17371 bound_to 10713
  140.6401  133.9826  155.7703 LP  0  0  0  0  0  0  0  0  0  0  0  0  # atno 17394 bound_to 11000
  141.0777  134.0110  157.3433 LP  0  0  0  0  0  0  0  0  0  0  0  0  # atno 17395 bound_to 11000

$$$$
