AV-unprocessed.smi:334|AV-procd|sdf|2368|dock9
  -GOLD-   2262022283D 1   1.00000     0.00000
 Structure written by MMmdl.
 44 46  0  0  0  0  0  0  0  0  3 V2000
  153.2908  140.4691  159.4867 C   0  0  0  0  0  0  0  0  0  0  0  0
  151.9718  141.1808  159.1328 C   0  0  2  0  0  0  0  0  0  0  0  0
  151.7467  141.0716  157.6922 N   0  0  0  0  0  0  0  0  0  0  0  0
  151.6774  139.9260  156.9970 C   0  0  0  0  0  0  0  0  0  0  0  0
  151.7942  138.8138  157.5135 O   0  0  0  0  0  0  0  0  0  0  0  0
  151.4199  140.0712  155.4904 C   0  0  0  0  0  0  0  0  0  0  0  0
  150.1057  139.5548  155.0723 N   0  0  0  0  0  0  0  0  0  0  0  0
  149.8143  138.2131  155.3890 C   0  0  0  0  0  0  0  0  0  0  0  0
  148.6458  137.6348  155.0483 C   0  0  0  0  0  0  0  0  0  0  0  0
  148.3656  136.2544  155.3774 N   0  3  0  0  0  0  0  0  0  0  0  0
  149.2413  135.5899  155.9222 O   0  0  0  0  0  0  0  0  0  0  0  0
  147.2638  135.7883  155.1027 O   0  5  0  0  0  0  0  0  0  0  0  0
  147.6761  138.4431  154.3347 C   0  0  0  0  0  0  0  0  0  0  0  0
  147.9502  139.7258  154.0263 C   0  0  0  0  0  0  0  0  0  0  0  0
  149.2238  140.3523  154.3951 C   0  0  0  0  0  0  0  0  0  0  0  0
  149.4818  141.5225  154.1129 O   0  0  0  0  0  0  0  0  0  0  0  0
  151.9659  142.6740  159.5449 C   0  0  1  0  0  0  0  0  0  0  0  0
  153.2709  143.4265  159.1794 C   0  0  0  0  0  0  0  0  0  0  0  0
  152.7699  144.6448  158.3848 C   0  0  2  0  0  0  0  0  0  0  0  0
  152.0302  145.6095  159.3291 C   0  0  0  0  0  0  0  0  0  0  0  0
  150.7180  144.8576  159.6189 C   0  0  0  0  0  0  0  0  0  0  0  0
  150.8977  143.5437  158.8337 C   0  0  1  0  0  0  0  0  0  0  0  0
  151.6253  144.0363  157.5868 C   0  0  0  0  0  0  0  0  0  0  0  0
  153.4658  140.4479  160.5613 H   0  0  0  0  0  0  0  0  0  0  0  0
  154.1445  140.9613  159.0196 H   0  0  0  0  0  0  0  0  0  0  0  0
  153.2817  139.4326  159.1478 H   0  0  0  0  0  0  0  0  0  0  0  0
  151.1579  140.6763  159.6563 H   0  0  0  0  0  0  0  0  0  0  0  0
  151.6345  141.9379  157.1857 H   0  0  0  0  0  0  0  0  0  0  0  0
  151.5183  141.1259  155.2297 H   0  0  0  0  0  0  0  0  0  0  0  0
  152.2146  139.5671  154.9371 H   0  0  0  0  0  0  0  0  0  0  0  0
  150.6038  137.6953  155.9142 H   0  0  0  0  0  0  0  0  0  0  0  0
  146.7241  138.0255  154.0413 H   0  0  0  0  0  0  0  0  0  0  0  0
  147.2135  140.3088  153.4929 H   0  0  0  0  0  0  0  0  0  0  0  0
  151.8119  142.7213  160.6243 H   0  0  0  0  0  0  0  0  0  0  0  0
  153.8461  143.7130  160.0608 H   0  0  0  0  0  0  0  0  0  0  0  0
  153.9203  142.8197  158.5464 H   0  0  0  0  0  0  0  0  0  0  0  0
  153.5449  145.1251  157.7868 H   0  0  0  0  0  0  0  0  0  0  0  0
  152.6005  145.8178  160.2350 H   0  0  0  0  0  0  0  0  0  0  0  0
  151.8262  146.5602  158.8346 H   0  0  0  0  0  0  0  0  0  0  0  0
  150.5579  144.6911  160.6847 H   0  0  0  0  0  0  0  0  0  0  0  0
  149.8641  145.4204  159.2392 H   0  0  0  0  0  0  0  0  0  0  0  0
  149.9522  143.0400  158.6377 H   0  0  0  0  0  0  0  0  0  0  0  0
  151.0568  144.7728  157.0161 H   0  0  0  0  0  0  0  0  0  0  0  0
  151.9410  143.2341  156.9180 H   0  0  0  0  0  0  0  0  0  0  0  0
  1  2  1  0  0  0  0
  1 24  1  0  0  0  0
  1 25  1  0  0  0  0
  1 26  1  0  0  0  0
  2  3  1  0  0  0  0
  2 17  1  0  0  0  0
  2 27  1  0  0  0  0
  3  4  1  0  0  0  0
  3 28  1  0  0  0  0
  4  5  2  0  0  0  0
  4  6  1  0  0  0  0
  6  7  1  0  0  0  0
  6 29  1  0  0  0  0
  6 30  1  0  0  0  0
  7 15  1  0  0  0  0
  7  8  1  0  0  0  0
  8  9  2  0  0  0  0
  8 31  1  0  0  0  0
  9 10  1  0  0  0  0
  9 13  1  0  0  0  0
 10 11  2  0  0  0  0
 10 12  1  0  0  0  0
 13 14  2  0  0  0  0
 13 32  1  0  0  0  0
 14 15  1  0  0  0  0
 14 33  1  0  0  0  0
 15 16  2  0  0  0  0
 17 22  1  0  0  0  0
 17 18  1  0  0  0  0
 17 34  1  0  0  0  0
 18 19  1  0  0  0  0
 18 35  1  0  0  0  0
 18 36  1  0  0  0  0
 19 23  1  0  0  0  0
 19 20  1  0  0  0  0
 19 37  1  0  0  0  0
 20 21  1  0  0  0  0
 20 38  1  0  0  0  0
 20 39  1  0  0  0  0
 21 22  1  0  0  0  0
 21 40  1  0  0  0  0
 21 41  1  0  0  0  0
 22 23  1  0  0  0  0
 22 42  1  0  0  0  0
 23 43  1  0  0  0  0
 23 44  1  0  0  0  0
M  CHG  1  10   1
M  CHG  1  12  -1
M  END
> <s_m_source_file>
AV-unprocessed.smi

> <i_m_source_file_index>
334

> <i_lp_mmshare_version>
43012

> <i_f3d_flags>
0

> <s_epik_input>
W0NIMl0xW0NIMl1bQ0BIXShbQ0gyXTIpW0NAQEhdKFtDSDJdW0NAQEhdMTIpW0NASF0oW0NIM10pW05IXUMoPU8pW0NIMl1uM1tjSF1jKFtOK10oPU8pW08tXSlbY0hdW2NIXWMzPU8=

> <s_epik_cmdline>
J2VwaWtfcHl0aG9uJywgJy1waCcsICc3LjAnLCAnLXRuJywgJzgnLCAnLW1hJywgJzIwMCcsICctbWV0YWxfYmluZGluZycsICctaW1hZScsICc8aW5maWxlLm1hZT4nLCAnLW9tYWUnLCAnPG91dGZpbGUubWFlPic=

> <r_lp_tautomer_probability>
1

> <r_epik_Ionization_Penalty>
2.17081e-08

> <r_epik_Ionization_Penalty_Charging>
8.1195e-11

> <r_epik_Ionization_Penalty_Neutral>
2.16269e-08

> <r_epik_State_Penalty>
-0

> <r_epik_Charging_Adjusted_Penalty>
8.1195e-11

> <i_epik_Tot_Q>
0

> <i_epik_Tot_abs_Q>
2

> <r_epik_Metal_State_Penalty>
-0

> <b_epik_Metal_Only>
0

> <s_lp_Force_Field>
OPLS_2005

> <r_lp_Energy>
62.5387

> <b_lp_Chiralities_Consistent>
1

> <s_lp_Variant>
AV-unprocessed.smi:334-7

> <Gold.Version>
5.8.1

> <Gold.Id.Protein>
6NUR|6NUR_protein|mol2

> <Gold.PLP.Fitness>
45.0477

> <Gold.PLP.PLP>
-44.5024

> <Gold.PLP.part.hbond>
-2.0000

> <Gold.PLP.part.metal>
0.0000

> <Gold.PLP.part.buried>
-2.7337

> <Gold.PLP.part.nonpolar>
-39.6740

> <Gold.PLP.part.repulsive>
0.3893

> <Gold.PLP.ligand.clash>
1.0267

> <Gold.PLP.ligand.torsion>
0.3771

> <Gold.PLP.Chemscore.Hbond>
0.7581

> <Gold.PLP.Chemscore.CHOScore>
0.0000

> <Gold.PLP.Chemscore.Metal>
0.0000

> <Gold.Chemscore.Hbonds>
donor molecule, donor type, donor heavy atom, donor atom, acceptor molecule, acceptor atom, score
      P1  H  7989  7998       L1    16  0.05
      P1  H  8011  8017       L1    16  0.64

> <Gold.PLP.Chemscore.Internal.Correction>
0.0519

> <Gold.Rescore>
     Score         DG    S(hbond)    S(metal)    S(lipo)     H(rot)  DE(clash)    DE(int)     intcor
     14.16     -17.50       0.59        0.00     124.08       1.75       0.48       2.86       ----

> <Gold.Chemscore.Fitness>
14.1636

> <Gold.Chemscore.DG>
-17.5045

> <Gold.Chemscore.ZeroCoef>
-5.4800

> <Gold.Chemscore.Hbond>
0.5930

> <Gold.Chemscore.Metal>
0.0000

> <Gold.Chemscore.Lipo>
124.0794

> <Gold.Chemscore.Internal_Hbond>
0.0000

> <Gold.Chemscore.DEClash>
0.4760

> <Gold.Chemscore.DEInternal>
2.8649

> <Gold.Chemscore.Rot>
1.7474

> <Gold.Chemscore.Internal.Correction>
   9.000000E+99

> <Gold.Chemscore.Hbonds>
donor molecule, donor type, donor heavy atom, donor atom, acceptor molecule, acceptor atom, score
      P1  H  8011  8017       L1    16  0.61

> <Gold.Chemscore.Hbond.Weighted>
-1.9805

> <Gold.Chemscore.Metal.Weighted>
-0.0000

> <Gold.Chemscore.Lipo.Weighted>
-14.5173

> <Gold.Chemscore.Internal_Hbond.Weighted>
0.0000

> <Gold.Chemscore.DEClash.Weighted>
0.4760

> <Gold.Chemscore.DEInternal.Weighted>
2.8649

> <Gold.Chemscore.Rot.Weighted>
4.4733

> <Gold.Chemscore.Internal.Correction.Weighted>
   9.000000E+99

> <Gold.Protein.RotatedTorsions>
[ 6907 6896 6895 6894 ] final   31.99 input  -60.11 | X-H torsion
[ 7974 7965 7964 7962 ] final  -38.65 input  175.53 | X-H torsion
[ 8008 7997 7996 7995 ] final  -55.67 input   59.86 | X-H torsion
[ 10167 10162 10161 10158 ] final -102.36 input  -65.29 | X-H torsion
[ 10718 10713 10712 10709 ] final -155.68 input   66.30 | X-H torsion
[ 10763 10752 10751 10750 ] final  119.93 input  -60.55 | X-H torsion
[ 11005 11000 10999 10996 ] final   79.68 input  -57.11 | X-H torsion

> <Gold.Protein.ActiveResidues>
 VAL166  LYS551  ARG553  GLY616  TRP617  ASP618  TYR619  PRO620  LYS621  CYS622 
 ASP623  PHE694  ASN695  SER759  ASP760  ASP761  ALA762  ILE779  LEU786  VAL792 
 PHE793  MET794  SER795  GLU796  ALA797  LYS798  CYS799  TRP800  GLU811  SER814 

> <Gold.Protein.RotatedAtoms>
  152.0682  134.9551  160.0574 H   0  0  0  0  0  0  0  0  0  0  0  0  # atno 6907 bound_to 6896
  152.0887  133.4184  159.4542 H   0  0  0  0  0  0  0  0  0  0  0  0  # atno 6908 bound_to 6896
  150.6836  134.2816  159.4673 H   0  0  0  0  0  0  0  0  0  0  0  0  # atno 6909 bound_to 6896
  146.0467  140.6536  142.9061 H   0  0  0  0  0  0  0  0  0  0  0  0  # atno 7974 bound_to 7965
  154.4203  140.1147  156.5513 H   0  0  0  0  0  0  0  0  0  0  0  0  # atno 8008 bound_to 7997
  155.6406  140.3496  155.4695 H   0  0  0  0  0  0  0  0  0  0  0  0  # atno 8009 bound_to 7997
  155.9873  140.1172  157.0660 H   0  0  0  0  0  0  0  0  0  0  0  0  # atno 8010 bound_to 7997
  140.2314  143.3604  152.0883 H   0  0  0  0  0  0  0  0  0  0  0  0  # atno 10167 bound_to 10162
  156.5161  130.8457  151.2665 H   0  0  0  0  0  0  0  0  0  0  0  0  # atno 10718 bound_to 10713
  153.5906  135.3466  155.2909 H   0  0  0  0  0  0  0  0  0  0  0  0  # atno 10763 bound_to 10752
  154.8653  135.4204  154.2521 H   0  0  0  0  0  0  0  0  0  0  0  0  # atno 10764 bound_to 10752
  153.3327  135.7045  153.7005 H   0  0  0  0  0  0  0  0  0  0  0  0  # atno 10765 bound_to 10752
  139.9163  134.7861  156.1810 H   0  0  0  0  0  0  0  0  0  0  0  0  # atno 11005 bound_to 11000
  144.7102  140.4008  143.7087 LP  0  0  0  0  0  0  0  0  0  0  0  0  # atno 17320 bound_to 7965
  145.6793  139.1615  143.2710 LP  0  0  0  0  0  0  0  0  0  0  0  0  # atno 17321 bound_to 7965
  139.5108  144.6891  151.5808 LP  0  0  0  0  0  0  0  0  0  0  0  0  # atno 17342 bound_to 10162
  140.6182  143.9309  150.6505 LP  0  0  0  0  0  0  0  0  0  0  0  0  # atno 17343 bound_to 10162
  157.7443  130.9933  150.2667 LP  0  0  0  0  0  0  0  0  0  0  0  0  # atno 17370 bound_to 10713
  156.3194  130.3783  149.7589 LP  0  0  0  0  0  0  0  0  0  0  0  0  # atno 17371 bound_to 10713
  141.0642  133.6827  156.2012 LP  0  0  0  0  0  0  0  0  0  0  0  0  # atno 17394 bound_to 11000
  140.6612  134.4966  157.5583 LP  0  0  0  0  0  0  0  0  0  0  0  0  # atno 17395 bound_to 11000

$$$$
