AV-unprocessed.smi:3031|AV-procd|sdf|11544|dock2
  -GOLD-   2272016493D 1   1.00000     0.00000
 Structure written by MMmdl.
 47 48  0  0  0  0  0  0  0  0  2 V2000
  152.9984  138.9475  158.3761 C   0  0  0  0  0  0  0  0  0  0  0  0
  152.2778  139.1895  157.0813 C   0  0  0  0  0  0  0  0  0  0  0  0
  152.0764  140.4318  156.4150 C   0  0  0  0  0  0  0  0  0  0  0  0
  151.3899  140.3065  155.2909 N   0  0  0  0  0  0  0  0  0  0  0  0
  151.1326  138.9850  155.1984 N   0  0  0  0  0  0  0  0  0  0  0  0
  150.3720  138.4764  154.0720 C   0  0  0  0  0  0  0  0  0  0  0  0
  148.8916  138.9185  154.0883 C   0  0  1  0  0  0  0  0  0  0  0  0
  148.7812  140.4153  154.4083 C   0  0  0  0  0  0  0  0  0  0  0  0
  148.2362  138.6474  152.7883 N   0  3  0  0  0  0  0  0  0  0  0  0
  146.7891  138.9499  152.7319 C   0  0  0  0  0  0  0  0  0  0  0  0
  146.0152  137.8231  152.0280 C   0  0  1  0  0  0  0  0  0  0  0  0
  146.4507  137.7869  150.6817 O   0  0  0  0  0  0  0  0  0  0  0  0
  146.2860  136.4455  152.6706 C   0  0  0  0  0  0  0  0  0  0  0  0
  145.9883  135.2923  151.8217 N   0  0  0  0  0  0  0  0  0  0  0  0
  144.6515  135.3987  151.2454 C   0  0  0  0  0  0  0  0  0  0  0  0
  144.3145  134.1980  150.3446 C   0  0  0  0  0  0  0  0  0  0  0  0
  144.4462  132.9927  151.0906 O   0  0  0  0  0  0  0  0  0  0  0  0
  145.7515  132.8237  151.6334 C   0  0  0  0  0  0  0  0  0  0  0  0
  146.0967  134.0216  152.5355 C   0  0  0  0  0  0  0  0  0  0  0  0
  151.6642  138.2855  156.2612 C   0  0  0  0  0  0  0  0  0  0  0  0
  154.0435  139.2513  158.3164 H   0  0  0  0  0  0  0  0  0  0  0  0
  152.9857  137.8946  158.6587 H   0  0  0  0  0  0  0  0  0  0  0  0
  152.5477  139.5056  159.1970 H   0  0  0  0  0  0  0  0  0  0  0  0
  152.4040  141.4161  156.7159 H   0  0  0  0  0  0  0  0  0  0  0  0
  150.8568  138.8232  153.1582 H   0  0  0  0  0  0  0  0  0  0  0  0
  150.4450  137.3879  154.0653 H   0  0  0  0  0  0  0  0  0  0  0  0
  148.3599  138.3814  154.8756 H   0  0  0  0  0  0  0  0  0  0  0  0
  149.2273  140.6434  155.3769 H   0  0  0  0  0  0  0  0  0  0  0  0
  147.7392  140.7346  154.4451 H   0  0  0  0  0  0  0  0  0  0  0  0
  149.2896  141.0221  153.6579 H   0  0  0  0  0  0  0  0  0  0  0  0
  148.6872  139.2134  152.0838 H   0  0  0  0  0  0  0  0  0  0  0  0
  146.3827  139.1122  153.7294 H   0  0  0  0  0  0  0  0  0  0  0  0
  146.6654  139.8871  152.1878 H   0  0  0  0  0  0  0  0  0  0  0  0
  144.9480  138.0485  152.0605 H   0  0  0  0  0  0  0  0  0  0  0  0
  145.7518  138.1029  150.1290 H   0  0  0  0  0  0  0  0  0  0  0  0
  147.3100  136.3912  153.0449 H   0  0  0  0  0  0  0  0  0  0  0  0
  145.6538  136.3677  153.5562 H   0  0  0  0  0  0  0  0  0  0  0  0
  143.9095  135.4681  152.0424 H   0  0  0  0  0  0  0  0  0  0  0  0
  144.5702  136.3175  150.6636 H   0  0  0  0  0  0  0  0  0  0  0  0
  143.2930  134.2775  149.9726 H   0  0  0  0  0  0  0  0  0  0  0  0
  144.9721  134.1705  149.4743 H   0  0  0  0  0  0  0  0  0  0  0  0
  145.7831  131.8965  152.2054 H   0  0  0  0  0  0  0  0  0  0  0  0
  146.4785  132.7268  150.8258 H   0  0  0  0  0  0  0  0  0  0  0  0
  147.1086  133.8884  152.9172 H   0  0  0  0  0  0  0  0  0  0  0  0
  145.4328  134.0253  153.4012 H   0  0  0  0  0  0  0  0  0  0  0  0
  151.5547  137.2146  156.3508 H   0  0  0  0  0  0  0  0  0  0  0  0
  148.3782  137.6753  152.5531 H   0  0  0  0  0  0  0  0  0  0  0  0
  1  2  1  0  0  0  0
  1 21  1  0  0  0  0
  1 22  1  0  0  0  0
  1 23  1  0  0  0  0
  2 20  2  0  0  0  0
  2  3  1  0  0  0  0
  3  4  2  0  0  0  0
  3 24  1  0  0  0  0
  4  5  1  0  0  0  0
  5  6  1  0  0  0  0
  5 20  1  0  0  0  0
  6  7  1  0  0  0  0
  6 25  1  0  0  0  0
  6 26  1  0  0  0  0
  7  8  1  0  0  0  0
  7  9  1  0  0  0  0
  7 27  1  0  0  0  0
  8 28  1  0  0  0  0
  8 29  1  0  0  0  0
  8 30  1  0  0  0  0
  9 10  1  0  0  0  0
  9 31  1  0  0  0  0
  9 47  1  0  0  0  0
 10 11  1  0  0  0  0
 10 32  1  0  0  0  0
 10 33  1  0  0  0  0
 11 12  1  0  0  0  0
 11 13  1  0  0  0  0
 11 34  1  0  0  0  0
 12 35  1  0  0  0  0
 13 14  1  0  0  0  0
 13 36  1  0  0  0  0
 13 37  1  0  0  0  0
 14 19  1  0  0  0  0
 14 15  1  0  0  0  0
 15 16  1  0  0  0  0
 15 38  1  0  0  0  0
 15 39  1  0  0  0  0
 16 17  1  0  0  0  0
 16 40  1  0  0  0  0
 16 41  1  0  0  0  0
 17 18  1  0  0  0  0
 18 19  1  0  0  0  0
 18 42  1  0  0  0  0
 18 43  1  0  0  0  0
 19 44  1  0  0  0  0
 19 45  1  0  0  0  0
 20 46  1  0  0  0  0
M  CHG  1   9   1
M  END
> <s_m_source_file>
AV-unprocessed.smi

> <i_m_source_file_index>
3031

> <i_lp_mmshare_version>
43012

> <i_f3d_flags>
0

> <s_epik_input>
W0NIM11jMVtjSF1ubihbY0hdMSlbQ0gyXVtDQEhdKFtDSDNdKVtOSF1bQ0gyXVtDQEhdKFtPSF0pW0NIMl1OMltDSDJdW0NIMl1PW0NIMl1bQ0gyXTI=

> <s_epik_cmdline>
J2VwaWtfcHl0aG9uJywgJy1waCcsICc3LjAnLCAnLXRuJywgJzgnLCAnLW1hJywgJzIwMCcsICctbWV0YWxfYmluZGluZycsICctaW1hZScsICc8aW5maWxlLm1hZT4nLCAnLW9tYWUnLCAnPG91dGZpbGUubWFlPic=

> <r_lp_tautomer_probability>
1

> <r_epik_Ionization_Penalty>
0.108564

> <r_epik_Ionization_Penalty_Charging>
0.01811

> <r_epik_Ionization_Penalty_Neutral>
0.0904541

> <r_epik_State_Penalty>
0.141043

> <r_epik_Charging_Adjusted_Penalty>
0.159153

> <i_epik_Tot_Q>
1

> <i_epik_Tot_abs_Q>
1

> <r_epik_Metal_State_Penalty>
0.141052

> <b_epik_Metal_Only>
0

> <s_lp_Force_Field>
OPLS_2005

> <r_lp_Energy>
31.0841

> <b_lp_Chiralities_Consistent>
1

> <s_lp_Variant>
AV-unprocessed.smi:3031-4

> <Gold.Version>
5.8.1

> <Gold.Id.Protein>
6NUR|6NUR_protein|mol2

> <Gold.PLP.Fitness>
51.5504

> <Gold.PLP.PLP>
-34.8563

> <Gold.PLP.part.hbond>
-5.8167

> <Gold.PLP.part.metal>
0.0000

> <Gold.PLP.part.buried>
-3.2495

> <Gold.PLP.part.nonpolar>
-27.6848

> <Gold.PLP.part.repulsive>
0.9030

> <Gold.PLP.ligand.clash>
0.0000

> <Gold.PLP.ligand.torsion>
0.7162

> <Gold.PLP.Chemscore.Hbond>
5.9040

> <Gold.PLP.Chemscore.CHOScore>
0.0000

> <Gold.PLP.Chemscore.Metal>
0.0000

> <Gold.Chemscore.Hbonds>
donor molecule, donor type, donor heavy atom, donor atom, acceptor molecule, acceptor atom, score
      L1  H     9    31       P1  7957  0.99
      L1  H     9    47       P1  7948  2.00
      L1  H    12    35       P1 10171  1.00
      P1  H  7954  7966       L1    12  1.00
      P1  H  7989  7998       L1     4  0.98

> <Gold.PLP.Chemscore.Internal.Correction>
0.4146

> <Gold.Rescore>
     Score         DG    S(hbond)    S(metal)    S(lipo)     H(rot)  DE(clash)    DE(int)     intcor
     20.64     -24.16       4.75        0.00      81.50       2.63       1.28       2.25       ----

> <Gold.Chemscore.Fitness>
20.6365

> <Gold.Chemscore.DG>
-24.1607

> <Gold.Chemscore.ZeroCoef>
-5.4800

> <Gold.Chemscore.Hbond>
4.7515

> <Gold.Chemscore.Metal>
0.0000

> <Gold.Chemscore.Lipo>
81.5017

> <Gold.Chemscore.Internal_Hbond>
0.0000

> <Gold.Chemscore.DEClash>
1.2786

> <Gold.Chemscore.DEInternal>
2.2457

> <Gold.Chemscore.Rot>
2.6270

> <Gold.Chemscore.Internal.Correction>
   9.000000E+99

> <Gold.Chemscore.Hbonds>
donor molecule, donor type, donor heavy atom, donor atom, acceptor molecule, acceptor atom, score
      L1  H     9    31       P1  7957  0.92
      L1  H     9    47       P1  7948  1.00
      L1  H    12    35       P1 10171  0.96
      P1  H  7954  7966       L1    12  0.85
      P1  H  7989  7998       L1     4  0.47

> <Gold.Chemscore.Hbond.Weighted>
-15.8702

> <Gold.Chemscore.Metal.Weighted>
-0.0000

> <Gold.Chemscore.Lipo.Weighted>
-9.5357

> <Gold.Chemscore.Internal_Hbond.Weighted>
0.0000

> <Gold.Chemscore.DEClash.Weighted>
1.2786

> <Gold.Chemscore.DEInternal.Weighted>
2.2457

> <Gold.Chemscore.Rot.Weighted>
6.7251

> <Gold.Chemscore.Internal.Correction.Weighted>
   9.000000E+99

> <Gold.Protein.RotatedTorsions>
[ 6907 6896 6895 6894 ] final  141.01 input  -60.11 | X-H torsion
[ 7974 7965 7964 7962 ] final -127.55 input  175.53 | X-H torsion
[ 8008 7997 7996 7995 ] final   40.17 input   59.86 | X-H torsion
[ 10167 10162 10161 10158 ] final   77.46 input  -65.29 | X-H torsion
[ 10718 10713 10712 10709 ] final   39.36 input   66.30 | X-H torsion
[ 10763 10752 10751 10750 ] final  167.05 input  -60.55 | X-H torsion
[ 11005 11000 10999 10996 ] final -141.65 input  -57.11 | X-H torsion

> <Gold.Protein.ActiveResidues>
 VAL166  LYS551  ARG553  GLY616  TRP617  ASP618  TYR619  PRO620  LYS621  CYS622 
 ASP623  PHE694  ASN695  SER759  ASP760  ASP761  ALA762  ILE779  LEU786  VAL792 
 PHE793  MET794  SER795  GLU796  ALA797  LYS798  CYS799  TRP800  GLU811  SER814 

> <Gold.Protein.RotatedAtoms>
  152.2361  133.5097  159.5243 H   0  0  0  0  0  0  0  0  0  0  0  0  # atno 6907 bound_to 6896
  150.7051  134.1151  159.4023 H   0  0  0  0  0  0  0  0  0  0  0  0  # atno 6908 bound_to 6896
  151.9072  135.0354  160.0562 H   0  0  0  0  0  0  0  0  0  0  0  0  # atno 6909 bound_to 6896
  144.9760  140.7593  143.4641 H   0  0  0  0  0  0  0  0  0  0  0  0  # atno 7974 bound_to 7965
  155.2488  140.3351  155.4284 H   0  0  0  0  0  0  0  0  0  0  0  0  # atno 8008 bound_to 7997
  156.2225  140.1815  156.7488 H   0  0  0  0  0  0  0  0  0  0  0  0  # atno 8009 bound_to 7997
  154.5847  140.0648  156.9139 H   0  0  0  0  0  0  0  0  0  0  0  0  # atno 8010 bound_to 7997
  139.9814  144.5824  150.7898 H   0  0  0  0  0  0  0  0  0  0  0  0  # atno 10167 bound_to 10162
  157.3696  130.7694  149.7109 H   0  0  0  0  0  0  0  0  0  0  0  0  # atno 10718 bound_to 10713
  154.3480  135.2753  155.2387 H   0  0  0  0  0  0  0  0  0  0  0  0  # atno 10763 bound_to 10752
  154.4629  135.5902  153.6271 H   0  0  0  0  0  0  0  0  0  0  0  0  # atno 10764 bound_to 10752
  152.9852  135.6069  154.3688 H   0  0  0  0  0  0  0  0  0  0  0  0  # atno 10765 bound_to 10752
  140.8303  134.2524  157.4859 H   0  0  0  0  0  0  0  0  0  0  0  0  # atno 11005 bound_to 11000
  145.2490  139.2040  143.4952 LP  0  0  0  0  0  0  0  0  0  0  0  0  # atno 17320 bound_to 7965
  146.3395  140.2399  142.8595 LP  0  0  0  0  0  0  0  0  0  0  0  0  # atno 17321 bound_to 7965
  140.7488  143.2928  151.3285 LP  0  0  0  0  0  0  0  0  0  0  0  0  # atno 17342 bound_to 10162
  139.6407  144.0544  152.2552 LP  0  0  0  0  0  0  0  0  0  0  0  0  # atno 17343 bound_to 10162
  155.9753  130.4091  150.3861 LP  0  0  0  0  0  0  0  0  0  0  0  0  # atno 17370 bound_to 10713
  157.1950  131.0424  151.2680 LP  0  0  0  0  0  0  0  0  0  0  0  0  # atno 17371 bound_to 10713
  139.8705  134.9583  156.4295 LP  0  0  0  0  0  0  0  0  0  0  0  0  # atno 17394 bound_to 11000
  140.9005  133.7783  155.9674 LP  0  0  0  0  0  0  0  0  0  0  0  0  # atno 17395 bound_to 11000

$$$$
