#       Name:                AV-unprocessed.smi:1830
#       Creating user name   scv26
#       Creation time:       Fri Mar 27 09:12:58 2020


#       File generated by GOLD software.
#

@<TRIPOS>MOLECULE
AV-unprocessed.smi:1830
    59    62     1
SMALL
NO_CHARGES


@<TRIPOS>ATOM
      1 ****         0.4535   2.7361   0.3918 O.2            1 S1                 0.0000
      2 ****        -0.1302   1.6721   0.5988 C.2            1 S1                 0.0000
      3 ****         0.4958   0.5405   0.9484 N.am           1 S1                 0.0000
      4 ****         1.9369   0.4004   1.1226 C.3            1 S1                 0.0000
      5 ****         2.6602   0.2102  -0.2282 C.3            1 S1                 0.0000
      6 ****         4.1948   0.0960  -0.0718 C.3            1 S1                 0.0000
      7 ****         4.5593  -1.2040   0.4595 N.3            1 S1                 0.0000
      8 ****         5.9708  -1.4872   0.5752 C.3            1 S1                 0.0000
      9 ****         6.0383  -3.0132   0.7561 C.3            1 S1                 0.0000
     10 ****         4.6894  -3.5260   0.2047 C.3            1 S1                 0.0000
     11 ****         4.0553  -2.2602  -0.3756 C.3            1 S1                 0.0000
     12 ****         2.5237  -2.2087  -0.4533 C.3            1 S1                 0.0000
     13 ****         2.1403  -0.9210  -0.9467 O.3            1 S1                 0.0000
     14 ****        -1.4545   1.4772   0.4867 N.am           1 S1                 0.0000
     15 ****        -2.4632   2.4218   0.1426 C.ar           1 S1                 0.0000
     16 ****        -2.3303   3.8066   0.4088 C.ar           1 S1                 0.0000
     17 ****        -3.3749   4.6781   0.0534 C.ar           1 S1                 0.0000
     18 ****        -4.5222   4.1334  -0.5485 C.ar           1 S1                 0.0000
     19 ****        -4.6717   2.8160  -0.7930 N.ar           1 S1                 0.0000
     20 ****        -3.6684   1.9678  -0.4586 C.ar           1 S1                 0.0000
     21 ****        -3.8683   0.5920  -0.6978 N.3            1 S1                 0.0000
     22 ****        -4.2294  -0.1641   0.4981 C.3            1 S1                 0.0000
     23 ****        -5.2189  -1.2398   0.0467 C.3            1 S1                 0.0000
     24 ****        -5.8818  -0.6056  -1.1695 C.3            1 S1                 0.0000
     25 ****        -4.7314   0.1757  -1.8024 C.3            1 S1                 0.0000
     26 ****        -0.0614  -0.2893   1.0898 H              1 S1                 0.0000
     27 ****         2.3330   1.2756   1.6405 H              1 S1                 0.0000
     28 ****         2.1193  -0.4462   1.7841 H              1 S1                 0.0000
     29 ****         2.4572   1.0897  -0.8403 H              1 S1                 0.0000
     30 ****         4.6661   0.2377  -1.0454 H              1 S1                 0.0000
     31 ****         4.5726   0.8880   0.5757 H              1 S1                 0.0000
     32 ****         6.4889  -1.1995  -0.3412 H              1 S1                 0.0000
     33 ****         6.4239  -0.9446   1.4055 H              1 S1                 0.0000
     34 ****         6.8882  -3.4358   0.2194 H              1 S1                 0.0000
     35 ****         6.1421  -3.2765   1.8095 H              1 S1                 0.0000
     36 ****         4.8109  -4.3066  -0.5467 H              1 S1                 0.0000
     37 ****         4.0806  -3.9269   1.0162 H              1 S1                 0.0000
     38 ****         4.4476  -2.1268  -1.3861 H              1 S1                 0.0000
     39 ****         2.1475  -2.9764  -1.1295 H              1 S1                 0.0000
     40 ****         2.0721  -2.3922   0.5222 H              1 S1                 0.0000
     41 ****        -1.7725   0.5241   0.5842 H              1 S1                 0.0000
     42 ****        -1.4550   4.2133   0.8910 H              1 S1                 0.0000
     43 ****        -3.2998   5.7387   0.2427 H              1 S1                 0.0000
     44 ****        -5.3459   4.7709  -0.8336 H              1 S1                 0.0000
     45 ****        -3.3494  -0.6063   0.9654 H              1 S1                 0.0000
     46 ****        -4.7019   0.4931   1.2303 H              1 S1                 0.0000
     47 ****        -4.6787  -2.1380  -0.2555 H              1 S1                 0.0000
     48 ****        -5.9290  -1.5179   0.8260 H              1 S1                 0.0000
     49 ****        -6.3234  -1.3359  -1.8477 H              1 S1                 0.0000
     50 ****        -6.6666   0.0810  -0.8492 H              1 S1                 0.0000
     51 ****        -5.0920   0.9924  -2.4277 H              1 S1                 0.0000
     52 ****        -4.1476  -0.4812  -2.4479 H              1 S1                 0.0000
     53 ****         1.4481   2.7866   0.4824 LP             1 S1                 0.0000
     54 ****        -0.0670   3.5499   0.1331 LP             1 S1                 0.0000
     55 ****         4.1621  -1.1672   1.3765 LP             1 S1                 0.0000
     56 ****         2.4523  -0.8512  -1.8942 LP             1 S1                 0.0000
     57 ****         1.1421  -0.8679  -0.9197 LP             1 S1                 0.0000
     58 ****        -5.5098   2.4698  -1.2146 LP             1 S1                 0.0000
     59 ****        -2.9454   0.3628  -1.0071 LP             1 S1                 0.0000
@<TRIPOS>BOND
    1    1    2 2     
    2    2    3 am    
    3    2   14 am    
    4    3    4 1     
    5    3   26 1     
    6    4    5 1     
    7    4   27 1     
    8    4   28 1     
    9    5   13 1     
   10    5    6 1     
   11    5   29 1     
   12    6    7 1     
   13    6   30 1     
   14    6   31 1     
   15    7   11 1     
   16    7    8 1     
   17    8    9 1     
   18    8   32 1     
   19    8   33 1     
   20    9   10 1     
   21    9   34 1     
   22    9   35 1     
   23   10   11 1     
   24   10   36 1     
   25   10   37 1     
   26   11   12 1     
   27   11   38 1     
   28   12   13 1     
   29   12   39 1     
   30   12   40 1     
   31   14   15 1     
   32   14   41 1     
   33   15   20 ar    
   34   15   16 ar    
   35   16   17 ar    
   36   16   42 1     
   37   17   18 ar    
   38   17   43 1     
   39   18   19 ar    
   40   18   44 1     
   41   19   20 ar    
   42   20   21 1     
   43   21   25 1     
   44   21   22 1     
   45   22   23 1     
   46   22   45 1     
   47   22   46 1     
   48   23   24 1     
   49   23   47 1     
   50   23   48 1     
   51   24   25 1     
   52   24   49 1     
   53   24   50 1     
   54   25   51 1     
   55   25   52 1     
   56    1   53 1     
   57    1   54 1     
   58    7   55 1     
   59   13   56 1     
   60   13   57 1     
   61   19   58 1     
   62   21   59 1     
@<TRIPOS>SUBSTRUCTURE
      1 S1             1
@<TRIPOS>SET
LONE_PAIRS      STATIC     ATOMS    <user>   **** ""
7 53 54 55 56 57 58 59
DONOR_HYDROGENS      STATIC     ATOMS    <user>   **** ""
2 26 41
ATOM$BLUE        STATIC     ATOMS    COLORGROUP SYSTEM
7 53 54 55 56 57 58 59
ATOM$RED        STATIC     ATOMS    COLORGROUP SYSTEM
2 26 41
