#       Name:                AV-unprocessed.smi:549
#       Creating user name   scv26
#       Creation time:       Thu Mar 26 23:38:53 2020


#       File generated by GOLD software.
#

@<TRIPOS>MOLECULE
AV-unprocessed.smi:549
    46    47     1
SMALL
NO_CHARGES


@<TRIPOS>ATOM
      1 ****        -7.6039  -0.0371  -0.9744 C.3            1 S1                 0.0000
      2 ****        -6.8079  -1.2474  -0.8604 N.pl3          1 S1                 0.0000
      3 ****        -5.4101  -1.1768  -0.8019 C.ar           1 S1                 0.0000
      4 ****        -4.5584  -2.3014  -0.6954 C.ar           1 S1                 0.0000
      5 ****        -3.1622  -2.1097  -0.6463 C.ar           1 S1                 0.0000
      6 ****        -2.6295  -0.8036  -0.6952 C.ar           1 S1                 0.0000
      7 ****        -1.2150  -0.6644  -0.6568 N.am           1 S1                 0.0000
      8 ****        -0.4861   0.4368  -0.4046 C.2            1 S1                 0.0000
      9 ****        -0.9432   1.5429  -0.1183 O.2            1 S1                 0.0000
     10 ****         0.8272   0.1792  -0.4848 N.am           1 S1                 0.0000
     11 ****         1.8892   1.1569  -0.2640 C.3            1 S1                 0.0000
     12 ****         3.1795   0.6920  -0.9548 C.3            1 S1                 0.0000
     13 ****         4.3379   1.6720  -0.6975 C.3            1 S1                 0.0000
     14 ****         4.5402   1.9109   0.7457 N.pl3          1 S1                 0.0000
     15 ****         5.8328   1.1051   1.5877 S.o2           1 S1                 0.0000
     16 ****         5.2181  -0.6137   1.8147 C.3            1 S1                 0.0000
     17 ****         6.9963   1.0608   0.6888 O.2            1 S1                 0.0000
     18 ****         5.9605   1.7257   2.9152 O.2            1 S1                 0.0000
     19 ****         3.3257   2.3217   1.4787 C.3            1 S1                 0.0000
     20 ****         2.1589   1.3479   1.2383 C.3            1 S1                 0.0000
     21 ****        -3.5303   0.2833  -0.8110 C.ar           1 S1                 0.0000
     22 ****        -4.8610   0.0561  -0.8567 N.pl3          1 S1                 1.0000
     23 ****        -8.6635  -0.2915  -0.9976 H              1 S1                 0.0000
     24 ****        -7.3624   0.5000  -1.8921 H              1 S1                 0.0000
     25 ****        -7.4315   0.6223  -0.1233 H              1 S1                 0.0000
     26 ****        -7.2742  -2.1431  -0.8492 H              1 S1                 0.0000
     27 ****        -4.9539  -3.3053  -0.6530 H              1 S1                 0.0000
     28 ****        -2.5065  -2.9648  -0.5675 H              1 S1                 0.0000
     29 ****        -0.6921  -1.5151  -0.8057 H              1 S1                 0.0000
     30 ****         1.1165  -0.7588  -0.7205 H              1 S1                 0.0000
     31 ****         1.5914   2.1130  -0.6994 H              1 S1                 0.0000
     32 ****         3.4510  -0.3034  -0.6047 H              1 S1                 0.0000
     33 ****         3.0143   0.6017  -2.0291 H              1 S1                 0.0000
     34 ****         5.2557   1.3028  -1.1543 H              1 S1                 0.0000
     35 ****         4.1198   2.6274  -1.1763 H              1 S1                 0.0000
     36 ****         5.9736  -1.1935   2.3444 H              1 S1                 0.0000
     37 ****         5.0359  -1.0741   0.8454 H              1 S1                 0.0000
     38 ****         4.3028  -0.6061   2.4037 H              1 S1                 0.0000
     39 ****         3.5353   2.4072   2.5446 H              1 S1                 0.0000
     40 ****         3.0415   3.3191   1.1412 H              1 S1                 0.0000
     41 ****         1.2661   1.7292   1.7351 H              1 S1                 0.0000
     42 ****         2.3752   0.3858   1.7017 H              1 S1                 0.0000
     43 ****        -3.2492   1.3230  -0.8814 H              1 S1                 0.0000
     44 ****        -5.4822   0.8613  -0.9397 H              1 S1                 0.0000
     45 ****        -1.9327   1.6748  -0.0583 LP             1 S1                 0.0000
     46 ****        -0.3252   2.3099   0.0543 LP             1 S1                 0.0000
@<TRIPOS>BOND
    1    1    2 1     
    2    1   23 1     
    3    1   24 1     
    4    1   25 1     
    5    2    3 1     
    6    2   26 1     
    7    3   22 ar    
    8    3    4 ar    
    9    4    5 ar    
   10    4   27 1     
   11    5    6 ar    
   12    5   28 1     
   13    6    7 1     
   14    6   21 ar    
   15    7    8 am    
   16    7   29 1     
   17    8    9 2     
   18    8   10 am    
   19   10   11 1     
   20   10   30 1     
   21   11   20 1     
   22   11   12 1     
   23   11   31 1     
   24   12   13 1     
   25   12   32 1     
   26   12   33 1     
   27   13   14 1     
   28   13   34 1     
   29   13   35 1     
   30   14   15 1     
   31   14   19 1     
   32   15   16 1     
   33   15   17 2     
   34   15   18 2     
   35   16   36 1     
   36   16   37 1     
   37   16   38 1     
   38   19   20 1     
   39   19   39 1     
   40   19   40 1     
   41   20   41 1     
   42   20   42 1     
   43   21   22 ar    
   44   21   43 1     
   45   22   44 1     
   46    9   45 1     
   47    9   46 1     
@<TRIPOS>SUBSTRUCTURE
      1 S1             1
@<TRIPOS>SET
LONE_PAIRS      STATIC     ATOMS    <user>   **** ""
4 45 46 17 18
DONOR_HYDROGENS      STATIC     ATOMS    <user>   **** ""
4 26 29 30 44
ATOM$BLUE        STATIC     ATOMS    COLORGROUP SYSTEM
4 45 46 17 18
ATOM$RED        STATIC     ATOMS    COLORGROUP SYSTEM
4 26 29 30 44
