AV-unprocessed.smi:1084|AV-procd|sdf|4718|dock3
  -GOLD-   22720 3243D 1   1.00000     0.00000
 Structure written by MMmdl.
 53 55  0  0  0  0  0  0  0  0  2 V2000
  148.7094  131.7250  153.4127 C   0  0  0  0  0  0  0  0  0  0  0  0
  148.9581  133.2374  153.2102 C   0  0  2  0  0  0  0  0  0  0  0  0
  149.3769  133.9087  154.5480 C   0  0  0  0  0  0  0  0  0  0  0  0
  149.5729  135.3516  154.4255 N   0  0  0  0  0  0  0  0  0  0  0  0
  149.9782  136.1715  155.4063 C   0  0  0  0  0  0  0  0  0  0  0  0
  150.2552  135.7839  156.5404 O   0  0  0  0  0  0  0  0  0  0  0  0
  150.0338  137.4435  154.9751 N   0  0  0  0  0  0  0  0  0  0  0  0
  150.4260  138.6217  155.6695 C   0  0  0  0  0  0  0  0  0  0  0  0
  150.9493  139.7893  155.0651 C   0  0  0  0  0  0  0  0  0  0  0  0
  151.2855  140.8877  155.8803 C   0  0  0  0  0  0  0  0  0  0  0  0
  151.0916  140.8002  157.2789 C   0  0  0  0  0  0  0  0  0  0  0  0
  151.4181  141.8920  158.1124 N   0  0  0  0  0  0  0  0  0  0  0  0
  152.5744  141.7566  158.9966 C   0  0  0  0  0  0  0  0  0  0  0  0
  152.6038  142.9032  160.0210 C   0  0  0  0  0  0  0  0  0  0  0  0
  152.5783  144.1533  159.3404 O   0  0  0  0  0  0  0  0  0  0  0  0
  151.3906  144.3123  158.5715 C   0  0  0  0  0  0  0  0  0  0  0  0
  151.3106  143.2128  157.4978 C   0  0  0  0  0  0  0  0  0  0  0  0
  150.5827  139.6830  157.8530 N   0  0  0  0  0  0  0  0  0  0  0  0
  150.2641  138.6325  157.0693 C   0  0  0  0  0  0  0  0  0  0  0  0
  147.7582  133.8713  152.5692 N   0  3  0  0  0  0  0  0  0  0  0  0
  147.3094  133.2605  151.2869 C   0  0  0  0  0  0  0  0  0  0  0  0
  146.1006  134.0152  150.7066 C   0  0  0  0  0  0  0  0  0  0  0  0
  145.0429  134.0342  151.6532 O   0  0  0  0  0  0  0  0  0  0  0  0
  145.4223  134.7125  152.8414 C   0  0  0  0  0  0  0  0  0  0  0  0
  146.5998  133.9748  153.4992 C   0  0  0  0  0  0  0  0  0  0  0  0
  149.5899  131.2193  153.8077 H   0  0  0  0  0  0  0  0  0  0  0  0
  148.4650  131.2090  152.4862 H   0  0  0  0  0  0  0  0  0  0  0  0
  147.8908  131.5528  154.1119 H   0  0  0  0  0  0  0  0  0  0  0  0
  149.7976  133.3554  152.5229 H   0  0  0  0  0  0  0  0  0  0  0  0
  148.5933  133.7930  155.2966 H   0  0  0  0  0  0  0  0  0  0  0  0
  150.2679  133.4259  154.9531 H   0  0  0  0  0  0  0  0  0  0  0  0
  149.3690  135.7603  153.5250 H   0  0  0  0  0  0  0  0  0  0  0  0
  149.7459  137.5931  154.0191 H   0  0  0  0  0  0  0  0  0  0  0  0
  151.0935  139.8792  154.0008 H   0  0  0  0  0  0  0  0  0  0  0  0
  151.6693  141.7870  155.4220 H   0  0  0  0  0  0  0  0  0  0  0  0
  152.5372  140.8027  159.5242 H   0  0  0  0  0  0  0  0  0  0  0  0
  153.4883  141.7654  158.4009 H   0  0  0  0  0  0  0  0  0  0  0  0
  151.7591  142.8331  160.7085 H   0  0  0  0  0  0  0  0  0  0  0  0
  153.5100  142.8445  160.6240 H   0  0  0  0  0  0  0  0  0  0  0  0
  150.5160  144.2831  159.2233 H   0  0  0  0  0  0  0  0  0  0  0  0
  151.4027  145.2952  158.1004 H   0  0  0  0  0  0  0  0  0  0  0  0
  152.1236  143.3333  156.7809 H   0  0  0  0  0  0  0  0  0  0  0  0
  150.3802  143.3262  156.9433 H   0  0  0  0  0  0  0  0  0  0  0  0
  149.8634  137.7695  157.5810 H   0  0  0  0  0  0  0  0  0  0  0  0
  148.1011  133.2960  150.5395 H   0  0  0  0  0  0  0  0  0  0  0  0
  147.0543  132.2119  151.4487 H   0  0  0  0  0  0  0  0  0  0  0  0
  146.3753  135.0342  150.4288 H   0  0  0  0  0  0  0  0  0  0  0  0
  145.7521  133.5225  149.7988 H   0  0  0  0  0  0  0  0  0  0  0  0
  145.6823  135.7491  152.6211 H   0  0  0  0  0  0  0  0  0  0  0  0
  144.5691  134.7363  153.5194 H   0  0  0  0  0  0  0  0  0  0  0  0
  146.2836  132.9745  153.7994 H   0  0  0  0  0  0  0  0  0  0  0  0
  146.8706  134.5049  154.4101 H   0  0  0  0  0  0  0  0  0  0  0  0
  148.0328  134.8154  152.3370 H   0  0  0  0  0  0  0  0  0  0  0  0
  1  2  1  0  0  0  0
  1 26  1  0  0  0  0
  1 27  1  0  0  0  0
  1 28  1  0  0  0  0
  2  3  1  0  0  0  0
  2 20  1  0  0  0  0
  2 29  1  0  0  0  0
  3  4  1  0  0  0  0
  3 30  1  0  0  0  0
  3 31  1  0  0  0  0
  4  5  1  0  0  0  0
  4 32  1  0  0  0  0
  5  6  2  0  0  0  0
  5  7  1  0  0  0  0
  7  8  1  0  0  0  0
  7 33  1  0  0  0  0
  8 19  1  0  0  0  0
  8  9  2  0  0  0  0
  9 10  1  0  0  0  0
  9 34  1  0  0  0  0
 10 11  2  0  0  0  0
 10 35  1  0  0  0  0
 11 12  1  0  0  0  0
 11 18  1  0  0  0  0
 12 17  1  0  0  0  0
 12 13  1  0  0  0  0
 13 14  1  0  0  0  0
 13 36  1  0  0  0  0
 13 37  1  0  0  0  0
 14 15  1  0  0  0  0
 14 38  1  0  0  0  0
 14 39  1  0  0  0  0
 15 16  1  0  0  0  0
 16 17  1  0  0  0  0
 16 40  1  0  0  0  0
 16 41  1  0  0  0  0
 17 42  1  0  0  0  0
 17 43  1  0  0  0  0
 18 19  2  0  0  0  0
 19 44  1  0  0  0  0
 20 25  1  0  0  0  0
 20 21  1  0  0  0  0
 20 53  1  0  0  0  0
 21 22  1  0  0  0  0
 21 45  1  0  0  0  0
 21 46  1  0  0  0  0
 22 23  1  0  0  0  0
 22 47  1  0  0  0  0
 22 48  1  0  0  0  0
 23 24  1  0  0  0  0
 24 25  1  0  0  0  0
 24 49  1  0  0  0  0
 24 50  1  0  0  0  0
 25 51  1  0  0  0  0
 25 52  1  0  0  0  0
M  CHG  1  20   1
M  END
> <s_m_source_file>
AV-unprocessed.smi

> <i_m_source_file_index>
1084

> <i_lp_mmshare_version>
43012

> <i_f3d_flags>
0

> <s_epik_input>
W0NIMl0xW0NIMl1PW0NIMl1bQ0gyXU4xW0NASF0oW0NIM10pW0NIMl1bTkhdQyg9TylbTkhdYzJbY0hdW2NIXWMobltjSF0yKU4zW0NIMl1bQ0gyXU9bQ0gyXVtDSDJdMw==

> <s_epik_cmdline>
J2VwaWtfcHl0aG9uJywgJy1waCcsICc3LjAnLCAnLXRuJywgJzgnLCAnLW1hJywgJzIwMCcsICctbWV0YWxfYmluZGluZycsICctaW1hZScsICc8aW5maWxlLm1hZT4nLCAnLW9tYWUnLCAnPG91dGZpbGUubWFlPic=

> <r_lp_tautomer_probability>
1

> <r_epik_Ionization_Penalty>
0.604236

> <r_epik_Ionization_Penalty_Charging>
0.602531

> <r_epik_Ionization_Penalty_Neutral>
0.00170595

> <r_epik_State_Penalty>
0.59929

> <r_epik_Charging_Adjusted_Penalty>
1.20182

> <i_epik_Tot_Q>
1

> <i_epik_Tot_abs_Q>
1

> <r_epik_Metal_State_Penalty>
0.598238

> <b_epik_Metal_Only>
0

> <s_lp_Force_Field>
OPLS_2005

> <r_lp_Energy>
38.6371

> <b_lp_Chiralities_Consistent>
1

> <s_lp_Variant>
AV-unprocessed.smi:1084-3

> <Gold.Version>
5.8.1

> <Gold.Id.Protein>
6NUR|6NUR_protein|mol2

> <Gold.PLP.Fitness>
49.3770

> <Gold.PLP.PLP>
-41.2912

> <Gold.PLP.part.hbond>
-2.0000

> <Gold.PLP.part.metal>
0.0000

> <Gold.PLP.part.buried>
-4.3914

> <Gold.PLP.part.nonpolar>
-33.7350

> <Gold.PLP.part.repulsive>
0.1852

> <Gold.PLP.ligand.clash>
0.0000

> <Gold.PLP.ligand.torsion>
0.6931

> <Gold.PLP.Chemscore.Hbond>
3.0000

> <Gold.PLP.Chemscore.CHOScore>
0.0000

> <Gold.PLP.Chemscore.Metal>
0.0000

> <Gold.Chemscore.Hbonds>
donor molecule, donor type, donor heavy atom, donor atom, acceptor molecule, acceptor atom, score
      L1  H     4    32       P1  7948  1.00
      L1  H    20    53       P1  7948  2.00

> <Gold.PLP.Chemscore.Internal.Correction>
0.4721

> <Gold.Rescore>
     Score         DG    S(hbond)    S(metal)    S(lipo)     H(rot)  DE(clash)    DE(int)     intcor
     16.77     -18.79       1.82        0.00      98.61       1.68       0.00       2.02       ----

> <Gold.Chemscore.Fitness>
16.7670

> <Gold.Chemscore.DG>
-18.7893

> <Gold.Chemscore.ZeroCoef>
-5.4800

> <Gold.Chemscore.Hbond>
1.8180

> <Gold.Chemscore.Metal>
0.0000

> <Gold.Chemscore.Lipo>
98.6150

> <Gold.Chemscore.Internal_Hbond>
0.0000

> <Gold.Chemscore.DEClash>
0.0029

> <Gold.Chemscore.DEInternal>
2.0194

> <Gold.Chemscore.Rot>
1.6800

> <Gold.Chemscore.Internal.Correction>
   9.000000E+99

> <Gold.Chemscore.Hbonds>
donor molecule, donor type, donor heavy atom, donor atom, acceptor molecule, acceptor atom, score
      L1  H     4    32       P1  7948  0.45
      L1  H    20    53       P1  7948  0.60

> <Gold.Chemscore.Hbond.Weighted>
-6.0721

> <Gold.Chemscore.Metal.Weighted>
-0.0000

> <Gold.Chemscore.Lipo.Weighted>
-11.5380

> <Gold.Chemscore.Internal_Hbond.Weighted>
0.0000

> <Gold.Chemscore.DEClash.Weighted>
0.0029

> <Gold.Chemscore.DEInternal.Weighted>
2.0194

> <Gold.Chemscore.Rot.Weighted>
4.3007

> <Gold.Chemscore.Internal.Correction.Weighted>
   9.000000E+99

> <Gold.Protein.RotatedTorsions>
[ 6907 6896 6895 6894 ] final -164.26 input  -60.11 | X-H torsion
[ 7974 7965 7964 7962 ] final  156.54 input  175.53 | X-H torsion
[ 8008 7997 7996 7995 ] final  -97.13 input   59.86 | X-H torsion
[ 10167 10162 10161 10158 ] final  -73.74 input  -65.29 | X-H torsion
[ 10718 10713 10712 10709 ] final  113.30 input   66.30 | X-H torsion
[ 10763 10752 10751 10750 ] final  -56.91 input  -60.55 | X-H torsion
[ 11005 11000 10999 10996 ] final   -6.43 input  -57.11 | X-H torsion

> <Gold.Protein.ActiveResidues>
 VAL166  LYS551  ARG553  GLY616  TRP617  ASP618  TYR619  PRO620  LYS621  CYS622 
 ASP623  PHE694  ASN695  SER759  ASP760  ASP761  ALA762  ILE779  LEU786  VAL792 
 PHE793  MET794  SER795  GLU796  ALA797  LYS798  CYS799  TRP800  GLU811  SER814 

> <Gold.Protein.RotatedAtoms>
  151.4090  133.3733  159.2741 H   0  0  0  0  0  0  0  0  0  0  0  0  # atno 6907 bound_to 6896
  150.9377  134.8790  159.7603 H   0  0  0  0  0  0  0  0  0  0  0  0  # atno 6908 bound_to 6896
  152.5057  134.4038  159.9477 H   0  0  0  0  0  0  0  0  0  0  0  0  # atno 6909 bound_to 6896
  144.7957  139.7218  143.6203 H   0  0  0  0  0  0  0  0  0  0  0  0  # atno 7974 bound_to 7965
  154.7837  140.0465  157.1147 H   0  0  0  0  0  0  0  0  0  0  0  0  # atno 8008 bound_to 7997
  154.9674  140.3085  155.4984 H   0  0  0  0  0  0  0  0  0  0  0  0  # atno 8009 bound_to 7997
  156.2940  140.2259  156.4764 H   0  0  0  0  0  0  0  0  0  0  0  0  # atno 8010 bound_to 7997
  140.5085  143.2349  151.7634 H   0  0  0  0  0  0  0  0  0  0  0  0  # atno 10167 bound_to 10162
  157.6345  131.0981  150.7021 H   0  0  0  0  0  0  0  0  0  0  0  0  # atno 10718 bound_to 10713
  154.2142  135.6389  153.5124 H   0  0  0  0  0  0  0  0  0  0  0  0  # atno 10763 bound_to 10752
  152.9983  135.5481  154.6183 H   0  0  0  0  0  0  0  0  0  0  0  0  # atno 10764 bound_to 10752
  154.5627  135.2910  155.0877 H   0  0  0  0  0  0  0  0  0  0  0  0  # atno 10765 bound_to 10752
  140.7018  133.8983  155.8689 H   0  0  0  0  0  0  0  0  0  0  0  0  # atno 11005 bound_to 11000
  146.2224  139.5659  142.9610 LP  0  0  0  0  0  0  0  0  0  0  0  0  # atno 17320 bound_to 7965
  145.5681  141.0397  143.2189 LP  0  0  0  0  0  0  0  0  0  0  0  0  # atno 17321 bound_to 7965
  139.4890  144.4424  151.9749 LP  0  0  0  0  0  0  0  0  0  0  0  0  # atno 17342 bound_to 10162
  140.3515  144.3083  150.5948 LP  0  0  0  0  0  0  0  0  0  0  0  0  # atno 17343 bound_to 10162
  156.7355  130.4723  149.5489 LP  0  0  0  0  0  0  0  0  0  0  0  0  # atno 17370 bound_to 10713
  156.1574  130.6351  151.0675 LP  0  0  0  0  0  0  0  0  0  0  0  0  # atno 17371 bound_to 10713
  141.0157  134.0959  157.4175 LP  0  0  0  0  0  0  0  0  0  0  0  0  # atno 17394 bound_to 11000
  139.8894  135.0105  156.6680 LP  0  0  0  0  0  0  0  0  0  0  0  0  # atno 17395 bound_to 11000

$$$$
