AV-unprocessed.smi:112|AV-procd|sdf|1083|dock1
  -GOLD-   2262018173D 1   1.00000     0.00000
 Structure written by MMmdl.
 54 57  0  0  0  0  0  0  0  0  3 V2000
  145.6608  128.1979  152.6653 C   0  0  0  0  0  0  0  0  0  0  0  0
  146.2826  129.5810  152.7800 C   0  0  0  0  0  0  0  0  0  0  0  0
  145.9844  130.5779  151.9152 C   0  0  0  0  0  0  0  0  0  0  0  0
  146.5314  131.8462  151.9937 N   0  0  0  0  0  0  0  0  0  0  0  0
  146.1517  132.9477  151.0274 C   0  0  2  0  0  0  0  0  0  0  0  0
  145.0474  133.8312  151.6262 C   0  0  0  0  0  0  0  0  0  0  0  0
  144.0874  134.0017  150.4651 C   0  0  1  0  0  0  0  0  0  0  0  0
  144.4400  135.1296  149.6864 O   0  0  0  0  0  0  0  0  0  0  0  0
  144.2728  132.6855  149.6999 C   0  0  1  0  0  0  0  0  0  0  0  0
  143.8538  132.6747  148.2198 C   0  0  0  0  0  0  0  0  0  0  0  0
  142.5216  132.2256  148.0906 O   0  0  0  0  0  0  0  0  0  0  0  0
  145.6593  132.3921  149.8418 O   0  0  0  0  0  0  0  0  0  0  0  0
  147.4405  132.1500  153.0265 C   0  0  0  0  0  0  0  0  0  0  0  0
  147.9154  133.2832  153.1349 O   0  0  0  0  0  0  0  0  0  0  0  0
  147.7813  131.1279  153.9405 N   0  0  0  0  0  0  0  0  0  0  0  0
  148.7249  131.4457  155.0360 C   0  0  0  0  0  0  0  0  0  0  0  0
  150.0735  130.6999  154.9298 C   0  0  0  0  0  0  0  0  0  0  0  0
  150.1620  129.7361  154.1681 O   0  0  0  0  0  0  0  0  0  0  0  0
  151.1062  131.1466  155.6873 N   0  0  0  0  0  0  0  0  0  0  0  0
  151.0096  132.3069  156.5903 C   0  0  0  0  0  0  0  0  0  0  0  0
  152.3972  132.4593  157.2511 C   0  0  0  0  0  0  0  0  0  0  0  0
  153.1857  131.3350  156.6472 C   0  0  0  0  0  0  0  0  0  0  0  0
  154.5282  131.0147  156.9119 C   0  0  0  0  0  0  0  0  0  0  0  0
  155.1119  129.9076  156.2470 C   0  0  0  0  0  0  0  0  0  0  0  0
  156.5186  129.5392  156.5028 N   0  3  0  0  0  0  0  0  0  0  0  0
  157.1624  130.2178  157.2966 O   0  0  0  0  0  0  0  0  0  0  0  0
  156.9827  128.5709  155.9093 O   0  5  0  0  0  0  0  0  0  0  0  0
  154.3245  129.1579  155.3331 C   0  0  0  0  0  0  0  0  0  0  0  0
  152.9770  129.4945  155.0786 C   0  0  0  0  0  0  0  0  0  0  0  0
  152.4157  130.6004  155.7531 C   0  0  0  0  0  0  0  0  0  0  0  0
  147.2277  129.8258  153.8721 C   0  0  0  0  0  0  0  0  0  0  0  0
  147.5337  128.9689  154.7037 O   0  0  0  0  0  0  0  0  0  0  0  0
  144.9908  128.1232  151.8083 H   0  0  0  0  0  0  0  0  0  0  0  0
  145.0837  127.9645  153.5607 H   0  0  0  0  0  0  0  0  0  0  0  0
  146.4352  127.4388  152.5488 H   0  0  0  0  0  0  0  0  0  0  0  0
  145.2774  130.3587  151.1299 H   0  0  0  0  0  0  0  0  0  0  0  0
  147.0707  133.4878  150.7938 H   0  0  0  0  0  0  0  0  0  0  0  0
  144.5530  133.2970  152.4395 H   0  0  0  0  0  0  0  0  0  0  0  0
  145.4531  134.7647  152.0183 H   0  0  0  0  0  0  0  0  0  0  0  0
  143.0595  134.1282  150.8061 H   0  0  0  0  0  0  0  0  0  0  0  0
  144.9015  134.8299  148.9179 H   0  0  0  0  0  0  0  0  0  0  0  0
  143.7240  131.9038  150.2277 H   0  0  0  0  0  0  0  0  0  0  0  0
  143.9565  133.6604  147.7658 H   0  0  0  0  0  0  0  0  0  0  0  0
  144.4986  131.9988  147.6579 H   0  0  0  0  0  0  0  0  0  0  0  0
  141.9418  132.9547  148.2508 H   0  0  0  0  0  0  0  0  0  0  0  0
  148.9160  132.5186  155.0785 H   0  0  0  0  0  0  0  0  0  0  0  0
  148.2683  131.2179  156.0003 H   0  0  0  0  0  0  0  0  0  0  0  0
  150.7537  133.2099  156.0345 H   0  0  0  0  0  0  0  0  0  0  0  0
  150.2452  132.1442  157.3512 H   0  0  0  0  0  0  0  0  0  0  0  0
  152.8572  133.4192  157.0144 H   0  0  0  0  0  0  0  0  0  0  0  0
  152.3449  132.3501  158.3349 H   0  0  0  0  0  0  0  0  0  0  0  0
  155.0924  131.6110  157.6137 H   0  0  0  0  0  0  0  0  0  0  0  0
  154.7487  128.3105  154.8147 H   0  0  0  0  0  0  0  0  0  0  0  0
  152.4145  128.8980  154.3780 H   0  0  0  0  0  0  0  0  0  0  0  0
  1  2  1  0  0  0  0
  1 33  1  0  0  0  0
  1 34  1  0  0  0  0
  1 35  1  0  0  0  0
  2 31  1  0  0  0  0
  2  3  2  0  0  0  0
  3  4  1  0  0  0  0
  3 36  1  0  0  0  0
  4  5  1  0  0  0  0
  4 13  1  0  0  0  0
  5 12  1  0  0  0  0
  5  6  1  0  0  0  0
  5 37  1  0  0  0  0
  6  7  1  0  0  0  0
  6 38  1  0  0  0  0
  6 39  1  0  0  0  0
  7  8  1  0  0  0  0
  7  9  1  0  0  0  0
  7 40  1  0  0  0  0
  8 41  1  0  0  0  0
  9 10  1  0  0  0  0
  9 12  1  0  0  0  0
  9 42  1  0  0  0  0
 10 11  1  0  0  0  0
 10 43  1  0  0  0  0
 10 44  1  0  0  0  0
 11 45  1  0  0  0  0
 13 14  2  0  0  0  0
 13 15  1  0  0  0  0
 15 16  1  0  0  0  0
 15 31  1  0  0  0  0
 16 17  1  0  0  0  0
 16 46  1  0  0  0  0
 16 47  1  0  0  0  0
 17 18  2  0  0  0  0
 17 19  1  0  0  0  0
 19 30  1  0  0  0  0
 19 20  1  0  0  0  0
 20 21  1  0  0  0  0
 20 48  1  0  0  0  0
 20 49  1  0  0  0  0
 21 22  1  0  0  0  0
 21 50  1  0  0  0  0
 21 51  1  0  0  0  0
 22 30  2  0  0  0  0
 22 23  1  0  0  0  0
 23 24  2  0  0  0  0
 23 52  1  0  0  0  0
 24 25  1  0  0  0  0
 24 28  1  0  0  0  0
 25 26  2  0  0  0  0
 25 27  1  0  0  0  0
 28 29  2  0  0  0  0
 28 53  1  0  0  0  0
 29 30  1  0  0  0  0
 29 54  1  0  0  0  0
 31 32  2  0  0  0  0
M  CHG  1  25   1
M  CHG  1  27  -1
M  END
> <s_m_source_file>
AV-unprocessed.smi

> <i_m_source_file_index>
112

> <i_lp_mmshare_version>
43012

> <i_f3d_flags>
0

> <s_epik_input>
W09IXVtDSDJdW0NAQEhdKE8xKVtDQEhdKFtPSF0pW0NIMl1bQ0BIXTFuKFtjSF1jMltDSDNdKWMoPU8pbihjMj1PKVtDSDJdQyg9TylOKFtDSDJdW0NIMl0zKWMoYzM0KVtjSF1bY0hdYyhbY0hdNClbTitdKD1PKVtPLV0=

> <s_epik_cmdline>
J2VwaWtfcHl0aG9uJywgJy1waCcsICc3LjAnLCAnLXRuJywgJzgnLCAnLW1hJywgJzIwMCcsICctbWV0YWxfYmluZGluZycsICctaW1hZScsICc8aW5maWxlLm1hZT4nLCAnLW9tYWUnLCAnPG91dGZpbGUubWFlPic=

> <r_lp_tautomer_probability>
1

> <r_epik_Ionization_Penalty>
2.5696e-07

> <r_epik_Ionization_Penalty_Charging>
1.04886e-08

> <r_epik_Ionization_Penalty_Neutral>
2.46472e-07

> <r_epik_State_Penalty>
-0

> <r_epik_Charging_Adjusted_Penalty>
1.04886e-08

> <i_epik_Tot_Q>
0

> <i_epik_Tot_abs_Q>
2

> <r_epik_Metal_State_Penalty>
-0

> <b_epik_Metal_Only>
0

> <s_epik_Chemistry_Notes>
This compound contains an acetal/aminal-like group ( X-CH(R)-Y where X, Y are N, S, or O) that may be acid/base labile, releasing an aldehyde.

> <s_lp_Force_Field>
OPLS_2005

> <r_lp_Energy>
59.5699

> <b_lp_Chiralities_Consistent>
1

> <s_lp_Variant>
AV-unprocessed.smi:112-1

> <Gold.Version>
5.8.1

> <Gold.Id.Protein>
6NUR|6NUR_protein|mol2

> <Gold.PLP.Fitness>
56.1489

> <Gold.PLP.PLP>
-52.4298

> <Gold.PLP.part.hbond>
-4.5896

> <Gold.PLP.part.metal>
0.0000

> <Gold.PLP.part.buried>
-6.4059

> <Gold.PLP.part.nonpolar>
-42.3744

> <Gold.PLP.part.repulsive>
0.4945

> <Gold.PLP.ligand.clash>
0.0000

> <Gold.PLP.ligand.torsion>
1.3203

> <Gold.PLP.Chemscore.Hbond>
2.0936

> <Gold.PLP.Chemscore.CHOScore>
0.0000

> <Gold.PLP.Chemscore.Metal>
0.0000

> <Gold.Chemscore.Hbonds>
donor molecule, donor type, donor heavy atom, donor atom, acceptor molecule, acceptor atom, score
      L1  H     8    41       P1  7921  1.00
      L1  H    11    45       P1 10186  0.73
      P1  H 10785 10796       L1    11  0.15

> <Gold.PLP.Chemscore.Internal.Correction>
0.0789

> <Gold.Rescore>
     Score         DG    S(hbond)    S(metal)    S(lipo)     H(rot)  DE(clash)    DE(int)     intcor
     11.95     -15.83       1.89        0.00     106.44       3.29       1.37       2.51       ----

> <Gold.Chemscore.Fitness>
11.9533

> <Gold.Chemscore.DG>
-15.8277

> <Gold.Chemscore.ZeroCoef>
-5.4800

> <Gold.Chemscore.Hbond>
1.8925

> <Gold.Chemscore.Metal>
0.0000

> <Gold.Chemscore.Lipo>
106.4396

> <Gold.Chemscore.Internal_Hbond>
0.0000

> <Gold.Chemscore.DEClash>
1.3690

> <Gold.Chemscore.DEInternal>
2.5054

> <Gold.Chemscore.Rot>
3.2916

> <Gold.Chemscore.Internal.Correction>
   9.000000E+99

> <Gold.Chemscore.Hbonds>
donor molecule, donor type, donor heavy atom, donor atom, acceptor molecule, acceptor atom, score
      L1  H     8    41       P1  7921  0.99
      L1  H    11    45       P1 10186  0.71
      P1  H 10785 10796       L1    11  0.01

> <Gold.Chemscore.Hbond.Weighted>
-6.3208

> <Gold.Chemscore.Metal.Weighted>
-0.0000

> <Gold.Chemscore.Lipo.Weighted>
-12.4534

> <Gold.Chemscore.Internal_Hbond.Weighted>
0.0000

> <Gold.Chemscore.DEClash.Weighted>
1.3690

> <Gold.Chemscore.DEInternal.Weighted>
2.5054

> <Gold.Chemscore.Rot.Weighted>
8.4265

> <Gold.Chemscore.Internal.Correction.Weighted>
   9.000000E+99

> <Gold.Protein.RotatedTorsions>
[ 6907 6896 6895 6894 ] final  147.49 input  -60.11 | X-H torsion
[ 7974 7965 7964 7962 ] final  152.75 input  175.53 | X-H torsion
[ 8008 7997 7996 7995 ] final  -49.13 input   59.86 | X-H torsion
[ 10167 10162 10161 10158 ] final   70.99 input  -65.29 | X-H torsion
[ 10718 10713 10712 10709 ] final   50.10 input   66.30 | X-H torsion
[ 10763 10752 10751 10750 ] final  124.41 input  -60.55 | X-H torsion
[ 11005 11000 10999 10996 ] final  107.08 input  -57.11 | X-H torsion

> <Gold.Protein.ActiveResidues>
 VAL166  LYS551  ARG553  GLY616  TRP617  ASP618  TYR619  PRO620  LYS621  CYS622 
 ASP623  PHE694  ASN695  SER759  ASP760  ASP761  ALA762  ILE779  LEU786  VAL792 
 PHE793  MET794  SER795  GLU796  ALA797  LYS798  CYS799  TRP800  GLU811  SER814 

> <Gold.Protein.RotatedAtoms>
  152.1540  133.4540  159.4827 H   0  0  0  0  0  0  0  0  0  0  0  0  # atno 6907 bound_to 6896
  150.6899  134.2153  159.4384 H   0  0  0  0  0  0  0  0  0  0  0  0  # atno 6908 bound_to 6896
  152.0052  134.9906  160.0617 H   0  0  0  0  0  0  0  0  0  0  0  0  # atno 6909 bound_to 6896
  144.8201  139.6709  143.6104 H   0  0  0  0  0  0  0  0  0  0  0  0  # atno 7974 bound_to 7965
  154.4039  140.1304  156.4453 H   0  0  0  0  0  0  0  0  0  0  0  0  # atno 8008 bound_to 7997
  155.7419  140.3489  155.5088 H   0  0  0  0  0  0  0  0  0  0  0  0  # atno 8009 bound_to 7997
  155.9031  140.1023  157.1325 H   0  0  0  0  0  0  0  0  0  0  0  0  # atno 8010 bound_to 7997
  140.0509  144.5312  150.7364 H   0  0  0  0  0  0  0  0  0  0  0  0  # atno 10167 bound_to 10162
  157.4852  130.8340  149.8138 H   0  0  0  0  0  0  0  0  0  0  0  0  # atno 10718 bound_to 10713
  153.6610  135.3346  155.3127 H   0  0  0  0  0  0  0  0  0  0  0  0  # atno 10763 bound_to 10752
  154.8515  135.4363  154.1805 H   0  0  0  0  0  0  0  0  0  0  0  0  # atno 10764 bound_to 10752
  153.2771  135.7005  153.7497 H   0  0  0  0  0  0  0  0  0  0  0  0  # atno 10765 bound_to 10752
  139.8823  134.9389  156.5765 H   0  0  0  0  0  0  0  0  0  0  0  0  # atno 11005 bound_to 11000
  146.2506  139.6192  142.9429 LP  0  0  0  0  0  0  0  0  0  0  0  0  # atno 17320 bound_to 7965
  145.5124  141.0435  143.2480 LP  0  0  0  0  0  0  0  0  0  0  0  0  # atno 17321 bound_to 7965
  140.7217  143.2595  151.4257 LP  0  0  0  0  0  0  0  0  0  0  0  0  # atno 17342 bound_to 10162
  139.5953  144.1410  152.2137 LP  0  0  0  0  0  0  0  0  0  0  0  0  # atno 17343 bound_to 10162
  156.0143  130.3820  150.2162 LP  0  0  0  0  0  0  0  0  0  0  0  0  # atno 17370 bound_to 10713
  157.0350  131.0018  151.3301 LP  0  0  0  0  0  0  0  0  0  0  0  0  # atno 17371 bound_to 10713
  140.8059  133.8468  155.8767 LP  0  0  0  0  0  0  0  0  0  0  0  0  # atno 17394 bound_to 11000
  140.9550  134.1729  157.4698 LP  0  0  0  0  0  0  0  0  0  0  0  0  # atno 17395 bound_to 11000

$$$$
