AV-unprocessed.smi:2171|AV-procd|sdf|8826|dock2
  -GOLD-   2272012 23D 1   1.00000     0.00000
 Structure written by MMmdl.
 39 41  0  0  0  0  0  0  0  0  2 V2000
  151.7783  141.3601  157.7983 O   0  0  0  0  0  0  0  0  0  0  0  0
  151.2468  142.3497  157.2957 C   0  0  0  0  0  0  0  0  0  0  0  0
  151.6212  143.7496  157.7826 C   0  0  0  0  0  0  0  0  0  0  0  0
  151.9407  143.7353  159.1991 N   0  0  0  0  0  0  0  0  0  0  0  0
  152.7664  142.8677  159.8842 C   0  0  0  0  0  0  0  0  0  0  0  0
  152.7615  143.2505  161.1949 C   0  0  0  0  0  0  0  0  0  0  0  0
  151.8909  144.3758  161.2148 C   0  0  0  0  0  0  0  0  0  0  0  0
  151.4026  144.6640  160.0193 N   0  0  0  0  0  0  0  0  0  0  0  0
  150.3184  142.2804  156.3289 N   0  0  0  0  0  0  0  0  0  0  0  0
  149.7885  141.0456  155.7582 C   0  0  2  0  0  0  0  0  0  0  0  0
  150.8462  139.9409  155.6317 C   0  0  0  0  0  0  0  0  0  0  0  0
  150.5181  139.2103  154.3139 C   0  0  0  0  0  0  0  0  0  0  0  0
  149.2994  139.8475  153.7630 N   0  3  1  0  0  0  0  0  0  0  0  0
  148.0704  139.0662  154.0758 C   0  0  0  0  0  0  0  0  0  0  0  0
  146.7895  139.8327  153.7208 C   0  0  0  0  0  0  0  0  0  0  0  0
  146.7524  141.1720  154.4609 C   0  0  0  0  0  0  0  0  0  0  0  0
  147.9906  141.9925  154.0872 C   0  0  0  0  0  0  0  0  0  0  0  0
  149.3143  141.2258  154.3102 C   0  0  1  0  0  0  0  0  0  0  0  0
  152.4776  144.1221  157.2181 H   0  0  0  0  0  0  0  0  0  0  0  0
  150.7989  144.4464  157.6138 H   0  0  0  0  0  0  0  0  0  0  0  0
  153.2841  142.0606  159.3873 H   0  0  0  0  0  0  0  0  0  0  0  0
  153.2969  142.7957  162.0149 H   0  0  0  0  0  0  0  0  0  0  0  0
  151.6015  144.9874  162.0567 H   0  0  0  0  0  0  0  0  0  0  0  0
  149.9423  143.1474  155.9730 H   0  0  0  0  0  0  0  0  0  0  0  0
  148.9703  140.6635  156.3715 H   0  0  0  0  0  0  0  0  0  0  0  0
  151.8535  140.3569  155.5807 H   0  0  0  0  0  0  0  0  0  0  0  0
  150.8141  139.2669  156.4885 H   0  0  0  0  0  0  0  0  0  0  0  0
  151.3327  139.3530  153.6028 H   0  0  0  0  0  0  0  0  0  0  0  0
  150.3990  138.1349  154.4544 H   0  0  0  0  0  0  0  0  0  0  0  0
  148.1003  138.1240  153.5274 H   0  0  0  0  0  0  0  0  0  0  0  0
  148.0530  138.8081  155.1359 H   0  0  0  0  0  0  0  0  0  0  0  0
  146.7400  139.9984  152.6438 H   0  0  0  0  0  0  0  0  0  0  0  0
  145.9149  139.2374  153.9849 H   0  0  0  0  0  0  0  0  0  0  0  0
  145.8469  141.7212  154.2010 H   0  0  0  0  0  0  0  0  0  0  0  0
  146.7189  141.0072  155.5384 H   0  0  0  0  0  0  0  0  0  0  0  0
  147.9187  142.2622  153.0327 H   0  0  0  0  0  0  0  0  0  0  0  0
  147.9973  142.9362  154.6324 H   0  0  0  0  0  0  0  0  0  0  0  0
  150.0961  141.7654  153.7714 H   0  0  0  0  0  0  0  0  0  0  0  0
  149.3731  139.8983  152.7568 H   0  0  0  0  0  0  0  0  0  0  0  0
  1  2  2  0  0  0  0
  2  3  1  0  0  0  0
  2  9  1  0  0  0  0
  3  4  1  0  0  0  0
  3 19  1  0  0  0  0
  3 20  1  0  0  0  0
  4  8  1  0  0  0  0
  4  5  1  0  0  0  0
  5  6  2  0  0  0  0
  5 21  1  0  0  0  0
  6  7  1  0  0  0  0
  6 22  1  0  0  0  0
  7  8  2  0  0  0  0
  7 23  1  0  0  0  0
  9 10  1  0  0  0  0
  9 24  1  0  0  0  0
 10 18  1  0  0  0  0
 10 11  1  0  0  0  0
 10 25  1  0  0  0  0
 11 12  1  0  0  0  0
 11 26  1  0  0  0  0
 11 27  1  0  0  0  0
 12 13  1  0  0  0  0
 12 28  1  0  0  0  0
 12 29  1  0  0  0  0
 13 18  1  0  0  0  0
 13 14  1  0  0  0  0
 13 39  1  0  0  0  0
 14 15  1  0  0  0  0
 14 30  1  0  0  0  0
 14 31  1  0  0  0  0
 15 16  1  0  0  0  0
 15 32  1  0  0  0  0
 15 33  1  0  0  0  0
 16 17  1  0  0  0  0
 16 34  1  0  0  0  0
 16 35  1  0  0  0  0
 17 18  1  0  0  0  0
 17 36  1  0  0  0  0
 17 37  1  0  0  0  0
 18 38  1  0  0  0  0
M  CHG  1  13   1
M  END
> <s_m_source_file>
AV-unprocessed.smi

> <i_m_source_file_index>
2171

> <i_lp_mmshare_version>
43012

> <i_f3d_flags>
0

> <s_epik_input>
bjFbY0hdW2NIXVtjSF1uMVtDSDJdQyg9TylbTkhdW0NASF0oW0NIMl1bQ0gyXTIpW0NAQEhdKE4yMylbQ0gyXVtDSDJdW0NIMl1bQ0gyXTM=

> <s_epik_cmdline>
J2VwaWtfcHl0aG9uJywgJy1waCcsICc3LjAnLCAnLXRuJywgJzgnLCAnLW1hJywgJzIwMCcsICctbWV0YWxfYmluZGluZycsICctaW1hZScsICc8aW5maWxlLm1hZT4nLCAnLW9tYWUnLCAnPG91dGZpbGUubWFlPic=

> <r_lp_tautomer_probability>
1

> <r_epik_Ionization_Penalty>
0.00204179

> <r_epik_Ionization_Penalty_Charging>
0.00203239

> <r_epik_Ionization_Penalty_Neutral>
9.40205e-06

> <r_epik_State_Penalty>
0.00138983

> <r_epik_Charging_Adjusted_Penalty>
0.00342221

> <i_epik_Tot_Q>
1

> <i_epik_Tot_abs_Q>
1

> <r_epik_Metal_State_Penalty>
-0

> <b_epik_Metal_Only>
0

> <s_lp_Force_Field>
OPLS_2005

> <r_lp_Energy>
37.3392

> <b_lp_Chiralities_Consistent>
1

> <s_lp_Variant>
AV-unprocessed.smi:2171-1

> <Gold.Version>
5.8.1

> <Gold.Id.Protein>
6NUR|6NUR_protein|mol2

> <Gold.PLP.Fitness>
46.3509

> <Gold.PLP.PLP>
-42.0488

> <Gold.PLP.part.hbond>
-2.0000

> <Gold.PLP.part.metal>
0.0000

> <Gold.PLP.part.buried>
-2.2439

> <Gold.PLP.part.nonpolar>
-36.5424

> <Gold.PLP.part.repulsive>
0.3209

> <Gold.PLP.ligand.clash>
0.0000

> <Gold.PLP.ligand.torsion>
0.8549

> <Gold.PLP.Chemscore.Hbond>
2.0000

> <Gold.PLP.Chemscore.CHOScore>
0.0000

> <Gold.PLP.Chemscore.Metal>
0.0000

> <Gold.Chemscore.Hbonds>
donor molecule, donor type, donor heavy atom, donor atom, acceptor molecule, acceptor atom, score
      L1  H     9    24       P1  8028  1.00
      L1  H    13    39       P1  7957  1.00

> <Gold.PLP.Chemscore.Internal.Correction>
0.0119

> <Gold.Rescore>
     Score         DG    S(hbond)    S(metal)    S(lipo)     H(rot)  DE(clash)    DE(int)     intcor
     16.81     -20.56       1.98        0.00     103.82       1.44       0.26       3.49       ----

> <Gold.Chemscore.Fitness>
16.8090

> <Gold.Chemscore.DG>
-20.5576

> <Gold.Chemscore.ZeroCoef>
-5.4800

> <Gold.Chemscore.Hbond>
1.9818

> <Gold.Chemscore.Metal>
0.0000

> <Gold.Chemscore.Lipo>
103.8247

> <Gold.Chemscore.Internal_Hbond>
0.0000

> <Gold.Chemscore.DEClash>
0.2633

> <Gold.Chemscore.DEInternal>
3.4854

> <Gold.Chemscore.Rot>
1.4410

> <Gold.Chemscore.Internal.Correction>
   9.000000E+99

> <Gold.Chemscore.Hbonds>
donor molecule, donor type, donor heavy atom, donor atom, acceptor molecule, acceptor atom, score
      L1  H     9    24       P1  8028  1.00
      L1  H    13    39       P1  7957  0.99

> <Gold.Chemscore.Hbond.Weighted>
-6.6191

> <Gold.Chemscore.Metal.Weighted>
-0.0000

> <Gold.Chemscore.Lipo.Weighted>
-12.1475

> <Gold.Chemscore.Internal_Hbond.Weighted>
0.0000

> <Gold.Chemscore.DEClash.Weighted>
0.2633

> <Gold.Chemscore.DEInternal.Weighted>
3.4854

> <Gold.Chemscore.Rot.Weighted>
3.6889

> <Gold.Chemscore.Internal.Correction.Weighted>
   9.000000E+99

> <Gold.Protein.RotatedTorsions>
[ 6907 6896 6895 6894 ] final   81.40 input  -60.11 | X-H torsion
[ 7974 7965 7964 7962 ] final  -57.30 input  175.53 | X-H torsion
[ 8008 7997 7996 7995 ] final  -20.49 input   59.86 | X-H torsion
[ 10167 10162 10161 10158 ] final   59.26 input  -65.29 | X-H torsion
[ 10718 10713 10712 10709 ] final -178.78 input   66.30 | X-H torsion
[ 10763 10752 10751 10750 ] final  -69.68 input  -60.55 | X-H torsion
[ 11005 11000 10999 10996 ] final   29.13 input  -57.11 | X-H torsion

> <Gold.Protein.ActiveResidues>
 VAL166  LYS551  ARG553  GLY616  TRP617  ASP618  TYR619  PRO620  LYS621  CYS622 
 ASP623  PHE694  ASN695  SER759  ASP760  ASP761  ALA762  ILE779  LEU786  VAL792 
 PHE793  MET794  SER795  GLU796  ALA797  LYS798  CYS799  TRP800  GLU811  SER814 

> <Gold.Protein.RotatedAtoms>
  152.5267  134.3209  159.9147 H   0  0  0  0  0  0  0  0  0  0  0  0  # atno 6907 bound_to 6896
  151.3158  133.4054  159.2658 H   0  0  0  0  0  0  0  0  0  0  0  0  # atno 6908 bound_to 6896
  151.0000  134.9331  159.8006 H   0  0  0  0  0  0  0  0  0  0  0  0  # atno 6909 bound_to 6896
  145.8526  140.8342  142.9978 H   0  0  0  0  0  0  0  0  0  0  0  0  # atno 7974 bound_to 7965
  154.4766  140.2060  155.9863 H   0  0  0  0  0  0  0  0  0  0  0  0  # atno 8008 bound_to 7997
  156.1099  140.3230  155.8028 H   0  0  0  0  0  0  0  0  0  0  0  0  # atno 8009 bound_to 7997
  155.4653  140.0527  157.2977 H   0  0  0  0  0  0  0  0  0  0  0  0  # atno 8010 bound_to 7997
  140.1783  144.4207  150.6627 H   0  0  0  0  0  0  0  0  0  0  0  0  # atno 10167 bound_to 10162
  156.8493  130.9713  151.3093 H   0  0  0  0  0  0  0  0  0  0  0  0  # atno 10718 bound_to 10713
  154.4069  135.6018  153.5930 H   0  0  0  0  0  0  0  0  0  0  0  0  # atno 10763 bound_to 10752
  152.9789  135.5920  154.4117 H   0  0  0  0  0  0  0  0  0  0  0  0  # atno 10764 bound_to 10752
  154.3923  135.2842  155.2125 H   0  0  0  0  0  0  0  0  0  0  0  0  # atno 10765 bound_to 10752
  140.3082  134.2680  155.7739 H   0  0  0  0  0  0  0  0  0  0  0  0  # atno 11005 bound_to 11000
  144.6728  140.0976  143.7462 LP  0  0  0  0  0  0  0  0  0  0  0  0  # atno 17320 bound_to 7965
  145.9340  139.2625  143.1308 LP  0  0  0  0  0  0  0  0  0  0  0  0  # atno 17321 bound_to 7965
  140.6536  143.2231  151.6019 LP  0  0  0  0  0  0  0  0  0  0  0  0  # atno 17342 bound_to 10162
  139.5307  144.2924  152.1141 LP  0  0  0  0  0  0  0  0  0  0  0  0  # atno 17343 bound_to 10162
  157.6312  130.8731  149.9278 LP  0  0  0  0  0  0  0  0  0  0  0  0  # atno 17370 bound_to 10713
  156.0837  130.3670  150.0530 LP  0  0  0  0  0  0  0  0  0  0  0  0  # atno 17371 bound_to 10713
  141.2114  133.7691  156.9868 LP  0  0  0  0  0  0  0  0  0  0  0  0  # atno 17394 bound_to 11000
  140.1048  134.9513  157.1978 LP  0  0  0  0  0  0  0  0  0  0  0  0  # atno 17395 bound_to 11000

$$$$
