AV-unprocessed.smi:2533|AV-procd|sdf|9973|dock7
  -GOLD-   2272014 23D 1   1.00000     0.00000
 Structure written by MMmdl.
 35 36  0  0  0  0  0  0  0  0  1 V2000
  146.7690  138.6921  151.6618 C   0  0  0  0  0  0  0  0  0  0  0  0
  146.8207  139.9610  152.2968 O   0  0  0  0  0  0  0  0  0  0  0  0
  147.5511  140.0760  153.4606 C   0  0  0  0  0  0  0  0  0  0  0  0
  148.4448  139.0849  153.9387 C   0  0  0  0  0  0  0  0  0  0  0  0
  149.1587  139.2849  155.1358 C   0  0  0  0  0  0  0  0  0  0  0  0
  148.9923  140.4739  155.8760 C   0  0  0  0  0  0  0  0  0  0  0  0
  149.7985  140.7168  157.1458 C   0  0  1  0  0  0  0  0  0  0  0  0
  150.0749  139.5182  157.8409 O   0  0  0  0  0  0  0  0  0  0  0  0
  151.1356  141.4464  156.8751 C   0  0  0  0  0  0  0  0  0  0  0  0
  151.8819  141.7397  158.1067 N   0  0  0  0  0  0  0  0  0  0  0  0
  151.5487  142.9454  158.7011 N   0  0  0  0  0  0  0  0  0  0  0  0
  152.0723  143.3080  159.8270 C   0  0  0  0  0  0  0  0  0  0  0  0
  151.6203  144.6239  160.4095 C   0  0  0  0  0  0  0  0  0  0  0  0
  150.2962  144.6515  160.5632 F   0  0  0  0  0  0  0  0  0  0  0  0
  152.1893  144.8179  161.5997 F   0  0  0  0  0  0  0  0  0  0  0  0
  151.9743  145.6257  159.6033 F   0  0  0  0  0  0  0  0  0  0  0  0
  153.0494  142.4399  160.4625 C   0  0  0  0  0  0  0  0  0  0  0  0
  153.3846  141.2723  159.8729 C   0  0  0  0  0  0  0  0  0  0  0  0
  152.7841  140.8488  158.6105 C   0  0  0  0  0  0  0  0  0  0  0  0
  153.0538  139.7829  158.0577 O   0  0  0  0  0  0  0  0  0  0  0  0
  148.1009  141.4595  155.4061 C   0  0  0  0  0  0  0  0  0  0  0  0
  147.3884  141.2612  154.2083 C   0  0  0  0  0  0  0  0  0  0  0  0
  146.5430  142.2242  153.7698 F   0  0  0  0  0  0  0  0  0  0  0  0
  146.1619  138.7664  150.7596 H   0  0  0  0  0  0  0  0  0  0  0  0
  146.3103  137.9419  152.3072 H   0  0  0  0  0  0  0  0  0  0  0  0
  147.7626  138.3548  151.3638 H   0  0  0  0  0  0  0  0  0  0  0  0
  148.6054  138.1624  153.4021 H   0  0  0  0  0  0  0  0  0  0  0  0
  149.8461  138.5251  155.4781 H   0  0  0  0  0  0  0  0  0  0  0  0
  149.1957  141.3291  157.8177 H   0  0  0  0  0  0  0  0  0  0  0  0
  150.1324  139.7141  158.7638 H   0  0  0  0  0  0  0  0  0  0  0  0
  151.7525  140.8622  156.1897 H   0  0  0  0  0  0  0  0  0  0  0  0
  150.9338  142.3829  156.3508 H   0  0  0  0  0  0  0  0  0  0  0  0
  153.5037  142.7305  161.3981 H   0  0  0  0  0  0  0  0  0  0  0  0
  154.1121  140.6307  160.3481 H   0  0  0  0  0  0  0  0  0  0  0  0
  147.9710  142.3805  155.9555 H   0  0  0  0  0  0  0  0  0  0  0  0
  1  2  1  0  0  0  0
  1 24  1  0  0  0  0
  1 25  1  0  0  0  0
  1 26  1  0  0  0  0
  2  3  1  0  0  0  0
  3 22  1  0  0  0  0
  3  4  2  0  0  0  0
  4  5  1  0  0  0  0
  4 27  1  0  0  0  0
  5  6  2  0  0  0  0
  5 28  1  0  0  0  0
  6  7  1  0  0  0  0
  6 21  1  0  0  0  0
  7  8  1  0  0  0  0
  7  9  1  0  0  0  0
  7 29  1  0  0  0  0
  8 30  1  0  0  0  0
  9 10  1  0  0  0  0
  9 31  1  0  0  0  0
  9 32  1  0  0  0  0
 10 19  1  0  0  0  0
 10 11  1  0  0  0  0
 11 12  2  0  0  0  0
 12 13  1  0  0  0  0
 12 17  1  0  0  0  0
 13 14  1  0  0  0  0
 13 15  1  0  0  0  0
 13 16  1  0  0  0  0
 17 18  2  0  0  0  0
 17 33  1  0  0  0  0
 18 19  1  0  0  0  0
 18 34  1  0  0  0  0
 19 20  2  0  0  0  0
 21 22  2  0  0  0  0
 21 35  1  0  0  0  0
 22 23  1  0  0  0  0
M  END
> <s_m_source_file>
AV-unprocessed.smi

> <i_m_source_file_index>
2533

> <i_lp_mmshare_version>
43012

> <i_f3d_flags>
0

> <s_epik_input>
W0NIM11PYzFbY0hdW2NIXWMoW2NIXWMxRilbQ0BIXShbT0hdKVtDSDJdbjJuYyhDKEYpKEYpRilbY0hdW2NIXWMyPU8=

> <s_epik_cmdline>
J2VwaWtfcHl0aG9uJywgJy1waCcsICc3LjAnLCAnLXRuJywgJzgnLCAnLW1hJywgJzIwMCcsICctbWV0YWxfYmluZGluZycsICctaW1hZScsICc8aW5maWxlLm1hZT4nLCAnLW9tYWUnLCAnPG91dGZpbGUubWFlPic=

> <r_lp_tautomer_probability>
1

> <r_epik_Ionization_Penalty>
5.00966e-08

> <r_epik_Ionization_Penalty_Charging>
3.92872e-09

> <r_epik_Ionization_Penalty_Neutral>
4.61679e-08

> <r_epik_State_Penalty>
-0

> <r_epik_Charging_Adjusted_Penalty>
3.92872e-09

> <i_epik_Tot_Q>
0

> <i_epik_Tot_abs_Q>
0

> <r_epik_Metal_State_Penalty>
-0

> <b_epik_Metal_Only>
0

> <s_lp_Force_Field>
OPLS_2005

> <r_lp_Energy>
30.5098

> <b_lp_Chiralities_Consistent>
1

> <s_lp_Variant>
AV-unprocessed.smi:2533-2

> <Gold.Version>
5.8.1

> <Gold.Id.Protein>
6NUR|6NUR_protein|mol2

> <Gold.PLP.Fitness>
46.6703

> <Gold.PLP.PLP>
-46.1985

> <Gold.PLP.part.hbond>
-1.0000

> <Gold.PLP.part.metal>
0.0000

> <Gold.PLP.part.buried>
-2.3641

> <Gold.PLP.part.nonpolar>
-42.9113

> <Gold.PLP.part.repulsive>
1.0818

> <Gold.PLP.ligand.clash>
0.0000

> <Gold.PLP.ligand.torsion>
1.2880

> <Gold.PLP.Chemscore.Hbond>
1.0000

> <Gold.PLP.Chemscore.CHOScore>
0.0000

> <Gold.PLP.Chemscore.Metal>
0.0000

> <Gold.Chemscore.Hbonds>
donor molecule, donor type, donor heavy atom, donor atom, acceptor molecule, acceptor atom, score
      P1  H  7997  8009       L1    20  1.00

> <Gold.PLP.Chemscore.Internal.Correction>
0.0478

> <Gold.Rescore>
     Score         DG    S(hbond)    S(metal)    S(lipo)     H(rot)  DE(clash)    DE(int)     intcor
     10.68     -13.16       0.92        0.00      94.04       2.50       1.26       1.22       ----

> <Gold.Chemscore.Fitness>
10.6785

> <Gold.Chemscore.DG>
-13.1605

> <Gold.Chemscore.ZeroCoef>
-5.4800

> <Gold.Chemscore.Hbond>
0.9238

> <Gold.Chemscore.Metal>
0.0000

> <Gold.Chemscore.Lipo>
94.0423

> <Gold.Chemscore.Internal_Hbond>
0.0000

> <Gold.Chemscore.DEClash>
1.2626

> <Gold.Chemscore.DEInternal>
1.2194

> <Gold.Chemscore.Rot>
2.5031

> <Gold.Chemscore.Internal.Correction>
   9.000000E+99

> <Gold.Chemscore.Hbonds>
donor molecule, donor type, donor heavy atom, donor atom, acceptor molecule, acceptor atom, score
      P1  H  7997  8009       L1    20  0.59

> <Gold.Chemscore.Hbond.Weighted>
-3.0854

> <Gold.Chemscore.Metal.Weighted>
-0.0000

> <Gold.Chemscore.Lipo.Weighted>
-11.0030

> <Gold.Chemscore.Internal_Hbond.Weighted>
0.0000

> <Gold.Chemscore.DEClash.Weighted>
1.2626

> <Gold.Chemscore.DEInternal.Weighted>
1.2194

> <Gold.Chemscore.Rot.Weighted>
6.4079

> <Gold.Chemscore.Internal.Correction.Weighted>
   9.000000E+99

> <Gold.Protein.RotatedTorsions>
[ 6907 6896 6895 6894 ] final  -69.52 input  -60.11 | X-H torsion
[ 7974 7965 7964 7962 ] final  -91.33 input  175.53 | X-H torsion
[ 8008 7997 7996 7995 ] final  147.33 input   59.86 | X-H torsion
[ 10167 10162 10161 10158 ] final  -61.15 input  -65.29 | X-H torsion
[ 10718 10713 10712 10709 ] final -171.72 input   66.30 | X-H torsion
[ 10763 10752 10751 10750 ] final  -38.70 input  -60.55 | X-H torsion
[ 11005 11000 10999 10996 ] final    4.27 input  -57.11 | X-H torsion

> <Gold.Protein.ActiveResidues>
 VAL166  LYS551  ARG553  GLY616  TRP617  ASP618  TYR619  PRO620  LYS621  CYS622 
 ASP623  PHE694  ASN695  SER759  ASP760  ASP761  ALA762  ILE779  LEU786  VAL792 
 PHE793  MET794  SER795  GLU796  ALA797  LYS798  CYS799  TRP800  GLU811  SER814 

> <Gold.Protein.RotatedAtoms>
  150.7302  134.5585  159.5830 H   0  0  0  0  0  0  0  0  0  0  0  0  # atno 6907 bound_to 6896
  152.3055  134.7558  160.0357 H   0  0  0  0  0  0  0  0  0  0  0  0  # atno 6908 bound_to 6896
  151.8124  133.3348  159.3596 H   0  0  0  0  0  0  0  0  0  0  0  0  # atno 6909 bound_to 6896
  145.4146  140.9547  143.2215 H   0  0  0  0  0  0  0  0  0  0  0  0  # atno 7974 bound_to 7965
  156.2828  140.2158  156.5520 H   0  0  0  0  0  0  0  0  0  0  0  0  # atno 8008 bound_to 7997
  154.7283  140.0497  157.0726 H   0  0  0  0  0  0  0  0  0  0  0  0  # atno 8009 bound_to 7997
  155.0387  140.3143  155.4735 H   0  0  0  0  0  0  0  0  0  0  0  0  # atno 8010 bound_to 7997
  140.6024  143.2365  151.5897 H   0  0  0  0  0  0  0  0  0  0  0  0  # atno 10167 bound_to 10162
  156.7451  130.9357  151.3112 H   0  0  0  0  0  0  0  0  0  0  0  0  # atno 10718 bound_to 10713
  153.9172  135.6786  153.4749 H   0  0  0  0  0  0  0  0  0  0  0  0  # atno 10763 bound_to 10752
  153.1047  135.4811  154.8928 H   0  0  0  0  0  0  0  0  0  0  0  0  # atno 10764 bound_to 10752
  154.7497  135.3181  154.8536 H   0  0  0  0  0  0  0  0  0  0  0  0  # atno 10765 bound_to 10752
  140.5838  133.9988  155.8059 H   0  0  0  0  0  0  0  0  0  0  0  0  # atno 11005 bound_to 11000
  144.8286  139.5667  143.6954 LP  0  0  0  0  0  0  0  0  0  0  0  0  # atno 17320 bound_to 7965
  146.2687  139.6583  142.9311 LP  0  0  0  0  0  0  0  0  0  0  0  0  # atno 17321 bound_to 7965
  139.5301  144.2942  152.1127 LP  0  0  0  0  0  0  0  0  0  0  0  0  # atno 17342 bound_to 10162
  140.2125  144.4548  150.6379 LP  0  0  0  0  0  0  0  0  0  0  0  0  # atno 17343 bound_to 10162
  157.6802  130.9132  150.0247 LP  0  0  0  0  0  0  0  0  0  0  0  0  # atno 17370 bound_to 10713
  156.1439  130.3642  149.9541 LP  0  0  0  0  0  0  0  0  0  0  0  0  # atno 17371 bound_to 10713
  141.0979  133.9815  157.3129 LP  0  0  0  0  0  0  0  0  0  0  0  0  # atno 17394 bound_to 11000
  139.9305  135.0200  156.8383 LP  0  0  0  0  0  0  0  0  0  0  0  0  # atno 17395 bound_to 11000

$$$$
