AV-unprocessed.smi:2131|AV-procd|sdf|8687|dock10
  -GOLD-   2272011443D 1   1.00000     0.00000
 Structure written by MMmdl.
 40 42  0  0  0  0  0  0  0  0  1 V2000
  143.4108  146.5038  154.4694 N   0  0  0  0  0  0  0  0  0  0  0  0
  143.4507  145.3902  154.7810 C   0  0  0  0  0  0  0  0  0  0  0  0
  143.5012  143.9744  155.1766 C   0  0  0  0  0  0  0  0  0  0  0  0
  144.8288  143.3334  154.8294 C   0  0  0  0  0  0  0  0  0  0  0  0
  145.2708  143.2957  153.4927 C   0  0  0  0  0  0  0  0  0  0  0  0
  146.5070  142.7009  153.1744 C   0  0  0  0  0  0  0  0  0  0  0  0
  147.3179  142.1358  154.1802 C   0  0  0  0  0  0  0  0  0  0  0  0
  148.5136  141.5777  153.7807 O   0  0  0  0  0  0  0  0  0  0  0  0
  149.0325  140.4888  154.5338 C   0  0  0  0  0  0  0  0  0  0  0  0
  150.1784  140.9909  155.4245 C   0  0  2  0  0  0  0  0  0  0  0  0
  151.3437  140.2545  155.1086 O   0  0  0  0  0  0  0  0  0  0  0  0
  149.8638  140.8500  156.9266 C   0  0  0  0  0  0  0  0  0  0  0  0
  150.5855  141.8144  157.7384 N   0  0  0  0  0  0  0  0  0  0  0  0
  150.3647  143.1413  157.8044 C   0  0  0  0  0  0  0  0  0  0  0  0
  151.1435  143.8495  158.6172 N   0  0  0  0  0  0  0  0  0  0  0  0
  151.9661  142.8673  159.1417 C   0  0  0  0  0  0  0  0  0  0  0  0
  153.0227  142.9584  160.0762 C   0  0  0  0  0  0  0  0  0  0  0  0
  153.7325  141.8039  160.4668 C   0  0  0  0  0  0  0  0  0  0  0  0
  153.3987  140.5434  159.9299 C   0  0  0  0  0  0  0  0  0  0  0  0
  152.3500  140.4275  158.9973 C   0  0  0  0  0  0  0  0  0  0  0  0
  151.6430  141.5816  158.6114 C   0  0  0  0  0  0  0  0  0  0  0  0
  146.8639  142.1730  155.5230 C   0  0  0  0  0  0  0  0  0  0  0  0
  145.6283  142.7691  155.8426 C   0  0  0  0  0  0  0  0  0  0  0  0
  143.3208  143.9087  156.2499 H   0  0  0  0  0  0  0  0  0  0  0  0
  142.6895  143.4467  154.6751 H   0  0  0  0  0  0  0  0  0  0  0  0
  144.6637  143.7229  152.7081 H   0  0  0  0  0  0  0  0  0  0  0  0
  146.8372  142.6791  152.1463 H   0  0  0  0  0  0  0  0  0  0  0  0
  148.2523  140.0371  155.1491 H   0  0  0  0  0  0  0  0  0  0  0  0
  149.4091  139.7261  153.8496 H   0  0  0  0  0  0  0  0  0  0  0  0
  150.3784  142.0372  155.1893 H   0  0  0  0  0  0  0  0  0  0  0  0
  151.9261  140.2822  155.8525 H   0  0  0  0  0  0  0  0  0  0  0  0
  148.7966  140.9902  157.1036 H   0  0  0  0  0  0  0  0  0  0  0  0
  150.1058  139.8459  157.2771 H   0  0  0  0  0  0  0  0  0  0  0  0
  149.5881  143.6140  157.2206 H   0  0  0  0  0  0  0  0  0  0  0  0
  153.2880  143.9185  160.4935 H   0  0  0  0  0  0  0  0  0  0  0  0
  154.5380  141.8857  161.1818 H   0  0  0  0  0  0  0  0  0  0  0  0
  153.9490  139.6651  160.2343 H   0  0  0  0  0  0  0  0  0  0  0  0
  152.0936  139.4640  158.5824 H   0  0  0  0  0  0  0  0  0  0  0  0
  147.4451  141.7506  156.3284 H   0  0  0  0  0  0  0  0  0  0  0  0
  145.2949  142.7917  156.8697 H   0  0  0  0  0  0  0  0  0  0  0  0
  1  2  3  0  0  0  0
  2  3  1  0  0  0  0
  3  4  1  0  0  0  0
  3 24  1  0  0  0  0
  3 25  1  0  0  0  0
  4 23  1  0  0  0  0
  4  5  2  0  0  0  0
  5  6  1  0  0  0  0
  5 26  1  0  0  0  0
  6  7  2  0  0  0  0
  6 27  1  0  0  0  0
  7  8  1  0  0  0  0
  7 22  1  0  0  0  0
  8  9  1  0  0  0  0
  9 10  1  0  0  0  0
  9 28  1  0  0  0  0
  9 29  1  0  0  0  0
 10 11  1  0  0  0  0
 10 12  1  0  0  0  0
 10 30  1  0  0  0  0
 11 31  1  0  0  0  0
 12 13  1  0  0  0  0
 12 32  1  0  0  0  0
 12 33  1  0  0  0  0
 13 21  1  0  0  0  0
 13 14  1  0  0  0  0
 14 15  2  0  0  0  0
 14 34  1  0  0  0  0
 15 16  1  0  0  0  0
 16 21  2  0  0  0  0
 16 17  1  0  0  0  0
 17 18  2  0  0  0  0
 17 35  1  0  0  0  0
 18 19  1  0  0  0  0
 18 36  1  0  0  0  0
 19 20  2  0  0  0  0
 19 37  1  0  0  0  0
 20 21  1  0  0  0  0
 20 38  1  0  0  0  0
 22 23  2  0  0  0  0
 22 39  1  0  0  0  0
 23 40  1  0  0  0  0
M  END
> <s_m_source_file>
AV-unprocessed.smi

> <i_m_source_file_index>
2131

> <i_lp_mmshare_version>
43012

> <i_f3d_flags>
0

> <s_epik_input>
TiNDW0NIMl1jMVtjSF1bY0hdYyhbY0hdW2NIXTEpT1tDSDJdW0NASF0oW09IXSlbQ0gyXW4oW2NIXW4yKWMoYzIzKVtjSF1bY0hdW2NIXVtjSF0z

> <s_epik_cmdline>
J2VwaWtfcHl0aG9uJywgJy1waCcsICc3LjAnLCAnLXRuJywgJzgnLCAnLW1hJywgJzIwMCcsICctbWV0YWxfYmluZGluZycsICctaW1hZScsICc8aW5maWxlLm1hZT4nLCAnLW9tYWUnLCAnPG91dGZpbGUubWFlPic=

> <r_lp_tautomer_probability>
1

> <r_epik_Ionization_Penalty>
0.0609831

> <r_epik_Ionization_Penalty_Charging>
0

> <r_epik_Ionization_Penalty_Neutral>
0.0609831

> <r_epik_State_Penalty>
0.0529032

> <r_epik_Charging_Adjusted_Penalty>
0.0529032

> <i_epik_Tot_Q>
0

> <i_epik_Tot_abs_Q>
0

> <r_epik_Metal_State_Penalty>
5.53344e-05

> <b_epik_Metal_Only>
0

> <s_lp_Force_Field>
OPLS_2005

> <r_lp_Energy>
15.4123

> <b_lp_Chiralities_Consistent>
1

> <s_lp_Variant>
AV-unprocessed.smi:2131-1

> <Gold.Version>
5.8.1

> <Gold.Id.Protein>
6NUR|6NUR_protein|mol2

> <Gold.PLP.Fitness>
50.0660

> <Gold.PLP.PLP>
-46.1368

> <Gold.PLP.part.hbond>
-3.0000

> <Gold.PLP.part.metal>
0.0000

> <Gold.PLP.part.buried>
-5.0138

> <Gold.PLP.part.nonpolar>
-37.7172

> <Gold.PLP.part.repulsive>
0.2647

> <Gold.PLP.ligand.clash>
0.0000

> <Gold.PLP.ligand.torsion>
1.8333

> <Gold.PLP.Chemscore.Hbond>
1.5054

> <Gold.PLP.Chemscore.CHOScore>
1.0000

> <Gold.PLP.Chemscore.Metal>
0.0000

> <Gold.Chemscore.Hbonds>
donor molecule, donor type, donor heavy atom, donor atom, acceptor molecule, acceptor atom, score
      P1  H  7989  7998       L1    11  0.95
      P1  H  8011  8017       L1     8  0.54
      L1  C    14    34       P1  8028  0.98

> <Gold.PLP.Chemscore.Internal.Correction>
0.0796

> <Gold.Rescore>
     Score         DG    S(hbond)    S(metal)    S(lipo)     H(rot)  DE(clash)    DE(int)     intcor
     11.40     -13.43       0.73        0.00     106.72       2.72       0.02       2.02       ----

> <Gold.Chemscore.Fitness>
11.3967

> <Gold.Chemscore.DG>
-13.4342

> <Gold.Chemscore.ZeroCoef>
-5.4800

> <Gold.Chemscore.Hbond>
0.7265

> <Gold.Chemscore.Metal>
0.0000

> <Gold.Chemscore.Lipo>
106.7221

> <Gold.Chemscore.Internal_Hbond>
0.0000

> <Gold.Chemscore.DEClash>
0.0174

> <Gold.Chemscore.DEInternal>
2.0201

> <Gold.Chemscore.Rot>
2.7183

> <Gold.Chemscore.Internal.Correction>
   9.000000E+99

> <Gold.Chemscore.Hbonds>
donor molecule, donor type, donor heavy atom, donor atom, acceptor molecule, acceptor atom, score
      P1  H  7989  7998       L1    11  0.21
      P1  H  8011  8017       L1     8  0.48

> <Gold.Chemscore.Hbond.Weighted>
-2.4265

> <Gold.Chemscore.Metal.Weighted>
-0.0000

> <Gold.Chemscore.Lipo.Weighted>
-12.4865

> <Gold.Chemscore.Internal_Hbond.Weighted>
0.0000

> <Gold.Chemscore.DEClash.Weighted>
0.0174

> <Gold.Chemscore.DEInternal.Weighted>
2.0201

> <Gold.Chemscore.Rot.Weighted>
6.9588

> <Gold.Chemscore.Internal.Correction.Weighted>
   9.000000E+99

> <Gold.Protein.RotatedTorsions>
[ 6907 6896 6895 6894 ] final -148.54 input  -60.11 | X-H torsion
[ 7974 7965 7964 7962 ] final  129.73 input  175.53 | X-H torsion
[ 8008 7997 7996 7995 ] final  116.90 input   59.86 | X-H torsion
[ 10167 10162 10161 10158 ] final -176.39 input  -65.29 | X-H torsion
[ 10718 10713 10712 10709 ] final  -34.31 input   66.30 | X-H torsion
[ 10763 10752 10751 10750 ] final  -14.80 input  -60.55 | X-H torsion
[ 11005 11000 10999 10996 ] final   76.56 input  -57.11 | X-H torsion

> <Gold.Protein.ActiveResidues>
 VAL166  LYS551  ARG553  GLY616  TRP617  ASP618  TYR619  PRO620  LYS621  CYS622 
 ASP623  PHE694  ASN695  SER759  ASP760  ASP761  ALA762  ILE779  LEU786  VAL792 
 PHE793  MET794  SER795  GLU796  ALA797  LYS798  CYS799  TRP800  GLU811  SER814 

> <Gold.Protein.RotatedAtoms>
  151.1713  133.4782  159.2593 H   0  0  0  0  0  0  0  0  0  0  0  0  # atno 6907 bound_to 6896
  151.1353  135.0151  159.8611 H   0  0  0  0  0  0  0  0  0  0  0  0  # atno 6908 bound_to 6896
  152.5461  134.1612  159.8611 H   0  0  0  0  0  0  0  0  0  0  0  0  # atno 6909 bound_to 6896
  145.0255  139.4093  143.5176 H   0  0  0  0  0  0  0  0  0  0  0  0  # atno 7974 bound_to 7965
  156.2465  140.2907  156.0595 H   0  0  0  0  0  0  0  0  0  0  0  0  # atno 8008 bound_to 7997
  155.1791  140.0404  157.2896 H   0  0  0  0  0  0  0  0  0  0  0  0  # atno 8009 bound_to 7997
  154.6272  140.2490  155.7484 H   0  0  0  0  0  0  0  0  0  0  0  0  # atno 8010 bound_to 7997
  139.5532  144.2055  152.1114 H   0  0  0  0  0  0  0  0  0  0  0  0  # atno 10167 bound_to 10162
  156.3521  130.4310  149.7695 H   0  0  0  0  0  0  0  0  0  0  0  0  # atno 10718 bound_to 10713
  153.5338  135.7014  153.5670 H   0  0  0  0  0  0  0  0  0  0  0  0  # atno 10763 bound_to 10752
  153.3666  135.3956  155.1758 H   0  0  0  0  0  0  0  0  0  0  0  0  # atno 10764 bound_to 10752
  154.8681  135.3801  154.4837 H   0  0  0  0  0  0  0  0  0  0  0  0  # atno 10765 bound_to 10752
  139.9293  134.7611  156.1411 H   0  0  0  0  0  0  0  0  0  0  0  0  # atno 11005 bound_to 11000
  146.3491  139.9776  142.8699 LP  0  0  0  0  0  0  0  0  0  0  0  0  # atno 17320 bound_to 7965
  145.1839  140.9780  143.4250 LP  0  0  0  0  0  0  0  0  0  0  0  0  # atno 17321 bound_to 7965
  140.1555  144.5075  150.6663 LP  0  0  0  0  0  0  0  0  0  0  0  0  # atno 17342 bound_to 10162
  140.6799  143.2322  151.5410 LP  0  0  0  0  0  0  0  0  0  0  0  0  # atno 17343 bound_to 10162
  156.4892  130.8077  151.3087 LP  0  0  0  0  0  0  0  0  0  0  0  0  # atno 17370 bound_to 10713
  157.7462  130.9981  150.2840 LP  0  0  0  0  0  0  0  0  0  0  0  0  # atno 17371 bound_to 10713
  141.0871  133.6729  156.2460 LP  0  0  0  0  0  0  0  0  0  0  0  0  # atno 17394 bound_to 11000
  140.6248  134.5325  157.5552 LP  0  0  0  0  0  0  0  0  0  0  0  0  # atno 17395 bound_to 11000

$$$$
