AV-unprocessed.smi:1040|AV-procd|sdf|4525|dock10
  -GOLD-   22720 2543D 1   1.00000     0.00000
 Structure written by MMmdl.
 54 55  0  0  0  0  0  0  0  0  1 V2000
  147.9595  135.3249  157.6695 C   0  0  0  0  0  0  0  0  0  0  0  0
  148.8636  136.0152  158.7046 C   0  0  1  0  0  0  0  0  0  0  0  0
  149.1808  137.3520  158.2060 N   0  0  0  0  0  0  0  0  0  0  0  0
  150.0563  138.1997  158.7652 C   0  0  0  0  0  0  0  0  0  0  0  0
  150.7278  137.9244  159.7594 O   0  0  0  0  0  0  0  0  0  0  0  0
  150.0983  139.3603  158.0900 N   0  0  0  0  0  0  0  0  0  0  0  0
  150.9517  140.4840  158.2891 C   0  0  0  0  0  0  0  0  0  0  0  0
  151.9934  140.4999  159.2491 C   0  0  0  0  0  0  0  0  0  0  0  0
  152.7644  141.6655  159.4067 C   0  0  0  0  0  0  0  0  0  0  0  0
  152.4607  142.7811  158.6076 C   0  0  0  0  0  0  0  0  0  0  0  0
  151.4645  142.7881  157.6993 N   0  0  0  0  0  0  0  0  0  0  0  0
  150.7186  141.6680  157.5377 C   0  0  0  0  0  0  0  0  0  0  0  0
  149.6970  141.7077  156.5679 N   0  0  0  0  0  0  0  0  0  0  0  0
  149.9070  140.9212  155.3526 C   0  0  0  0  0  0  0  0  0  0  0  0
  148.8935  141.3210  154.2667 C   0  0  0  0  0  0  0  0  0  0  0  0
  147.4529  141.2185  154.7940 C   0  0  0  0  0  0  0  0  0  0  0  0
  147.2984  142.0347  156.0879 C   0  0  0  0  0  0  0  0  0  0  0  0
  148.3507  141.6184  157.1297 C   0  0  0  0  0  0  0  0  0  0  0  0
  148.0829  136.1086  160.0250 C   0  0  0  0  0  0  0  0  0  0  0  0
  147.8626  137.2052  160.5418 O   0  0  0  0  0  0  0  0  0  0  0  0
  147.6585  134.9401  160.5381 N   0  0  0  0  0  0  0  0  0  0  0  0
  146.8841  134.7079  161.7631 C   0  0  0  0  0  0  0  0  0  0  0  0
  145.4739  135.2718  161.5152 C   0  0  0  0  0  0  0  0  0  0  0  0
  147.5181  135.4538  162.9558 C   0  0  0  0  0  0  0  0  0  0  0  0
  146.7742  133.1976  162.0620 C   0  0  0  0  0  0  0  0  0  0  0  0
  147.6909  134.3166  157.9876 H   0  0  0  0  0  0  0  0  0  0  0  0
  148.4680  135.2362  156.7089 H   0  0  0  0  0  0  0  0  0  0  0  0
  147.0342  135.8787  157.5015 H   0  0  0  0  0  0  0  0  0  0  0  0
  149.7776  135.4334  158.8411 H   0  0  0  0  0  0  0  0  0  0  0  0
  148.6718  137.6631  157.3920 H   0  0  0  0  0  0  0  0  0  0  0  0
  149.5198  139.4082  157.2639 H   0  0  0  0  0  0  0  0  0  0  0  0
  152.2067  139.6513  159.8795 H   0  0  0  0  0  0  0  0  0  0  0  0
  153.5650  141.7050  160.1303 H   0  0  0  0  0  0  0  0  0  0  0  0
  153.0284  143.6946  158.7035 H   0  0  0  0  0  0  0  0  0  0  0  0
  150.9226  141.0715  154.9840 H   0  0  0  0  0  0  0  0  0  0  0  0
  149.8009  139.8604  155.5840 H   0  0  0  0  0  0  0  0  0  0  0  0
  149.0913  142.3438  153.9431 H   0  0  0  0  0  0  0  0  0  0  0  0
  149.0182  140.6878  153.3880 H   0  0  0  0  0  0  0  0  0  0  0  0
  146.7487  141.5702  154.0396 H   0  0  0  0  0  0  0  0  0  0  0  0
  147.2076  140.1738  154.9886 H   0  0  0  0  0  0  0  0  0  0  0  0
  147.4072  143.0971  155.8650 H   0  0  0  0  0  0  0  0  0  0  0  0
  146.2959  141.9048  156.4964 H   0  0  0  0  0  0  0  0  0  0  0  0
  148.1710  140.5915  157.4507 H   0  0  0  0  0  0  0  0  0  0  0  0
  148.2569  142.2445  158.0173 H   0  0  0  0  0  0  0  0  0  0  0  0
  147.9025  134.1097  160.0180 H   0  0  0  0  0  0  0  0  0  0  0  0
  144.8325  135.1356  162.3868 H   0  0  0  0  0  0  0  0  0  0  0  0
  144.9895  134.7771  160.6724 H   0  0  0  0  0  0  0  0  0  0  0  0
  145.5055  136.3400  161.2964 H   0  0  0  0  0  0  0  0  0  0  0  0
  147.6351  136.5167  162.7417 H   0  0  0  0  0  0  0  0  0  0  0  0
  148.5014  135.0590  163.2113 H   0  0  0  0  0  0  0  0  0  0  0  0
  146.8974  135.3660  163.8482 H   0  0  0  0  0  0  0  0  0  0  0  0
  146.1207  133.0136  162.9155 H   0  0  0  0  0  0  0  0  0  0  0  0
  147.7408  132.7540  162.3004 H   0  0  0  0  0  0  0  0  0  0  0  0
  146.3627  132.6533  161.2110 H   0  0  0  0  0  0  0  0  0  0  0  0
  1  2  1  0  0  0  0
  1 26  1  0  0  0  0
  1 27  1  0  0  0  0
  1 28  1  0  0  0  0
  2  3  1  0  0  0  0
  2 19  1  0  0  0  0
  2 29  1  0  0  0  0
  3  4  1  0  0  0  0
  3 30  1  0  0  0  0
  4  5  2  0  0  0  0
  4  6  1  0  0  0  0
  6  7  1  0  0  0  0
  6 31  1  0  0  0  0
  7 12  1  0  0  0  0
  7  8  2  0  0  0  0
  8  9  1  0  0  0  0
  8 32  1  0  0  0  0
  9 10  2  0  0  0  0
  9 33  1  0  0  0  0
 10 11  1  0  0  0  0
 10 34  1  0  0  0  0
 11 12  2  0  0  0  0
 12 13  1  0  0  0  0
 13 18  1  0  0  0  0
 13 14  1  0  0  0  0
 14 15  1  0  0  0  0
 14 35  1  0  0  0  0
 14 36  1  0  0  0  0
 15 16  1  0  0  0  0
 15 37  1  0  0  0  0
 15 38  1  0  0  0  0
 16 17  1  0  0  0  0
 16 39  1  0  0  0  0
 16 40  1  0  0  0  0
 17 18  1  0  0  0  0
 17 41  1  0  0  0  0
 17 42  1  0  0  0  0
 18 43  1  0  0  0  0
 18 44  1  0  0  0  0
 19 20  2  0  0  0  0
 19 21  1  0  0  0  0
 21 22  1  0  0  0  0
 21 45  1  0  0  0  0
 22 23  1  0  0  0  0
 22 24  1  0  0  0  0
 22 25  1  0  0  0  0
 23 46  1  0  0  0  0
 23 47  1  0  0  0  0
 23 48  1  0  0  0  0
 24 49  1  0  0  0  0
 24 50  1  0  0  0  0
 24 51  1  0  0  0  0
 25 52  1  0  0  0  0
 25 53  1  0  0  0  0
 25 54  1  0  0  0  0
M  END
> <s_m_source_file>
AV-unprocessed.smi

> <i_m_source_file_index>
1040

> <i_lp_mmshare_version>
43012

> <i_f3d_flags>
0

> <s_epik_input>
W0NIM11DKFtDSDNdKShbQ0gzXSlbTkhdQyg9TylbQ0BIXShbQ0gzXSlbTkhdQyg9TylbTkhdYzFbY0hdW2NIXVtjSF1uYzFOMltDSDJdW0NIMl1bQ0gyXVtDSDJdW0NIMl0y

> <s_epik_cmdline>
J2VwaWtfcHl0aG9uJywgJy1waCcsICc3LjAnLCAnLXRuJywgJzgnLCAnLW1hJywgJzIwMCcsICctbWV0YWxfYmluZGluZycsICctaW1hZScsICc8aW5maWxlLm1hZT4nLCAnLW9tYWUnLCAnPG91dGZpbGUubWFlPic=

> <r_lp_tautomer_probability>
1

> <r_epik_Ionization_Penalty>
0.0878593

> <r_epik_Ionization_Penalty_Charging>
0

> <r_epik_Ionization_Penalty_Neutral>
0.0878593

> <r_epik_State_Penalty>
0.07381

> <r_epik_Charging_Adjusted_Penalty>
0.07381

> <i_epik_Tot_Q>
0

> <i_epik_Tot_abs_Q>
0

> <r_epik_Metal_State_Penalty>
0.0646628

> <b_epik_Metal_Only>
0

> <s_lp_Force_Field>
OPLS_2005

> <r_lp_Energy>
20.3339

> <b_lp_Chiralities_Consistent>
1

> <s_lp_Variant>
AV-unprocessed.smi:1040-2

> <Gold.Version>
5.8.1

> <Gold.Id.Protein>
6NUR|6NUR_protein|mol2

> <Gold.PLP.Fitness>
42.9325

> <Gold.PLP.PLP>
-38.5242

> <Gold.PLP.part.hbond>
-3.0000

> <Gold.PLP.part.metal>
0.0000

> <Gold.PLP.part.buried>
-4.0091

> <Gold.PLP.part.nonpolar>
-32.9538

> <Gold.PLP.part.repulsive>
0.5114

> <Gold.PLP.ligand.clash>
0.0000

> <Gold.PLP.ligand.torsion>
0.3537

> <Gold.PLP.Chemscore.Hbond>
1.6000

> <Gold.PLP.Chemscore.CHOScore>
0.0000

> <Gold.PLP.Chemscore.Metal>
0.0000

> <Gold.Chemscore.Hbonds>
donor molecule, donor type, donor heavy atom, donor atom, acceptor molecule, acceptor atom, score
      P1  H  6931  6943       L1    20  0.69
      P1  H  6934  6947       L1    20  0.83

> <Gold.PLP.Chemscore.Internal.Correction>
0.3159

> <Gold.Rescore>
     Score         DG    S(hbond)    S(metal)    S(lipo)     H(rot)  DE(clash)    DE(int)     intcor
     14.22     -17.92       1.61        0.00      95.73       1.61       0.59       3.11       ----

> <Gold.Chemscore.Fitness>
14.2204

> <Gold.Chemscore.DG>
-17.9239

> <Gold.Chemscore.ZeroCoef>
-5.4800

> <Gold.Chemscore.Hbond>
1.6094

> <Gold.Chemscore.Metal>
0.0000

> <Gold.Chemscore.Lipo>
95.7347

> <Gold.Chemscore.Internal_Hbond>
0.0000

> <Gold.Chemscore.DEClash>
0.5922

> <Gold.Chemscore.DEInternal>
3.1113

> <Gold.Chemscore.Rot>
1.6143

> <Gold.Chemscore.Internal.Correction>
   9.000000E+99

> <Gold.Chemscore.Hbonds>
donor molecule, donor type, donor heavy atom, donor atom, acceptor molecule, acceptor atom, score
      P1  H  6931  6943       L1    20  0.66
      P1  H  6934  6947       L1    20  0.81

> <Gold.Chemscore.Hbond.Weighted>
-5.3756

> <Gold.Chemscore.Metal.Weighted>
-0.0000

> <Gold.Chemscore.Lipo.Weighted>
-11.2010

> <Gold.Chemscore.Internal_Hbond.Weighted>
0.0000

> <Gold.Chemscore.DEClash.Weighted>
0.5922

> <Gold.Chemscore.DEInternal.Weighted>
3.1113

> <Gold.Chemscore.Rot.Weighted>
4.1326

> <Gold.Chemscore.Internal.Correction.Weighted>
   9.000000E+99

> <Gold.Protein.RotatedTorsions>
[ 6907 6896 6895 6894 ] final  100.43 input  -60.11 | X-H torsion
[ 7974 7965 7964 7962 ] final   45.08 input  175.53 | X-H torsion
[ 8008 7997 7996 7995 ] final -176.52 input   59.86 | X-H torsion
[ 10167 10162 10161 10158 ] final   36.39 input  -65.29 | X-H torsion
[ 10718 10713 10712 10709 ] final  -41.20 input   66.30 | X-H torsion
[ 10763 10752 10751 10750 ] final   42.82 input  -60.55 | X-H torsion
[ 11005 11000 10999 10996 ] final   46.78 input  -57.11 | X-H torsion

> <Gold.Protein.ActiveResidues>
 VAL166  LYS551  ARG553  GLY616  TRP617  ASP618  TYR619  PRO620  LYS621  CYS622 
 ASP623  PHE694  ASN695  SER759  ASP760  ASP761  ALA762  ILE779  LEU786  VAL792 
 PHE793  MET794  SER795  GLU796  ALA797  LYS798  CYS799  TRP800  GLU811  SER814 

> <Gold.Protein.RotatedAtoms>
  152.5372  134.0279  159.8011 H   0  0  0  0  0  0  0  0  0  0  0  0  # atno 6907 bound_to 6896
  151.0454  133.5662  159.2654 H   0  0  0  0  0  0  0  0  0  0  0  0  # atno 6908 bound_to 6896
  151.2616  135.0663  159.9154 H   0  0  0  0  0  0  0  0  0  0  0  0  # atno 6909 bound_to 6896
  146.0512  139.5004  142.9717 H   0  0  0  0  0  0  0  0  0  0  0  0  # atno 7974 bound_to 7965
  155.9959  140.1210  157.0594 H   0  0  0  0  0  0  0  0  0  0  0  0  # atno 8008 bound_to 7997
  154.4226  140.1116  156.5698 H   0  0  0  0  0  0  0  0  0  0  0  0  # atno 8009 bound_to 7997
  155.6279  140.3472  155.4675 H   0  0  0  0  0  0  0  0  0  0  0  0  # atno 8010 bound_to 7997
  140.4132  144.1563  150.6141 H   0  0  0  0  0  0  0  0  0  0  0  0  # atno 10167 bound_to 10162
  156.2729  130.4208  149.8418 H   0  0  0  0  0  0  0  0  0  0  0  0  # atno 10718 bound_to 10713
  152.9874  135.6120  154.3011 H   0  0  0  0  0  0  0  0  0  0  0  0  # atno 10763 bound_to 10752
  154.2731  135.2779  155.2731 H   0  0  0  0  0  0  0  0  0  0  0  0  # atno 10764 bound_to 10752
  154.5104  135.5842  153.6657 H   0  0  0  0  0  0  0  0  0  0  0  0  # atno 10765 bound_to 10752
  140.1338  134.4671  155.8501 H   0  0  0  0  0  0  0  0  0  0  0  0  # atno 11005 bound_to 11000
  145.6721  141.0214  143.1652 LP  0  0  0  0  0  0  0  0  0  0  0  0  # atno 17320 bound_to 7965
  144.7124  139.8322  143.7410 LP  0  0  0  0  0  0  0  0  0  0  0  0  # atno 17321 bound_to 7965
  140.4615  143.2447  151.9213 LP  0  0  0  0  0  0  0  0  0  0  0  0  # atno 17342 bound_to 10162
  139.4782  144.5463  151.8454 LP  0  0  0  0  0  0  0  0  0  0  0  0  # atno 17343 bound_to 10162
  156.5893  130.8499  151.3404 LP  0  0  0  0  0  0  0  0  0  0  0  0  # atno 17370 bound_to 10713
  157.7290  130.9664  150.1766 LP  0  0  0  0  0  0  0  0  0  0  0  0  # atno 17371 bound_to 10713
  141.2175  133.6806  156.7119 LP  0  0  0  0  0  0  0  0  0  0  0  0  # atno 17394 bound_to 11000
  140.2808  134.8318  157.3931 LP  0  0  0  0  0  0  0  0  0  0  0  0  # atno 17395 bound_to 11000

$$$$
