AV-unprocessed.smi:2881|AV-procd|sdf|11070|dock1
  -GOLD-   2272015543D 1   1.00000     0.00000
 Structure written by MMmdl.
 40 42  0  0  0  0  0  0  0  0  1 V2000
  151.4258  139.5793  155.5562 C   0  0  0  0  0  0  0  0  0  0  0  0
  150.2306  139.1362  154.7652 C   0  0  0  0  0  0  0  0  0  0  0  0
  149.1081  139.9141  154.3562 C   0  0  0  0  0  0  0  0  0  0  0  0
  148.3215  139.0359  153.6644 C   0  0  0  0  0  0  0  0  0  0  0  0
  147.0109  139.2211  152.9695 C   0  0  0  0  0  0  0  0  0  0  0  0
  146.1110  138.0030  153.1752 C   0  0  0  0  0  0  0  0  0  0  0  0
  145.0931  138.0984  153.8603 O   0  0  0  0  0  0  0  0  0  0  0  0
  146.4961  136.8662  152.5753 N   0  0  0  0  0  0  0  0  0  0  0  0
  145.7707  135.5999  152.6315 C   0  0  1  0  0  0  0  0  0  0  0  0
  144.3853  135.7387  151.9629 C   0  0  2  0  0  0  0  0  0  0  0  0
  143.5084  134.5480  152.3904 C   0  0  0  0  0  0  0  0  0  0  0  0
  144.1311  133.3777  151.6062 C   0  0  0  0  0  0  0  0  0  0  0  0
  145.2936  134.0500  150.8443 C   0  0  1  0  0  0  0  0  0  0  0  0
  144.6739  135.3993  150.5030 C   0  0  0  0  0  0  0  0  0  0  0  0
  146.4407  134.4820  151.7919 C   0  0  2  0  0  0  0  0  0  0  0  0
  147.0849  133.3639  152.6346 C   0  0  0  0  0  0  0  0  0  0  0  0
  148.1829  133.8675  153.3651 O   0  0  0  0  0  0  0  0  0  0  0  0
  148.9778  137.8260  153.6982 N   0  0  0  0  0  0  0  0  0  0  0  0
  150.1449  137.8759  154.3662 N   0  0  0  0  0  0  0  0  0  0  0  0
  148.6468  136.9705  153.2753 H   0  0  0  0  0  0  0  0  0  0  0  0
  151.4257  140.6603  155.6975 H   0  0  0  0  0  0  0  0  0  0  0  0
  152.3543  139.3119  155.0509 H   0  0  0  0  0  0  0  0  0  0  0  0
  151.4365  139.1158  156.5430 H   0  0  0  0  0  0  0  0  0  0  0  0
  148.9126  140.9606  154.5384 H   0  0  0  0  0  0  0  0  0  0  0  0
  147.1751  139.3730  151.9021 H   0  0  0  0  0  0  0  0  0  0  0  0
  146.5048  140.1151  153.3364 H   0  0  0  0  0  0  0  0  0  0  0  0
  147.3467  136.8800  152.0319 H   0  0  0  0  0  0  0  0  0  0  0  0
  145.6526  135.3064  153.6765 H   0  0  0  0  0  0  0  0  0  0  0  0
  143.9059  136.7043  152.1276 H   0  0  0  0  0  0  0  0  0  0  0  0
  143.5228  134.3834  153.4684 H   0  0  0  0  0  0  0  0  0  0  0  0
  142.4711  134.7004  152.0898 H   0  0  0  0  0  0  0  0  0  0  0  0
  144.4488  132.5586  152.2496 H   0  0  0  0  0  0  0  0  0  0  0  0
  143.4044  132.9689  150.9029 H   0  0  0  0  0  0  0  0  0  0  0  0
  145.6356  133.4789  149.9807 H   0  0  0  0  0  0  0  0  0  0  0  0
  143.7738  135.3221  149.8903 H   0  0  0  0  0  0  0  0  0  0  0  0
  145.3708  136.0901  150.0251 H   0  0  0  0  0  0  0  0  0  0  0  0
  147.2269  134.9200  151.1732 H   0  0  0  0  0  0  0  0  0  0  0  0
  146.3579  132.9688  153.3439 H   0  0  0  0  0  0  0  0  0  0  0  0
  147.4069  132.5229  152.0213 H   0  0  0  0  0  0  0  0  0  0  0  0
  148.4971  134.6482  152.9349 H   0  0  0  0  0  0  0  0  0  0  0  0
  1 21  1  0  0  0  0
  1 22  1  0  0  0  0
  1 23  1  0  0  0  0
  1  2  1  0  0  0  0
  2 19  2  0  0  0  0
  2  3  1  0  0  0  0
  3  4  2  0  0  0  0
  3 24  1  0  0  0  0
  4 18  1  0  0  0  0
  4  5  1  0  0  0  0
  5  6  1  0  0  0  0
  5 25  1  0  0  0  0
  5 26  1  0  0  0  0
  6  7  2  0  0  0  0
  6  8  1  0  0  0  0
  8  9  1  0  0  0  0
  8 27  1  0  0  0  0
  9 15  1  0  0  0  0
  9 10  1  0  0  0  0
  9 28  1  0  0  0  0
 10 14  1  0  0  0  0
 10 11  1  0  0  0  0
 10 29  1  0  0  0  0
 11 12  1  0  0  0  0
 11 30  1  0  0  0  0
 11 31  1  0  0  0  0
 12 13  1  0  0  0  0
 12 32  1  0  0  0  0
 12 33  1  0  0  0  0
 13 14  1  0  0  0  0
 13 15  1  0  0  0  0
 13 34  1  0  0  0  0
 14 35  1  0  0  0  0
 14 36  1  0  0  0  0
 15 16  1  0  0  0  0
 15 37  1  0  0  0  0
 16 17  1  0  0  0  0
 16 38  1  0  0  0  0
 16 39  1  0  0  0  0
 17 40  1  0  0  0  0
 18 19  1  0  0  0  0
 18 20  1  0  0  0  0
M  END
> <s_m_source_file>
AV-unprocessed.smi

> <i_m_source_file_index>
2881

> <i_lp_mmshare_version>
43012

> <i_f3d_flags>
0

> <s_epik_input>
W0NIM11jMVtjSF1jKG5bbkhdMSlbQ0gyXUMoPU8pW05IXVtDQEhdKFtDQEBIXTIzKVtDQEhdKFtDSDJdW09IXSlbQ0BASF0oW0NIMl0zKVtDSDJdW0NIMl0y

> <s_epik_cmdline>
J2VwaWtfcHl0aG9uJywgJy1waCcsICc3LjAnLCAnLXRuJywgJzgnLCAnLW1hJywgJzIwMCcsICctbWV0YWxfYmluZGluZycsICctaW1hZScsICc8aW5maWxlLm1hZT4nLCAnLW9tYWUnLCAnPG91dGZpbGUubWFlPic=

> <r_lp_tautomer_probability>
0.5

> <r_epik_Ionization_Penalty>
0.00013396

> <r_epik_Ionization_Penalty_Charging>
0

> <r_epik_Ionization_Penalty_Neutral>
0.00013396

> <r_epik_State_Penalty>
0.41068

> <r_epik_Charging_Adjusted_Penalty>
0.41068

> <i_epik_Tot_Q>
0

> <i_epik_Tot_abs_Q>
0

> <r_epik_Metal_State_Penalty>
0.41066

> <b_epik_Metal_Only>
0

> <s_lp_Force_Field>
OPLS_2005

> <r_lp_Energy>
46.6194

> <b_lp_Chiralities_Consistent>
1

> <s_lp_Variant>
AV-unprocessed.smi:2881-16

> <Gold.Version>
5.8.1

> <Gold.Id.Protein>
6NUR|6NUR_protein|mol2

> <Gold.PLP.Fitness>
38.4992

> <Gold.PLP.PLP>
-31.4033

> <Gold.PLP.part.hbond>
-2.7330

> <Gold.PLP.part.metal>
0.0000

> <Gold.PLP.part.buried>
-2.6485

> <Gold.PLP.part.nonpolar>
-26.9897

> <Gold.PLP.part.repulsive>
0.7864

> <Gold.PLP.ligand.clash>
0.0000

> <Gold.PLP.ligand.torsion>
0.3944

> <Gold.PLP.Chemscore.Hbond>
2.6160

> <Gold.PLP.Chemscore.CHOScore>
0.0000

> <Gold.PLP.Chemscore.Metal>
0.0000

> <Gold.Chemscore.Hbonds>
donor molecule, donor type, donor heavy atom, donor atom, acceptor molecule, acceptor atom, score
      L1  H     8    27       P1  7948  0.94
      L1  H    17    40       P1  7948  1.00
      L1  H    18    20       P1  7948  0.66

> <Gold.PLP.Chemscore.Internal.Correction>
0.0367

> <Gold.Rescore>
     Score         DG    S(hbond)    S(metal)    S(lipo)     H(rot)  DE(clash)    DE(int)     intcor
     14.28     -15.96       2.44        0.00      69.72       2.28       0.20       1.48       ----

> <Gold.Chemscore.Fitness>
14.2803

> <Gold.Chemscore.DG>
-15.9570

> <Gold.Chemscore.ZeroCoef>
-5.4800

> <Gold.Chemscore.Hbond>
2.4386

> <Gold.Chemscore.Metal>
0.0000

> <Gold.Chemscore.Lipo>
69.7203

> <Gold.Chemscore.Internal_Hbond>
0.0000

> <Gold.Chemscore.DEClash>
0.1992

> <Gold.Chemscore.DEInternal>
1.4775

> <Gold.Chemscore.Rot>
2.2755

> <Gold.Chemscore.Internal.Correction>
   9.000000E+99

> <Gold.Chemscore.Hbonds>
donor molecule, donor type, donor heavy atom, donor atom, acceptor molecule, acceptor atom, score
      L1  H     8    27       P1  7948  0.91
      L1  H    17    40       P1  7948  0.35
      L1  H    18    20       P1  7948  0.63

> <Gold.Chemscore.Hbond.Weighted>
-8.1449

> <Gold.Chemscore.Metal.Weighted>
-0.0000

> <Gold.Chemscore.Lipo.Weighted>
-8.1573

> <Gold.Chemscore.Internal_Hbond.Weighted>
0.0000

> <Gold.Chemscore.DEClash.Weighted>
0.1992

> <Gold.Chemscore.DEInternal.Weighted>
1.4775

> <Gold.Chemscore.Rot.Weighted>
5.8252

> <Gold.Chemscore.Internal.Correction.Weighted>
   9.000000E+99

> <Gold.Protein.RotatedTorsions>
[ 6907 6896 6895 6894 ] final   48.75 input  -60.11 | X-H torsion
[ 7974 7965 7964 7962 ] final -120.36 input  175.53 | X-H torsion
[ 8008 7997 7996 7995 ] final   90.00 input   59.86 | X-H torsion
[ 10167 10162 10161 10158 ] final -147.34 input  -65.29 | X-H torsion
[ 10718 10713 10712 10709 ] final -146.49 input   66.30 | X-H torsion
[ 10763 10752 10751 10750 ] final   47.53 input  -60.55 | X-H torsion
[ 11005 11000 10999 10996 ] final  118.32 input  -57.11 | X-H torsion

> <Gold.Protein.ActiveResidues>
 VAL166  LYS551  ARG553  GLY616  TRP617  ASP618  TYR619  PRO620  LYS621  CYS622 
 ASP623  PHE694  ASN695  SER759  ASP760  ASP761  ALA762  ILE779  LEU786  VAL792 
 PHE793  MET794  SER795  GLU796  ALA797  LYS798  CYS799  TRP800  GLU811  SER814 

> <Gold.Protein.RotatedAtoms>
  152.2830  134.7807  160.0392 H   0  0  0  0  0  0  0  0  0  0  0  0  # atno 6907 bound_to 6896
  151.8379  133.3413  159.3642 H   0  0  0  0  0  0  0  0  0  0  0  0  # atno 6908 bound_to 6896
  150.7198  134.5348  159.5762 H   0  0  0  0  0  0  0  0  0  0  0  0  # atno 6909 bound_to 6896
  145.0522  140.8227  143.4202 H   0  0  0  0  0  0  0  0  0  0  0  0  # atno 7974 bound_to 7965
  156.0067  140.3354  155.6900 H   0  0  0  0  0  0  0  0  0  0  0  0  # atno 8008 bound_to 7997
  155.6214  140.0675  157.2694 H   0  0  0  0  0  0  0  0  0  0  0  0  # atno 8009 bound_to 7997
  154.4267  140.1776  156.1364 H   0  0  0  0  0  0  0  0  0  0  0  0  # atno 8010 bound_to 7997
  139.7631  143.8348  152.2611 H   0  0  0  0  0  0  0  0  0  0  0  0  # atno 10167 bound_to 10162
  156.3956  130.7907  151.2114 H   0  0  0  0  0  0  0  0  0  0  0  0  # atno 10718 bound_to 10713
  152.9799  135.5973  154.3778 H   0  0  0  0  0  0  0  0  0  0  0  0  # atno 10763 bound_to 10752
  154.3446  135.2767  155.2406 H   0  0  0  0  0  0  0  0  0  0  0  0  # atno 10764 bound_to 10752
  154.4473  135.5998  153.6223 H   0  0  0  0  0  0  0  0  0  0  0  0  # atno 10765 bound_to 10752
  139.9105  134.9619  156.7486 H   0  0  0  0  0  0  0  0  0  0  0  0  # atno 11005 bound_to 11000
  145.1512  139.2513  143.5440 LP  0  0  0  0  0  0  0  0  0  0  0  0  # atno 17320 bound_to 7965
  146.3519  140.1216  142.8600 LP  0  0  0  0  0  0  0  0  0  0  0  0  # atno 17321 bound_to 7965
  139.8360  144.7232  150.9390 LP  0  0  0  0  0  0  0  0  0  0  0  0  # atno 17342 bound_to 10162
  140.7808  143.4026  151.1123 LP  0  0  0  0  0  0  0  0  0  0  0  0  # atno 17343 bound_to 10162
  157.7501  131.0302  150.4128 LP  0  0  0  0  0  0  0  0  0  0  0  0  # atno 17370 bound_to 10713
  156.4398  130.3989  149.6705 LP  0  0  0  0  0  0  0  0  0  0  0  0  # atno 17371 bound_to 10713
  140.6792  133.9490  155.7900 LP  0  0  0  0  0  0  0  0  0  0  0  0  # atno 17394 bound_to 11000
  141.0522  134.0468  157.3768 LP  0  0  0  0  0  0  0  0  0  0  0  0  # atno 17395 bound_to 11000

$$$$
