AV-unprocessed.smi:1073|AV-procd|sdf|4689|dock6
  -GOLD-   22720 3203D 1   1.00000     0.00000
 Structure written by MMmdl.
 44 44  0  0  0  0  0  0  0  0  1 V2000
  148.2294  136.5348  158.7662 C   0  0  0  0  0  0  0  0  0  0  0  0
  147.8785  137.6022  157.8424 N   0  0  0  0  0  0  0  0  0  0  0  0
  148.6679  138.0282  156.8457 C   0  0  0  0  0  0  0  0  0  0  0  0
  149.7736  137.5384  156.6092 O   0  0  0  0  0  0  0  0  0  0  0  0
  148.1134  139.1610  155.9714 C   0  0  2  0  0  0  0  0  0  0  0  0
  148.0151  138.7469  154.4833 C   0  0  0  0  0  0  0  0  0  0  0  0
  147.1091  139.6262  153.5909 C   0  0  0  0  0  0  0  0  0  0  0  0
  146.9142  139.0332  152.1852 C   0  0  0  0  0  0  0  0  0  0  0  0
  147.6719  141.0522  153.4917 C   0  0  0  0  0  0  0  0  0  0  0  0
  148.9388  140.3605  156.1235 N   0  0  0  0  0  0  0  0  0  0  0  0
  150.1823  140.5344  155.6497 C   0  0  0  0  0  0  0  0  0  0  0  0
  150.7968  139.6686  155.0254 O   0  0  0  0  0  0  0  0  0  0  0  0
  150.8247  141.8957  155.9517 C   0  0  0  0  0  0  0  0  0  0  0  0
  151.3873  141.9898  157.3091 N   0  0  0  0  0  0  0  0  0  0  0  0
  151.1120  143.1649  158.0357 C   0  0  0  0  0  0  0  0  0  0  0  0
  151.5722  143.3802  159.2828 C   0  0  0  0  0  0  0  0  0  0  0  0
  151.2058  144.6326  160.0639 C   0  0  0  0  0  0  0  0  0  0  0  0
  151.6718  144.5751  161.3116 F   0  0  0  0  0  0  0  0  0  0  0  0
  151.7320  145.7045  159.4730 F   0  0  0  0  0  0  0  0  0  0  0  0
  149.8834  144.7960  160.1175 F   0  0  0  0  0  0  0  0  0  0  0  0
  152.3564  142.3136  159.8741 C   0  0  0  0  0  0  0  0  0  0  0  0
  152.6167  141.1774  159.1983 C   0  0  0  0  0  0  0  0  0  0  0  0
  152.1227  140.9654  157.8357 C   0  0  0  0  0  0  0  0  0  0  0  0
  152.3538  139.9316  157.2082 O   0  0  0  0  0  0  0  0  0  0  0  0
  147.4221  136.3825  159.4826 H   0  0  0  0  0  0  0  0  0  0  0  0
  149.1350  136.7836  159.3206 H   0  0  0  0  0  0  0  0  0  0  0  0
  148.3936  135.5975  158.2330 H   0  0  0  0  0  0  0  0  0  0  0  0
  146.9820  138.0490  157.9701 H   0  0  0  0  0  0  0  0  0  0  0  0
  147.1098  139.3667  156.3461 H   0  0  0  0  0  0  0  0  0  0  0  0
  149.0228  138.7402  154.0642 H   0  0  0  0  0  0  0  0  0  0  0  0
  147.6664  137.7149  154.4171 H   0  0  0  0  0  0  0  0  0  0  0  0
  146.1287  139.7102  154.0595 H   0  0  0  0  0  0  0  0  0  0  0  0
  147.8684  138.9038  151.6737 H   0  0  0  0  0  0  0  0  0  0  0  0
  146.2938  139.6850  151.5694 H   0  0  0  0  0  0  0  0  0  0  0  0
  146.4194  138.0633  152.2187 H   0  0  0  0  0  0  0  0  0  0  0  0
  148.6586  141.0578  153.0273 H   0  0  0  0  0  0  0  0  0  0  0  0
  147.7653  141.5094  154.4774 H   0  0  0  0  0  0  0  0  0  0  0  0
  147.0202  141.6922  152.8961 H   0  0  0  0  0  0  0  0  0  0  0  0
  148.5147  141.1307  156.6205 H   0  0  0  0  0  0  0  0  0  0  0  0
  151.5973  142.1005  155.2083 H   0  0  0  0  0  0  0  0  0  0  0  0
  150.0708  142.6691  155.7982 H   0  0  0  0  0  0  0  0  0  0  0  0
  150.4897  143.8788  157.5156 H   0  0  0  0  0  0  0  0  0  0  0  0
  152.7439  142.4279  160.8758 H   0  0  0  0  0  0  0  0  0  0  0  0
  153.2044  140.4039  159.6706 H   0  0  0  0  0  0  0  0  0  0  0  0
  1  2  1  0  0  0  0
  1 25  1  0  0  0  0
  1 26  1  0  0  0  0
  1 27  1  0  0  0  0
  2  3  1  0  0  0  0
  2 28  1  0  0  0  0
  3  4  2  0  0  0  0
  3  5  1  0  0  0  0
  5  6  1  0  0  0  0
  5 10  1  0  0  0  0
  5 29  1  0  0  0  0
  6  7  1  0  0  0  0
  6 30  1  0  0  0  0
  6 31  1  0  0  0  0
  7  8  1  0  0  0  0
  7  9  1  0  0  0  0
  7 32  1  0  0  0  0
  8 33  1  0  0  0  0
  8 34  1  0  0  0  0
  8 35  1  0  0  0  0
  9 36  1  0  0  0  0
  9 37  1  0  0  0  0
  9 38  1  0  0  0  0
 10 11  1  0  0  0  0
 10 39  1  0  0  0  0
 11 12  2  0  0  0  0
 11 13  1  0  0  0  0
 13 14  1  0  0  0  0
 13 40  1  0  0  0  0
 13 41  1  0  0  0  0
 14 23  1  0  0  0  0
 14 15  1  0  0  0  0
 15 16  2  0  0  0  0
 15 42  1  0  0  0  0
 16 17  1  0  0  0  0
 16 21  1  0  0  0  0
 17 18  1  0  0  0  0
 17 19  1  0  0  0  0
 17 20  1  0  0  0  0
 21 22  2  0  0  0  0
 21 43  1  0  0  0  0
 22 23  1  0  0  0  0
 22 44  1  0  0  0  0
 23 24  2  0  0  0  0
M  END
> <s_m_source_file>
AV-unprocessed.smi

> <i_m_source_file_index>
1073

> <i_lp_mmshare_version>
43012

> <i_f3d_flags>
0

> <s_epik_input>
W0NIM11bTkhdQyg9TylbQ0BIXShbQ0gyXVtDSF0oW0NIM10pW0NIM10pW05IXUMoPU8pW0NIMl1uMVtjSF1jKEMoRikoRilGKVtjSF1bY0hdYzE9Tw==

> <s_epik_cmdline>
J2VwaWtfcHl0aG9uJywgJy1waCcsICc3LjAnLCAnLXRuJywgJzgnLCAnLW1hJywgJzIwMCcsICctbWV0YWxfYmluZGluZycsICctaW1hZScsICc8aW5maWxlLm1hZT4nLCAnLW9tYWUnLCAnPG91dGZpbGUubWFlPic=

> <r_lp_tautomer_probability>
1

> <r_epik_Ionization_Penalty>
7.02352e-08

> <r_epik_Ionization_Penalty_Charging>
1.57869e-08

> <r_epik_Ionization_Penalty_Neutral>
5.44484e-08

> <r_epik_State_Penalty>
-0

> <r_epik_Charging_Adjusted_Penalty>
1.57869e-08

> <i_epik_Tot_Q>
0

> <i_epik_Tot_abs_Q>
0

> <r_epik_Metal_State_Penalty>
-0

> <b_epik_Metal_Only>
0

> <s_lp_Force_Field>
OPLS_2005

> <r_lp_Energy>
18.1755

> <b_lp_Chiralities_Consistent>
1

> <s_lp_Variant>
AV-unprocessed.smi:1073-1

> <Gold.Version>
5.8.1

> <Gold.Id.Protein>
6NUR|6NUR_protein|mol2

> <Gold.PLP.Fitness>
49.4626

> <Gold.PLP.PLP>
-43.0731

> <Gold.PLP.part.hbond>
-1.9817

> <Gold.PLP.part.metal>
0.0000

> <Gold.PLP.part.buried>
-4.3290

> <Gold.PLP.part.nonpolar>
-35.6168

> <Gold.PLP.part.repulsive>
0.1371

> <Gold.PLP.ligand.clash>
0.3626

> <Gold.PLP.ligand.torsion>
0.8095

> <Gold.PLP.Chemscore.Hbond>
2.0000

> <Gold.PLP.Chemscore.CHOScore>
0.7369

> <Gold.PLP.Chemscore.Metal>
0.0000

> <Gold.Chemscore.Hbonds>
donor molecule, donor type, donor heavy atom, donor atom, acceptor molecule, acceptor atom, score
      P1  H  7989  7998       L1    12  0.80
      P1  H  7997  8008       L1    24  0.80
      L1  C    15    42       P1  8028  0.90

> <Gold.PLP.Chemscore.Internal.Correction>
0.1603

> <Gold.Rescore>
     Score         DG    S(hbond)    S(metal)    S(lipo)     H(rot)  DE(clash)    DE(int)     intcor
      8.12     -14.69       1.61        0.00      87.68       2.51       0.75       5.83       ----

> <Gold.Chemscore.Fitness>
8.1213

> <Gold.Chemscore.DG>
-14.6931

> <Gold.Chemscore.ZeroCoef>
-5.4800

> <Gold.Chemscore.Hbond>
1.6147

> <Gold.Chemscore.Metal>
0.0000

> <Gold.Chemscore.Lipo>
87.6770

> <Gold.Chemscore.Internal_Hbond>
0.0000

> <Gold.Chemscore.DEClash>
0.7465

> <Gold.Chemscore.DEInternal>
5.8253

> <Gold.Chemscore.Rot>
2.5149

> <Gold.Chemscore.Internal.Correction>
   9.000000E+99

> <Gold.Chemscore.Hbonds>
donor molecule, donor type, donor heavy atom, donor atom, acceptor molecule, acceptor atom, score
      P1  H  7989  7998       L1    12  0.20
      P1  H  7997  8008       L1    24  0.39

> <Gold.Chemscore.Hbond.Weighted>
-5.3930

> <Gold.Chemscore.Metal.Weighted>
-0.0000

> <Gold.Chemscore.Lipo.Weighted>
-10.2582

> <Gold.Chemscore.Internal_Hbond.Weighted>
0.0000

> <Gold.Chemscore.DEClash.Weighted>
0.7465

> <Gold.Chemscore.DEInternal.Weighted>
5.8253

> <Gold.Chemscore.Rot.Weighted>
6.4381

> <Gold.Chemscore.Internal.Correction.Weighted>
   9.000000E+99

> <Gold.Protein.RotatedTorsions>
[ 6907 6896 6895 6894 ] final   27.21 input  -60.11 | X-H torsion
[ 7974 7965 7964 7962 ] final   95.50 input  175.53 | X-H torsion
[ 8008 7997 7996 7995 ] final  -53.43 input   59.86 | X-H torsion
[ 10167 10162 10161 10158 ] final  -50.56 input  -65.29 | X-H torsion
[ 10718 10713 10712 10709 ] final  -73.86 input   66.30 | X-H torsion
[ 10763 10752 10751 10750 ] final  -79.78 input  -60.55 | X-H torsion
[ 11005 11000 10999 10996 ] final  125.78 input  -57.11 | X-H torsion

> <Gold.Protein.ActiveResidues>
 VAL166  LYS551  ARG553  GLY616  TRP617  ASP618  TYR619  PRO620  LYS621  CYS622 
 ASP623  PHE694  ASN695  SER759  ASP760  ASP761  ALA762  ILE779  LEU786  VAL792 
 PHE793  MET794  SER795  GLU796  ALA797  LYS798  CYS799  TRP800  GLU811  SER814 

> <Gold.Protein.RotatedAtoms>
  151.9988  134.9939  160.0564 H   0  0  0  0  0  0  0  0  0  0  0  0  # atno 6907 bound_to 6896
  152.1538  133.4534  159.4835 H   0  0  0  0  0  0  0  0  0  0  0  0  # atno 6908 bound_to 6896
  150.6879  134.2074  159.4389 H   0  0  0  0  0  0  0  0  0  0  0  0  # atno 6909 bound_to 6896
  145.4513  139.2293  143.3038 H   0  0  0  0  0  0  0  0  0  0  0  0  # atno 7974 bound_to 7965
  154.4133  140.1200  156.5152 H   0  0  0  0  0  0  0  0  0  0  0  0  # atno 8008 bound_to 7997
  155.6758  140.3496  155.4817 H   0  0  0  0  0  0  0  0  0  0  0  0  # atno 8009 bound_to 7997
  155.9594  140.1120  157.0899 H   0  0  0  0  0  0  0  0  0  0  0  0  # atno 8010 bound_to 7997
  140.6632  143.2653  151.4376 H   0  0  0  0  0  0  0  0  0  0  0  0  # atno 10167 bound_to 10162
  156.0264  130.4404  150.2806 H   0  0  0  0  0  0  0  0  0  0  0  0  # atno 10718 bound_to 10713
  154.5430  135.5683  153.6855 H   0  0  0  0  0  0  0  0  0  0  0  0  # atno 10763 bound_to 10752
  152.9968  135.6232  154.2477 H   0  0  0  0  0  0  0  0  0  0  0  0  # atno 10764 bound_to 10752
  154.2408  135.2862  155.2834 H   0  0  0  0  0  0  0  0  0  0  0  0  # atno 10765 bound_to 10752
  139.9423  134.9634  156.8609 H   0  0  0  0  0  0  0  0  0  0  0  0  # atno 11005 bound_to 11000
  146.2502  140.5273  142.8896 LP  0  0  0  0  0  0  0  0  0  0  0  0  # atno 17320 bound_to 7965
  144.8060  140.6299  143.6447 LP  0  0  0  0  0  0  0  0  0  0  0  0  # atno 17321 bound_to 7965
  139.5872  144.1579  152.2043 LP  0  0  0  0  0  0  0  0  0  0  0  0  # atno 17342 bound_to 10162
  140.0922  144.5611  150.7047 LP  0  0  0  0  0  0  0  0  0  0  0  0  # atno 17343 bound_to 10162
  157.0909  131.0169  151.3122 LP  0  0  0  0  0  0  0  0  0  0  0  0  # atno 17370 bound_to 10713
  157.4854  130.7790  149.7455 LP  0  0  0  0  0  0  0  0  0  0  0  0  # atno 17371 bound_to 10713
  140.5920  134.0252  155.7503 LP  0  0  0  0  0  0  0  0  0  0  0  0  # atno 17394 bound_to 11000
  141.1062  133.9689  157.2992 LP  0  0  0  0  0  0  0  0  0  0  0  0  # atno 17395 bound_to 11000

$$$$
