#       Name:                AV-unprocessed.smi:1889
#       Creating user name   scv26
#       Creation time:       Fri Mar 27 09:39:47 2020


#       File generated by GOLD software.
#

@<TRIPOS>MOLECULE
AV-unprocessed.smi:1889
    42    43     1
SMALL
NO_CHARGES


@<TRIPOS>ATOM
      1 ****        -7.0263   1.9624   0.9631 C.3            1 S1                 0.0000
      2 ****        -5.6147   1.3667   0.9308 C.3            1 S1                 0.0000
      3 ****        -5.4380   0.3306  -0.1880 C.3            1 S1                 0.0000
      4 ****        -4.0599  -0.2405  -0.2266 C.2            1 S1                 0.0000
      5 ****        -3.6947  -1.3010   0.4984 N.2            1 S1                 0.0000
      6 ****        -2.3583  -1.6243   0.3151 N.2            1 S1                 0.0000
      7 ****        -1.7261  -0.7924  -0.5247 C.2            1 S1                 0.0000
      8 ****        -0.4271  -0.9351  -0.8356 N.pl3          1 S1                -1.0000
      9 ****         0.5024  -0.1637  -0.2271 C.2            1 S1                 0.0000
     10 ****         0.2891   0.7130   0.6138 O.2            1 S1                 0.0000
     11 ****         1.7576  -0.4221  -0.6169 N.am           1 S1                 0.0000
     12 ****         2.9480   0.2574  -0.1204 C.3            1 S1                 0.0000
     13 ****         4.2274  -0.3908  -0.6752 C.3            1 S1                 0.0000
     14 ****         5.5141   0.2758  -0.2021 C.3            1 S1                 0.0000
     15 ****         6.4878  -0.8868   0.0196 C.3            1 S1                 0.0000
     16 ****         5.8212  -2.0406  -0.4726 O.3            1 S1                 0.0000
     17 ****         4.4329  -1.8478  -0.2627 C.3            1 S1                 0.0000
     18 ****        -2.7689   0.4694  -1.1810 S.3            1 S1                 0.0000
     19 ****        -7.1222   2.6898   1.7694 H              1 S1                 0.0000
     20 ****        -7.7768   1.1878   1.1222 H              1 S1                 0.0000
     21 ****        -7.2606   2.4702   0.0272 H              1 S1                 0.0000
     22 ****        -4.8885   2.1704   0.8030 H              1 S1                 0.0000
     23 ****        -5.3973   0.9045   1.8944 H              1 S1                 0.0000
     24 ****        -6.1519  -0.4843  -0.0619 H              1 S1                 0.0000
     25 ****        -5.6511   0.7849  -1.1562 H              1 S1                 0.0000
     26 ****         1.8934  -1.1462  -1.3069 H              1 S1                 0.0000
     27 ****         2.9055   1.3071  -0.4139 H              1 S1                 0.0000
     28 ****         2.9555   0.2290   0.9705 H              1 S1                 0.0000
     29 ****         4.2077  -0.3488  -1.7654 H              1 S1                 0.0000
     30 ****         5.8855   0.9802  -0.9469 H              1 S1                 0.0000
     31 ****         5.3690   0.8246   0.7295 H              1 S1                 0.0000
     32 ****         7.4391  -0.7394  -0.4921 H              1 S1                 0.0000
     33 ****         6.6910  -1.0167   1.0835 H              1 S1                 0.0000
     34 ****         4.1953  -2.0013   0.7915 H              1 S1                 0.0000
     35 ****         3.8382  -2.5427  -0.8562 H              1 S1                 0.0000
     36 ****        -4.3127  -1.8035   1.1030 LP             1 S1                 0.0000
     37 ****        -1.9120  -2.3987   0.7636 LP             1 S1                 0.0000
     38 ****        -0.1473  -1.6116  -1.5168 LP             1 S1                 0.0000
     39 ****        -0.6471   0.9085   0.9059 LP             1 S1                 0.0000
     40 ****         1.0524   1.2283   1.0035 LP             1 S1                 0.0000
     41 ****         6.1325  -2.8523   0.0216 LP             1 S1                 0.0000
     42 ****         6.0073  -2.1528  -1.4487 LP             1 S1                 0.0000
@<TRIPOS>BOND
    1    1    2 1     
    2    1   19 1     
    3    1   20 1     
    4    1   21 1     
    5    2    3 1     
    6    2   22 1     
    7    2   23 1     
    8    3    4 1     
    9    3   24 1     
   10    3   25 1     
   11    4   18 1     
   12    4    5 2     
   13    5    6 1     
   14    6    7 2     
   15    7    8 1     
   16    7   18 1     
   17    8    9 1     
   18    9   10 2     
   19    9   11 am    
   20   11   12 1     
   21   11   26 1     
   22   12   13 1     
   23   12   27 1     
   24   12   28 1     
   25   13   17 1     
   26   13   14 1     
   27   13   29 1     
   28   14   15 1     
   29   14   30 1     
   30   14   31 1     
   31   15   16 1     
   32   15   32 1     
   33   15   33 1     
   34   16   17 1     
   35   17   34 1     
   36   17   35 1     
   37    5   36 1     
   38    6   37 1     
   39    8   38 1     
   40   10   39 1     
   41   10   40 1     
   42   16   41 1     
   43   16   42 1     
@<TRIPOS>SUBSTRUCTURE
      1 S1             1
@<TRIPOS>SET
LONE_PAIRS      STATIC     ATOMS    <user>   **** ""
7 36 37 38 39 40 41 42
DONOR_HYDROGENS      STATIC     ATOMS    <user>   **** ""
1 26
ATOM$BLUE        STATIC     ATOMS    COLORGROUP SYSTEM
7 36 37 38 39 40 41 42
ATOM$RED        STATIC     ATOMS    COLORGROUP SYSTEM
1 26
