#       Name:                AV-unprocessed.smi:101
#       Creating user name   scv26
#       Creation time:       Thu Mar 26 17:44:11 2020


#       File generated by GOLD software.
#

@<TRIPOS>MOLECULE
AV-unprocessed.smi:101
    56    58     1
SMALL
NO_CHARGES


@<TRIPOS>ATOM
      1 ****        -4.2409   0.1787  -1.9575 C.3            1 S1                 0.0000
      2 ****        -3.5827   0.8843  -0.7844 C.2            1 S1                 0.0000
      3 ****        -2.9589   0.2098   0.2066 C.2            1 S1                 0.0000
      4 ****        -2.3555   0.8512   1.2793 N.am           1 S1                 0.0000
      5 ****        -1.5716   0.0900   2.3443 C.3            1 S1                 0.0000
      6 ****        -0.2540  -0.0168   1.9069 O.3            1 S1                 0.0000
      7 ****        -0.1145  -1.2326   1.1856 C.3            1 S1                 0.0000
      8 ****         1.3678  -1.5885   1.0013 C.3            1 S1                 0.0000
      9 ****         1.9161  -0.7458   0.0015 O.3            1 S1                 0.0000
     10 ****         3.2259  -0.8147  -0.2998 C.2            1 S1                 0.0000
     11 ****         4.0125  -1.5901   0.2477 O.2            1 S1                 0.0000
     12 ****         3.6245   0.1449  -1.3698 C.ar           1 S1                 0.0000
     13 ****         4.9729   0.1895  -1.7948 C.ar           1 S1                 0.0000
     14 ****         5.3776   1.0846  -2.8044 C.ar           1 S1                 0.0000
     15 ****         4.4389   1.9461  -3.4014 C.ar           1 S1                 0.0000
     16 ****         3.0947   1.9120  -2.9871 C.ar           1 S1                 0.0000
     17 ****         2.6881   1.0182  -1.9772 C.ar           1 S1                 0.0000
     18 ****        -0.9584  -2.2206   2.0110 C.3            1 S1                 0.0000
     19 ****        -0.1662  -2.8639   2.9977 O.3            1 S1                 0.0000
     20 ****        -2.0730  -1.3460   2.6124 C.3            1 S1                 0.0000
     21 ****        -2.2863  -1.5897   3.9906 O.3            1 S1                 0.0000
     22 ****        -2.3008   2.2729   1.2826 C.2            1 S1                 0.0000
     23 ****        -1.6705   2.8322   2.1802 O.2            1 S1                 0.0000
     24 ****        -2.9442   2.9624   0.2979 N.pl3          1 S1                -1.0000
     25 ****        -3.6003   2.3489  -0.7268 C.2            1 S1                 0.0000
     26 ****        -4.1932   2.9837  -1.5986 O.2            1 S1                 0.0000
     27 ****        -4.1409  -0.9039  -1.8774 H              1 S1                 0.0000
     28 ****        -3.7828   0.4924  -2.8960 H              1 S1                 0.0000
     29 ****        -5.3041   0.4173  -1.9966 H              1 S1                 0.0000
     30 ****        -2.9229  -0.8651   0.1303 H              1 S1                 0.0000
     31 ****        -1.6294   0.6992   3.2473 H              1 S1                 0.0000
     32 ****        -0.5719  -1.1179   0.2023 H              1 S1                 0.0000
     33 ****         1.9118  -1.4785   1.9406 H              1 S1                 0.0000
     34 ****         1.4651  -2.6261   0.6785 H              1 S1                 0.0000
     35 ****         5.7116  -0.4624  -1.3512 H              1 S1                 0.0000
     36 ****         6.4100   1.1094  -3.1205 H              1 S1                 0.0000
     37 ****         4.7493   2.6321  -4.1759 H              1 S1                 0.0000
     38 ****         2.3726   2.5730  -3.4439 H              1 S1                 0.0000
     39 ****         1.6487   1.0194  -1.6822 H              1 S1                 0.0000
     40 ****        -1.3764  -2.9973   1.3699 H              1 S1                 0.0000
     41 ****         0.5028  -3.3704   2.5635 H              1 S1                 0.0000
     42 ****        -3.0324  -1.5245   2.1312 H              1 S1                 0.0000
     43 ****        -1.4580  -1.4987   4.4369 H              1 S1                 0.0000
     44 ****         0.3633  -0.0188   2.6936 LP             1 S1                 0.0000
     45 ****        -0.0328   0.7557   1.3116 LP             1 S1                 0.0000
     46 ****         3.6868  -2.2136   0.9584 LP             1 S1                 0.0000
     47 ****         4.9763  -1.5955  -0.0189 LP             1 S1                 0.0000
     48 ****        -0.7408  -3.4678   3.5501 LP             1 S1                 0.0000
     49 ****         0.2600  -2.1780   3.5875 LP             1 S1                 0.0000
     50 ****        -2.6411  -2.5156   4.1200 LP             1 S1                 0.0000
     51 ****        -2.9417  -0.9277   4.3543 LP             1 S1                 0.0000
     52 ****        -1.2129   2.2883   2.8835 LP             1 S1                 0.0000
     53 ****        -1.6162   3.8304   2.2059 LP             1 S1                 0.0000
     54 ****        -2.9342   3.9619   0.3290 LP             1 S1                 0.0000
     55 ****        -4.6588   2.5002  -2.3399 LP             1 S1                 0.0000
     56 ****        -4.2094   3.9831  -1.5657 LP             1 S1                 0.0000
@<TRIPOS>BOND
    1    1    2 1     
    2    1   27 1     
    3    1   28 1     
    4    1   29 1     
    5    2   25 1     
    6    2    3 2     
    7    3    4 1     
    8    3   30 1     
    9    4    5 1     
   10    4   22 am    
   11    5   20 1     
   12    5    6 1     
   13    5   31 1     
   14    6    7 1     
   15    7    8 1     
   16    7   18 1     
   17    7   32 1     
   18    8    9 1     
   19    8   33 1     
   20    8   34 1     
   21    9   10 1     
   22   10   11 2     
   23   10   12 1     
   24   12   17 ar    
   25   12   13 ar    
   26   13   14 ar    
   27   13   35 1     
   28   14   15 ar    
   29   14   36 1     
   30   15   16 ar    
   31   15   37 1     
   32   16   17 ar    
   33   16   38 1     
   34   17   39 1     
   35   18   19 1     
   36   18   20 1     
   37   18   40 1     
   38   19   41 1     
   39   20   21 1     
   40   20   42 1     
   41   21   43 1     
   42   22   23 2     
   43   22   24 1     
   44   24   25 1     
   45   25   26 2     
   46    6   44 1     
   47    6   45 1     
   48   11   46 1     
   49   11   47 1     
   50   19   48 1     
   51   19   49 1     
   52   21   50 1     
   53   21   51 1     
   54   23   52 1     
   55   23   53 1     
   56   24   54 1     
   57   26   55 1     
   58   26   56 1     
@<TRIPOS>SUBSTRUCTURE
      1 S1             1
@<TRIPOS>SET
LONE_PAIRS      STATIC     ATOMS    <user>   **** ""
13 44 45 46 47 48 49 50 51 52 53 54 55 56
DONOR_HYDROGENS      STATIC     ATOMS    <user>   **** ""
2 41 43
ATOM$BLUE        STATIC     ATOMS    COLORGROUP SYSTEM
13 44 45 46 47 48 49 50 51 52 53 54 55 56
ATOM$RED        STATIC     ATOMS    COLORGROUP SYSTEM
2 41 43
