#       Name:                AV-unprocessed.smi:1049
#       Creating user name   scv26
#       Creation time:       Fri Mar 27 03:10:43 2020


#       File generated by GOLD software.
#

@<TRIPOS>MOLECULE
AV-unprocessed.smi:1049
    43    44     1
SMALL
NO_CHARGES


@<TRIPOS>ATOM
      1 ****        -3.9994   2.6351  -0.0693 C.3            1 S1                 0.0000
      2 ****        -2.8140   1.6738  -0.2328 C.3            1 S1                 0.0000
      3 ****        -3.2848   0.2520  -0.6100 C.3            1 S1                 0.0000
      4 ****        -2.1009  -0.6907  -0.8969 C.3            1 S1                 0.0000
      5 ****        -1.1225  -0.0534  -1.8996 C.3            1 S1                 0.0000
      6 ****        -0.6796   1.2463  -1.3654 N.am           1 S1                 0.0000
      7 ****         0.5287   1.5135  -0.8078 C.2            1 S1                 0.0000
      8 ****         0.7842   2.5643  -0.2173 O.2            1 S1                 0.0000
      9 ****         1.4440   0.5421  -0.9601 N.am           1 S1                 0.0000
     10 ****         2.7880   0.5512  -0.3917 C.3            1 S1                 0.0000
     11 ****         2.7999   0.2219   1.1150 C.3            1 S1                 0.0000
     12 ****         2.0576  -1.0317   1.4717 C.2            1 S1                 0.0000
     13 ****         0.7640  -1.0631   1.7799 N.2            1 S1                 0.0000
     14 ****         0.4888  -2.4036   2.0230 C.2            1 S1                 0.0000
     15 ****         1.6347  -3.1415   1.8511 C.2            1 S1                 0.0000
     16 ****         2.6333  -2.2493   1.4780 N.pl3          1 S1                 0.0000
     17 ****         4.0219  -2.5762   1.2036 C.3            1 S1                 0.0000
     18 ****         4.7653  -2.3286   2.2814 F              1 S1                 0.0000
     19 ****         4.1398  -3.8591   0.8599 F              1 S1                 0.0000
     20 ****        -1.7999   2.1919  -1.2751 C.3            1 S1                 0.0000
     21 ****        -4.5562   2.7410  -1.0010 H              1 S1                 0.0000
     22 ****        -3.6606   3.6270   0.2310 H              1 S1                 0.0000
     23 ****        -4.6911   2.2777   0.6941 H              1 S1                 0.0000
     24 ****        -2.3039   1.6146   0.7301 H              1 S1                 0.0000
     25 ****        -3.9068  -0.1640   0.1833 H              1 S1                 0.0000
     26 ****        -3.9151   0.3056  -1.4987 H              1 S1                 0.0000
     27 ****        -1.5767  -0.9131   0.0332 H              1 S1                 0.0000
     28 ****        -2.4671  -1.6431  -1.2806 H              1 S1                 0.0000
     29 ****        -0.3095  -0.7472  -2.1134 H              1 S1                 0.0000
     30 ****        -1.6227   0.1057  -2.8560 H              1 S1                 0.0000
     31 ****         1.1680  -0.2874  -1.4650 H              1 S1                 0.0000
     32 ****         3.3710  -0.1940  -0.9325 H              1 S1                 0.0000
     33 ****         3.2715   1.5116  -0.5758 H              1 S1                 0.0000
     34 ****         3.8273   0.1489   1.4723 H              1 S1                 0.0000
     35 ****         2.3537   1.0480   1.6701 H              1 S1                 0.0000
     36 ****        -0.5015  -2.7291   2.3056 H              1 S1                 0.0000
     37 ****         1.8154  -4.2012   1.9563 H              1 S1                 0.0000
     38 ****         4.4018  -1.9775   0.3760 H              1 S1                 0.0000
     39 ****        -2.2756   2.2831  -2.2529 H              1 S1                 0.0000
     40 ****        -1.4725   3.1997  -1.0148 H              1 S1                 0.0000
     41 ****         0.0833   3.2722  -0.1305 LP             1 S1                 0.0000
     42 ****         1.6925   2.7091   0.1753 LP             1 S1                 0.0000
     43 ****         0.1292  -0.2919   1.8265 LP             1 S1                 0.0000
@<TRIPOS>BOND
    1    1    2 1     
    2    1   21 1     
    3    1   22 1     
    4    1   23 1     
    5    2   20 1     
    6    2    3 1     
    7    2   24 1     
    8    3    4 1     
    9    3   25 1     
   10    3   26 1     
   11    4    5 1     
   12    4   27 1     
   13    4   28 1     
   14    5    6 1     
   15    5   29 1     
   16    5   30 1     
   17    6    7 am    
   18    6   20 1     
   19    7    8 2     
   20    7    9 am    
   21    9   10 1     
   22    9   31 1     
   23   10   11 1     
   24   10   32 1     
   25   10   33 1     
   26   11   12 1     
   27   11   34 1     
   28   11   35 1     
   29   12   16 1     
   30   12   13 2     
   31   13   14 1     
   32   14   15 2     
   33   14   36 1     
   34   15   16 1     
   35   15   37 1     
   36   16   17 1     
   37   17   18 1     
   38   17   19 1     
   39   17   38 1     
   40   20   39 1     
   41   20   40 1     
   42    8   41 1     
   43    8   42 1     
   44   13   43 1     
@<TRIPOS>SUBSTRUCTURE
      1 S1             1
@<TRIPOS>SET
LONE_PAIRS      STATIC     ATOMS    <user>   **** ""
3 41 42 43
DONOR_HYDROGENS      STATIC     ATOMS    <user>   **** ""
1 31
ATOM$BLUE        STATIC     ATOMS    COLORGROUP SYSTEM
3 41 42 43
ATOM$RED        STATIC     ATOMS    COLORGROUP SYSTEM
1 31
