AV-unprocessed.smi:1410|AV-procd|sdf|5732|dock8
  -GOLD-   22720 5363D 1   1.00000     0.00000
 Structure written by MMmdl.
 40 41  0  0  0  0  0  0  0  0  2 V2000
  143.7507  137.8100  152.2788 N   0  0  0  0  0  0  0  0  0  0  0  0
  144.8290  137.4194  152.9627 C   0  0  0  0  0  0  0  0  0  0  0  0
  144.7528  136.6863  153.9465 O   0  0  0  0  0  0  0  0  0  0  0  0
  146.1920  137.9183  152.4677 C   0  0  0  0  0  0  0  0  0  0  0  0
  146.8277  138.9337  153.3383 N   0  0  0  0  0  0  0  0  0  0  0  0
  146.9577  140.1914  152.5953 C   0  0  0  0  0  0  0  0  0  0  0  0
  147.4902  141.3085  153.5092 C   0  0  0  0  0  0  0  0  0  0  0  0
  148.8497  140.9282  154.1114 C   0  0  0  0  0  0  0  0  0  0  0  0
  149.2781  141.9534  155.0582 N   0  0  0  0  0  0  0  0  0  0  0  0
  150.2428  141.8011  155.9767 C   0  0  0  0  0  0  0  0  0  0  0  0
  150.8766  140.7570  156.1290 O   0  0  0  0  0  0  0  0  0  0  0  0
  150.4016  142.9197  156.7057 N   0  0  0  0  0  0  0  0  0  0  0  0
  151.3242  143.1694  157.7581 C   0  0  0  0  0  0  0  0  0  0  0  0
  152.0049  142.0596  158.3067 C   0  0  0  0  0  0  0  0  0  0  0  0
  152.9176  142.2553  159.3632 C   0  0  0  0  0  0  0  0  0  0  0  0
  153.1275  143.4976  159.8490 N   0  3  0  0  0  0  0  0  0  0  0  0
  152.4908  144.5866  159.3675 C   0  0  0  0  0  0  0  0  0  0  0  0
  151.5667  144.4531  158.3111 C   0  0  0  0  0  0  0  0  0  0  0  0
  148.7236  139.5595  154.8004 C   0  0  0  0  0  0  0  0  0  0  0  0
  148.1398  138.5040  153.8445 C   0  0  0  0  0  0  0  0  0  0  0  0
  142.8348  137.5014  152.5707 H   0  0  0  0  0  0  0  0  0  0  0  0
  143.8532  138.4091  151.4725 H   0  0  0  0  0  0  0  0  0  0  0  0
  146.8694  137.0722  152.3346 H   0  0  0  0  0  0  0  0  0  0  0  0
  146.0317  138.3433  151.4757 H   0  0  0  0  0  0  0  0  0  0  0  0
  147.6177  140.0594  151.7356 H   0  0  0  0  0  0  0  0  0  0  0  0
  145.9847  140.4924  152.2042 H   0  0  0  0  0  0  0  0  0  0  0  0
  147.5787  142.2363  152.9427 H   0  0  0  0  0  0  0  0  0  0  0  0
  146.7680  141.4992  154.3051 H   0  0  0  0  0  0  0  0  0  0  0  0
  149.5775  140.8565  153.3007 H   0  0  0  0  0  0  0  0  0  0  0  0
  148.8032  142.8429  155.0066 H   0  0  0  0  0  0  0  0  0  0  0  0
  149.7478  143.6653  156.5167 H   0  0  0  0  0  0  0  0  0  0  0  0
  151.8359  141.0650  157.9196 H   0  0  0  0  0  0  0  0  0  0  0  0
  153.4799  141.4609  159.8318 H   0  0  0  0  0  0  0  0  0  0  0  0
  152.7330  145.5263  159.8421 H   0  0  0  0  0  0  0  0  0  0  0  0
  151.0553  145.3349  157.9567 H   0  0  0  0  0  0  0  0  0  0  0  0
  149.6984  139.2272  155.1589 H   0  0  0  0  0  0  0  0  0  0  0  0
  148.0834  139.6423  155.6804 H   0  0  0  0  0  0  0  0  0  0  0  0
  148.0591  137.5646  154.3914 H   0  0  0  0  0  0  0  0  0  0  0  0
  148.8244  138.3268  153.0130 H   0  0  0  0  0  0  0  0  0  0  0  0
  153.7912  143.6178  160.6147 H   0  0  0  0  0  0  0  0  0  0  0  0
  1  2  1  0  0  0  0
  1 21  1  0  0  0  0
  1 22  1  0  0  0  0
  2  3  2  0  0  0  0
  2  4  1  0  0  0  0
  4  5  1  0  0  0  0
  4 23  1  0  0  0  0
  4 24  1  0  0  0  0
  5 20  1  0  0  0  0
  5  6  1  0  0  0  0
  6  7  1  0  0  0  0
  6 25  1  0  0  0  0
  6 26  1  0  0  0  0
  7  8  1  0  0  0  0
  7 27  1  0  0  0  0
  7 28  1  0  0  0  0
  8  9  1  0  0  0  0
  8 19  1  0  0  0  0
  8 29  1  0  0  0  0
  9 10  1  0  0  0  0
  9 30  1  0  0  0  0
 10 11  2  0  0  0  0
 10 12  1  0  0  0  0
 12 13  1  0  0  0  0
 12 31  1  0  0  0  0
 13 18  1  0  0  0  0
 13 14  2  0  0  0  0
 14 15  1  0  0  0  0
 14 32  1  0  0  0  0
 15 16  2  0  0  0  0
 15 33  1  0  0  0  0
 16 17  1  0  0  0  0
 16 40  1  0  0  0  0
 17 18  2  0  0  0  0
 17 34  1  0  0  0  0
 18 35  1  0  0  0  0
 19 20  1  0  0  0  0
 19 36  1  0  0  0  0
 19 37  1  0  0  0  0
 20 38  1  0  0  0  0
 20 39  1  0  0  0  0
M  CHG  1  16   1
M  END
> <s_m_source_file>
AV-unprocessed.smi

> <i_m_source_file_index>
1410

> <i_lp_mmshare_version>
43012

> <i_f3d_flags>
0

> <s_epik_input>
W05IMl1DKD1PKVtDSDJdTjFbQ0gyXVtDSDJdW0NIXShbQ0gyXVtDSDJdMSlbTkhdQyg9TylbTkhdYzJbY0hdW2NIXW5bY0hdW2NIXTI=

> <s_epik_cmdline>
J2VwaWtfcHl0aG9uJywgJy1waCcsICc3LjAnLCAnLXRuJywgJzgnLCAnLW1hJywgJzIwMCcsICctbWV0YWxfYmluZGluZycsICctaW1hZScsICc8aW5maWxlLm1hZT4nLCAnLW9tYWUnLCAnPG91dGZpbGUubWFlPic=

> <r_epik_Ionization_Penalty>
1.15133

> <r_epik_Ionization_Penalty_Charging>
0.995513

> <r_epik_Ionization_Penalty_Neutral>
0.155816

> <r_epik_State_Penalty>
1.22158

> <r_epik_Charging_Adjusted_Penalty>
2.2171

> <i_epik_Tot_Q>
1

> <i_epik_Tot_abs_Q>
1

> <r_epik_Metal_State_Penalty>
1.3359

> <b_epik_Metal_Only>
0

> <s_lp_Force_Field>
OPLS_2005

> <r_lp_Energy>
21.9587

> <b_lp_Chiralities_Consistent>
1

> <s_lp_Variant>
AV-unprocessed.smi:1410-4

> <Gold.Version>
5.8.1

> <Gold.Id.Protein>
6NUR|6NUR_protein|mol2

> <Gold.PLP.Fitness>
44.0576

> <Gold.PLP.PLP>
-37.6508

> <Gold.PLP.part.hbond>
-4.0000

> <Gold.PLP.part.metal>
0.0000

> <Gold.PLP.part.buried>
-2.8756

> <Gold.PLP.part.nonpolar>
-31.5266

> <Gold.PLP.part.repulsive>
0.6289

> <Gold.PLP.ligand.clash>
0.0000

> <Gold.PLP.ligand.torsion>
1.1197

> <Gold.PLP.Chemscore.Hbond>
2.8800

> <Gold.PLP.Chemscore.CHOScore>
0.0000

> <Gold.PLP.Chemscore.Metal>
0.0000

> <Gold.Chemscore.Hbonds>
donor molecule, donor type, donor heavy atom, donor atom, acceptor molecule, acceptor atom, score
      L1  H     1    22       P1 10171  0.99
      L1  H     9    30       P1  8028  0.88
      L1  H    12    31       P1  8028  1.00

> <Gold.PLP.Chemscore.Internal.Correction>
0.0062

> <Gold.Rescore>
     Score         DG    S(hbond)    S(metal)    S(lipo)     H(rot)  DE(clash)    DE(int)     intcor
     16.56     -20.35       2.77        0.00      91.10       1.96       0.03       3.76       ----

> <Gold.Chemscore.Fitness>
16.5612

> <Gold.Chemscore.DG>
-20.3475

> <Gold.Chemscore.ZeroCoef>
-5.4800

> <Gold.Chemscore.Hbond>
2.7661

> <Gold.Chemscore.Metal>
0.0000

> <Gold.Chemscore.Lipo>
91.1022

> <Gold.Chemscore.Internal_Hbond>
0.0000

> <Gold.Chemscore.DEClash>
0.0289

> <Gold.Chemscore.DEInternal>
3.7574

> <Gold.Chemscore.Rot>
1.9650

> <Gold.Chemscore.Internal.Correction>
   9.000000E+99

> <Gold.Chemscore.Hbonds>
donor molecule, donor type, donor heavy atom, donor atom, acceptor molecule, acceptor atom, score
      L1  H     1    22       P1 10171  0.90
      L1  H     9    30       P1  8028  0.85
      L1  H    12    31       P1  8028  0.98

> <Gold.Chemscore.Hbond.Weighted>
-9.2388

> <Gold.Chemscore.Metal.Weighted>
-0.0000

> <Gold.Chemscore.Lipo.Weighted>
-10.6590

> <Gold.Chemscore.Internal_Hbond.Weighted>
0.0000

> <Gold.Chemscore.DEClash.Weighted>
0.0289

> <Gold.Chemscore.DEInternal.Weighted>
3.7574

> <Gold.Chemscore.Rot.Weighted>
5.0303

> <Gold.Chemscore.Internal.Correction.Weighted>
   9.000000E+99

> <Gold.Protein.RotatedTorsions>
[ 6907 6896 6895 6894 ] final  -16.16 input  -60.11 | X-H torsion
[ 7974 7965 7964 7962 ] final -151.52 input  175.53 | X-H torsion
[ 8008 7997 7996 7995 ] final -166.08 input   59.86 | X-H torsion
[ 10167 10162 10161 10158 ] final  106.97 input  -65.29 | X-H torsion
[ 10718 10713 10712 10709 ] final  -89.25 input   66.30 | X-H torsion
[ 10763 10752 10751 10750 ] final -136.90 input  -60.55 | X-H torsion
[ 11005 11000 10999 10996 ] final -104.53 input  -57.11 | X-H torsion

> <Gold.Protein.ActiveResidues>
 VAL166  LYS551  ARG553  GLY616  TRP617  ASP618  TYR619  PRO620  LYS621  CYS622 
 ASP623  PHE694  ASN695  SER759  ASP760  ASP761  ALA762  ILE779  LEU786  VAL792 
 PHE793  MET794  SER795  GLU796  ALA797  LYS798  CYS799  TRP800  GLU811  SER814 

> <Gold.Protein.RotatedAtoms>
  151.3129  135.0799  159.9278 H   0  0  0  0  0  0  0  0  0  0  0  0  # atno 6907 bound_to 6896
  152.5274  133.9717  159.7775 H   0  0  0  0  0  0  0  0  0  0  0  0  # atno 6908 bound_to 6896
  151.0024  133.5991  159.2723 H   0  0  0  0  0  0  0  0  0  0  0  0  # atno 6909 bound_to 6896
  144.7845  140.4786  143.5816 H   0  0  0  0  0  0  0  0  0  0  0  0  # atno 7974 bound_to 7965
  155.8588  140.0975  157.1627 H   0  0  0  0  0  0  0  0  0  0  0  0  # atno 8008 bound_to 7997
  154.3989  140.1369  156.3997 H   0  0  0  0  0  0  0  0  0  0  0  0  # atno 8009 bound_to 7997
  155.7880  140.3456  155.5336 H   0  0  0  0  0  0  0  0  0  0  0  0  # atno 8010 bound_to 7997
  139.6965  144.7100  151.1258 H   0  0  0  0  0  0  0  0  0  0  0  0  # atno 10167 bound_to 10162
  155.9984  130.4865  150.5143 H   0  0  0  0  0  0  0  0  0  0  0  0  # atno 10718 bound_to 10713
  154.8674  135.3658  154.5135 H   0  0  0  0  0  0  0  0  0  0  0  0  # atno 10763 bound_to 10752
  153.5769  135.7019  153.5485 H   0  0  0  0  0  0  0  0  0  0  0  0  # atno 10764 bound_to 10752
  153.3492  135.4077  155.1595 H   0  0  0  0  0  0  0  0  0  0  0  0  # atno 10765 bound_to 10752
  141.1096  133.8731  157.1623 H   0  0  0  0  0  0  0  0  0  0  0  0  # atno 11005 bound_to 11000
  145.5959  139.1499  143.3156 LP  0  0  0  0  0  0  0  0  0  0  0  0  # atno 17320 bound_to 7965
  146.2070  140.6083  142.9076 LP  0  0  0  0  0  0  0  0  0  0  0  0  # atno 17321 bound_to 7965
  140.7698  143.5484  150.9232 LP  0  0  0  0  0  0  0  0  0  0  0  0  # atno 17342 bound_to 10162
  139.9164  143.6658  152.3105 LP  0  0  0  0  0  0  0  0  0  0  0  0  # atno 17343 bound_to 10162
  157.3112  131.0664  151.1999 LP  0  0  0  0  0  0  0  0  0  0  0  0  # atno 17370 bound_to 10713
  157.2945  130.6812  149.6131 LP  0  0  0  0  0  0  0  0  0  0  0  0  # atno 17371 bound_to 10713
  139.9983  135.0038  157.0132 LP  0  0  0  0  0  0  0  0  0  0  0  0  # atno 17394 bound_to 11000
  140.4811  134.1288  155.7217 LP  0  0  0  0  0  0  0  0  0  0  0  0  # atno 17395 bound_to 11000

$$$$
