AV-unprocessed.smi:2358|AV-procd|sdf|9406|dock6
  -GOLD-   2272013 43D 1   1.00000     0.00000
 Structure written by MMmdl.
 46 48  0  0  0  0  0  0  0  0  2 V2000
  153.5744  140.9305  160.4780 C   0  0  0  0  0  0  0  0  0  0  0  0
  152.6420  141.8890  159.7660 C   0  0  0  0  0  0  0  0  0  0  0  0
  152.5993  143.2470  160.1393 C   0  0  0  0  0  0  0  0  0  0  0  0
  151.7275  144.1339  159.4785 C   0  0  0  0  0  0  0  0  0  0  0  0
  151.6861  145.5929  159.8838 C   0  0  0  0  0  0  0  0  0  0  0  0
  150.8997  143.6578  158.4415 C   0  0  0  0  0  0  0  0  0  0  0  0
  150.9292  142.3022  158.0560 C   0  0  0  0  0  0  0  0  0  0  0  0
  150.0829  141.9251  157.0352 O   0  0  0  0  0  0  0  0  0  0  0  0
  150.2163  140.6162  156.4966 C   0  0  0  0  0  0  0  0  0  0  0  0
  149.8363  140.6508  155.0062 C   0  0  1  0  0  0  0  0  0  0  0  0
  150.8209  139.9090  154.3132 O   0  0  0  0  0  0  0  0  0  0  0  0
  148.4642  139.9901  154.7427 C   0  0  0  0  0  0  0  0  0  0  0  0
  147.3571  140.8089  155.2521 N   0  0  0  0  0  0  0  0  0  0  0  0
  146.9906  141.8473  154.4134 N   0  0  0  0  0  0  0  0  0  0  0  0
  146.0228  142.6468  154.7239 C   0  0  0  0  0  0  0  0  0  0  0  0
  145.6420  143.7333  153.8345 N   0  0  0  0  0  0  0  0  0  0  0  0
  146.2791  144.1238  152.6825 C   0  0  0  0  0  0  0  0  0  0  0  0
  145.5633  145.1817  152.1841 C   0  0  0  0  0  0  0  0  0  0  0  0
  144.5230  145.3909  153.0503 N   0  3  0  0  0  0  0  0  0  0  0  0
  144.5679  144.5100  154.0563 C   0  0  0  0  0  0  0  0  0  0  0  0
  145.3061  142.4562  155.9805 C   0  0  0  0  0  0  0  0  0  0  0  0
  145.6687  141.4367  156.7884 C   0  0  0  0  0  0  0  0  0  0  0  0
  146.7547  140.5221  156.4427 C   0  0  0  0  0  0  0  0  0  0  0  0
  147.0920  139.5775  157.1550 O   0  0  0  0  0  0  0  0  0  0  0  0
  151.8098  141.4186  158.7297 C   0  0  0  0  0  0  0  0  0  0  0  0
  154.3310  141.4666  161.0516 H   0  0  0  0  0  0  0  0  0  0  0  0
  154.0861  140.2900  159.7592 H   0  0  0  0  0  0  0  0  0  0  0  0
  153.0103  140.2968  161.1626 H   0  0  0  0  0  0  0  0  0  0  0  0
  153.2347  143.6110  160.9339 H   0  0  0  0  0  0  0  0  0  0  0  0
  150.8359  146.1062  159.4334 H   0  0  0  0  0  0  0  0  0  0  0  0
  152.5984  146.0981  159.5662 H   0  0  0  0  0  0  0  0  0  0  0  0
  151.6016  145.6845  160.9671 H   0  0  0  0  0  0  0  0  0  0  0  0
  150.2315  144.3373  157.9327 H   0  0  0  0  0  0  0  0  0  0  0  0
  151.2256  140.2229  156.6336 H   0  0  0  0  0  0  0  0  0  0  0  0
  149.5276  139.9611  157.0322 H   0  0  0  0  0  0  0  0  0  0  0  0
  149.8304  141.6846  154.6573 H   0  0  0  0  0  0  0  0  0  0  0  0
  150.5750  138.9963  154.3244 H   0  0  0  0  0  0  0  0  0  0  0  0
  148.3395  139.7422  153.6866 H   0  0  0  0  0  0  0  0  0  0  0  0
  148.4189  139.0273  155.2550 H   0  0  0  0  0  0  0  0  0  0  0  0
  147.1690  143.6371  152.3092 H   0  0  0  0  0  0  0  0  0  0  0  0
  145.7124  145.7855  151.3007 H   0  0  0  0  0  0  0  0  0  0  0  0
  143.8608  144.4672  154.8636 H   0  0  0  0  0  0  0  0  0  0  0  0
  144.4984  143.0981  156.2906 H   0  0  0  0  0  0  0  0  0  0  0  0
  145.1421  141.2907  157.7202 H   0  0  0  0  0  0  0  0  0  0  0  0
  151.8639  140.3726  158.4686 H   0  0  0  0  0  0  0  0  0  0  0  0
  143.8180  146.1101  152.9458 H   0  0  0  0  0  0  0  0  0  0  0  0
  1  2  1  0  0  0  0
  1 26  1  0  0  0  0
  1 27  1  0  0  0  0
  1 28  1  0  0  0  0
  2 25  1  0  0  0  0
  2  3  2  0  0  0  0
  3  4  1  0  0  0  0
  3 29  1  0  0  0  0
  4  5  1  0  0  0  0
  4  6  2  0  0  0  0
  5 30  1  0  0  0  0
  5 31  1  0  0  0  0
  5 32  1  0  0  0  0
  6  7  1  0  0  0  0
  6 33  1  0  0  0  0
  7  8  1  0  0  0  0
  7 25  2  0  0  0  0
  8  9  1  0  0  0  0
  9 10  1  0  0  0  0
  9 34  1  0  0  0  0
  9 35  1  0  0  0  0
 10 11  1  0  0  0  0
 10 12  1  0  0  0  0
 10 36  1  0  0  0  0
 11 37  1  0  0  0  0
 12 13  1  0  0  0  0
 12 38  1  0  0  0  0
 12 39  1  0  0  0  0
 13 23  1  0  0  0  0
 13 14  1  0  0  0  0
 14 15  2  0  0  0  0
 15 16  1  0  0  0  0
 15 21  1  0  0  0  0
 16 20  1  0  0  0  0
 16 17  1  0  0  0  0
 17 18  2  0  0  0  0
 17 40  1  0  0  0  0
 18 19  1  0  0  0  0
 18 41  1  0  0  0  0
 19 20  2  0  0  0  0
 19 46  1  0  0  0  0
 20 42  1  0  0  0  0
 21 22  2  0  0  0  0
 21 43  1  0  0  0  0
 22 23  1  0  0  0  0
 22 44  1  0  0  0  0
 23 24  2  0  0  0  0
 25 45  1  0  0  0  0
M  CHG  1  19   1
M  END
> <s_m_source_file>
AV-unprocessed.smi

> <i_m_source_file_index>
2358

> <i_lp_mmshare_version>
43012

> <i_f3d_flags>
0

> <s_epik_input>
W0NIM11jMVtjSF1jKFtDSDNdKVtjSF1jKFtjSF0xKU9bQ0gyXVtDQEhdKFtPSF0pW0NIMl1uMm5jKFtjSF1bY0hdYzI9TyktbjNbY0hdW2NIXW5bY0hdMw==

> <s_epik_cmdline>
J2VwaWtfcHl0aG9uJywgJy1waCcsICc3LjAnLCAnLXRuJywgJzgnLCAnLW1hJywgJzIwMCcsICctbWV0YWxfYmluZGluZycsICctaW1hZScsICc8aW5maWxlLm1hZT4nLCAnLW9tYWUnLCAnPG91dGZpbGUubWFlPic=

> <r_lp_tautomer_probability>
1

> <r_epik_Ionization_Penalty>
1.66053

> <r_epik_Ionization_Penalty_Charging>
2.42216e-09

> <r_epik_Ionization_Penalty_Neutral>
1.66053

> <r_epik_State_Penalty>
1.76336

> <r_epik_Charging_Adjusted_Penalty>
1.76336

> <i_epik_Tot_Q>
1

> <i_epik_Tot_abs_Q>
1

> <r_epik_Metal_State_Penalty>
1.79856

> <b_epik_Metal_Only>
0

> <s_lp_Force_Field>
OPLS_2005

> <r_lp_Energy>
39.182

> <b_lp_Chiralities_Consistent>
1

> <s_lp_Variant>
AV-unprocessed.smi:2358-4

> <Gold.Version>
5.8.1

> <Gold.Id.Protein>
6NUR|6NUR_protein|mol2

> <Gold.PLP.Fitness>
49.1240

> <Gold.PLP.PLP>
-48.7382

> <Gold.PLP.part.hbond>
-1.1713

> <Gold.PLP.part.metal>
0.0000

> <Gold.PLP.part.buried>
-6.9248

> <Gold.PLP.part.nonpolar>
-41.2535

> <Gold.PLP.part.repulsive>
0.3390

> <Gold.PLP.ligand.clash>
0.0000

> <Gold.PLP.ligand.torsion>
1.2792

> <Gold.PLP.Chemscore.Hbond>
0.9425

> <Gold.PLP.Chemscore.CHOScore>
0.0000

> <Gold.PLP.Chemscore.Metal>
0.0000

> <Gold.Chemscore.Hbonds>
donor molecule, donor type, donor heavy atom, donor atom, acceptor molecule, acceptor atom, score
      P1  H  7989  7998       L1    11  0.91

> <Gold.PLP.Chemscore.Internal.Correction>
0.1167

> <Gold.Rescore>
     Score         DG    S(hbond)    S(metal)    S(lipo)     H(rot)  DE(clash)    DE(int)     intcor
     13.96     -15.25       0.83        0.00     117.98       2.65       0.04       1.25       ----

> <Gold.Chemscore.Fitness>
13.9591

> <Gold.Chemscore.DG>
-15.2485

> <Gold.Chemscore.ZeroCoef>
-5.4800

> <Gold.Chemscore.Hbond>
0.8258

> <Gold.Chemscore.Metal>
0.0000

> <Gold.Chemscore.Lipo>
117.9815

> <Gold.Chemscore.Internal_Hbond>
0.0000

> <Gold.Chemscore.DEClash>
0.0438

> <Gold.Chemscore.DEInternal>
1.2456

> <Gold.Chemscore.Rot>
2.6537

> <Gold.Chemscore.Internal.Correction>
   9.000000E+99

> <Gold.Chemscore.Hbonds>
donor molecule, donor type, donor heavy atom, donor atom, acceptor molecule, acceptor atom, score
      P1  H  7989  7998       L1    11  0.58

> <Gold.Chemscore.Hbond.Weighted>
-2.7582

> <Gold.Chemscore.Metal.Weighted>
-0.0000

> <Gold.Chemscore.Lipo.Weighted>
-13.8038

> <Gold.Chemscore.Internal_Hbond.Weighted>
0.0000

> <Gold.Chemscore.DEClash.Weighted>
0.0438

> <Gold.Chemscore.DEInternal.Weighted>
1.2456

> <Gold.Chemscore.Rot.Weighted>
6.7935

> <Gold.Chemscore.Internal.Correction.Weighted>
   9.000000E+99

> <Gold.Protein.RotatedTorsions>
[ 6907 6896 6895 6894 ] final -108.65 input  -60.11 | X-H torsion
[ 7974 7965 7964 7962 ] final  -81.66 input  175.53 | X-H torsion
[ 8008 7997 7996 7995 ] final   26.58 input   59.86 | X-H torsion
[ 10167 10162 10161 10158 ] final  -55.76 input  -65.29 | X-H torsion
[ 10718 10713 10712 10709 ] final -150.75 input   66.30 | X-H torsion
[ 10763 10752 10751 10750 ] final  -18.60 input  -60.55 | X-H torsion
[ 11005 11000 10999 10996 ] final    6.40 input  -57.11 | X-H torsion

> <Gold.Protein.ActiveResidues>
 VAL166  LYS551  ARG553  GLY616  TRP617  ASP618  TYR619  PRO620  LYS621  CYS622 
 ASP623  PHE694  ASN695  SER759  ASP760  ASP761  ALA762  ILE779  LEU786  VAL792 
 PHE793  MET794  SER795  GLU796  ALA797  LYS798  CYS799  TRP800  GLU811  SER814 

> <Gold.Protein.RotatedAtoms>
  150.7514  133.9645  159.3525 H   0  0  0  0  0  0  0  0  0  0  0  0  # atno 6907 bound_to 6896
  151.7574  135.0816  160.0349 H   0  0  0  0  0  0  0  0  0  0  0  0  # atno 6908 bound_to 6896
  152.3426  133.6047  159.5923 H   0  0  0  0  0  0  0  0  0  0  0  0  # atno 6909 bound_to 6896
  145.5436  140.9506  143.1537 H   0  0  0  0  0  0  0  0  0  0  0  0  # atno 7974 bound_to 7965
  155.0295  140.3157  155.4764 H   0  0  0  0  0  0  0  0  0  0  0  0  # atno 8008 bound_to 7997
  156.2877  140.2183  156.5358 H   0  0  0  0  0  0  0  0  0  0  0  0  # atno 8009 bound_to 7997
  154.7383  140.0475  157.0776 H   0  0  0  0  0  0  0  0  0  0  0  0  # atno 8010 bound_to 7997
  140.6356  143.2480  151.5127 H   0  0  0  0  0  0  0  0  0  0  0  0  # atno 10167 bound_to 10162
  156.4502  130.8164  151.2395 H   0  0  0  0  0  0  0  0  0  0  0  0  # atno 10718 bound_to 10713
  153.5919  135.7002  153.5420 H   0  0  0  0  0  0  0  0  0  0  0  0  # atno 10763 bound_to 10752
  153.3171  135.4084  155.1385 H   0  0  0  0  0  0  0  0  0  0  0  0  # atno 10764 bound_to 10752
  154.8599  135.3686  154.5451 H   0  0  0  0  0  0  0  0  0  0  0  0  # atno 10765 bound_to 10752
  140.5599  134.0202  155.7968 H   0  0  0  0  0  0  0  0  0  0  0  0  # atno 11005 bound_to 11000
  144.7564  139.7063  143.7252 LP  0  0  0  0  0  0  0  0  0  0  0  0  # atno 17320 bound_to 7965
  146.1964  139.5233  142.9772 LP  0  0  0  0  0  0  0  0  0  0  0  0  # atno 17321 bound_to 7965
  139.5567  144.2259  152.1623 LP  0  0  0  0  0  0  0  0  0  0  0  0  # atno 17342 bound_to 10162
  140.1514  144.5111  150.6685 LP  0  0  0  0  0  0  0  0  0  0  0  0  # atno 17343 bound_to 10162
  157.7503  131.0140  150.3448 LP  0  0  0  0  0  0  0  0  0  0  0  0  # atno 17370 bound_to 10713
  156.3824  130.3883  149.7091 LP  0  0  0  0  0  0  0  0  0  0  0  0  # atno 17371 bound_to 10713
  141.1121  133.9600  157.2891 LP  0  0  0  0  0  0  0  0  0  0  0  0  # atno 17394 bound_to 11000
  139.9413  135.0190  156.8717 LP  0  0  0  0  0  0  0  0  0  0  0  0  # atno 17395 bound_to 11000

$$$$
