AV-unprocessed.smi:882|AV-procd|sdf|4037|dock8
  -GOLD-   22720 1533D 1   1.00000     0.00000
 Structure written by MMmdl.
 33 34  0  0  0  0  0  0  0  0  1 V2000
  154.7384  144.2878  168.4120 C   0  0  0  0  0  0  0  0  0  0  0  0
  155.0755  143.4008  167.6435 C   0  0  0  0  0  0  0  0  0  0  0  0
  155.4923  142.3249  166.7282 C   0  0  0  0  0  0  0  0  0  0  0  0
  154.8515  142.4181  165.4214 N   0  0  0  0  0  0  0  0  0  0  0  0
  154.9896  141.5305  164.4218 C   0  0  0  0  0  0  0  0  0  0  0  0
  155.7089  140.5337  164.4910 O   0  0  0  0  0  0  0  0  0  0  0  0
  154.2495  141.8580  163.1571 C   0  0  0  0  0  0  0  0  0  0  0  0
  154.4490  141.1243  161.9672 C   0  0  0  0  0  0  0  0  0  0  0  0
  153.7433  141.4948  160.8065 C   0  0  0  0  0  0  0  0  0  0  0  0
  152.8600  142.5991  160.8567 C   0  0  0  0  0  0  0  0  0  0  0  0
  152.1439  142.9902  159.7044 N   0  0  0  0  0  0  0  0  0  0  0  0
  152.1037  142.0110  158.6210 C   0  0  0  0  0  0  0  0  0  0  0  0
  151.0583  142.4180  157.5682 C   0  0  0  0  0  0  0  0  0  0  0  0
  151.3242  143.7393  157.1098 O   0  0  0  0  0  0  0  0  0  0  0  0
  151.2447  144.6913  158.1650 C   0  0  0  0  0  0  0  0  0  0  0  0
  152.2997  144.3661  159.2355 C   0  0  0  0  0  0  0  0  0  0  0  0
  152.6741  143.3048  161.9996 N   0  0  0  0  0  0  0  0  0  0  0  0
  153.3538  142.9473  163.1095 C   0  0  0  0  0  0  0  0  0  0  0  0
  154.4434  145.0607  169.0856 H   0  0  0  0  0  0  0  0  0  0  0  0
  156.5718  142.3960  166.5967 H   0  0  0  0  0  0  0  0  0  0  0  0
  155.2893  141.3635  167.2022 H   0  0  0  0  0  0  0  0  0  0  0  0
  154.2578  143.2193  165.2636 H   0  0  0  0  0  0  0  0  0  0  0  0
  155.1309  140.2870  161.9319 H   0  0  0  0  0  0  0  0  0  0  0  0
  153.8790  140.9233  159.9006 H   0  0  0  0  0  0  0  0  0  0  0  0
  153.0918  141.9548  158.1624 H   0  0  0  0  0  0  0  0  0  0  0  0
  151.8672  141.0126  158.9855 H   0  0  0  0  0  0  0  0  0  0  0  0
  151.0950  141.7348  156.7197 H   0  0  0  0  0  0  0  0  0  0  0  0
  150.0493  142.3602  157.9799 H   0  0  0  0  0  0  0  0  0  0  0  0
  151.4179  145.6876  157.7582 H   0  0  0  0  0  0  0  0  0  0  0  0
  150.2416  144.6924  158.5945 H   0  0  0  0  0  0  0  0  0  0  0  0
  152.1955  145.0634  160.0678 H   0  0  0  0  0  0  0  0  0  0  0  0
  153.3014  144.4964  158.8234 H   0  0  0  0  0  0  0  0  0  0  0  0
  153.1671  143.5517  163.9855 H   0  0  0  0  0  0  0  0  0  0  0  0
  1  2  3  0  0  0  0
  1 19  1  0  0  0  0
  2  3  1  0  0  0  0
  3  4  1  0  0  0  0
  3 20  1  0  0  0  0
  3 21  1  0  0  0  0
  4  5  1  0  0  0  0
  4 22  1  0  0  0  0
  5  6  2  0  0  0  0
  5  7  1  0  0  0  0
  7 18  1  0  0  0  0
  7  8  2  0  0  0  0
  8  9  1  0  0  0  0
  8 23  1  0  0  0  0
  9 10  2  0  0  0  0
  9 24  1  0  0  0  0
 10 11  1  0  0  0  0
 10 17  1  0  0  0  0
 11 16  1  0  0  0  0
 11 12  1  0  0  0  0
 12 13  1  0  0  0  0
 12 25  1  0  0  0  0
 12 26  1  0  0  0  0
 13 14  1  0  0  0  0
 13 27  1  0  0  0  0
 13 28  1  0  0  0  0
 14 15  1  0  0  0  0
 15 16  1  0  0  0  0
 15 29  1  0  0  0  0
 15 30  1  0  0  0  0
 16 31  1  0  0  0  0
 16 32  1  0  0  0  0
 17 18  2  0  0  0  0
 18 33  1  0  0  0  0
M  END
> <s_m_source_file>
AV-unprocessed.smi

> <i_m_source_file_index>
882

> <i_lp_mmshare_version>
43012

> <i_f3d_flags>
0

> <s_epik_input>
W0NIXSNDW0NIMl1bTkhdQyg9TyljMVtjSF1bY0hdYyhuW2NIXTEpTjJbQ0gyXVtDSDJdT1tDSDJdW0NIMl0y

> <s_epik_cmdline>
J2VwaWtfcHl0aG9uJywgJy1waCcsICc3LjAnLCAnLXRuJywgJzgnLCAnLW1hJywgJzIwMCcsICctbWV0YWxfYmluZGluZycsICctaW1hZScsICc8aW5maWxlLm1hZT4nLCAnLW9tYWUnLCAnPG91dGZpbGUubWFlPic=

> <r_lp_tautomer_probability>
1

> <r_epik_Ionization_Penalty>
1.53095e-05

> <r_epik_Ionization_Penalty_Charging>
0

> <r_epik_Ionization_Penalty_Neutral>
1.53095e-05

> <r_epik_State_Penalty>
-0

> <r_epik_Charging_Adjusted_Penalty>
0

> <i_epik_Tot_Q>
0

> <i_epik_Tot_abs_Q>
0

> <r_epik_Metal_State_Penalty>
-0

> <b_epik_Metal_Only>
0

> <s_lp_Force_Field>
OPLS_2005

> <r_lp_Energy>
17.8132

> <b_lp_Chiralities_Consistent>
1

> <s_lp_Variant>
AV-unprocessed.smi:882-1

> <Gold.Version>
5.8.1

> <Gold.Id.Protein>
6NUR|6NUR_protein|mol2

> <Gold.PLP.Fitness>
40.0964

> <Gold.PLP.PLP>
-40.2318

> <Gold.PLP.part.hbond>
0.0000

> <Gold.PLP.part.metal>
0.0000

> <Gold.PLP.part.buried>
-3.6040

> <Gold.PLP.part.nonpolar>
-37.1978

> <Gold.PLP.part.repulsive>
1.2937

> <Gold.PLP.ligand.clash>
0.0000

> <Gold.PLP.ligand.torsion>
0.2364

> <Gold.PLP.Chemscore.Hbond>
0.0000

> <Gold.PLP.Chemscore.CHOScore>
0.0000

> <Gold.PLP.Chemscore.Metal>
0.0000

> <Gold.PLP.Chemscore.Internal.Correction>
0.3374

> <Gold.Rescore>
     Score         DG    S(hbond)    S(metal)    S(lipo)     H(rot)  DE(clash)    DE(int)     intcor
     14.53     -14.98       0.00        0.00     107.21       1.19       0.24       0.21       ----

> <Gold.Chemscore.Fitness>
14.5335

> <Gold.Chemscore.DG>
-14.9799

> <Gold.Chemscore.ZeroCoef>
-5.4800

> <Gold.Chemscore.Hbond>
0.0000

> <Gold.Chemscore.Metal>
0.0000

> <Gold.Chemscore.Lipo>
107.2056

> <Gold.Chemscore.Internal_Hbond>
0.0000

> <Gold.Chemscore.DEClash>
0.2368

> <Gold.Chemscore.DEInternal>
0.2095

> <Gold.Chemscore.Rot>
1.1887

> <Gold.Chemscore.Internal.Correction>
   9.000000E+99

> <Gold.Chemscore.Hbond.Weighted>
-0.0000

> <Gold.Chemscore.Metal.Weighted>
-0.0000

> <Gold.Chemscore.Lipo.Weighted>
-12.5430

> <Gold.Chemscore.Internal_Hbond.Weighted>
0.0000

> <Gold.Chemscore.DEClash.Weighted>
0.2368

> <Gold.Chemscore.DEInternal.Weighted>
0.2095

> <Gold.Chemscore.Rot.Weighted>
3.0432

> <Gold.Chemscore.Internal.Correction.Weighted>
   9.000000E+99

> <Gold.Protein.RotatedTorsions>
[ 6907 6896 6895 6894 ] final  110.73 input  -60.11 | X-H torsion
[ 7974 7965 7964 7962 ] final  -71.23 input  175.53 | X-H torsion
[ 8008 7997 7996 7995 ] final  136.48 input   59.86 | X-H torsion
[ 10167 10162 10161 10158 ] final -100.34 input  -65.29 | X-H torsion
[ 10718 10713 10712 10709 ] final  139.72 input   66.30 | X-H torsion
[ 10763 10752 10751 10750 ] final   56.13 input  -60.55 | X-H torsion
[ 11005 11000 10999 10996 ] final  -99.06 input  -57.11 | X-H torsion

> <Gold.Protein.ActiveResidues>
 VAL166  LYS551  ARG553  GLY616  TRP617  ASP618  TYR619  PRO620  LYS621  CYS622 
 ASP623  PHE694  ASN695  SER759  ASP760  ASP761  ALA762  ILE779  LEU786  VAL792 
 PHE793  MET794  SER795  GLU796  ALA797  LYS798  CYS799  TRP800  GLU811  SER814 

> <Gold.Protein.RotatedAtoms>
  152.5005  133.8758  159.7321 H   0  0  0  0  0  0  0  0  0  0  0  0  # atno 6907 bound_to 6896
  150.9233  133.6845  159.2834 H   0  0  0  0  0  0  0  0  0  0  0  0  # atno 6908 bound_to 6896
  151.4215  135.1003  159.9668 H   0  0  0  0  0  0  0  0  0  0  0  0  # atno 6909 bound_to 6896
  145.6807  140.9189  143.0834 H   0  0  0  0  0  0  0  0  0  0  0  0  # atno 7974 bound_to 7965
  156.3004  140.2444  156.3753 H   0  0  0  0  0  0  0  0  0  0  0  0  # atno 8008 bound_to 7997
  154.8751  140.0414  157.1768 H   0  0  0  0  0  0  0  0  0  0  0  0  # atno 8009 bound_to 7997
  154.8754  140.2941  155.5460 H   0  0  0  0  0  0  0  0  0  0  0  0  # atno 8010 bound_to 7997
  140.2529  143.3460  152.0698 H   0  0  0  0  0  0  0  0  0  0  0  0  # atno 10167 bound_to 10162
  157.4112  131.1028  151.0452 H   0  0  0  0  0  0  0  0  0  0  0  0  # atno 10718 bound_to 10713
  152.9827  135.5687  154.5180 H   0  0  0  0  0  0  0  0  0  0  0  0  # atno 10763 bound_to 10752
  154.4673  135.2783  155.1671 H   0  0  0  0  0  0  0  0  0  0  0  0  # atno 10764 bound_to 10752
  154.3234  135.6264  153.5571 H   0  0  0  0  0  0  0  0  0  0  0  0  # atno 10765 bound_to 10752
  141.1322  133.8293  157.0922 H   0  0  0  0  0  0  0  0  0  0  0  0  # atno 11005 bound_to 11000
  144.7027  139.8693  143.7439 LP  0  0  0  0  0  0  0  0  0  0  0  0  # atno 17320 bound_to 7965
  146.0966  139.3959  143.0372 LP  0  0  0  0  0  0  0  0  0  0  0  0  # atno 17321 bound_to 7965
  139.5040  144.6768  151.6109 LP  0  0  0  0  0  0  0  0  0  0  0  0  # atno 17342 bound_to 10162
  140.6026  143.9581  150.6397 LP  0  0  0  0  0  0  0  0  0  0  0  0  # atno 17343 bound_to 10162
  157.1415  130.6145  149.5556 LP  0  0  0  0  0  0  0  0  0  0  0  0  # atno 17370 bound_to 10713
  155.9851  130.4879  150.7016 LP  0  0  0  0  0  0  0  0  0  0  0  0  # atno 17371 bound_to 10713
  140.0385  134.9866  157.0917 LP  0  0  0  0  0  0  0  0  0  0  0  0  # atno 17394 bound_to 11000
  140.4172  134.1918  155.7164 LP  0  0  0  0  0  0  0  0  0  0  0  0  # atno 17395 bound_to 11000

$$$$
