AV-unprocessed.smi:3256|AV-procd|sdf|12466|dock5
  -GOLD-   2272018363D 1   1.00000     0.00000
 Structure written by MMmdl.
 37 38  0  0  0  0  0  0  0  0  2 V2000
  145.6418  138.2550  153.5500 O   0  0  0  0  0  0  0  0  0  0  0  0
  146.6553  137.6853  153.1465 C   0  0  0  0  0  0  0  0  0  0  0  0
  146.6312  136.4983  152.5238 N   0  0  0  0  0  0  0  0  0  0  0  0
  145.4267  135.7186  152.2614 C   0  0  0  0  0  0  0  0  0  0  0  0
  145.1169  135.6414  150.7539 C   0  0  0  0  0  0  0  0  0  0  0  0
  145.1005  134.2456  150.2499 N   0  3  0  0  0  0  0  0  0  0  0  0
  146.3439  133.5103  150.5850 C   0  0  0  0  0  0  0  0  0  0  0  0
  146.3054  132.0889  149.9987 C   0  0  0  0  0  0  0  0  0  0  0  0
  145.1570  131.4046  150.4833 O   0  0  0  0  0  0  0  0  0  0  0  0
  143.9512  132.0493  150.0932 C   0  0  0  0  0  0  0  0  0  0  0  0
  143.9100  133.4707  150.6801 C   0  0  0  0  0  0  0  0  0  0  0  0
  147.9103  138.1562  153.2465 N   0  0  0  0  0  0  0  0  0  0  0  0
  148.3669  139.3669  153.8364 C   0  0  0  0  0  0  0  0  0  0  0  0
  147.5530  140.5001  154.0815 C   0  0  0  0  0  0  0  0  0  0  0  0
  148.1297  141.6332  154.6869 C   0  0  0  0  0  0  0  0  0  0  0  0
  149.4944  141.5916  155.0317 C   0  0  0  0  0  0  0  0  0  0  0  0
  150.2791  140.5153  154.8154 N   0  0  0  0  0  0  0  0  0  0  0  0
  149.7194  139.4328  154.2346 C   0  0  0  0  0  0  0  0  0  0  0  0
  147.5084  136.1015  152.2196 H   0  0  0  0  0  0  0  0  0  0  0  0
  145.5904  134.7244  152.6752 H   0  0  0  0  0  0  0  0  0  0  0  0
  144.5820  136.1464  152.8044 H   0  0  0  0  0  0  0  0  0  0  0  0
  144.1359  136.0856  150.5791 H   0  0  0  0  0  0  0  0  0  0  0  0
  145.8296  136.2356  150.1799 H   0  0  0  0  0  0  0  0  0  0  0  0
  147.2091  134.0440  150.1900 H   0  0  0  0  0  0  0  0  0  0  0  0
  146.4619  133.4650  151.6689 H   0  0  0  0  0  0  0  0  0  0  0  0
  146.2949  132.1167  148.9079 H   0  0  0  0  0  0  0  0  0  0  0  0
  147.1972  131.5360  150.2942 H   0  0  0  0  0  0  0  0  0  0  0  0
  143.8725  132.0743  149.0050 H   0  0  0  0  0  0  0  0  0  0  0  0
  143.1055  131.4670  150.4596 H   0  0  0  0  0  0  0  0  0  0  0  0
  143.8789  133.4211  151.7698 H   0  0  0  0  0  0  0  0  0  0  0  0
  142.9944  133.9642  150.3562 H   0  0  0  0  0  0  0  0  0  0  0  0
  148.6279  137.5975  152.8084 H   0  0  0  0  0  0  0  0  0  0  0  0
  146.5039  140.5243  153.8329 H   0  0  0  0  0  0  0  0  0  0  0  0
  147.5372  142.5137  154.8865 H   0  0  0  0  0  0  0  0  0  0  0  0
  149.9666  142.4435  155.4979 H   0  0  0  0  0  0  0  0  0  0  0  0
  150.3772  138.5899  154.0794 H   0  0  0  0  0  0  0  0  0  0  0  0
  145.0705  134.3027  149.2418 H   0  0  0  0  0  0  0  0  0  0  0  0
  1  2  2  0  0  0  0
  2  3  1  0  0  0  0
  2 12  1  0  0  0  0
  3  4  1  0  0  0  0
  3 19  1  0  0  0  0
  4  5  1  0  0  0  0
  4 20  1  0  0  0  0
  4 21  1  0  0  0  0
  5  6  1  0  0  0  0
  5 22  1  0  0  0  0
  5 23  1  0  0  0  0
  6 11  1  0  0  0  0
  6  7  1  0  0  0  0
  6 37  1  0  0  0  0
  7  8  1  0  0  0  0
  7 24  1  0  0  0  0
  7 25  1  0  0  0  0
  8  9  1  0  0  0  0
  8 26  1  0  0  0  0
  8 27  1  0  0  0  0
  9 10  1  0  0  0  0
 10 11  1  0  0  0  0
 10 28  1  0  0  0  0
 10 29  1  0  0  0  0
 11 30  1  0  0  0  0
 11 31  1  0  0  0  0
 12 13  1  0  0  0  0
 12 32  1  0  0  0  0
 13 18  1  0  0  0  0
 13 14  2  0  0  0  0
 14 15  1  0  0  0  0
 14 33  1  0  0  0  0
 15 16  2  0  0  0  0
 15 34  1  0  0  0  0
 16 17  1  0  0  0  0
 16 35  1  0  0  0  0
 17 18  2  0  0  0  0
 18 36  1  0  0  0  0
M  CHG  1   6   1
M  END
> <s_m_source_file>
AV-unprocessed.smi

> <i_m_source_file_index>
3256

> <i_lp_mmshare_version>
43012

> <i_f3d_flags>
0

> <s_epik_input>
W2NIXTFuW2NIXVtjSF1bY0hdYzFbTkhdQyg9TylbTkhdW0NIMl1bQ0gyXU4yW0NIMl1bQ0gyXU9bQ0gyXVtDSDJdMg==

> <s_epik_cmdline>
J2VwaWtfcHl0aG9uJywgJy1waCcsICc3LjAnLCAnLXRuJywgJzgnLCAnLW1hJywgJzIwMCcsICctbWV0YWxfYmluZGluZycsICctaW1hZScsICc8aW5maWxlLm1hZT4nLCAnLW9tYWUnLCAnPG91dGZpbGUubWFlPic=

> <r_epik_Ionization_Penalty>
0.606681

> <r_epik_Ionization_Penalty_Charging>
0.602531

> <r_epik_Ionization_Penalty_Neutral>
0.00415076

> <r_epik_State_Penalty>
0.607427

> <r_epik_Charging_Adjusted_Penalty>
1.20996

> <i_epik_Tot_Q>
1

> <i_epik_Tot_abs_Q>
1

> <r_epik_Metal_State_Penalty>
0.604583

> <b_epik_Metal_Only>
0

> <s_lp_Force_Field>
OPLS_2005

> <r_lp_Energy>
17.8709

> <b_lp_Chiralities_Consistent>
1

> <s_lp_Variant>
AV-unprocessed.smi:3256-2

> <Gold.Version>
5.8.1

> <Gold.Id.Protein>
6NUR|6NUR_protein|mol2

> <Gold.PLP.Fitness>
43.8245

> <Gold.PLP.PLP>
-30.7789

> <Gold.PLP.part.hbond>
-4.0545

> <Gold.PLP.part.metal>
0.0000

> <Gold.PLP.part.buried>
0.3810

> <Gold.PLP.part.nonpolar>
-28.5005

> <Gold.PLP.part.repulsive>
1.2976

> <Gold.PLP.ligand.clash>
0.0000

> <Gold.PLP.ligand.torsion>
0.5502

> <Gold.PLP.Chemscore.Hbond>
3.8480

> <Gold.PLP.Chemscore.CHOScore>
0.8617

> <Gold.PLP.Chemscore.Metal>
0.0000

> <Gold.Chemscore.Hbonds>
donor molecule, donor type, donor heavy atom, donor atom, acceptor molecule, acceptor atom, score
      L1  H     3    19       P1  7948  0.86
      L1  H     6    37       P1  7921  0.86
      L1  H    12    32       P1  7948  0.94
      P1  H  7989  7998       L1    17  0.91
      L1  C    16    35       P1  8028  0.87

> <Gold.PLP.Chemscore.Internal.Correction>
0.0167

> <Gold.Rescore>
     Score         DG    S(hbond)    S(metal)    S(lipo)     H(rot)  DE(clash)    DE(int)     intcor
     18.73     -21.39       3.14        0.00      80.18       1.54       0.96       1.69       ----

> <Gold.Chemscore.Fitness>
18.7337

> <Gold.Chemscore.DG>
-21.3901

> <Gold.Chemscore.ZeroCoef>
-5.4800

> <Gold.Chemscore.Hbond>
3.1386

> <Gold.Chemscore.Metal>
0.0000

> <Gold.Chemscore.Lipo>
80.1805

> <Gold.Chemscore.Internal_Hbond>
0.0000

> <Gold.Chemscore.DEClash>
0.9641

> <Gold.Chemscore.DEInternal>
1.6923

> <Gold.Chemscore.Rot>
1.5445

> <Gold.Chemscore.Internal.Correction>
   9.000000E+99

> <Gold.Chemscore.Hbonds>
donor molecule, donor type, donor heavy atom, donor atom, acceptor molecule, acceptor atom, score
      L1  H     3    19       P1  7948  0.81
      L1  H     6    37       P1  7921  0.83
      L1  H    12    32       P1  7948  0.91
      P1  H  7989  7998       L1    17  0.16

> <Gold.Chemscore.Hbond.Weighted>
-10.4830

> <Gold.Chemscore.Metal.Weighted>
-0.0000

> <Gold.Chemscore.Lipo.Weighted>
-9.3811

> <Gold.Chemscore.Internal_Hbond.Weighted>
0.0000

> <Gold.Chemscore.DEClash.Weighted>
0.9641

> <Gold.Chemscore.DEInternal.Weighted>
1.6923

> <Gold.Chemscore.Rot.Weighted>
3.9540

> <Gold.Chemscore.Internal.Correction.Weighted>
   9.000000E+99

> <Gold.Protein.RotatedTorsions>
[ 6907 6896 6895 6894 ] final  139.67 input  -60.11 | X-H torsion
[ 7974 7965 7964 7962 ] final  146.68 input  175.53 | X-H torsion
[ 8008 7997 7996 7995 ] final -171.94 input   59.86 | X-H torsion
[ 10167 10162 10161 10158 ] final   -1.08 input  -65.29 | X-H torsion
[ 10718 10713 10712 10709 ] final  176.56 input   66.30 | X-H torsion
[ 10763 10752 10751 10750 ] final   41.05 input  -60.55 | X-H torsion
[ 11005 11000 10999 10996 ] final   31.50 input  -57.11 | X-H torsion

> <Gold.Protein.ActiveResidues>
 VAL166  LYS551  ARG553  GLY616  TRP617  ASP618  TYR619  PRO620  LYS621  CYS622 
 ASP623  PHE694  ASN695  SER759  ASP760  ASP761  ALA762  ILE779  LEU786  VAL792 
 PHE793  MET794  SER795  GLU796  ALA797  LYS798  CYS799  TRP800  GLU811  SER814 

> <Gold.Protein.RotatedAtoms>
  152.2521  133.5224  159.5331 H   0  0  0  0  0  0  0  0  0  0  0  0  # atno 6907 bound_to 6896
  150.7097  134.0946  159.3953 H   0  0  0  0  0  0  0  0  0  0  0  0  # atno 6908 bound_to 6896
  151.8865  135.0433  160.0544 H   0  0  0  0  0  0  0  0  0  0  0  0  # atno 6909 bound_to 6896
  144.8651  139.5935  143.5912 H   0  0  0  0  0  0  0  0  0  0  0  0  # atno 7974 bound_to 7965
  155.9381  140.1103  157.1078 H   0  0  0  0  0  0  0  0  0  0  0  0  # atno 8008 bound_to 7997
  154.4084  140.1224  156.4956 H   0  0  0  0  0  0  0  0  0  0  0  0  # atno 8009 bound_to 7997
  155.6996  140.3472  155.4930 H   0  0  0  0  0  0  0  0  0  0  0  0  # atno 8010 bound_to 7997
  140.6795  143.6818  150.8099 H   0  0  0  0  0  0  0  0  0  0  0  0  # atno 10167 bound_to 10162
  156.9183  130.9932  151.3009 H   0  0  0  0  0  0  0  0  0  0  0  0  # atno 10718 bound_to 10713
  152.9919  135.6173  154.2725 H   0  0  0  0  0  0  0  0  0  0  0  0  # atno 10763 bound_to 10752
  154.2458  135.2787  155.2838 H   0  0  0  0  0  0  0  0  0  0  0  0  # atno 10764 bound_to 10752
  154.5330  135.5782  153.6833 H   0  0  0  0  0  0  0  0  0  0  0  0  # atno 10765 bound_to 10752
  140.2832  134.2949  155.7795 H   0  0  0  0  0  0  0  0  0  0  0  0  # atno 11005 bound_to 11000
  146.2890  139.7085  142.9175 LP  0  0  0  0  0  0  0  0  0  0  0  0  # atno 17320 bound_to 7965
  145.4236  141.0409  143.2950 LP  0  0  0  0  0  0  0  0  0  0  0  0  # atno 17321 bound_to 7965
  140.0516  143.5244  152.2671 LP  0  0  0  0  0  0  0  0  0  0  0  0  # atno 17342 bound_to 10162
  139.6108  144.7608  151.2957 LP  0  0  0  0  0  0  0  0  0  0  0  0  # atno 17343 bound_to 10162
  157.5924  130.8453  149.8679 LP  0  0  0  0  0  0  0  0  0  0  0  0  # atno 17370 bound_to 10713
  156.0503  130.3719  150.1217 LP  0  0  0  0  0  0  0  0  0  0  0  0  # atno 17371 bound_to 10713
  141.2159  133.7538  156.9512 LP  0  0  0  0  0  0  0  0  0  0  0  0  # atno 17394 bound_to 11000
  140.1264  134.9384  157.2275 LP  0  0  0  0  0  0  0  0  0  0  0  0  # atno 17395 bound_to 11000

$$$$
