AV-unprocessed.smi:1920|AV-procd|sdf|7781|dock10
  -GOLD-   22720 9523D 1   1.00000     0.00000
 Structure written by MMmdl.
 36 37  0  0  0  0  0  0  0  0  1 V2000
  151.2887  137.7685  155.8843 C   0  0  0  0  0  0  0  0  0  0  0  0
  150.2283  138.8813  155.9242 C   0  0  2  0  0  0  0  0  0  0  0  0
  150.2535  139.7846  154.6713 C   0  0  0  0  0  0  0  0  0  0  0  0
  148.9643  140.3875  154.3896 N   0  0  0  0  0  0  0  0  0  0  0  0
  147.8025  139.7323  154.0025 C   0  0  0  0  0  0  0  0  0  0  0  0
  146.8355  140.7009  153.8549 C   0  0  0  0  0  0  0  0  0  0  0  0
  147.3748  141.9506  154.1513 N   0  0  0  0  0  0  0  0  0  0  0  0
  148.6370  141.6851  154.4627 C   0  0  0  0  0  0  0  0  0  0  0  0
  150.4203  139.6807  157.1310 N   0  0  0  0  0  0  0  0  0  0  0  0
  151.6034  140.1032  157.6036 C   0  0  0  0  0  0  0  0  0  0  0  0
  152.6782  139.8531  157.0580 O   0  0  0  0  0  0  0  0  0  0  0  0
  151.5677  140.9369  158.8892 C   0  0  0  0  0  0  0  0  0  0  0  0
  152.5066  142.1626  158.8577 C   0  0  2  0  0  0  0  0  0  0  0  0
  152.6936  142.8161  160.2060 C   0  0  0  0  0  0  0  0  0  0  0  0
  152.4162  144.1177  160.1899 C   0  0  0  0  0  0  0  0  0  0  0  0
  151.9876  144.5988  158.8315 C   0  0  0  0  0  0  0  0  0  0  0  0
  151.9725  143.3162  157.9698 C   0  0  0  0  0  0  0  0  0  0  0  0
  151.1263  137.0903  155.0463 H   0  0  0  0  0  0  0  0  0  0  0  0
  151.2616  137.1683  156.7942 H   0  0  0  0  0  0  0  0  0  0  0  0
  152.2930  138.1821  155.7877 H   0  0  0  0  0  0  0  0  0  0  0  0
  149.2513  138.3982  155.9863 H   0  0  0  0  0  0  0  0  0  0  0  0
  150.9786  140.5903  154.7924 H   0  0  0  0  0  0  0  0  0  0  0  0
  150.5684  139.2110  153.7980 H   0  0  0  0  0  0  0  0  0  0  0  0
  147.7629  138.6616  153.8658 H   0  0  0  0  0  0  0  0  0  0  0  0
  145.8010  140.5951  153.5629 H   0  0  0  0  0  0  0  0  0  0  0  0
  149.3404  142.4537  154.7475 H   0  0  0  0  0  0  0  0  0  0  0  0
  149.5891  139.9348  157.6450 H   0  0  0  0  0  0  0  0  0  0  0  0
  150.5404  141.2679  159.0447 H   0  0  0  0  0  0  0  0  0  0  0  0
  151.8187  140.3038  159.7421 H   0  0  0  0  0  0  0  0  0  0  0  0
  153.4926  141.8623  158.4997 H   0  0  0  0  0  0  0  0  0  0  0  0
  153.0327  142.2672  161.0726 H   0  0  0  0  0  0  0  0  0  0  0  0
  152.4924  144.7816  161.0383 H   0  0  0  0  0  0  0  0  0  0  0  0
  151.0031  145.0646  158.8829 H   0  0  0  0  0  0  0  0  0  0  0  0
  152.7017  145.3310  158.4538 H   0  0  0  0  0  0  0  0  0  0  0  0
  152.5853  143.4373  157.0759 H   0  0  0  0  0  0  0  0  0  0  0  0
  150.9558  143.1122  157.6312 H   0  0  0  0  0  0  0  0  0  0  0  0
  1  2  1  0  0  0  0
  1 18  1  0  0  0  0
  1 19  1  0  0  0  0
  1 20  1  0  0  0  0
  2  3  1  0  0  0  0
  2  9  1  0  0  0  0
  2 21  1  0  0  0  0
  3  4  1  0  0  0  0
  3 22  1  0  0  0  0
  3 23  1  0  0  0  0
  4  8  1  0  0  0  0
  4  5  1  0  0  0  0
  5  6  2  0  0  0  0
  5 24  1  0  0  0  0
  6  7  1  0  0  0  0
  6 25  1  0  0  0  0
  7  8  2  0  0  0  0
  8 26  1  0  0  0  0
  9 10  1  0  0  0  0
  9 27  1  0  0  0  0
 10 11  2  0  0  0  0
 10 12  1  0  0  0  0
 12 13  1  0  0  0  0
 12 28  1  0  0  0  0
 12 29  1  0  0  0  0
 13 17  1  0  0  0  0
 13 14  1  0  0  0  0
 13 30  1  0  0  0  0
 14 15  2  0  0  0  0
 14 31  1  0  0  0  0
 15 16  1  0  0  0  0
 15 32  1  0  0  0  0
 16 17  1  0  0  0  0
 16 33  1  0  0  0  0
 16 34  1  0  0  0  0
 17 35  1  0  0  0  0
 17 36  1  0  0  0  0
M  END
> <s_m_source_file>
AV-unprocessed.smi

> <i_m_source_file_index>
1920

> <i_lp_mmshare_version>
43012

> <i_f3d_flags>
0

> <s_epik_input>
W2NIXTFuW2NIXVtjSF1uMVtDSDJdW0NAQEhdKFtDSDNdKVtOSF1DKD1PKVtDSDJdW0NAQEhdMltDSF09W0NIXVtDSDJdW0NIMl0y

> <s_epik_cmdline>
J2VwaWtfcHl0aG9uJywgJy1waCcsICc3LjAnLCAnLXRuJywgJzgnLCAnLW1hJywgJzIwMCcsICctbWV0YWxfYmluZGluZycsICctaW1hZScsICc8aW5maWxlLm1hZT4nLCAnLW9tYWUnLCAnPG91dGZpbGUubWFlPic=

> <r_lp_tautomer_probability>
1

> <r_epik_Ionization_Penalty>
0.635367

> <r_epik_Ionization_Penalty_Charging>
0.635367

> <r_epik_Ionization_Penalty_Neutral>
2.1249e-08

> <r_epik_State_Penalty>
0.65258

> <r_epik_Charging_Adjusted_Penalty>
1.28795

> <i_epik_Tot_Q>
0

> <i_epik_Tot_abs_Q>
0

> <r_epik_Metal_State_Penalty>
0.310403

> <b_epik_Metal_Only>
0

> <s_lp_Force_Field>
OPLS_2005

> <r_lp_Energy>
18.8766

> <b_lp_Chiralities_Consistent>
1

> <s_lp_Variant>
AV-unprocessed.smi:1920-5

> <Gold.Version>
5.8.1

> <Gold.Id.Protein>
6NUR|6NUR_protein|mol2

> <Gold.PLP.Fitness>
42.9020

> <Gold.PLP.PLP>
-35.6862

> <Gold.PLP.part.hbond>
-1.0000

> <Gold.PLP.part.metal>
0.0000

> <Gold.PLP.part.buried>
-2.9751

> <Gold.PLP.part.nonpolar>
-31.9837

> <Gold.PLP.part.repulsive>
0.1671

> <Gold.PLP.ligand.clash>
0.0000

> <Gold.PLP.ligand.torsion>
0.9124

> <Gold.PLP.Chemscore.Hbond>
1.0000

> <Gold.PLP.Chemscore.CHOScore>
2.0000

> <Gold.PLP.Chemscore.Metal>
0.0000

> <Gold.Chemscore.Hbonds>
donor molecule, donor type, donor heavy atom, donor atom, acceptor molecule, acceptor atom, score
      P1  H  7997  8010       L1    11  1.00
      L1  C     6    25       P1 10175  1.00
      L1  C     8    26       P1  8028  0.97

> <Gold.PLP.Chemscore.Internal.Correction>
0.0406

> <Gold.Rescore>
     Score         DG    S(hbond)    S(metal)    S(lipo)     H(rot)  DE(clash)    DE(int)     intcor
     12.67     -14.91       0.99        0.00      94.59       1.93       0.01       2.23       ----

> <Gold.Chemscore.Fitness>
12.6679

> <Gold.Chemscore.DG>
-14.9068

> <Gold.Chemscore.ZeroCoef>
-5.4800

> <Gold.Chemscore.Hbond>
0.9886

> <Gold.Chemscore.Metal>
0.0000

> <Gold.Chemscore.Lipo>
94.5926

> <Gold.Chemscore.Internal_Hbond>
0.0000

> <Gold.Chemscore.DEClash>
0.0093

> <Gold.Chemscore.DEInternal>
2.2296

> <Gold.Chemscore.Rot>
1.9306

> <Gold.Chemscore.Internal.Correction>
   9.000000E+99

> <Gold.Chemscore.Hbonds>
donor molecule, donor type, donor heavy atom, donor atom, acceptor molecule, acceptor atom, score
      P1  H  7997  8010       L1    11  0.99

> <Gold.Chemscore.Hbond.Weighted>
-3.3019

> <Gold.Chemscore.Metal.Weighted>
-0.0000

> <Gold.Chemscore.Lipo.Weighted>
-11.0673

> <Gold.Chemscore.Internal_Hbond.Weighted>
0.0000

> <Gold.Chemscore.DEClash.Weighted>
0.0093

> <Gold.Chemscore.DEInternal.Weighted>
2.2296

> <Gold.Chemscore.Rot.Weighted>
4.9424

> <Gold.Chemscore.Internal.Correction.Weighted>
   9.000000E+99

> <Gold.Protein.RotatedTorsions>
[ 6907 6896 6895 6894 ] final   74.65 input  -60.11 | X-H torsion
[ 7974 7965 7964 7962 ] final  147.86 input  175.53 | X-H torsion
[ 8008 7997 7996 7995 ] final   51.54 input   59.86 | X-H torsion
[ 10167 10162 10161 10158 ] final  152.89 input  -65.29 | X-H torsion
[ 10718 10713 10712 10709 ] final -153.65 input   66.30 | X-H torsion
[ 10763 10752 10751 10750 ] final  127.00 input  -60.55 | X-H torsion
[ 11005 11000 10999 10996 ] final  154.91 input  -57.11 | X-H torsion

> <Gold.Protein.ActiveResidues>
 VAL166  LYS551  ARG553  GLY616  TRP617  ASP618  TYR619  PRO620  LYS621  CYS622 
 ASP623  PHE694  ASN695  SER759  ASP760  ASP761  ALA762  ILE779  LEU786  VAL792 
 PHE793  MET794  SER795  GLU796  ALA797  LYS798  CYS799  TRP800  GLU811  SER814 

> <Gold.Protein.RotatedAtoms>
  152.4987  134.4238  159.9489 H   0  0  0  0  0  0  0  0  0  0  0  0  # atno 6907 bound_to 6896
  151.4213  133.3691  159.2764 H   0  0  0  0  0  0  0  0  0  0  0  0  # atno 6908 bound_to 6896
  150.9221  134.8660  159.7555 H   0  0  0  0  0  0  0  0  0  0  0  0  # atno 6909 bound_to 6896
  144.8559  139.6081  143.5953 H   0  0  0  0  0  0  0  0  0  0  0  0  # atno 7974 bound_to 7965
  155.4370  140.3453  155.4286 H   0  0  0  0  0  0  0  0  0  0  0  0  # atno 8008 bound_to 7997
  156.1302  140.1512  156.9107 H   0  0  0  0  0  0  0  0  0  0  0  0  # atno 8009 bound_to 7997
  154.4889  140.0847  156.7529 H   0  0  0  0  0  0  0  0  0  0  0  0  # atno 8010 bound_to 7997
  139.4830  144.5319  151.7708 H   0  0  0  0  0  0  0  0  0  0  0  0  # atno 10167 bound_to 10162
  156.4886  130.8337  151.2561 H   0  0  0  0  0  0  0  0  0  0  0  0  # atno 10718 bound_to 10713
  153.7023  135.3281  155.3227 H   0  0  0  0  0  0  0  0  0  0  0  0  # atno 10763 bound_to 10752
  154.8409  135.4457  154.1398 H   0  0  0  0  0  0  0  0  0  0  0  0  # atno 10764 bound_to 10752
  153.2469  135.6977  153.7800 H   0  0  0  0  0  0  0  0  0  0  0  0  # atno 10765 bound_to 10752
  140.1533  134.8660  157.2482 H   0  0  0  0  0  0  0  0  0  0  0  0  # atno 11005 bound_to 11000
  146.2822  139.6908  142.9221 LP  0  0  0  0  0  0  0  0  0  0  0  0  # atno 17320 bound_to 7965
  145.4408  141.0422  143.2859 LP  0  0  0  0  0  0  0  0  0  0  0  0  # atno 17321 bound_to 7965
  140.4847  144.1399  150.5939 LP  0  0  0  0  0  0  0  0  0  0  0  0  # atno 17342 bound_to 10162
  140.4239  143.2599  151.9681 LP  0  0  0  0  0  0  0  0  0  0  0  0  # atno 17343 bound_to 10162
  157.7476  131.0021  150.2987 LP  0  0  0  0  0  0  0  0  0  0  0  0  # atno 17370 bound_to 10713
  156.3449  130.3821  149.7378 LP  0  0  0  0  0  0  0  0  0  0  0  0  # atno 17371 bound_to 10713
  140.2578  134.3606  155.7417 LP  0  0  0  0  0  0  0  0  0  0  0  0  # atno 17394 bound_to 11000
  141.2201  133.7352  156.9034 LP  0  0  0  0  0  0  0  0  0  0  0  0  # atno 17395 bound_to 11000

$$$$
