#       Name:                AV-unprocessed.smi:1224
#       Creating user name   scv26
#       Creation time:       Fri Mar 27 04:19:38 2020


#       File generated by GOLD software.
#

@<TRIPOS>MOLECULE
AV-unprocessed.smi:1224
    47    49     1
SMALL
NO_CHARGES


@<TRIPOS>ATOM
      1 ****        -3.4655   4.5892   1.7147 C.3            1 S1                 0.0000
      2 ****        -3.0659   3.3640   0.9101 C.ar           1 S1                 0.0000
      3 ****        -3.3668   3.3366  -0.4706 C.ar           1 S1                 0.0000
      4 ****        -2.9899   2.2022  -1.1796 C.ar           1 S1                 0.0000
      5 ****        -3.1392   1.8733  -2.5287 N.pl3          1 S1                 1.0000
      6 ****        -2.6061   0.6412  -2.7577 C.2            1 S1                 0.0000
      7 ****        -2.1198   0.1790  -1.5740 N.pl3          1 S1                 0.0000
      8 ****        -1.4441  -1.0869  -1.2607 C.3            1 S1                 0.0000
      9 ****         0.0901  -0.9505  -1.2069 C.3            1 S1                 0.0000
     10 ****         0.5508  -0.4804  -2.4585 O.3            1 S1                 0.0000
     11 ****         0.7692  -2.2980  -0.9132 C.3            1 S1                 0.0000
     12 ****         2.1305  -2.1083  -0.4218 N.3            1 S1                 0.0000
     13 ****         2.7992  -3.3596  -0.0839 C.3            1 S1                 0.0000
     14 ****         4.2024  -3.1366   0.3715 C.2            1 S1                 0.0000
     15 ****         5.2502  -2.6276  -0.3537 C.2            1 S1                 0.0000
     16 ****         6.4626  -2.5479   0.3924 C.2            1 S1                 0.0000
     17 ****         6.3242  -2.9966   1.6789 C.2            1 S1                 0.0000
     18 ****         4.6960  -3.5288   1.9994 S.3            1 S1                 0.0000
     19 ****        -2.3354   1.1191  -0.5616 C.ar           1 S1                 0.0000
     20 ****        -2.0295   1.1298   0.7968 C.ar           1 S1                 0.0000
     21 ****        -2.4052   2.2747   1.5354 C.ar           1 S1                 0.0000
     22 ****        -2.0868   2.3145   3.0204 C.3            1 S1                 0.0000
     23 ****        -3.9940   5.3168   1.0978 H              1 S1                 0.0000
     24 ****        -2.5834   5.0799   2.1268 H              1 S1                 0.0000
     25 ****        -4.1243   4.3106   2.5374 H              1 S1                 0.0000
     26 ****        -3.8682   4.1625  -0.9539 H              1 S1                 0.0000
     27 ****        -2.5708   0.1253  -3.7065 H              1 S1                 0.0000
     28 ****        -1.8377  -1.4627  -0.3154 H              1 S1                 0.0000
     29 ****        -1.7334  -1.8097  -2.0252 H              1 S1                 0.0000
     30 ****         0.3573  -0.2234  -0.4387 H              1 S1                 0.0000
     31 ****         1.4940  -0.4242  -2.4247 H              1 S1                 0.0000
     32 ****         0.1932  -2.8244  -0.1512 H              1 S1                 0.0000
     33 ****         0.7593  -2.9340  -1.7997 H              1 S1                 0.0000
     34 ****         2.1090  -1.5093   0.3974 H              1 S1                 0.0000
     35 ****         2.2404  -3.8800   0.6949 H              1 S1                 0.0000
     36 ****         2.8072  -4.0223  -0.9499 H              1 S1                 0.0000
     37 ****         5.1882  -2.3119  -1.3847 H              1 S1                 0.0000
     38 ****         7.3800  -2.1697  -0.0344 H              1 S1                 0.0000
     39 ****         7.0746  -3.0474   2.4538 H              1 S1                 0.0000
     40 ****        -1.5256   0.3004   1.2709 H              1 S1                 0.0000
     41 ****        -1.5398   1.4251   3.3351 H              1 S1                 0.0000
     42 ****        -3.0049   2.3657   3.6061 H              1 S1                 0.0000
     43 ****        -1.4733   3.1833   3.2596 H              1 S1                 0.0000
     44 ****        -3.5709   2.4455  -3.2430 H              1 S1                 0.0000
     45 ****         0.1645   0.4232  -2.6437 LP             1 S1                 0.0000
     46 ****         0.2754  -1.1150  -3.1806 LP             1 S1                 0.0000
     47 ****         2.6537  -1.6881  -1.1633 LP             1 S1                 0.0000
@<TRIPOS>BOND
    1    1    2 1     
    2    1   23 1     
    3    1   24 1     
    4    1   25 1     
    5    2   21 ar    
    6    2    3 ar    
    7    3    4 ar    
    8    3   26 1     
    9    4   19 ar    
   10    4    5 1     
   11    5    6 2     
   12    5   44 1     
   13    6    7 1     
   14    6   27 1     
   15    7    8 1     
   16    7   19 1     
   17    8    9 1     
   18    8   28 1     
   19    8   29 1     
   20    9   10 1     
   21    9   11 1     
   22    9   30 1     
   23   10   31 1     
   24   11   12 1     
   25   11   32 1     
   26   11   33 1     
   27   12   13 1     
   28   12   34 1     
   29   13   14 1     
   30   13   35 1     
   31   13   36 1     
   32   14   18 1     
   33   14   15 2     
   34   15   16 1     
   35   15   37 1     
   36   16   17 2     
   37   16   38 1     
   38   17   18 1     
   39   17   39 1     
   40   19   20 ar    
   41   20   21 ar    
   42   20   40 1     
   43   21   22 1     
   44   22   41 1     
   45   22   42 1     
   46   22   43 1     
   47   10   45 1     
   48   10   46 1     
   49   12   47 1     
@<TRIPOS>SUBSTRUCTURE
      1 S1             1
@<TRIPOS>SET
LONE_PAIRS      STATIC     ATOMS    <user>   **** ""
3 45 46 47
DONOR_HYDROGENS      STATIC     ATOMS    <user>   **** ""
3 44 31 34
ATOM$BLUE        STATIC     ATOMS    COLORGROUP SYSTEM
3 45 46 47
ATOM$RED        STATIC     ATOMS    COLORGROUP SYSTEM
3 44 31 34
