AV-unprocessed.smi:1939|AV-procd|sdf|7836|dock2
  -GOLD-   22720 9583D 1   1.00000     0.00000
 Structure written by MMmdl.
 29 30  0  0  0  0  0  0  0  0  1 V2000
  148.8194  140.1732  156.6997 O   0  0  0  0  0  0  0  0  0  0  0  0
  149.5183  140.7595  155.8716 C   0  0  0  0  0  0  0  0  0  0  0  0
  151.0282  140.9373  156.0911 C   0  0  0  0  0  0  0  0  0  0  0  0
  151.3642  141.6151  157.3552 N   0  0  0  0  0  0  0  0  0  0  0  0
  150.7004  142.8270  157.6153 C   0  0  0  0  0  0  0  0  0  0  0  0
  150.9223  143.5274  158.7353 C   0  0  0  0  0  0  0  0  0  0  0  0
  151.8737  143.0078  159.6869 C   0  0  0  0  0  0  0  0  0  0  0  0
  152.5238  141.8414  159.4676 C   0  0  0  0  0  0  0  0  0  0  0  0
  153.5344  141.2782  160.4645 C   0  0  0  0  0  0  0  0  0  0  0  0
  153.2899  139.9891  160.7021 F   0  0  0  0  0  0  0  0  0  0  0  0
  154.7747  141.3857  159.9865 F   0  0  0  0  0  0  0  0  0  0  0  0
  153.4909  141.9230  161.6316 F   0  0  0  0  0  0  0  0  0  0  0  0
  152.2663  141.0739  158.2316 C   0  0  0  0  0  0  0  0  0  0  0  0
  152.8272  140.0034  157.9918 O   0  0  0  0  0  0  0  0  0  0  0  0
  149.0318  141.2815  154.7363 N   0  0  0  0  0  0  0  0  0  0  0  0
  147.6662  141.2431  154.3235 C   0  0  0  0  0  0  0  0  0  0  0  0
  146.9738  142.5638  154.0652 C   0  0  0  0  0  0  0  0  0  0  0  0
  146.6246  141.7643  155.2900 C   0  0  0  0  0  0  0  0  0  0  0  0
  151.5079  139.9587  156.0338 H   0  0  0  0  0  0  0  0  0  0  0  0
  151.4372  141.5003  155.2506 H   0  0  0  0  0  0  0  0  0  0  0  0
  149.9997  143.1406  156.8549 H   0  0  0  0  0  0  0  0  0  0  0  0
  150.4002  144.4540  158.9230 H   0  0  0  0  0  0  0  0  0  0  0  0
  152.0585  143.5739  160.5877 H   0  0  0  0  0  0  0  0  0  0  0  0
  149.6797  141.7437  154.1146 H   0  0  0  0  0  0  0  0  0  0  0  0
  147.3579  140.4126  153.6897 H   0  0  0  0  0  0  0  0  0  0  0  0
  147.5474  143.4774  154.2093 H   0  0  0  0  0  0  0  0  0  0  0  0
  146.2410  142.5966  153.2614 H   0  0  0  0  0  0  0  0  0  0  0  0
  145.6588  141.2633  155.3046 H   0  0  0  0  0  0  0  0  0  0  0  0
  146.9664  142.1428  156.2516 H   0  0  0  0  0  0  0  0  0  0  0  0
  1  2  2  0  0  0  0
  2  3  1  0  0  0  0
  2 15  1  0  0  0  0
  3  4  1  0  0  0  0
  3 19  1  0  0  0  0
  3 20  1  0  0  0  0
  4 13  1  0  0  0  0
  4  5  1  0  0  0  0
  5  6  2  0  0  0  0
  5 21  1  0  0  0  0
  6  7  1  0  0  0  0
  6 22  1  0  0  0  0
  7  8  2  0  0  0  0
  7 23  1  0  0  0  0
  8  9  1  0  0  0  0
  8 13  1  0  0  0  0
  9 10  1  0  0  0  0
  9 11  1  0  0  0  0
  9 12  1  0  0  0  0
 13 14  2  0  0  0  0
 15 16  1  0  0  0  0
 15 24  1  0  0  0  0
 16 18  1  0  0  0  0
 16 17  1  0  0  0  0
 16 25  1  0  0  0  0
 17 18  1  0  0  0  0
 17 26  1  0  0  0  0
 17 27  1  0  0  0  0
 18 28  1  0  0  0  0
 18 29  1  0  0  0  0
M  END
> <s_m_source_file>
AV-unprocessed.smi

> <i_m_source_file_index>
1939

> <i_lp_mmshare_version>
43012

> <i_f3d_flags>
0

> <s_epik_input>
W0NIMl0xW0NIMl1bQ0hdMVtOSF1DKD1PKVtDSDJdbjJbY0hdW2NIXVtjSF1jKEMoRikoRilGKWMyPU8=

> <s_epik_cmdline>
J2VwaWtfcHl0aG9uJywgJy1waCcsICc3LjAnLCAnLXRuJywgJzgnLCAnLW1hJywgJzIwMCcsICctbWV0YWxfYmluZGluZycsICctaW1hZScsICc8aW5maWxlLm1hZT4nLCAnLW9tYWUnLCAnPG91dGZpbGUubWFlPic=

> <r_lp_tautomer_probability>
1

> <r_epik_Ionization_Penalty>
2.25843e-08

> <r_epik_Ionization_Penalty_Charging>
1.91398e-09

> <r_epik_Ionization_Penalty_Neutral>
2.06703e-08

> <r_epik_State_Penalty>
-0

> <r_epik_Charging_Adjusted_Penalty>
1.91398e-09

> <i_epik_Tot_Q>
0

> <i_epik_Tot_abs_Q>
0

> <r_epik_Metal_State_Penalty>
-0

> <b_epik_Metal_Only>
0

> <s_lp_Force_Field>
OPLS_2005

> <r_lp_Energy>
25.9148

> <b_lp_Chiralities_Consistent>
1

> <s_lp_Variant>
AV-unprocessed.smi:1939-1

> <Gold.Version>
5.8.1

> <Gold.Id.Protein>
6NUR|6NUR_protein|mol2

> <Gold.PLP.Fitness>
42.1820

> <Gold.PLP.PLP>
-36.7950

> <Gold.PLP.part.hbond>
-1.0000

> <Gold.PLP.part.metal>
0.0000

> <Gold.PLP.part.buried>
-4.3903

> <Gold.PLP.part.nonpolar>
-31.7776

> <Gold.PLP.part.repulsive>
0.1917

> <Gold.PLP.ligand.clash>
0.0000

> <Gold.PLP.ligand.torsion>
0.4812

> <Gold.PLP.Chemscore.Hbond>
0.9920

> <Gold.PLP.Chemscore.CHOScore>
1.0000

> <Gold.PLP.Chemscore.Metal>
0.0000

> <Gold.Chemscore.Hbonds>
donor molecule, donor type, donor heavy atom, donor atom, acceptor molecule, acceptor atom, score
      P1  H  7997  8008       L1    14  0.94
      L1  C     5    21       P1  8028  1.00

> <Gold.PLP.Chemscore.Internal.Correction>
0.3734

> <Gold.Rescore>
     Score         DG    S(hbond)    S(metal)    S(lipo)     H(rot)  DE(clash)    DE(int)     intcor
     11.03     -12.95       0.95        0.00      72.21       1.62       0.01       1.91       ----

> <Gold.Chemscore.Fitness>
11.0266

> <Gold.Chemscore.DG>
-12.9454

> <Gold.Chemscore.ZeroCoef>
-5.4800

> <Gold.Chemscore.Hbond>
0.9466

> <Gold.Chemscore.Metal>
0.0000

> <Gold.Chemscore.Lipo>
72.2131

> <Gold.Chemscore.Internal_Hbond>
0.0000

> <Gold.Chemscore.DEClash>
0.0101

> <Gold.Chemscore.DEInternal>
1.9087

> <Gold.Chemscore.Rot>
1.6192

> <Gold.Chemscore.Internal.Correction>
   9.000000E+99

> <Gold.Chemscore.Hbonds>
donor molecule, donor type, donor heavy atom, donor atom, acceptor molecule, acceptor atom, score
      P1  H  7997  8008       L1    14  0.79

> <Gold.Chemscore.Hbond.Weighted>
-3.1617

> <Gold.Chemscore.Metal.Weighted>
-0.0000

> <Gold.Chemscore.Lipo.Weighted>
-8.4489

> <Gold.Chemscore.Internal_Hbond.Weighted>
0.0000

> <Gold.Chemscore.DEClash.Weighted>
0.0101

> <Gold.Chemscore.DEInternal.Weighted>
1.9087

> <Gold.Chemscore.Rot.Weighted>
4.1452

> <Gold.Chemscore.Internal.Correction.Weighted>
   9.000000E+99

> <Gold.Protein.RotatedTorsions>
[ 6907 6896 6895 6894 ] final   55.80 input  -60.11 | X-H torsion
[ 7974 7965 7964 7962 ] final  -54.66 input  175.53 | X-H torsion
[ 8008 7997 7996 7995 ] final  -62.17 input   59.86 | X-H torsion
[ 10167 10162 10161 10158 ] final  119.73 input  -65.29 | X-H torsion
[ 10718 10713 10712 10709 ] final    7.51 input   66.30 | X-H torsion
[ 10763 10752 10751 10750 ] final   69.12 input  -60.55 | X-H torsion
[ 11005 11000 10999 10996 ] final   90.39 input  -57.11 | X-H torsion

> <Gold.Protein.ActiveResidues>
 VAL166  LYS551  ARG553  GLY616  TRP617  ASP618  TYR619  PRO620  LYS621  CYS622 
 ASP623  PHE694  ASN695  SER759  ASP760  ASP761  ALA762  ILE779  LEU786  VAL792 
 PHE793  MET794  SER795  GLU796  ALA797  LYS798  CYS799  TRP800  GLU811  SER814 

> <Gold.Protein.RotatedAtoms>
  152.3574  134.6921  160.0217 H   0  0  0  0  0  0  0  0  0  0  0  0  # atno 6907 bound_to 6896
  151.7255  133.3310  159.3334 H   0  0  0  0  0  0  0  0  0  0  0  0  # atno 6908 bound_to 6896
  150.7581  134.6344  159.6248 H   0  0  0  0  0  0  0  0  0  0  0  0  # atno 6909 bound_to 6896
  145.8831  140.8129  142.9830 H   0  0  0  0  0  0  0  0  0  0  0  0  # atno 7974 bound_to 7965
  154.4486  140.1002  156.6545 H   0  0  0  0  0  0  0  0  0  0  0  0  # atno 8008 bound_to 7997
  155.5360  140.3482  155.4418 H   0  0  0  0  0  0  0  0  0  0  0  0  # atno 8009 bound_to 7997
  156.0630  140.1331  156.9907 H   0  0  0  0  0  0  0  0  0  0  0  0  # atno 8010 bound_to 7997
  139.6027  144.7061  151.3024 H   0  0  0  0  0  0  0  0  0  0  0  0  # atno 10167 bound_to 10162
  156.9380  130.5851  149.5651 H   0  0  0  0  0  0  0  0  0  0  0  0  # atno 10718 bound_to 10713
  153.0270  135.5222  154.7239 H   0  0  0  0  0  0  0  0  0  0  0  0  # atno 10763 bound_to 10752
  154.6286  135.2897  155.0245 H   0  0  0  0  0  0  0  0  0  0  0  0  # atno 10764 bound_to 10752
  154.1205  135.6608  153.4954 H   0  0  0  0  0  0  0  0  0  0  0  0  # atno 10765 bound_to 10752
  139.8857  134.8610  156.3277 H   0  0  0  0  0  0  0  0  0  0  0  0  # atno 11005 bound_to 11000
  144.6728  140.1414  143.7437 LP  0  0  0  0  0  0  0  0  0  0  0  0  # atno 17320 bound_to 7965
  145.8999  139.2424  143.1499 LP  0  0  0  0  0  0  0  0  0  0  0  0  # atno 17321 bound_to 7965
  140.7262  143.6997  150.7855 LP  0  0  0  0  0  0  0  0  0  0  0  0  # atno 17342 bound_to 10162
  140.0576  143.5186  152.2643 LP  0  0  0  0  0  0  0  0  0  0  0  0  # atno 17343 bound_to 10162
  156.0417  130.5498  150.8786 LP  0  0  0  0  0  0  0  0  0  0  0  0  # atno 17370 bound_to 10713
  157.5803  131.0946  150.9281 LP  0  0  0  0  0  0  0  0  0  0  0  0  # atno 17371 bound_to 10713
  140.9744  133.7307  156.0580 LP  0  0  0  0  0  0  0  0  0  0  0  0  # atno 17394 bound_to 11000
  140.7830  134.3704  157.5483 LP  0  0  0  0  0  0  0  0  0  0  0  0  # atno 17395 bound_to 11000

$$$$
