AV-unprocessed.smi:2279|AV-procd|sdf|9189|dock1
  -GOLD-   2272012403D 1   1.00000     0.00000
 Structure written by MMmdl.
 57 59  0  0  0  0  0  0  0  0  2 V2000
  146.8082  130.8653  152.7890 C   0  0  0  0  0  0  0  0  0  0  0  0
  148.0372  131.3981  153.4951 C   0  0  0  0  0  0  0  0  0  0  0  0
  148.9156  130.5302  154.1717 C   0  0  0  0  0  0  0  0  0  0  0  0
  150.0414  131.0881  154.8084 C   0  0  0  0  0  0  0  0  0  0  0  0
  151.0290  130.2133  155.5512 C   0  0  0  0  0  0  0  0  0  0  0  0
  150.3139  132.4104  154.7981 N   0  0  0  0  0  0  0  0  0  0  0  0
  149.4750  133.2558  154.1495 C   0  0  0  0  0  0  0  0  0  0  0  0
  149.6709  134.6612  154.0816 N   0  0  0  0  0  0  0  0  0  0  0  0
  150.4903  135.4219  154.8289 C   0  0  0  0  0  0  0  0  0  0  0  0
  151.2342  135.0083  155.7189 O   0  0  0  0  0  0  0  0  0  0  0  0
  150.4016  136.7159  154.4867 N   0  0  0  0  0  0  0  0  0  0  0  0
  151.1640  137.7992  155.1012 C   0  0  2  0  0  0  0  0  0  0  0  0
  151.1261  137.7023  156.6340 C   0  0  0  0  0  0  0  0  0  0  0  0
  151.8594  138.8889  157.2789 C   0  0  0  0  0  0  0  0  0  0  0  0
  151.2888  140.1990  156.8505 N   0  3  1  0  0  0  0  0  0  0  0  0
  151.8956  141.3526  157.5939 C   0  0  0  0  0  0  0  0  0  0  0  0
  151.8972  141.0934  159.1188 C   0  0  0  0  0  0  0  0  0  0  0  0
  152.4610  142.2884  159.9072 C   0  0  0  0  0  0  0  0  0  0  0  0
  151.6702  143.4858  159.6352 N   0  0  0  0  0  0  0  0  0  0  0  0
  152.1733  144.5910  160.4390 C   0  0  0  0  0  0  0  0  0  0  0  0
  151.7757  143.8301  158.2199 C   0  0  0  0  0  0  0  0  0  0  0  0
  151.1804  142.7051  157.3560 C   0  0  0  0  0  0  0  0  0  0  0  0
  151.3163  140.3210  155.3629 C   0  0  0  0  0  0  0  0  0  0  0  0
  150.5862  139.1543  154.6751 C   0  0  0  0  0  0  0  0  0  0  0  0
  148.3229  132.7784  153.4852 C   0  0  0  0  0  0  0  0  0  0  0  0
  146.7124  129.7868  152.9180 H   0  0  0  0  0  0  0  0  0  0  0  0
  146.8650  131.0775  151.7213 H   0  0  0  0  0  0  0  0  0  0  0  0
  145.9094  131.3373  153.1868 H   0  0  0  0  0  0  0  0  0  0  0  0
  148.7321  129.4661  154.2016 H   0  0  0  0  0  0  0  0  0  0  0  0
  150.6657  129.1886  155.6326 H   0  0  0  0  0  0  0  0  0  0  0  0
  151.1950  130.5955  156.5588 H   0  0  0  0  0  0  0  0  0  0  0  0
  151.9852  130.1964  155.0276 H   0  0  0  0  0  0  0  0  0  0  0  0
  149.1214  135.1412  153.3846 H   0  0  0  0  0  0  0  0  0  0  0  0
  149.7657  136.9687  153.7443 H   0  0  0  0  0  0  0  0  0  0  0  0
  152.2006  137.7437  154.7623 H   0  0  0  0  0  0  0  0  0  0  0  0
  150.0925  137.6778  156.9825 H   0  0  0  0  0  0  0  0  0  0  0  0
  151.5854  136.7696  156.9643 H   0  0  0  0  0  0  0  0  0  0  0  0
  151.7991  138.7692  158.3586 H   0  0  0  0  0  0  0  0  0  0  0  0
  152.9192  138.8533  157.0211 H   0  0  0  0  0  0  0  0  0  0  0  0
  152.9268  141.4665  157.2542 H   0  0  0  0  0  0  0  0  0  0  0  0
  150.8824  140.8822  159.4593 H   0  0  0  0  0  0  0  0  0  0  0  0
  152.4930  140.2189  159.3738 H   0  0  0  0  0  0  0  0  0  0  0  0
  152.4275  142.0659  160.9747 H   0  0  0  0  0  0  0  0  0  0  0  0
  153.5077  142.4565  159.6484 H   0  0  0  0  0  0  0  0  0  0  0  0
  151.5855  145.4920  160.2595 H   0  0  0  0  0  0  0  0  0  0  0  0
  153.2163  144.8116  160.2079 H   0  0  0  0  0  0  0  0  0  0  0  0
  152.1010  144.3559  161.5016 H   0  0  0  0  0  0  0  0  0  0  0  0
  151.2344  144.7578  158.0297 H   0  0  0  0  0  0  0  0  0  0  0  0
  152.8183  144.0065  157.9491 H   0  0  0  0  0  0  0  0  0  0  0  0
  151.2710  143.0124  156.3141 H   0  0  0  0  0  0  0  0  0  0  0  0
  150.1144  142.6109  157.5693 H   0  0  0  0  0  0  0  0  0  0  0  0
  150.8181  141.2330  155.0375 H   0  0  0  0  0  0  0  0  0  0  0  0
  152.3507  140.3758  155.0199 H   0  0  0  0  0  0  0  0  0  0  0  0
  150.6569  139.2656  153.5923 H   0  0  0  0  0  0  0  0  0  0  0  0
  149.5240  139.1990  154.9204 H   0  0  0  0  0  0  0  0  0  0  0  0
  147.6623  133.4615  152.9712 H   0  0  0  0  0  0  0  0  0  0  0  0
  150.3113  140.1883  157.1049 H   0  0  0  0  0  0  0  0  0  0  0  0
  1  2  1  0  0  0  0
  1 26  1  0  0  0  0
  1 27  1  0  0  0  0
  1 28  1  0  0  0  0
  2 25  1  0  0  0  0
  2  3  2  0  0  0  0
  3  4  1  0  0  0  0
  3 29  1  0  0  0  0
  4  5  1  0  0  0  0
  4  6  2  0  0  0  0
  5 30  1  0  0  0  0
  5 31  1  0  0  0  0
  5 32  1  0  0  0  0
  6  7  1  0  0  0  0
  7  8  1  0  0  0  0
  7 25  2  0  0  0  0
  8  9  1  0  0  0  0
  8 33  1  0  0  0  0
  9 10  2  0  0  0  0
  9 11  1  0  0  0  0
 11 12  1  0  0  0  0
 11 34  1  0  0  0  0
 12 24  1  0  0  0  0
 12 13  1  0  0  0  0
 12 35  1  0  0  0  0
 13 14  1  0  0  0  0
 13 36  1  0  0  0  0
 13 37  1  0  0  0  0
 14 15  1  0  0  0  0
 14 38  1  0  0  0  0
 14 39  1  0  0  0  0
 15 16  1  0  0  0  0
 15 23  1  0  0  0  0
 15 57  1  0  0  0  0
 16 22  1  0  0  0  0
 16 17  1  0  0  0  0
 16 40  1  0  0  0  0
 17 18  1  0  0  0  0
 17 41  1  0  0  0  0
 17 42  1  0  0  0  0
 18 19  1  0  0  0  0
 18 43  1  0  0  0  0
 18 44  1  0  0  0  0
 19 20  1  0  0  0  0
 19 21  1  0  0  0  0
 20 45  1  0  0  0  0
 20 46  1  0  0  0  0
 20 47  1  0  0  0  0
 21 22  1  0  0  0  0
 21 48  1  0  0  0  0
 21 49  1  0  0  0  0
 22 50  1  0  0  0  0
 22 51  1  0  0  0  0
 23 24  1  0  0  0  0
 23 52  1  0  0  0  0
 23 53  1  0  0  0  0
 24 54  1  0  0  0  0
 24 55  1  0  0  0  0
 25 56  1  0  0  0  0
M  CHG  1  15   1
M  END
> <s_m_source_file>
AV-unprocessed.smi

> <i_m_source_file_index>
2279

> <i_lp_mmshare_version>
43012

> <i_f3d_flags>
0

> <s_epik_input>
W0NIM11jMVtjSF1jKFtDSDNdKW5jKFtjSF0xKVtOSF1DKD1PKVtOSF1bQ0hdMltDSDJdW0NIMl1OKFtDSDJdW0NIMl0yKVtDSF0zW0NIMl1bQ0gyXU4oW0NIM10pW0NIMl1bQ0gyXTM=

> <s_epik_cmdline>
J2VwaWtfcHl0aG9uJywgJy1waCcsICc3LjAnLCAnLXRuJywgJzgnLCAnLW1hJywgJzIwMCcsICctbWV0YWxfYmluZGluZycsICctaW1hZScsICc8aW5maWxlLm1hZT4nLCAnLW9tYWUnLCAnPG91dGZpbGUubWFlPic=

> <r_epik_Ionization_Penalty>
1.37263

> <r_epik_Ionization_Penalty_Charging>
0.00081195

> <r_epik_Ionization_Penalty_Neutral>
1.37182

> <r_epik_State_Penalty>
1.55149

> <r_epik_Charging_Adjusted_Penalty>
1.5523

> <i_epik_Tot_Q>
1

> <i_epik_Tot_abs_Q>
1

> <r_epik_Metal_State_Penalty>
1.5515

> <b_epik_Metal_Only>
0

> <s_lp_Force_Field>
OPLS_2005

> <r_lp_Energy>
32.7052

> <b_lp_Chiralities_Consistent>
1

> <s_lp_Variant>
AV-unprocessed.smi:2279-7

> <Gold.Version>
5.8.1

> <Gold.Id.Protein>
6NUR|6NUR_protein|mol2

> <Gold.PLP.Fitness>
52.7957

> <Gold.PLP.PLP>
-45.7139

> <Gold.PLP.part.hbond>
-3.8206

> <Gold.PLP.part.metal>
0.0000

> <Gold.PLP.part.buried>
-1.3165

> <Gold.PLP.part.nonpolar>
-39.6183

> <Gold.PLP.part.repulsive>
0.2525

> <Gold.PLP.ligand.clash>
0.0000

> <Gold.PLP.ligand.torsion>
0.2501

> <Gold.PLP.Chemscore.Hbond>
2.5114

> <Gold.PLP.Chemscore.CHOScore>
0.0000

> <Gold.PLP.Chemscore.Metal>
0.0000

> <Gold.Chemscore.Hbonds>
donor molecule, donor type, donor heavy atom, donor atom, acceptor molecule, acceptor atom, score
      L1  H     8    33       P1  7948  1.00
      L1  H    11    34       P1  7948  0.58
      P1  H 10752 10764       L1    10  0.92

> <Gold.PLP.Chemscore.Internal.Correction>
0.0477

> <Gold.Rescore>
     Score         DG    S(hbond)    S(metal)    S(lipo)     H(rot)  DE(clash)    DE(int)     intcor
     18.09     -21.22       1.42        0.00     120.16       1.19       0.37       2.77       ----

> <Gold.Chemscore.Fitness>
18.0868

> <Gold.Chemscore.DG>
-21.2226

> <Gold.Chemscore.ZeroCoef>
-5.4800

> <Gold.Chemscore.Hbond>
1.4171

> <Gold.Chemscore.Metal>
0.0000

> <Gold.Chemscore.Lipo>
120.1648

> <Gold.Chemscore.Internal_Hbond>
0.0000

> <Gold.Chemscore.DEClash>
0.3669

> <Gold.Chemscore.DEInternal>
2.7690

> <Gold.Chemscore.Rot>
1.1913

> <Gold.Chemscore.Internal.Correction>
   9.000000E+99

> <Gold.Chemscore.Hbonds>
donor molecule, donor type, donor heavy atom, donor atom, acceptor molecule, acceptor atom, score
      L1  H     8    33       P1  7948  0.24
      L1  H    11    34       P1  7948  0.38
      P1  H 10752 10764       L1    10  0.25

> <Gold.Chemscore.Hbond.Weighted>
-4.7330

> <Gold.Chemscore.Metal.Weighted>
-0.0000

> <Gold.Chemscore.Lipo.Weighted>
-14.0593

> <Gold.Chemscore.Internal_Hbond.Weighted>
0.0000

> <Gold.Chemscore.DEClash.Weighted>
0.3669

> <Gold.Chemscore.DEInternal.Weighted>
2.7690

> <Gold.Chemscore.Rot.Weighted>
3.0497

> <Gold.Chemscore.Internal.Correction.Weighted>
   9.000000E+99

> <Gold.Protein.RotatedTorsions>
[ 6907 6896 6895 6894 ] final   34.75 input  -60.11 | X-H torsion
[ 7974 7965 7964 7962 ] final  -21.34 input  175.53 | X-H torsion
[ 8008 7997 7996 7995 ] final  137.06 input   59.86 | X-H torsion
[ 10167 10162 10161 10158 ] final   67.68 input  -65.29 | X-H torsion
[ 10718 10713 10712 10709 ] final   23.07 input   66.30 | X-H torsion
[ 10763 10752 10751 10750 ] final  -36.33 input  -60.55 | X-H torsion
[ 11005 11000 10999 10996 ] final   84.54 input  -57.11 | X-H torsion

> <Gold.Protein.ActiveResidues>
 VAL166  LYS551  ARG553  GLY616  TRP617  ASP618  TYR619  PRO620  LYS621  CYS622 
 ASP623  PHE694  ASN695  SER759  ASP760  ASP761  ALA762  ILE779  LEU786  VAL792 
 PHE793  MET794  SER795  GLU796  ALA797  LYS798  CYS799  TRP800  GLU811  SER814 

> <Gold.Protein.RotatedAtoms>
  152.1067  134.9303  160.0567 H   0  0  0  0  0  0  0  0  0  0  0  0  # atno 6907 bound_to 6896
  152.0496  133.4008  159.4380 H   0  0  0  0  0  0  0  0  0  0  0  0  # atno 6908 bound_to 6896
  150.6841  134.3243  159.4843 H   0  0  0  0  0  0  0  0  0  0  0  0  # atno 6909 bound_to 6896
  146.1738  140.4327  142.8521 H   0  0  0  0  0  0  0  0  0  0  0  0  # atno 7974 bound_to 7965
  156.3003  140.2429  156.3847 H   0  0  0  0  0  0  0  0  0  0  0  0  # atno 8008 bound_to 7997
  154.8669  140.0417  157.1720 H   0  0  0  0  0  0  0  0  0  0  0  0  # atno 8009 bound_to 7997
  154.8837  140.2953  155.5414 H   0  0  0  0  0  0  0  0  0  0  0  0  # atno 8010 bound_to 7997
  140.0869  144.5022  150.7125 H   0  0  0  0  0  0  0  0  0  0  0  0  # atno 10167 bound_to 10162
  157.1611  130.6717  149.6044 H   0  0  0  0  0  0  0  0  0  0  0  0  # atno 10718 bound_to 10713
  153.8780  135.6824  153.4769 H   0  0  0  0  0  0  0  0  0  0  0  0  # atno 10763 bound_to 10752
  153.1249  135.4723  154.9254 H   0  0  0  0  0  0  0  0  0  0  0  0  # atno 10764 bound_to 10752
  154.7682  135.3230  154.8194 H   0  0  0  0  0  0  0  0  0  0  0  0  # atno 10765 bound_to 10752
  139.8997  134.8224  156.2459 H   0  0  0  0  0  0  0  0  0  0  0  0  # atno 11005 bound_to 11000
  144.8204  140.6540  143.6356 LP  0  0  0  0  0  0  0  0  0  0  0  0  # atno 17320 bound_to 7965
  145.4267  139.1555  143.4044 LP  0  0  0  0  0  0  0  0  0  0  0  0  # atno 17321 bound_to 7965
  140.7049  143.2461  151.4756 LP  0  0  0  0  0  0  0  0  0  0  0  0  # atno 17342 bound_to 10162
  139.5747  144.1846  152.1886 LP  0  0  0  0  0  0  0  0  0  0  0  0  # atno 17343 bound_to 10162
  155.9754  130.4711  150.6454 LP  0  0  0  0  0  0  0  0  0  0  0  0  # atno 17370 bound_to 10713
  157.4132  131.0826  151.1201 LP  0  0  0  0  0  0  0  0  0  0  0  0  # atno 17371 bound_to 10713
  141.0255  133.7018  156.1340 LP  0  0  0  0  0  0  0  0  0  0  0  0  # atno 17394 bound_to 11000
  140.7173  134.4397  157.5577 LP  0  0  0  0  0  0  0  0  0  0  0  0  # atno 17395 bound_to 11000

$$$$
