AV-unprocessed.smi:837|AV-procd|sdf|3892|dock1
  -GOLD-   22720 1353D 1   1.00000     0.00000
 Structure written by MMmdl.
 49 51  0  0  0  0  0  0  0  0  1 V2000
  152.7999  139.0150  158.4848 C   0  0  0  0  0  0  0  0  0  0  0  0
  152.3811  140.4263  158.0181 C   0  0  2  0  0  0  0  0  0  0  0  0
  151.9597  141.2814  159.2329 C   0  0  0  0  0  0  0  0  0  0  0  0
  151.5917  142.7175  158.8285 C   0  0  0  0  0  0  0  0  0  0  0  0
  150.4885  142.7310  157.7614 C   0  0  0  0  0  0  0  0  0  0  0  0
  150.9008  141.9003  156.5362 C   0  0  0  0  0  0  0  0  0  0  0  0
  151.2731  140.4477  156.9190 C   0  0  2  0  0  0  0  0  0  0  0  0
  150.0946  139.6922  157.3109 N   0  0  0  0  0  0  0  0  0  0  0  0
  149.8377  138.6636  156.4928 C   0  0  0  0  0  0  0  0  0  0  0  0
  148.9070  137.8702  156.6233 O   0  0  0  0  0  0  0  0  0  0  0  0
  150.7712  138.6506  155.5242 N   0  0  0  0  0  0  0  0  0  0  0  0
  150.8600  137.6390  154.4644 C   0  0  0  0  0  0  0  0  0  0  0  0
  150.7487  136.2091  155.0101 C   0  0  0  0  0  0  0  0  0  0  0  0
  151.5075  135.8144  155.8962 O   0  0  0  0  0  0  0  0  0  0  0  0
  149.7860  135.4451  154.4731 N   0  0  0  0  0  0  0  0  0  0  0  0
  149.5194  134.0537  154.8264 C   0  0  0  0  0  0  0  0  0  0  0  0
  148.3738  133.4286  154.0044 C   0  0  0  0  0  0  0  0  0  0  0  0
  148.4632  131.9167  153.8858 C   0  0  0  0  0  0  0  0  0  0  0  0
  149.5727  131.2139  154.3998 C   0  0  0  0  0  0  0  0  0  0  0  0
  149.6152  129.8141  154.2568 C   0  0  0  0  0  0  0  0  0  0  0  0
  148.5425  129.1742  153.6049 C   0  0  0  0  0  0  0  0  0  0  0  0
  147.4735  129.8361  153.1113 N   0  0  0  0  0  0  0  0  0  0  0  0
  147.4408  131.1788  153.2528 C   0  0  0  0  0  0  0  0  0  0  0  0
  151.6516  139.6490  155.6788 C   0  0  0  0  0  0  0  0  0  0  0  0
  152.6217  139.9019  154.9643 O   0  0  0  0  0  0  0  0  0  0  0  0
  151.9707  138.4836  158.9522 H   0  0  0  0  0  0  0  0  0  0  0  0
  153.6046  139.0722  159.2181 H   0  0  0  0  0  0  0  0  0  0  0  0
  153.1641  138.4023  157.6608 H   0  0  0  0  0  0  0  0  0  0  0  0
  153.2713  140.8930  157.5926 H   0  0  0  0  0  0  0  0  0  0  0  0
  151.1102  140.8177  159.7361 H   0  0  0  0  0  0  0  0  0  0  0  0
  152.7679  141.3109  159.9647 H   0  0  0  0  0  0  0  0  0  0  0  0
  151.2659  143.2779  159.7053 H   0  0  0  0  0  0  0  0  0  0  0  0
  152.4767  143.2281  158.4465 H   0  0  0  0  0  0  0  0  0  0  0  0
  149.5624  142.3380  158.1830 H   0  0  0  0  0  0  0  0  0  0  0  0
  150.2780  143.7572  157.4593 H   0  0  0  0  0  0  0  0  0  0  0  0
  150.0947  141.9102  155.8005 H   0  0  0  0  0  0  0  0  0  0  0  0
  151.7536  142.3833  156.0563 H   0  0  0  0  0  0  0  0  0  0  0  0
  149.5450  139.9216  158.1262 H   0  0  0  0  0  0  0  0  0  0  0  0
  150.0708  137.7894  153.7261 H   0  0  0  0  0  0  0  0  0  0  0  0
  151.8007  137.7572  153.9229 H   0  0  0  0  0  0  0  0  0  0  0  0
  149.2072  135.8502  153.7514 H   0  0  0  0  0  0  0  0  0  0  0  0
  150.4285  133.4591  154.7268 H   0  0  0  0  0  0  0  0  0  0  0  0
  149.2552  134.0363  155.8840 H   0  0  0  0  0  0  0  0  0  0  0  0
  147.4141  133.6911  154.4515 H   0  0  0  0  0  0  0  0  0  0  0  0
  148.3635  133.8601  153.0031 H   0  0  0  0  0  0  0  0  0  0  0  0
  150.3819  131.7367  154.8876 H   0  0  0  0  0  0  0  0  0  0  0  0
  150.4529  129.2462  154.6334 H   0  0  0  0  0  0  0  0  0  0  0  0
  148.5432  128.1020  153.4760 H   0  0  0  0  0  0  0  0  0  0  0  0
  146.5750  131.6796  152.8452 H   0  0  0  0  0  0  0  0  0  0  0  0
  1  2  1  0  0  0  0
  1 26  1  0  0  0  0
  1 27  1  0  0  0  0
  1 28  1  0  0  0  0
  2  7  1  0  0  0  0
  2  3  1  0  0  0  0
  2 29  1  0  0  0  0
  3  4  1  0  0  0  0
  3 30  1  0  0  0  0
  3 31  1  0  0  0  0
  4  5  1  0  0  0  0
  4 32  1  0  0  0  0
  4 33  1  0  0  0  0
  5  6  1  0  0  0  0
  5 34  1  0  0  0  0
  5 35  1  0  0  0  0
  6  7  1  0  0  0  0
  6 36  1  0  0  0  0
  6 37  1  0  0  0  0
  7 24  1  0  0  0  0
  7  8  1  0  0  0  0
  8  9  1  0  0  0  0
  8 38  1  0  0  0  0
  9 10  2  0  0  0  0
  9 11  1  0  0  0  0
 11 12  1  0  0  0  0
 11 24  1  0  0  0  0
 12 13  1  0  0  0  0
 12 39  1  0  0  0  0
 12 40  1  0  0  0  0
 13 14  2  0  0  0  0
 13 15  1  0  0  0  0
 15 16  1  0  0  0  0
 15 41  1  0  0  0  0
 16 17  1  0  0  0  0
 16 42  1  0  0  0  0
 16 43  1  0  0  0  0
 17 18  1  0  0  0  0
 17 44  1  0  0  0  0
 17 45  1  0  0  0  0
 18 23  1  0  0  0  0
 18 19  2  0  0  0  0
 19 20  1  0  0  0  0
 19 46  1  0  0  0  0
 20 21  2  0  0  0  0
 20 47  1  0  0  0  0
 21 22  1  0  0  0  0
 21 48  1  0  0  0  0
 22 23  2  0  0  0  0
 23 49  1  0  0  0  0
 24 25  2  0  0  0  0
M  END
> <s_m_source_file>
AV-unprocessed.smi

> <i_m_source_file_index>
837

> <i_lp_mmshare_version>
43012

> <i_f3d_flags>
0

> <s_epik_input>
W0NIMl0xW0NIMl1bQ0gyXVtDSDJdW0NAQEhdKFtDSDNdKVtDQEBdMTJbTkhdQyg9TylOKEMyPU8pW0NIMl1DKD1PKVtOSF1bQ0gyXVtDSDJdYzNbY0hdW2NIXVtjSF1uW2NIXTM=

> <s_epik_cmdline>
J2VwaWtfcHl0aG9uJywgJy1waCcsICc3LjAnLCAnLXRuJywgJzgnLCAnLW1hJywgJzIwMCcsICctbWV0YWxfYmluZGluZycsICctaW1hZScsICc8aW5maWxlLm1hZT4nLCAnLW9tYWUnLCAnPG91dGZpbGUubWFlPic=

> <r_lp_tautomer_probability>
1

> <r_epik_Ionization_Penalty>
0.0127837

> <r_epik_Ionization_Penalty_Charging>
0

> <r_epik_Ionization_Penalty_Neutral>
0.0127837

> <r_epik_State_Penalty>
0.00987657

> <r_epik_Charging_Adjusted_Penalty>
0.00987657

> <i_epik_Tot_Q>
0

> <i_epik_Tot_abs_Q>
0

> <r_epik_Metal_State_Penalty>
0.0309865

> <b_epik_Metal_Only>
0

> <s_lp_Force_Field>
OPLS_2005

> <r_lp_Energy>
21.3574

> <b_lp_Chiralities_Consistent>
1

> <s_lp_Variant>
AV-unprocessed.smi:837-1

> <Gold.Version>
5.8.1

> <Gold.Id.Protein>
6NUR|6NUR_protein|mol2

> <Gold.PLP.Fitness>
51.3749

> <Gold.PLP.PLP>
-41.5380

> <Gold.PLP.part.hbond>
-4.3238

> <Gold.PLP.part.metal>
0.0000

> <Gold.PLP.part.buried>
-2.6239

> <Gold.PLP.part.nonpolar>
-34.6283

> <Gold.PLP.part.repulsive>
0.2518

> <Gold.PLP.ligand.clash>
0.0000

> <Gold.PLP.ligand.torsion>
0.3022

> <Gold.PLP.Chemscore.Hbond>
3.4608

> <Gold.PLP.Chemscore.CHOScore>
0.0000

> <Gold.PLP.Chemscore.Metal>
0.0000

> <Gold.Chemscore.Hbonds>
donor molecule, donor type, donor heavy atom, donor atom, acceptor molecule, acceptor atom, score
      L1  H    15    41       P1  7948  0.93
      P1  H  7989  7998       L1    25  0.50
      P1  H  7997  8010       L1    25  0.86
      P1  H 10752 10763       L1    14  1.00

> <Gold.PLP.Chemscore.Internal.Correction>
0.0588

> <Gold.Rescore>
     Score         DG    S(hbond)    S(metal)    S(lipo)     H(rot)  DE(clash)    DE(int)     intcor
     18.34     -19.97       2.51        0.00      92.90       1.86       0.02       1.61       ----

> <Gold.Chemscore.Fitness>
18.3423

> <Gold.Chemscore.DG>
-19.9749

> <Gold.Chemscore.ZeroCoef>
-5.4800

> <Gold.Chemscore.Hbond>
2.5075

> <Gold.Chemscore.Metal>
0.0000

> <Gold.Chemscore.Lipo>
92.9025

> <Gold.Chemscore.Internal_Hbond>
0.0000

> <Gold.Chemscore.DEClash>
0.0235

> <Gold.Chemscore.DEInternal>
1.6091

> <Gold.Chemscore.Rot>
1.8553

> <Gold.Chemscore.Internal.Correction>
   9.000000E+99

> <Gold.Chemscore.Hbonds>
donor molecule, donor type, donor heavy atom, donor atom, acceptor molecule, acceptor atom, score
      L1  H    15    41       P1  7948  0.70
      P1  H  7989  7998       L1    25  0.11
      P1  H  7997  8010       L1    25  0.82
      P1  H 10752 10763       L1    14  0.45

> <Gold.Chemscore.Hbond.Weighted>
-8.3750

> <Gold.Chemscore.Metal.Weighted>
-0.0000

> <Gold.Chemscore.Lipo.Weighted>
-10.8696

> <Gold.Chemscore.Internal_Hbond.Weighted>
0.0000

> <Gold.Chemscore.DEClash.Weighted>
0.0235

> <Gold.Chemscore.DEInternal.Weighted>
1.6091

> <Gold.Chemscore.Rot.Weighted>
4.7497

> <Gold.Chemscore.Internal.Correction.Weighted>
   9.000000E+99

> <Gold.Protein.RotatedTorsions>
[ 6907 6896 6895 6894 ] final  -97.95 input  -60.11 | X-H torsion
[ 7974 7965 7964 7962 ] final   -0.67 input  175.53 | X-H torsion
[ 8008 7997 7996 7995 ] final  111.80 input   59.86 | X-H torsion
[ 10167 10162 10161 10158 ] final -173.92 input  -65.29 | X-H torsion
[ 10718 10713 10712 10709 ] final  -48.49 input   66.30 | X-H torsion
[ 10763 10752 10751 10750 ] final   86.12 input  -60.55 | X-H torsion
[ 11005 11000 10999 10996 ] final -122.57 input  -57.11 | X-H torsion

> <Gold.Protein.ActiveResidues>
 VAL166  LYS551  ARG553  GLY616  TRP617  ASP618  TYR619  PRO620  LYS621  CYS622 
 ASP623  PHE694  ASN695  SER759  ASP760  ASP761  ALA762  ILE779  LEU786  VAL792 
 PHE793  MET794  SER795  GLU796  ALA797  LYS798  CYS799  TRP800  GLU811  SER814 

> <Gold.Protein.RotatedAtoms>
  150.7032  134.1269  159.4055 H   0  0  0  0  0  0  0  0  0  0  0  0  # atno 6907 bound_to 6896
  151.9255  135.0277  160.0534 H   0  0  0  0  0  0  0  0  0  0  0  0  # atno 6908 bound_to 6896
  152.2220  133.4955  159.5204 H   0  0  0  0  0  0  0  0  0  0  0  0  # atno 6909 bound_to 6896
  146.2425  140.1305  142.8338 H   0  0  0  0  0  0  0  0  0  0  0  0  # atno 7974 bound_to 7965
  156.2149  140.3012  155.9816 H   0  0  0  0  0  0  0  0  0  0  0  0  # atno 8008 bound_to 7997
  155.2632  140.0430  157.3016 H   0  0  0  0  0  0  0  0  0  0  0  0  # atno 8009 bound_to 7997
  154.5752  140.2360  155.8141 H   0  0  0  0  0  0  0  0  0  0  0  0  # atno 8010 bound_to 7997
  139.5662  144.1751  152.1315 H   0  0  0  0  0  0  0  0  0  0  0  0  # atno 10167 bound_to 10162
  156.1982  130.4155  149.9276 H   0  0  0  0  0  0  0  0  0  0  0  0  # atno 10718 bound_to 10713
  153.1540  135.4592  154.9677 H   0  0  0  0  0  0  0  0  0  0  0  0  # atno 10763 bound_to 10752
  154.7847  135.3200  154.7916 H   0  0  0  0  0  0  0  0  0  0  0  0  # atno 10764 bound_to 10752
  153.8416  135.6929  153.4856 H   0  0  0  0  0  0  0  0  0  0  0  0  # atno 10765 bound_to 10752
  140.9985  134.0436  157.3567 H   0  0  0  0  0  0  0  0  0  0  0  0  # atno 11005 bound_to 11000
  145.0330  140.8886  143.5098 LP  0  0  0  0  0  0  0  0  0  0  0  0  # atno 17320 bound_to 7965
  145.1372  139.2595  143.5509 LP  0  0  0  0  0  0  0  0  0  0  0  0  # atno 17321 bound_to 7965
  140.1274  144.5319  150.6824 LP  0  0  0  0  0  0  0  0  0  0  0  0  # atno 17342 bound_to 10162
  140.6945  143.2395  151.5039 LP  0  0  0  0  0  0  0  0  0  0  0  0  # atno 17343 bound_to 10162
  156.6994  130.8927  151.3597 LP  0  0  0  0  0  0  0  0  0  0  0  0  # atno 17370 bound_to 10713
  157.6970  130.9293  150.0674 LP  0  0  0  0  0  0  0  0  0  0  0  0  # atno 17371 bound_to 10713
  139.9027  135.0170  156.7343 LP  0  0  0  0  0  0  0  0  0  0  0  0  # atno 17394 bound_to 11000
  140.6927  133.9376  155.7976 LP  0  0  0  0  0  0  0  0  0  0  0  0  # atno 17395 bound_to 11000

$$$$
