AV-unprocessed.smi:2663|AV-procd|sdf|10323|dock1
  -GOLD-   2272014333D 1   1.00000     0.00000
 Structure written by MMmdl.
 39 40  0  0  0  0  0  0  0  0  1 V2000
  149.4248  140.9509  156.2686 C   0  0  0  0  0  0  0  0  0  0  0  0
  150.7352  140.6040  157.0128 C   0  0  2  0  0  0  0  0  0  0  0  0
  151.8770  140.4490  155.9645 C   0  0  0  0  0  0  0  0  0  0  0  0
  151.4913  139.6577  154.8561 O   0  0  0  0  0  0  0  0  0  0  0  0
  150.4997  139.3144  157.6850 N   0  0  0  0  0  0  0  0  0  0  0  0
  149.3796  138.8724  158.2833 C   0  0  0  0  0  0  0  0  0  0  0  0
  148.3317  139.5145  158.3432 O   0  0  0  0  0  0  0  0  0  0  0  0
  149.5628  137.6451  158.7962 N   0  0  0  0  0  0  0  0  0  0  0  0
  148.6300  136.8481  159.5060 C   0  0  0  0  0  0  0  0  0  0  0  0
  147.9103  137.4326  160.4710 N   0  0  0  0  0  0  0  0  0  0  0  0
  147.0368  136.5409  161.0817 N   0  0  0  0  0  0  0  0  0  0  0  0
  147.1317  135.3175  160.5523 C   0  0  0  0  0  0  0  0  0  0  0  0
  148.2984  135.1314  159.2551 S   0  0  0  0  0  0  0  0  0  0  0  0
  151.0942  141.7109  158.0705 C   0  0  0  0  0  0  0  0  0  0  0  0
  151.2949  143.1278  157.4682 C   0  0  0  0  0  0  0  0  0  0  0  0
  151.5144  144.1871  158.5602 C   0  0  0  0  0  0  0  0  0  0  0  0
  152.7071  143.8257  159.4555 C   0  0  0  0  0  0  0  0  0  0  0  0
  152.5314  142.4272  160.0625 C   0  0  0  0  0  0  0  0  0  0  0  0
  152.3083  141.3667  158.9717 C   0  0  0  0  0  0  0  0  0  0  0  0
  149.5227  141.8587  155.6738 H   0  0  0  0  0  0  0  0  0  0  0  0
  148.5881  141.0908  156.9521 H   0  0  0  0  0  0  0  0  0  0  0  0
  149.1363  140.1553  155.5809 H   0  0  0  0  0  0  0  0  0  0  0  0
  152.1789  141.4193  155.5721 H   0  0  0  0  0  0  0  0  0  0  0  0
  152.7685  140.0074  156.4097 H   0  0  0  0  0  0  0  0  0  0  0  0
  150.9588  138.9424  155.1689 H   0  0  0  0  0  0  0  0  0  0  0  0
  151.2947  138.6929  157.7053 H   0  0  0  0  0  0  0  0  0  0  0  0
  150.4756  137.2338  158.6687 H   0  0  0  0  0  0  0  0  0  0  0  0
  146.5097  134.5190  160.9285 H   0  0  0  0  0  0  0  0  0  0  0  0
  150.2416  141.7875  158.7460 H   0  0  0  0  0  0  0  0  0  0  0  0
  152.1522  143.1352  156.7951 H   0  0  0  0  0  0  0  0  0  0  0  0
  150.4342  143.4278  156.8714 H   0  0  0  0  0  0  0  0  0  0  0  0
  151.6771  145.1633  158.1028 H   0  0  0  0  0  0  0  0  0  0  0  0
  150.6132  144.2772  159.1678 H   0  0  0  0  0  0  0  0  0  0  0  0
  153.6274  143.8590  158.8712 H   0  0  0  0  0  0  0  0  0  0  0  0
  152.8159  144.5653  160.2491 H   0  0  0  0  0  0  0  0  0  0  0  0
  153.4082  142.1690  160.6567 H   0  0  0  0  0  0  0  0  0  0  0  0
  151.6834  142.4295  160.7486 H   0  0  0  0  0  0  0  0  0  0  0  0
  152.1712  140.4034  159.4598 H   0  0  0  0  0  0  0  0  0  0  0  0
  153.2148  141.2847  158.3720 H   0  0  0  0  0  0  0  0  0  0  0  0
  1  2  1  0  0  0  0
  1 20  1  0  0  0  0
  1 21  1  0  0  0  0
  1 22  1  0  0  0  0
  2  3  1  0  0  0  0
  2  5  1  0  0  0  0
  2 14  1  0  0  0  0
  3  4  1  0  0  0  0
  3 23  1  0  0  0  0
  3 24  1  0  0  0  0
  4 25  1  0  0  0  0
  5  6  1  0  0  0  0
  5 26  1  0  0  0  0
  6  7  2  0  0  0  0
  6  8  1  0  0  0  0
  8  9  1  0  0  0  0
  8 27  1  0  0  0  0
  9 13  1  0  0  0  0
  9 10  2  0  0  0  0
 10 11  1  0  0  0  0
 11 12  2  0  0  0  0
 12 13  1  0  0  0  0
 12 28  1  0  0  0  0
 14 19  1  0  0  0  0
 14 15  1  0  0  0  0
 14 29  1  0  0  0  0
 15 16  1  0  0  0  0
 15 30  1  0  0  0  0
 15 31  1  0  0  0  0
 16 17  1  0  0  0  0
 16 32  1  0  0  0  0
 16 33  1  0  0  0  0
 17 18  1  0  0  0  0
 17 34  1  0  0  0  0
 17 35  1  0  0  0  0
 18 19  1  0  0  0  0
 18 36  1  0  0  0  0
 18 37  1  0  0  0  0
 19 38  1  0  0  0  0
 19 39  1  0  0  0  0
M  END
> <s_m_source_file>
AV-unprocessed.smi

> <i_m_source_file_index>
2663

> <i_lp_mmshare_version>
43012

> <i_f3d_flags>
0

> <s_epik_input>
W0NIMl0xW0NIMl1bQ0gyXVtDSDJdW0NIMl1bQ0hdMVtDQF0oW0NIM10pKFtDSDJdW09IXSlbTkhdQyg9TylbTkhdYzJubltjSF1zMg==

> <s_epik_cmdline>
J2VwaWtfcHl0aG9uJywgJy1waCcsICc3LjAnLCAnLXRuJywgJzgnLCAnLW1hJywgJzIwMCcsICctbWV0YWxfYmluZGluZycsICctaW1hZScsICc8aW5maWxlLm1hZT4nLCAnLW9tYWUnLCAnPG91dGZpbGUubWFlPic=

> <r_lp_tautomer_probability>
1

> <r_epik_Ionization_Penalty>
0.000410407

> <r_epik_Ionization_Penalty_Charging>
0

> <r_epik_Ionization_Penalty_Neutral>
0.000410407

> <r_epik_State_Penalty>
-0

> <r_epik_Charging_Adjusted_Penalty>
0

> <i_epik_Tot_Q>
0

> <i_epik_Tot_abs_Q>
0

> <r_epik_Metal_State_Penalty>
0.197604

> <b_epik_Metal_Only>
0

> <s_lp_Force_Field>
OPLS_2005

> <r_lp_Energy>
18.5807

> <b_lp_Chiralities_Consistent>
1

> <s_lp_Variant>
AV-unprocessed.smi:2663-2

> <Gold.Version>
5.8.1

> <Gold.Id.Protein>
6NUR|6NUR_protein|mol2

> <Gold.PLP.Fitness>
38.2502

> <Gold.PLP.PLP>
-32.9550

> <Gold.PLP.part.hbond>
-4.0000

> <Gold.PLP.part.metal>
0.0000

> <Gold.PLP.part.buried>
-4.3021

> <Gold.PLP.part.nonpolar>
-25.1209

> <Gold.PLP.part.repulsive>
0.2395

> <Gold.PLP.ligand.clash>
0.0042

> <Gold.PLP.ligand.torsion>
1.0049

> <Gold.PLP.Chemscore.Hbond>
2.4080

> <Gold.PLP.Chemscore.CHOScore>
0.0000

> <Gold.PLP.Chemscore.Metal>
0.0000

> <Gold.Chemscore.Hbonds>
donor molecule, donor type, donor heavy atom, donor atom, acceptor molecule, acceptor atom, score
      P1  H  6931  6943       L1    10  0.64
      P1  H  6934  6947       L1    10  0.75
      P1  H  7989  7998       L1     4  1.00

> <Gold.PLP.Chemscore.Internal.Correction>
0.0852

> <Gold.Rescore>
     Score         DG    S(hbond)    S(metal)    S(lipo)     H(rot)  DE(clash)    DE(int)     intcor
     13.85     -16.74       2.16        0.00      82.85       2.21       0.07       2.82       ----

> <Gold.Chemscore.Fitness>
13.8524

> <Gold.Chemscore.DG>
-16.7368

> <Gold.Chemscore.ZeroCoef>
-5.4800

> <Gold.Chemscore.Hbond>
2.1635

> <Gold.Chemscore.Metal>
0.0000

> <Gold.Chemscore.Lipo>
82.8498

> <Gold.Chemscore.Internal_Hbond>
0.0000

> <Gold.Chemscore.DEClash>
0.0650

> <Gold.Chemscore.DEInternal>
2.8194

> <Gold.Chemscore.Rot>
2.2120

> <Gold.Chemscore.Internal.Correction>
   9.000000E+99

> <Gold.Chemscore.Hbonds>
donor molecule, donor type, donor heavy atom, donor atom, acceptor molecule, acceptor atom, score
      P1  H  6931  6943       L1    10  0.35
      P1  H  6934  6947       L1    10  0.26
      P1  H  7989  7998       L1     4  0.30

> <Gold.Chemscore.Hbond.Weighted>
-7.2262

> <Gold.Chemscore.Metal.Weighted>
-0.0000

> <Gold.Chemscore.Lipo.Weighted>
-9.6934

> <Gold.Chemscore.Internal_Hbond.Weighted>
0.0000

> <Gold.Chemscore.DEClash.Weighted>
0.0650

> <Gold.Chemscore.DEInternal.Weighted>
2.8194

> <Gold.Chemscore.Rot.Weighted>
5.6627

> <Gold.Chemscore.Internal.Correction.Weighted>
   9.000000E+99

> <Gold.Protein.RotatedTorsions>
[ 6907 6896 6895 6894 ] final -144.70 input  -60.11 | X-H torsion
[ 7974 7965 7964 7962 ] final -167.45 input  175.53 | X-H torsion
[ 8008 7997 7996 7995 ] final   17.95 input   59.86 | X-H torsion
[ 10167 10162 10161 10158 ] final  115.93 input  -65.29 | X-H torsion
[ 10718 10713 10712 10709 ] final -120.21 input   66.30 | X-H torsion
[ 10763 10752 10751 10750 ] final   83.93 input  -60.55 | X-H torsion
[ 11005 11000 10999 10996 ] final  163.60 input  -57.11 | X-H torsion

> <Gold.Protein.ActiveResidues>
 VAL166  LYS551  ARG553  GLY616  TRP617  ASP618  TYR619  PRO620  LYS621  CYS622 
 ASP623  PHE694  ASN695  SER759  ASP760  ASP761  ALA762  ILE779  LEU786  VAL792 
 PHE793  MET794  SER795  GLU796  ALA797  LYS798  CYS799  TRP800  GLU811  SER814 

> <Gold.Protein.RotatedAtoms>
  151.1176  133.5127  159.2603 H   0  0  0  0  0  0  0  0  0  0  0  0  # atno 6907 bound_to 6896
  151.1897  135.0397  159.8837 H   0  0  0  0  0  0  0  0  0  0  0  0  # atno 6908 bound_to 6896
  152.5454  134.1018  159.8374 H   0  0  0  0  0  0  0  0  0  0  0  0  # atno 6909 bound_to 6896
  144.7223  140.2516  143.6277 H   0  0  0  0  0  0  0  0  0  0  0  0  # atno 7974 bound_to 7965
  154.8988  140.2997  155.5329 H   0  0  0  0  0  0  0  0  0  0  0  0  # atno 8008 bound_to 7997
  156.3019  140.2410  156.3948 H   0  0  0  0  0  0  0  0  0  0  0  0  # atno 8009 bound_to 7997
  154.8542  140.0408  157.1613 H   0  0  0  0  0  0  0  0  0  0  0  0  # atno 8010 bound_to 7997
  139.6283  144.7111  151.2487 H   0  0  0  0  0  0  0  0  0  0  0  0  # atno 10167 bound_to 10162
  156.1241  130.6345  150.9513 H   0  0  0  0  0  0  0  0  0  0  0  0  # atno 10718 bound_to 10713
  153.1336  135.4673  154.9387 H   0  0  0  0  0  0  0  0  0  0  0  0  # atno 10763 bound_to 10752
  154.7686  135.3152  154.8239 H   0  0  0  0  0  0  0  0  0  0  0  0  # atno 10764 bound_to 10752
  153.8776  135.6897  153.4823 H   0  0  0  0  0  0  0  0  0  0  0  0  # atno 10765 bound_to 10752
  140.2375  134.8077  157.3378 H   0  0  0  0  0  0  0  0  0  0  0  0  # atno 11005 bound_to 11000
  145.8222  139.2049  143.1931 LP  0  0  0  0  0  0  0  0  0  0  0  0  # atno 17320 bound_to 7965
  146.0504  140.8075  142.9784 LP  0  0  0  0  0  0  0  0  0  0  0  0  # atno 17321 bound_to 7965
  140.7424  143.6527  150.8234 LP  0  0  0  0  0  0  0  0  0  0  0  0  # atno 17342 bound_to 10162
  140.0149  143.5604  152.2824 LP  0  0  0  0  0  0  0  0  0  0  0  0  # atno 17343 bound_to 10162
  157.6423  131.0908  150.8225 LP  0  0  0  0  0  0  0  0  0  0  0  0  # atno 17370 bound_to 10713
  156.8318  130.5018  149.5330 LP  0  0  0  0  0  0  0  0  0  0  0  0  # atno 17371 bound_to 10713
  140.1687  134.4636  155.7845 LP  0  0  0  0  0  0  0  0  0  0  0  0  # atno 17394 bound_to 11000
  141.2213  133.6932  156.7671 LP  0  0  0  0  0  0  0  0  0  0  0  0  # atno 17395 bound_to 11000

$$$$
