AV-unprocessed.smi:2069|AV-procd|sdf|8437|dock3
  -GOLD-   2272011133D 1   1.00000     0.00000
 Structure written by MMmdl.
 38 39  0  0  0  0  0  0  0  0  3 V2000
  146.7709  134.2188  163.0535 C   0  0  0  0  0  0  0  0  0  0  0  0
  147.4359  134.3424  161.7257 C   0  0  0  0  0  0  0  0  0  0  0  0
  147.7320  135.5215  161.1734 N   0  0  0  0  0  0  0  0  0  0  0  0
  148.3442  135.3800  159.9363 N   0  0  0  0  0  0  0  0  0  0  0  0
  148.4906  134.1003  159.5652 C   0  0  0  0  0  0  0  0  0  0  0  0
  149.0603  133.7491  158.4004 N   0  5  0  0  0  0  0  0  0  0  0  0
  148.9137  134.5384  157.3126 C   0  0  0  0  0  0  0  0  0  0  0  0
  148.7836  135.7646  157.3082 O   0  0  0  0  0  0  0  0  0  0  0  0
  148.9158  133.8651  156.1551 N   0  0  0  0  0  0  0  0  0  0  0  0
  148.7754  134.4670  154.8342 C   0  0  0  0  0  0  0  0  0  0  0  0
  148.2589  133.4551  153.7777 C   0  0  2  0  0  0  0  0  0  0  0  0
  149.4464  132.6889  153.1467 C   0  0  0  0  0  0  0  0  0  0  0  0
  147.4150  134.0942  152.7132 N   0  3  0  0  0  0  0  0  0  0  0  0
  146.9459  133.1237  151.6853 C   0  0  0  0  0  0  0  0  0  0  0  0
  146.1314  133.8218  150.5840 C   0  0  0  0  0  0  0  0  0  0  0  0
  145.0274  134.4982  151.1646 O   0  0  0  0  0  0  0  0  0  0  0  0
  145.4576  135.5102  152.0612 C   0  0  0  0  0  0  0  0  0  0  0  0
  146.2556  134.8829  153.2169 C   0  0  0  0  0  0  0  0  0  0  0  0
  147.8898  132.9494  160.7588 S   0  0  0  0  0  0  0  0  0  0  0  0
  145.7020  134.4067  162.9529 H   0  0  0  0  0  0  0  0  0  0  0  0
  147.1909  134.9396  163.7553 H   0  0  0  0  0  0  0  0  0  0  0  0
  146.9141  133.2162  163.4568 H   0  0  0  0  0  0  0  0  0  0  0  0
  149.0255  132.8624  156.1987 H   0  0  0  0  0  0  0  0  0  0  0  0
  148.0797  135.2977  154.9547 H   0  0  0  0  0  0  0  0  0  0  0  0
  149.7349  134.8819  154.5205 H   0  0  0  0  0  0  0  0  0  0  0  0
  147.6313  132.7351  154.3061 H   0  0  0  0  0  0  0  0  0  0  0  0
  150.0864  132.2322  153.9013 H   0  0  0  0  0  0  0  0  0  0  0  0
  150.0712  133.3541  152.5500 H   0  0  0  0  0  0  0  0  0  0  0  0
  149.1261  131.8683  152.5076 H   0  0  0  0  0  0  0  0  0  0  0  0
  147.7823  132.6177  151.2081 H   0  0  0  0  0  0  0  0  0  0  0  0
  146.3370  132.3538  152.1617 H   0  0  0  0  0  0  0  0  0  0  0  0
  146.7523  134.5208  150.0211 H   0  0  0  0  0  0  0  0  0  0  0  0
  145.7568  133.0856  149.8727 H   0  0  0  0  0  0  0  0  0  0  0  0
  146.0573  136.2527  151.5319 H   0  0  0  0  0  0  0  0  0  0  0  0
  144.5821  136.0298  152.4505 H   0  0  0  0  0  0  0  0  0  0  0  0
  145.6081  134.2405  153.8159 H   0  0  0  0  0  0  0  0  0  0  0  0
  146.5876  135.7015  153.8538 H   0  0  0  0  0  0  0  0  0  0  0  0
  148.0133  134.7561  152.2398 H   0  0  0  0  0  0  0  0  0  0  0  0
  1  2  1  0  0  0  0
  1 20  1  0  0  0  0
  1 21  1  0  0  0  0
  1 22  1  0  0  0  0
  2 19  1  0  0  0  0
  2  3  2  0  0  0  0
  3  4  1  0  0  0  0
  4  5  2  0  0  0  0
  5  6  1  0  0  0  0
  5 19  1  0  0  0  0
  6  7  1  0  0  0  0
  7  8  2  0  0  0  0
  7  9  1  0  0  0  0
  9 10  1  0  0  0  0
  9 23  1  0  0  0  0
 10 11  1  0  0  0  0
 10 24  1  0  0  0  0
 10 25  1  0  0  0  0
 11 12  1  0  0  0  0
 11 13  1  0  0  0  0
 11 26  1  0  0  0  0
 12 27  1  0  0  0  0
 12 28  1  0  0  0  0
 12 29  1  0  0  0  0
 13 18  1  0  0  0  0
 13 14  1  0  0  0  0
 13 38  1  0  0  0  0
 14 15  1  0  0  0  0
 14 30  1  0  0  0  0
 14 31  1  0  0  0  0
 15 16  1  0  0  0  0
 15 32  1  0  0  0  0
 15 33  1  0  0  0  0
 16 17  1  0  0  0  0
 17 18  1  0  0  0  0
 17 34  1  0  0  0  0
 17 35  1  0  0  0  0
 18 36  1  0  0  0  0
 18 37  1  0  0  0  0
M  CHG  1   6  -1
M  CHG  1  13   1
M  END
> <s_m_source_file>
AV-unprocessed.smi

> <i_m_source_file_index>
2069

> <i_lp_mmshare_version>
43012

> <i_f3d_flags>
0

> <s_epik_input>
W0NIM11jMW5uYyhzMSlbTkhdQyg9TylbTkhdW0NIMl1bQ0BIXShbQ0gzXSlOMltDSDJdW0NIMl1PW0NIMl1bQ0gyXTI=

> <s_epik_cmdline>
J2VwaWtfcHl0aG9uJywgJy1waCcsICc3LjAnLCAnLXRuJywgJzgnLCAnLW1hJywgJzIwMCcsICctbWV0YWxfYmluZGluZycsICctaW1hZScsICc8aW5maWxlLm1hZT4nLCAnLW9tYWUnLCAnPG91dGZpbGUubWFlPic=

> <r_lp_tautomer_probability>
1

> <r_epik_Ionization_Penalty>
3.53072

> <r_epik_Ionization_Penalty_Charging>
3.4216

> <r_epik_Ionization_Penalty_Neutral>
0.109115

> <r_epik_State_Penalty>
3.61496

> <r_epik_Charging_Adjusted_Penalty>
7.03656

> <i_epik_Tot_Q>
0

> <i_epik_Tot_abs_Q>
2

> <r_epik_Metal_State_Penalty>
1.13918

> <b_epik_Metal_Only>
1

> <s_lp_Force_Field>
OPLS_2005

> <r_lp_Energy>
13.5119

> <b_lp_Chiralities_Consistent>
1

> <s_lp_Variant>
AV-unprocessed.smi:2069-7

> <Gold.Version>
5.8.1

> <Gold.Id.Protein>
6NUR|6NUR_protein|mol2

> <Gold.PLP.Fitness>
41.5658

> <Gold.PLP.PLP>
-26.1778

> <Gold.PLP.part.hbond>
-4.0000

> <Gold.PLP.part.metal>
0.0000

> <Gold.PLP.part.buried>
-3.3507

> <Gold.PLP.part.nonpolar>
-19.3679

> <Gold.PLP.part.repulsive>
0.1918

> <Gold.PLP.ligand.clash>
0.0000

> <Gold.PLP.ligand.torsion>
0.9556

> <Gold.PLP.Chemscore.Hbond>
5.7440

> <Gold.PLP.Chemscore.CHOScore>
0.0000

> <Gold.PLP.Chemscore.Metal>
0.0000

> <Gold.Chemscore.Hbonds>
donor molecule, donor type, donor heavy atom, donor atom, acceptor molecule, acceptor atom, score
      L1  H    13    38       P1  7948  2.00
      P1  H  6896  6909       L1     6  0.30

> <Gold.PLP.Chemscore.Internal.Correction>
0.0674

> <Gold.Rescore>
     Score         DG    S(hbond)    S(metal)    S(lipo)     H(rot)  DE(clash)    DE(int)     intcor
     13.44     -16.13       2.46        0.00      56.18       1.62       0.03       2.66       ----

> <Gold.Chemscore.Fitness>
13.4403

> <Gold.Chemscore.DG>
-16.1270

> <Gold.Chemscore.ZeroCoef>
-5.4800

> <Gold.Chemscore.Hbond>
2.4609

> <Gold.Chemscore.Metal>
0.0000

> <Gold.Chemscore.Lipo>
56.1771

> <Gold.Chemscore.Internal_Hbond>
0.0000

> <Gold.Chemscore.DEClash>
0.0301

> <Gold.Chemscore.DEInternal>
2.6566

> <Gold.Chemscore.Rot>
1.6192

> <Gold.Chemscore.Internal.Correction>
   9.000000E+99

> <Gold.Chemscore.Hbonds>
donor molecule, donor type, donor heavy atom, donor atom, acceptor molecule, acceptor atom, score
      L1  H    13    38       P1  7948  0.45

> <Gold.Chemscore.Hbond.Weighted>
-8.2196

> <Gold.Chemscore.Metal.Weighted>
-0.0000

> <Gold.Chemscore.Lipo.Weighted>
-6.5727

> <Gold.Chemscore.Internal_Hbond.Weighted>
0.0000

> <Gold.Chemscore.DEClash.Weighted>
0.0301

> <Gold.Chemscore.DEInternal.Weighted>
2.6566

> <Gold.Chemscore.Rot.Weighted>
4.1452

> <Gold.Chemscore.Internal.Correction.Weighted>
   9.000000E+99

> <Gold.Protein.RotatedTorsions>
[ 6907 6896 6895 6894 ] final   17.54 input  -60.11 | X-H torsion
[ 7974 7965 7964 7962 ] final   44.14 input  175.53 | X-H torsion
[ 8008 7997 7996 7995 ] final  165.78 input   59.86 | X-H torsion
[ 10167 10162 10161 10158 ] final  112.22 input  -65.29 | X-H torsion
[ 10718 10713 10712 10709 ] final -153.05 input   66.30 | X-H torsion
[ 10763 10752 10751 10750 ] final   19.44 input  -60.55 | X-H torsion
[ 11005 11000 10999 10996 ] final  -13.08 input  -57.11 | X-H torsion

> <Gold.Protein.ActiveResidues>
 VAL166  LYS551  ARG553  GLY616  TRP617  ASP618  TYR619  PRO620  LYS621  CYS622 
 ASP623  PHE694  ASN695  SER759  ASP760  ASP761  ALA762  ILE779  LEU786  VAL792 
 PHE793  MET794  SER795  GLU796  ALA797  LYS798  CYS799  TRP800  GLU811  SER814 

> <Gold.Protein.RotatedAtoms>
  151.8511  135.0557  160.0458 H   0  0  0  0  0  0  0  0  0  0  0  0  # atno 6907 bound_to 6896
  152.2735  133.5400  159.5462 H   0  0  0  0  0  0  0  0  0  0  0  0  # atno 6908 bound_to 6896
  150.7161  134.0580  159.3863 H   0  0  0  0  0  0  0  0  0  0  0  0  # atno 6909 bound_to 6896
  146.0595  139.5108  142.9667 H   0  0  0  0  0  0  0  0  0  0  0  0  # atno 7974 bound_to 7965
  156.1772  140.1661  156.8340 H   0  0  0  0  0  0  0  0  0  0  0  0  # atno 8008 bound_to 7997
  154.5320  140.0755  156.8395 H   0  0  0  0  0  0  0  0  0  0  0  0  # atno 8009 bound_to 7997
  155.3387  140.3383  155.4241 H   0  0  0  0  0  0  0  0  0  0  0  0  # atno 8010 bound_to 7997
  139.6552  144.7129  151.1971 H   0  0  0  0  0  0  0  0  0  0  0  0  # atno 10167 bound_to 10162
  156.4807  130.8301  151.2528 H   0  0  0  0  0  0  0  0  0  0  0  0  # atno 10718 bound_to 10713
  153.1162  135.6708  153.9414 H   0  0  0  0  0  0  0  0  0  0  0  0  # atno 10763 bound_to 10752
  153.8943  135.3043  155.3449 H   0  0  0  0  0  0  0  0  0  0  0  0  # atno 10764 bound_to 10752
  154.7578  135.5003  153.9485 H   0  0  0  0  0  0  0  0  0  0  0  0  # atno 10765 bound_to 10752
  140.7724  133.8427  155.9219 H   0  0  0  0  0  0  0  0  0  0  0  0  # atno 11005 bound_to 11000
  145.6586  141.0246  143.1721 LP  0  0  0  0  0  0  0  0  0  0  0  0  # atno 17320 bound_to 7965
  144.7166  139.8174  143.7396 LP  0  0  0  0  0  0  0  0  0  0  0  0  # atno 17321 bound_to 7965
  140.7556  143.6084  150.8630 LP  0  0  0  0  0  0  0  0  0  0  0  0  # atno 17342 bound_to 10162
  139.9736  143.6029  152.2965 LP  0  0  0  0  0  0  0  0  0  0  0  0  # atno 17343 bound_to 10162
  157.7483  131.0046  150.3082 LP  0  0  0  0  0  0  0  0  0  0  0  0  # atno 17370 bound_to 10713
  156.3525  130.3833  149.7317 LP  0  0  0  0  0  0  0  0  0  0  0  0  # atno 17371 bound_to 10713
  140.9561  134.1717  157.4691 LP  0  0  0  0  0  0  0  0  0  0  0  0  # atno 17394 bound_to 11000
  139.8754  134.9927  156.5610 LP  0  0  0  0  0  0  0  0  0  0  0  0  # atno 17395 bound_to 11000

$$$$
