#       Name:                AV-unprocessed.smi:704
#       Creating user name   scv26
#       Creation time:       Fri Mar 27 00:43:15 2020


#       File generated by GOLD software.
#

@<TRIPOS>MOLECULE
AV-unprocessed.smi:704
    45    46     1
SMALL
NO_CHARGES


@<TRIPOS>ATOM
      1 ****        -2.9901  -3.9182  -0.8556 C.3            1 S1                 0.0000
      2 ****        -2.3637  -2.6400  -0.8522 O.3            1 S1                 0.0000
      3 ****        -3.1637  -1.5133  -0.8568 C.ar           1 S1                 0.0000
      4 ****        -4.5106  -1.6780  -0.8653 N.ar           1 S1                 0.0000
      5 ****        -5.2924  -0.5789  -0.8724 C.ar           1 S1                 0.0000
      6 ****        -4.7798   0.7313  -0.8775 C.ar           1 S1                 0.0000
      7 ****        -3.3836   0.9047  -0.8688 C.ar           1 S1                 0.0000
      8 ****        -2.5497  -0.2392  -0.8467 C.ar           1 S1                 0.0000
      9 ****        -1.1295  -0.1752  -0.8602 N.am           1 S1                 0.0000
     10 ****        -0.3354   0.8210  -0.4341 C.2            1 S1                 0.0000
     11 ****        -0.7221   1.8672   0.0867 O.2            1 S1                 0.0000
     12 ****         0.9578   0.5210  -0.6184 N.am           1 S1                 0.0000
     13 ****         2.0813   1.3760  -0.2312 C.3            1 S1                 0.0000
     14 ****         3.3652   0.9872  -0.9884 C.3            1 S1                 0.0000
     15 ****         4.5176   1.0618   0.0220 C.3            1 S1                 0.0000
     16 ****         3.9299   1.6962   1.2857 C.3            1 S1                 0.0000
     17 ****         2.4359   1.3395   1.2792 C.3            1 S1                 0.0000
     18 ****         2.1867  -0.0151   1.9780 C.2            1 S1                 0.0000
     19 ****         1.3562  -0.0116   3.0237 N.am           1 S1                 0.0000
     20 ****         2.7247  -1.0470   1.5795 O.2            1 S1                 0.0000
     21 ****        -2.2250  -4.6940  -0.8397 H              1 S1                 0.0000
     22 ****        -3.5913  -4.0645  -1.7540 H              1 S1                 0.0000
     23 ****        -3.6198  -4.0573   0.0244 H              1 S1                 0.0000
     24 ****        -6.3588  -0.7491  -0.8809 H              1 S1                 0.0000
     25 ****        -5.4425   1.5837  -0.8937 H              1 S1                 0.0000
     26 ****        -2.9815   1.9057  -0.8950 H              1 S1                 0.0000
     27 ****        -0.6628  -1.0151  -1.1704 H              1 S1                 0.0000
     28 ****         1.1864  -0.3661  -1.0425 H              1 S1                 0.0000
     29 ****         1.8419   2.4079  -0.4964 H              1 S1                 0.0000
     30 ****         3.3033  -0.0222  -1.3983 H              1 S1                 0.0000
     31 ****         3.5322   1.6633  -1.8276 H              1 S1                 0.0000
     32 ****         4.8770   0.0565   0.2446 H              1 S1                 0.0000
     33 ****         5.3654   1.6308  -0.3604 H              1 S1                 0.0000
     34 ****         4.4494   1.3671   2.1869 H              1 S1                 0.0000
     35 ****         4.0390   2.7803   1.2329 H              1 S1                 0.0000
     36 ****         1.8690   2.1068   1.8094 H              1 S1                 0.0000
     37 ****         1.1641  -0.8708   3.5183 H              1 S1                 0.0000
     38 ****         0.9267   0.8530   3.3195 H              1 S1                 0.0000
     39 ****        -1.7837  -2.5934  -1.6654 LP             1 S1                 0.0000
     40 ****        -1.7928  -2.5933  -0.0324 LP             1 S1                 0.0000
     41 ****        -4.9142  -2.5929  -0.8662 LP             1 S1                 0.0000
     42 ****        -1.7000   2.0270   0.2215 LP             1 S1                 0.0000
     43 ****        -0.0583   2.5573   0.3751 LP             1 S1                 0.0000
     44 ****         3.3366  -1.0187   0.7891 LP             1 S1                 0.0000
     45 ****         2.5502  -1.9141   2.0460 LP             1 S1                 0.0000
@<TRIPOS>BOND
    1    1    2 1     
    2    1   21 1     
    3    1   22 1     
    4    1   23 1     
    5    2    3 1     
    6    3    8 ar    
    7    3    4 ar    
    8    4    5 ar    
    9    5    6 ar    
   10    5   24 1     
   11    6    7 ar    
   12    6   25 1     
   13    7    8 ar    
   14    7   26 1     
   15    8    9 1     
   16    9   10 am    
   17    9   27 1     
   18   10   11 2     
   19   10   12 am    
   20   12   13 1     
   21   12   28 1     
   22   13   17 1     
   23   13   14 1     
   24   13   29 1     
   25   14   15 1     
   26   14   30 1     
   27   14   31 1     
   28   15   16 1     
   29   15   32 1     
   30   15   33 1     
   31   16   17 1     
   32   16   34 1     
   33   16   35 1     
   34   17   18 1     
   35   17   36 1     
   36   18   19 am    
   37   18   20 2     
   38   19   37 1     
   39   19   38 1     
   40    2   39 1     
   41    2   40 1     
   42    4   41 1     
   43   11   42 1     
   44   11   43 1     
   45   20   44 1     
   46   20   45 1     
@<TRIPOS>SUBSTRUCTURE
      1 S1             1
@<TRIPOS>SET
LONE_PAIRS      STATIC     ATOMS    <user>   **** ""
7 39 40 41 42 43 44 45
DONOR_HYDROGENS      STATIC     ATOMS    <user>   **** ""
4 27 28 37 38
ATOM$BLUE        STATIC     ATOMS    COLORGROUP SYSTEM
7 39 40 41 42 43 44 45
ATOM$RED        STATIC     ATOMS    COLORGROUP SYSTEM
4 27 28 37 38
