AV-unprocessed.smi:1178|AV-procd|sdf|4957|dock1
  -GOLD-   22720 3543D 1   1.00000     0.00000
 Structure written by MMmdl.
 32 33  0  0  0  0  0  0  0  0  2 V2000
  153.4705  138.7114  155.5482 O   0  0  0  0  0  0  0  0  0  0  0  0
  152.2604  138.4884  155.5707 C   0  0  0  0  0  0  0  0  0  0  0  0
  151.7409  137.1290  155.0705 C   0  0  0  0  0  0  0  0  0  0  0  0
  151.1978  136.2455  156.1189 N   0  0  0  0  0  0  0  0  0  0  0  0
  149.9437  135.6540  155.8850 C   0  0  0  0  0  0  0  0  0  0  0  0
  149.3688  134.8288  156.7805 C   0  0  0  0  0  0  0  0  0  0  0  0
  150.0819  134.5525  158.0214 C   0  0  0  0  0  0  0  0  0  0  0  0
  149.5724  133.8011  158.8503 O   0  0  0  0  0  0  0  0  0  0  0  0
  151.2965  135.1492  158.2016 N   0  5  0  0  0  0  0  0  0  0  0  0
  151.8694  135.9856  157.2817 C   0  0  0  0  0  0  0  0  0  0  0  0
  152.9705  136.5064  157.4605 O   0  0  0  0  0  0  0  0  0  0  0  0
  151.3677  139.3846  156.0206 N   0  0  0  0  0  0  0  0  0  0  0  0
  151.7015  140.7110  156.5147 C   0  0  0  0  0  0  0  0  0  0  0  0
  150.9178  141.0180  157.8007 C   0  0  0  0  0  0  0  0  0  0  0  0
  151.7503  141.7385  158.7723 N   0  0  0  0  0  0  0  0  0  0  0  0
  151.4484  142.9805  159.2160 C   0  0  0  0  0  0  0  0  0  0  0  0
  150.4611  143.6300  158.8725 O   0  0  0  0  0  0  0  0  0  0  0  0
  152.4598  143.5618  160.2113 C   0  0  0  0  0  0  0  0  0  0  0  0
  153.7166  142.2927  160.3863 S   0  0  0  0  0  0  0  0  0  0  0  0
  152.8944  141.2378  159.2686 C   0  0  0  0  0  0  0  0  0  0  0  0
  153.3606  140.1361  158.9797 O   0  0  0  0  0  0  0  0  0  0  0  0
  150.9876  137.3087  154.3017 H   0  0  0  0  0  0  0  0  0  0  0  0
  152.5580  136.6283  154.5494 H   0  0  0  0  0  0  0  0  0  0  0  0
  149.4854  135.9067  154.9401 H   0  0  0  0  0  0  0  0  0  0  0  0
  148.4057  134.3814  156.5847 H   0  0  0  0  0  0  0  0  0  0  0  0
  150.3901  139.1308  156.0007 H   0  0  0  0  0  0  0  0  0  0  0  0
  152.7750  140.7648  156.7025 H   0  0  0  0  0  0  0  0  0  0  0  0
  151.4685  141.4508  155.7470 H   0  0  0  0  0  0  0  0  0  0  0  0
  150.0281  141.6037  157.5621 H   0  0  0  0  0  0  0  0  0  0  0  0
  150.5415  140.0908  158.2369 H   0  0  0  0  0  0  0  0  0  0  0  0
  152.8962  144.4828  159.8241 H   0  0  0  0  0  0  0  0  0  0  0  0
  151.9843  143.7670  161.1707 H   0  0  0  0  0  0  0  0  0  0  0  0
  1  2  2  0  0  0  0
  2  3  1  0  0  0  0
  2 12  1  0  0  0  0
  3  4  1  0  0  0  0
  3 22  1  0  0  0  0
  3 23  1  0  0  0  0
  4 10  1  0  0  0  0
  4  5  1  0  0  0  0
  5  6  2  0  0  0  0
  5 24  1  0  0  0  0
  6  7  1  0  0  0  0
  6 25  1  0  0  0  0
  7  8  2  0  0  0  0
  7  9  1  0  0  0  0
  9 10  1  0  0  0  0
 10 11  2  0  0  0  0
 12 13  1  0  0  0  0
 12 26  1  0  0  0  0
 13 14  1  0  0  0  0
 13 27  1  0  0  0  0
 13 28  1  0  0  0  0
 14 15  1  0  0  0  0
 14 29  1  0  0  0  0
 14 30  1  0  0  0  0
 15 20  1  0  0  0  0
 15 16  1  0  0  0  0
 16 17  2  0  0  0  0
 16 18  1  0  0  0  0
 18 19  1  0  0  0  0
 18 31  1  0  0  0  0
 18 32  1  0  0  0  0
 19 20  1  0  0  0  0
 20 21  2  0  0  0  0
M  CHG  1   9  -1
M  END
> <s_m_source_file>
AV-unprocessed.smi

> <i_m_source_file_index>
1178

> <i_lp_mmshare_version>
43012

> <i_f3d_flags>
0

> <s_epik_input>
Tz1jMVtuSF1jKD1PKVtjSF1bY0hdbjFbQ0gyXUMoPU8pW05IXVtDSDJdW0NIMl1OMkMoPU8pW0NIMl1TQzI9Tw==

> <s_epik_cmdline>
J2VwaWtfcHl0aG9uJywgJy1waCcsICc3LjAnLCAnLXRuJywgJzgnLCAnLW1hJywgJzIwMCcsICctbWV0YWxfYmluZGluZycsICctaW1hZScsICc8aW5maWxlLm1hZT4nLCAnLW9tYWUnLCAnPG91dGZpbGUubWFlPic=

> <r_lp_tautomer_probability>
0.999537

> <r_epik_Ionization_Penalty>
3.05962

> <r_epik_Ionization_Penalty_Charging>
2.46074e-08

> <r_epik_Ionization_Penalty_Neutral>
3.05962

> <r_epik_State_Penalty>
3.05863

> <r_epik_Charging_Adjusted_Penalty>
3.05863

> <i_epik_Tot_Q>
-1

> <i_epik_Tot_abs_Q>
1

> <r_epik_Metal_State_Penalty>
0.458209

> <b_epik_Metal_Only>
1

> <s_lp_Force_Field>
OPLS_2005

> <r_lp_Energy>
17.4268

> <b_lp_Chiralities_Consistent>
1

> <s_lp_Variant>
AV-unprocessed.smi:1178-2

> <Gold.Version>
5.8.1

> <Gold.Id.Protein>
6NUR|6NUR_protein|mol2

> <Gold.PLP.Fitness>
47.8568

> <Gold.PLP.PLP>
-35.1932

> <Gold.PLP.part.hbond>
-5.0330

> <Gold.PLP.part.metal>
0.0000

> <Gold.PLP.part.buried>
-4.6689

> <Gold.PLP.part.nonpolar>
-25.8081

> <Gold.PLP.part.repulsive>
0.1752

> <Gold.PLP.ligand.clash>
0.0000

> <Gold.PLP.ligand.torsion>
0.5766

> <Gold.PLP.Chemscore.Hbond>
3.5673

> <Gold.PLP.Chemscore.CHOScore>
1.0000

> <Gold.PLP.Chemscore.Metal>
0.0000

> <Gold.Chemscore.Hbonds>
donor molecule, donor type, donor heavy atom, donor atom, acceptor molecule, acceptor atom, score
      P1  H  6896  6907       L1     8  0.02
      P1  H  7997  8008       L1    21  0.14
      P1  H  7997  8009       L1     1  0.59

> <Gold.PLP.Chemscore.Internal.Correction>
0.1150

> <Gold.Rescore>
     Score         DG    S(hbond)    S(metal)    S(lipo)     H(rot)  DE(clash)    DE(int)     intcor
      7.91     -11.64       2.28        0.00      51.15       2.91       0.14       3.59       ----

> <Gold.Chemscore.Fitness>
7.9056

> <Gold.Chemscore.DG>
-11.6397

> <Gold.Chemscore.ZeroCoef>
-5.4800

> <Gold.Chemscore.Hbond>
2.2823

> <Gold.Chemscore.Metal>
0.0000

> <Gold.Chemscore.Lipo>
51.1481

> <Gold.Chemscore.Internal_Hbond>
0.0000

> <Gold.Chemscore.DEClash>
0.1435

> <Gold.Chemscore.DEInternal>
3.5906

> <Gold.Chemscore.Rot>
2.9092

> <Gold.Chemscore.Internal.Correction>
   9.000000E+99

> <Gold.Chemscore.Hbonds>
donor molecule, donor type, donor heavy atom, donor atom, acceptor molecule, acceptor atom, score
      P1  H  7997  8008       L1    21  0.14
      P1  H  7997  8009       L1     1  0.58

> <Gold.Chemscore.Hbond.Weighted>
-7.6228

> <Gold.Chemscore.Metal.Weighted>
-0.0000

> <Gold.Chemscore.Lipo.Weighted>
-5.9843

> <Gold.Chemscore.Internal_Hbond.Weighted>
0.0000

> <Gold.Chemscore.DEClash.Weighted>
0.1435

> <Gold.Chemscore.DEInternal.Weighted>
3.5906

> <Gold.Chemscore.Rot.Weighted>
7.4474

> <Gold.Chemscore.Internal.Correction.Weighted>
   9.000000E+99

> <Gold.Protein.RotatedTorsions>
[ 6907 6896 6895 6894 ] final -120.68 input  -60.11 | X-H torsion
[ 7974 7965 7964 7962 ] final  -76.26 input  175.53 | X-H torsion
[ 8008 7997 7996 7995 ] final -116.57 input   59.86 | X-H torsion
[ 10167 10162 10161 10158 ] final -133.04 input  -65.29 | X-H torsion
[ 10718 10713 10712 10709 ] final  -86.17 input   66.30 | X-H torsion
[ 10763 10752 10751 10750 ] final    8.95 input  -60.55 | X-H torsion
[ 11005 11000 10999 10996 ] final   40.62 input  -57.11 | X-H torsion

> <Gold.Protein.ActiveResidues>
 VAL166  LYS551  ARG553  GLY616  TRP617  ASP618  TYR619  PRO620  LYS621  CYS622 
 ASP623  PHE694  ASN695  SER759  ASP760  ASP761  ALA762  ILE779  LEU786  VAL792 
 PHE793  MET794  SER795  GLU796  ALA797  LYS798  CYS799  TRP800  GLU811  SER814 

> <Gold.Protein.RotatedAtoms>
  150.8415  133.7929  159.3058 H   0  0  0  0  0  0  0  0  0  0  0  0  # atno 6907 bound_to 6896
  151.5629  135.1063  159.9986 H   0  0  0  0  0  0  0  0  0  0  0  0  # atno 6908 bound_to 6896
  152.4478  133.7527  159.6759 H   0  0  0  0  0  0  0  0  0  0  0  0  # atno 6909 bound_to 6896
  145.6152  140.9377  143.1168 H   0  0  0  0  0  0  0  0  0  0  0  0  # atno 7974 bound_to 7965
  155.0699  140.0393  157.2605 H   0  0  0  0  0  0  0  0  0  0  0  0  # atno 8008 bound_to 7997
  154.6991  140.2669  155.6713 H   0  0  0  0  0  0  0  0  0  0  0  0  # atno 8009 bound_to 7997
  156.2754  140.2744  156.1595 H   0  0  0  0  0  0  0  0  0  0  0  0  # atno 8010 bound_to 7997
  139.9023  143.6592  152.2592 H   0  0  0  0  0  0  0  0  0  0  0  0  # atno 10167 bound_to 10162
  155.9991  130.4756  150.4674 H   0  0  0  0  0  0  0  0  0  0  0  0  # atno 10718 bound_to 10713
  153.2194  135.6879  153.8018 H   0  0  0  0  0  0  0  0  0  0  0  0  # atno 10763 bound_to 10752
  153.7223  135.3265  155.3270 H   0  0  0  0  0  0  0  0  0  0  0  0  # atno 10764 bound_to 10752
  154.8262  135.4616  154.1035 H   0  0  0  0  0  0  0  0  0  0  0  0  # atno 10765 bound_to 10752
  140.1913  134.3983  155.8145 H   0  0  0  0  0  0  0  0  0  0  0  0  # atno 11005 bound_to 11000
  144.7253  139.7895  143.7367 LP  0  0  0  0  0  0  0  0  0  0  0  0  # atno 17320 bound_to 7965
  146.1473  139.4546  143.0071 LP  0  0  0  0  0  0  0  0  0  0  0  0  # atno 17321 bound_to 7965
  139.7014  144.7634  151.1267 LP  0  0  0  0  0  0  0  0  0  0  0  0  # atno 17342 bound_to 10162
  140.7704  143.5453  150.9266 LP  0  0  0  0  0  0  0  0  0  0  0  0  # atno 17343 bound_to 10162
  157.2692  131.0583  151.2270 LP  0  0  0  0  0  0  0  0  0  0  0  0  # atno 17370 bound_to 10713
  157.3357  130.7007  149.6351 LP  0  0  0  0  0  0  0  0  0  0  0  0  # atno 17371 bound_to 10713
  141.2226  133.7048  156.8101 LP  0  0  0  0  0  0  0  0  0  0  0  0  # atno 17394 bound_to 11000
  140.2156  134.8795  157.3322 LP  0  0  0  0  0  0  0  0  0  0  0  0  # atno 17395 bound_to 11000

$$$$
