AV-unprocessed.smi:1246|AV-procd|sdf|5241|dock10
  -GOLD-   22720 4353D 1   1.00000     0.00000
 Structure written by MMmdl.
 35 36  0  0  0  0  0  0  0  0  1 V2000
  146.0642  129.6461  151.8392 C   0  0  0  0  0  0  0  0  0  0  0  0
  146.7015  131.0017  151.9230 C   0  0  0  0  0  0  0  0  0  0  0  0
  147.3071  131.6184  153.0564 C   0  0  0  0  0  0  0  0  0  0  0  0
  147.7105  132.8281  152.5605 C   0  0  0  0  0  0  0  0  0  0  0  0
  148.3478  133.8452  153.1991 N   0  0  0  0  0  0  0  0  0  0  0  0
  148.7504  133.9129  154.4800 C   0  0  0  0  0  0  0  0  0  0  0  0
  148.6095  133.0257  155.3220 O   0  0  0  0  0  0  0  0  0  0  0  0
  149.3425  135.0874  154.7377 N   0  0  0  0  0  0  0  0  0  0  0  0
  149.9117  135.4745  156.0232 C   0  0  0  0  0  0  0  0  0  0  0  0
  150.0740  136.9995  156.1330 C   0  0  2  0  0  0  0  0  0  0  0  0
  150.5814  137.6580  154.8536 C   0  0  0  0  0  0  0  0  0  0  0  0
  151.1348  138.9609  155.3859 C   0  0  0  0  0  0  0  0  0  0  0  0
  151.7182  138.5447  156.7360 C   0  0  0  0  0  0  0  0  0  0  0  0
  151.0607  137.3336  157.1035 O   0  0  0  0  0  0  0  0  0  0  0  0
  147.3607  132.9032  151.2308 N   0  0  0  0  0  0  0  0  0  0  0  0
  147.5709  133.9802  150.2831 C   0  0  0  0  0  0  0  0  0  0  0  0
  146.7366  131.7709  150.8407 N   0  0  0  0  0  0  0  0  0  0  0  0
  146.1002  129.1335  152.8006 H   0  0  0  0  0  0  0  0  0  0  0  0
  146.5741  129.0175  151.1089 H   0  0  0  0  0  0  0  0  0  0  0  0
  145.0178  129.7216  151.5428 H   0  0  0  0  0  0  0  0  0  0  0  0
  147.4146  131.2227  154.0550 H   0  0  0  0  0  0  0  0  0  0  0  0
  148.5474  134.6531  152.6279 H   0  0  0  0  0  0  0  0  0  0  0  0
  149.4210  135.7579  153.9874 H   0  0  0  0  0  0  0  0  0  0  0  0
  149.2559  135.1091  156.8138 H   0  0  0  0  0  0  0  0  0  0  0  0
  150.8742  134.9805  156.1661 H   0  0  0  0  0  0  0  0  0  0  0  0
  149.1320  137.4677  156.4247 H   0  0  0  0  0  0  0  0  0  0  0  0
  151.3817  137.0663  154.4067 H   0  0  0  0  0  0  0  0  0  0  0  0
  149.7990  137.7985  154.1074 H   0  0  0  0  0  0  0  0  0  0  0  0
  151.8726  139.4158  154.7246 H   0  0  0  0  0  0  0  0  0  0  0  0
  150.3234  139.6749  155.5333 H   0  0  0  0  0  0  0  0  0  0  0  0
  152.7877  138.3482  156.6537 H   0  0  0  0  0  0  0  0  0  0  0  0
  151.5731  139.3149  157.4939 H   0  0  0  0  0  0  0  0  0  0  0  0
  148.6268  134.2493  150.2614 H   0  0  0  0  0  0  0  0  0  0  0  0
  146.9871  134.8500  150.5844 H   0  0  0  0  0  0  0  0  0  0  0  0
  147.2636  133.6767  149.2814 H   0  0  0  0  0  0  0  0  0  0  0  0
  1  2  1  0  0  0  0
  1 18  1  0  0  0  0
  1 19  1  0  0  0  0
  1 20  1  0  0  0  0
  2 17  2  0  0  0  0
  2  3  1  0  0  0  0
  3  4  2  0  0  0  0
  3 21  1  0  0  0  0
  4  5  1  0  0  0  0
  4 15  1  0  0  0  0
  5  6  1  0  0  0  0
  5 22  1  0  0  0  0
  6  7  2  0  0  0  0
  6  8  1  0  0  0  0
  8  9  1  0  0  0  0
  8 23  1  0  0  0  0
  9 10  1  0  0  0  0
  9 24  1  0  0  0  0
  9 25  1  0  0  0  0
 10 14  1  0  0  0  0
 10 11  1  0  0  0  0
 10 26  1  0  0  0  0
 11 12  1  0  0  0  0
 11 27  1  0  0  0  0
 11 28  1  0  0  0  0
 12 13  1  0  0  0  0
 12 29  1  0  0  0  0
 12 30  1  0  0  0  0
 13 14  1  0  0  0  0
 13 31  1  0  0  0  0
 13 32  1  0  0  0  0
 15 16  1  0  0  0  0
 15 17  1  0  0  0  0
 16 33  1  0  0  0  0
 16 34  1  0  0  0  0
 16 35  1  0  0  0  0
M  END
> <s_m_source_file>
AV-unprocessed.smi

> <i_m_source_file_index>
1246

> <i_lp_mmshare_version>
43012

> <i_f3d_flags>
0

> <s_epik_input>
W0NIM11jMVtjSF1jKG4objEpW0NIM10pW05IXUMoPU8pW05IXVtDSDJdW0NAQEhdMltDSDJdW0NIMl1bQ0gyXU8y

> <s_epik_cmdline>
J2VwaWtfcHl0aG9uJywgJy1waCcsICc3LjAnLCAnLXRuJywgJzgnLCAnLW1hJywgJzIwMCcsICctbWV0YWxfYmluZGluZycsICctaW1hZScsICc8aW5maWxlLm1hZT4nLCAnLW9tYWUnLCAnPG91dGZpbGUubWFlPic=

> <r_lp_tautomer_probability>
1

> <r_epik_Ionization_Penalty>
9.6187e-05

> <r_epik_Ionization_Penalty_Charging>
0

> <r_epik_Ionization_Penalty_Neutral>
9.6187e-05

> <r_epik_State_Penalty>
-0

> <r_epik_Charging_Adjusted_Penalty>
0

> <i_epik_Tot_Q>
0

> <i_epik_Tot_abs_Q>
0

> <r_epik_Metal_State_Penalty>
-0

> <b_epik_Metal_Only>
0

> <s_lp_Force_Field>
OPLS_2005

> <r_lp_Energy>
17.9178

> <b_lp_Chiralities_Consistent>
1

> <s_lp_Variant>
AV-unprocessed.smi:1246-1

> <Gold.Version>
5.8.1

> <Gold.Id.Protein>
6NUR|6NUR_protein|mol2

> <Gold.PLP.Fitness>
39.0291

> <Gold.PLP.PLP>
-31.3674

> <Gold.PLP.part.hbond>
-3.0000

> <Gold.PLP.part.metal>
0.0000

> <Gold.PLP.part.buried>
-4.0522

> <Gold.PLP.part.nonpolar>
-24.5721

> <Gold.PLP.part.repulsive>
0.1918

> <Gold.PLP.ligand.clash>
0.0000

> <Gold.PLP.ligand.torsion>
0.3348

> <Gold.PLP.Chemscore.Hbond>
2.7760

> <Gold.PLP.Chemscore.CHOScore>
0.0000

> <Gold.PLP.Chemscore.Metal>
0.0000

> <Gold.Chemscore.Hbonds>
donor molecule, donor type, donor heavy atom, donor atom, acceptor molecule, acceptor atom, score
      L1  H     5    22       P1  7948  0.80
      L1  H     8    23       P1  7948  0.54

> <Gold.PLP.Chemscore.Internal.Correction>
0.0034

> <Gold.Rescore>
     Score         DG    S(hbond)    S(metal)    S(lipo)     H(rot)  DE(clash)    DE(int)     intcor
     13.70     -15.30       1.77        0.00      60.75       1.25       0.03       1.57       ----

> <Gold.Chemscore.Fitness>
13.6993

> <Gold.Chemscore.DG>
-15.3045

> <Gold.Chemscore.ZeroCoef>
-5.4800

> <Gold.Chemscore.Hbond>
1.7697

> <Gold.Chemscore.Metal>
0.0000

> <Gold.Chemscore.Lipo>
60.7536

> <Gold.Chemscore.Internal_Hbond>
0.0000

> <Gold.Chemscore.DEClash>
0.0303

> <Gold.Chemscore.DEInternal>
1.5748

> <Gold.Chemscore.Rot>
1.2478

> <Gold.Chemscore.Internal.Correction>
   9.000000E+99

> <Gold.Chemscore.Hbonds>
donor molecule, donor type, donor heavy atom, donor atom, acceptor molecule, acceptor atom, score
      L1  H     5    22       P1  7948  0.12
      L1  H     8    23       P1  7948  0.29

> <Gold.Chemscore.Hbond.Weighted>
-5.9107

> <Gold.Chemscore.Metal.Weighted>
-0.0000

> <Gold.Chemscore.Lipo.Weighted>
-7.1082

> <Gold.Chemscore.Internal_Hbond.Weighted>
0.0000

> <Gold.Chemscore.DEClash.Weighted>
0.0303

> <Gold.Chemscore.DEInternal.Weighted>
1.5748

> <Gold.Chemscore.Rot.Weighted>
3.1944

> <Gold.Chemscore.Internal.Correction.Weighted>
   9.000000E+99

> <Gold.Protein.RotatedTorsions>
[ 6907 6896 6895 6894 ] final  129.94 input  -60.11 | X-H torsion
[ 7974 7965 7964 7962 ] final -119.98 input  175.53 | X-H torsion
[ 8008 7997 7996 7995 ] final   36.85 input   59.86 | X-H torsion
[ 10167 10162 10161 10158 ] final  -89.89 input  -65.29 | X-H torsion
[ 10718 10713 10712 10709 ] final  -34.26 input   66.30 | X-H torsion
[ 10763 10752 10751 10750 ] final   96.35 input  -60.55 | X-H torsion
[ 11005 11000 10999 10996 ] final -160.47 input  -57.11 | X-H torsion

> <Gold.Protein.ActiveResidues>
 VAL166  LYS551  ARG553  GLY616  TRP617  ASP618  TYR619  PRO620  LYS621  CYS622 
 ASP623  PHE694  ASN695  SER759  ASP760  ASP761  ALA762  ILE779  LEU786  VAL792 
 PHE793  MET794  SER795  GLU796  ALA797  LYS798  CYS799  TRP800  GLU811  SER814 

> <Gold.Protein.RotatedAtoms>
  152.3574  133.6255  159.5989 H   0  0  0  0  0  0  0  0  0  0  0  0  # atno 6907 bound_to 6896
  150.7578  133.9477  159.3485 H   0  0  0  0  0  0  0  0  0  0  0  0  # atno 6908 bound_to 6896
  151.7320  135.0873  160.0353 H   0  0  0  0  0  0  0  0  0  0  0  0  # atno 6909 bound_to 6896
  145.0565  140.8258  143.4178 H   0  0  0  0  0  0  0  0  0  0  0  0  # atno 7974 bound_to 7965
  155.1941  140.3310  155.4353 H   0  0  0  0  0  0  0  0  0  0  0  0  # atno 8008 bound_to 7997
  156.2431  140.1905  156.6982 H   0  0  0  0  0  0  0  0  0  0  0  0  # atno 8009 bound_to 7997
  154.6185  140.0599  156.9571 H   0  0  0  0  0  0  0  0  0  0  0  0  # atno 8010 bound_to 7997
  140.3603  143.2845  151.9622 H   0  0  0  0  0  0  0  0  0  0  0  0  # atno 10167 bound_to 10162
  156.3527  130.4311  149.7691 H   0  0  0  0  0  0  0  0  0  0  0  0  # atno 10718 bound_to 10713
  153.2639  135.4222  155.0921 H   0  0  0  0  0  0  0  0  0  0  0  0  # atno 10763 bound_to 10752
  154.8430  135.3455  154.6339 H   0  0  0  0  0  0  0  0  0  0  0  0  # atno 10764 bound_to 10752
  153.6759  135.7041  153.5190 H   0  0  0  0  0  0  0  0  0  0  0  0  # atno 10765 bound_to 10752
  140.6311  134.4650  157.5229 H   0  0  0  0  0  0  0  0  0  0  0  0  # atno 11005 bound_to 11000
  145.1462  139.2542  143.5464 LP  0  0  0  0  0  0  0  0  0  0  0  0  # atno 17320 bound_to 7965
  146.3521  140.1152  142.8602 LP  0  0  0  0  0  0  0  0  0  0  0  0  # atno 17321 bound_to 7965
  139.4815  144.5998  151.7625 LP  0  0  0  0  0  0  0  0  0  0  0  0  # atno 17342 bound_to 10162
  140.5133  144.0991  150.6001 LP  0  0  0  0  0  0  0  0  0  0  0  0  # atno 17343 bound_to 10162
  156.4885  130.8074  151.3085 LP  0  0  0  0  0  0  0  0  0  0  0  0  # atno 17370 bound_to 10713
  157.7463  130.9983  150.2847 LP  0  0  0  0  0  0  0  0  0  0  0  0  # atno 17371 bound_to 10713
  139.9116  134.8334  156.1510 LP  0  0  0  0  0  0  0  0  0  0  0  0  # atno 17394 bound_to 11000
  141.0674  133.6812  156.2073 LP  0  0  0  0  0  0  0  0  0  0  0  0  # atno 17395 bound_to 11000

$$$$
