AV-unprocessed.smi:1412|AV-procd|sdf|5742|dock10
  -GOLD-   22720 5373D 1   1.00000     0.00000
 Structure written by MMmdl.
 42 43  0  0  0  0  0  0  0  0  2 V2000
  143.0447  137.0413  152.7492 C   0  0  0  0  0  0  0  0  0  0  0  0
  144.0727  135.9108  152.9346 C   0  0  0  0  0  0  0  0  0  0  0  0
  145.3655  136.0253  152.0696 C   0  0  1  0  0  0  0  0  0  0  0  0
  145.0484  135.4018  150.6842 C   0  0  0  0  0  0  0  0  0  0  0  0
  145.7422  137.5268  151.8684 C   0  0  0  0  0  0  0  0  0  0  0  0
  147.0707  137.8738  152.3743 N   0  0  0  0  0  0  0  0  0  0  0  0
  147.3498  138.9034  153.1875 C   0  0  0  0  0  0  0  0  0  0  0  0
  146.4980  139.6892  153.6027 O   0  0  0  0  0  0  0  0  0  0  0  0
  148.6631  138.9590  153.4707 N   0  0  0  0  0  0  0  0  0  0  0  0
  149.3518  139.9144  154.2643 C   0  0  0  0  0  0  0  0  0  0  0  0
  150.6264  139.7731  154.6608 N   0  0  0  0  0  0  0  0  0  0  0  0
  151.0541  140.8480  155.4293 N   0  0  0  0  0  0  0  0  0  0  0  0
  150.0865  141.7563  155.5827 C   0  0  0  0  0  0  0  0  0  0  0  0
  148.5580  141.3875  154.8026 S   0  0  0  0  0  0  0  0  0  0  0  0
  146.4942  135.2791  152.7371 N   0  3  0  0  0  0  0  0  0  0  0  0
  146.6525  135.4990  154.2027 C   0  0  0  0  0  0  0  0  0  0  0  0
  147.9475  134.8409  154.7099 C   0  0  0  0  0  0  0  0  0  0  0  0
  147.9401  133.4546  154.3999 O   0  0  0  0  0  0  0  0  0  0  0  0
  147.8799  133.2302  152.9984 C   0  0  0  0  0  0  0  0  0  0  0  0
  146.5740  133.8195  152.4423 C   0  0  0  0  0  0  0  0  0  0  0  0
  142.1876  136.8848  153.4046 H   0  0  0  0  0  0  0  0  0  0  0  0
  142.6663  137.0839  151.7280 H   0  0  0  0  0  0  0  0  0  0  0  0
  143.4645  138.0162  152.9951 H   0  0  0  0  0  0  0  0  0  0  0  0
  144.3404  135.8886  153.9913 H   0  0  0  0  0  0  0  0  0  0  0  0
  143.5807  134.9541  152.7604 H   0  0  0  0  0  0  0  0  0  0  0  0
  144.1023  135.7675  150.2835 H   0  0  0  0  0  0  0  0  0  0  0  0
  144.9754  134.3154  150.7349 H   0  0  0  0  0  0  0  0  0  0  0  0
  145.8079  135.6459  149.9411 H   0  0  0  0  0  0  0  0  0  0  0  0
  145.6714  137.8128  150.8189 H   0  0  0  0  0  0  0  0  0  0  0  0
  145.0361  138.1675  152.3959 H   0  0  0  0  0  0  0  0  0  0  0  0
  147.8341  137.2799  152.0843 H   0  0  0  0  0  0  0  0  0  0  0  0
  149.2416  138.2402  153.0619 H   0  0  0  0  0  0  0  0  0  0  0  0
  150.2744  142.6496  156.1599 H   0  0  0  0  0  0  0  0  0  0  0  0
  146.7073  136.5581  154.4471 H   0  0  0  0  0  0  0  0  0  0  0  0
  145.7986  135.0867  154.7405 H   0  0  0  0  0  0  0  0  0  0  0  0
  148.8246  135.3190  154.2704 H   0  0  0  0  0  0  0  0  0  0  0  0
  148.0301  134.9591  155.7905 H   0  0  0  0  0  0  0  0  0  0  0  0
  148.7488  133.6690  152.5053 H   0  0  0  0  0  0  0  0  0  0  0  0
  147.9164  132.1566  152.8128 H   0  0  0  0  0  0  0  0  0  0  0  0
  145.7313  133.2934  152.8907 H   0  0  0  0  0  0  0  0  0  0  0  0
  146.5425  133.6232  151.3727 H   0  0  0  0  0  0  0  0  0  0  0  0
  147.3280  135.6744  152.3259 H   0  0  0  0  0  0  0  0  0  0  0  0
  1  2  1  0  0  0  0
  1 21  1  0  0  0  0
  1 22  1  0  0  0  0
  1 23  1  0  0  0  0
  2  3  1  0  0  0  0
  2 24  1  0  0  0  0
  2 25  1  0  0  0  0
  3  4  1  0  0  0  0
  3  5  1  0  0  0  0
  3 15  1  0  0  0  0
  4 26  1  0  0  0  0
  4 27  1  0  0  0  0
  4 28  1  0  0  0  0
  5  6  1  0  0  0  0
  5 29  1  0  0  0  0
  5 30  1  0  0  0  0
  6  7  1  0  0  0  0
  6 31  1  0  0  0  0
  7  8  2  0  0  0  0
  7  9  1  0  0  0  0
  9 10  1  0  0  0  0
  9 32  1  0  0  0  0
 10 14  1  0  0  0  0
 10 11  2  0  0  0  0
 11 12  1  0  0  0  0
 12 13  2  0  0  0  0
 13 14  1  0  0  0  0
 13 33  1  0  0  0  0
 15 20  1  0  0  0  0
 15 16  1  0  0  0  0
 15 42  1  0  0  0  0
 16 17  1  0  0  0  0
 16 34  1  0  0  0  0
 16 35  1  0  0  0  0
 17 18  1  0  0  0  0
 17 36  1  0  0  0  0
 17 37  1  0  0  0  0
 18 19  1  0  0  0  0
 19 20  1  0  0  0  0
 19 38  1  0  0  0  0
 19 39  1  0  0  0  0
 20 40  1  0  0  0  0
 20 41  1  0  0  0  0
M  CHG  1  15   1
M  END
> <s_m_source_file>
AV-unprocessed.smi

> <i_m_source_file_index>
1412

> <i_lp_mmshare_version>
43012

> <i_f3d_flags>
0

> <s_epik_input>
W0NIMl0xW0NIMl1PW0NIMl1bQ0gyXU4xW0NAQF0oW0NIM10pKFtDSDJdW0NIM10pW0NIMl1bTkhdQyg9TylbTkhdYzJubltjSF1zMg==

> <s_epik_cmdline>
J2VwaWtfcHl0aG9uJywgJy1waCcsICc3LjAnLCAnLXRuJywgJzgnLCAnLW1hJywgJzIwMCcsICctbWV0YWxfYmluZGluZycsICctaW1hZScsICc8aW5maWxlLm1hZT4nLCAnLW9tYWUnLCAnPG91dGZpbGUubWFlPic=

> <r_lp_tautomer_probability>
1

> <r_epik_Ionization_Penalty>
0.554649

> <r_epik_Ionization_Penalty_Charging>
0.553838

> <r_epik_Ionization_Penalty_Neutral>
0.000811527

> <r_epik_State_Penalty>
0.564424

> <r_epik_Charging_Adjusted_Penalty>
1.11826

> <i_epik_Tot_Q>
1

> <i_epik_Tot_abs_Q>
1

> <r_epik_Metal_State_Penalty>
0.786249

> <b_epik_Metal_Only>
0

> <s_lp_Force_Field>
OPLS_2005

> <r_lp_Energy>
27.1522

> <b_lp_Chiralities_Consistent>
1

> <s_lp_Variant>
AV-unprocessed.smi:1412-3

> <Gold.Version>
5.8.1

> <Gold.Id.Protein>
6NUR|6NUR_protein|mol2

> <Gold.PLP.Fitness>
39.4056

> <Gold.PLP.PLP>
-32.1701

> <Gold.PLP.part.hbond>
-5.6178

> <Gold.PLP.part.metal>
0.0000

> <Gold.PLP.part.buried>
-2.1890

> <Gold.PLP.part.nonpolar>
-25.2389

> <Gold.PLP.part.repulsive>
0.5062

> <Gold.PLP.ligand.clash>
0.0000

> <Gold.PLP.ligand.torsion>
2.2751

> <Gold.PLP.Chemscore.Hbond>
3.2333

> <Gold.PLP.Chemscore.CHOScore>
0.6544

> <Gold.PLP.Chemscore.Metal>
0.0000

> <Gold.Chemscore.Hbonds>
donor molecule, donor type, donor heavy atom, donor atom, acceptor molecule, acceptor atom, score
      L1  H     6    31       P1  7948  0.99
      L1  H     9    32       P1  7948  0.20
      L1  H    15    42       P1  7948  2.00
      L1  C    13    33       P1  8028  0.75

> <Gold.PLP.Chemscore.Internal.Correction>
0.1227

> <Gold.Rescore>
     Score         DG    S(hbond)    S(metal)    S(lipo)     H(rot)  DE(clash)    DE(int)     intcor
     11.11     -14.93       2.50        0.00      51.38       1.91       0.04       3.78       ----

> <Gold.Chemscore.Fitness>
11.1096

> <Gold.Chemscore.DG>
-14.9341

> <Gold.Chemscore.ZeroCoef>
-5.4800

> <Gold.Chemscore.Hbond>
2.4977

> <Gold.Chemscore.Metal>
0.0000

> <Gold.Chemscore.Lipo>
51.3801

> <Gold.Chemscore.Internal_Hbond>
0.0000

> <Gold.Chemscore.DEClash>
0.0440

> <Gold.Chemscore.DEInternal>
3.7805

> <Gold.Chemscore.Rot>
1.9140

> <Gold.Chemscore.Internal.Correction>
   9.000000E+99

> <Gold.Chemscore.Hbonds>
donor molecule, donor type, donor heavy atom, donor atom, acceptor molecule, acceptor atom, score
      L1  H     6    31       P1  7948  0.93
      L1  H     9    32       P1  7948  0.20
      L1  H    15    42       P1  7948  1.00

> <Gold.Chemscore.Hbond.Weighted>
-8.3424

> <Gold.Chemscore.Metal.Weighted>
-0.0000

> <Gold.Chemscore.Lipo.Weighted>
-6.0115

> <Gold.Chemscore.Internal_Hbond.Weighted>
0.0000

> <Gold.Chemscore.DEClash.Weighted>
0.0440

> <Gold.Chemscore.DEInternal.Weighted>
3.7805

> <Gold.Chemscore.Rot.Weighted>
4.8998

> <Gold.Chemscore.Internal.Correction.Weighted>
   9.000000E+99

> <Gold.Protein.RotatedTorsions>
[ 6907 6896 6895 6894 ] final -103.66 input  -60.11 | X-H torsion
[ 7974 7965 7964 7962 ] final   -1.19 input  175.53 | X-H torsion
[ 8008 7997 7996 7995 ] final -157.05 input   59.86 | X-H torsion
[ 10167 10162 10161 10158 ] final  139.80 input  -65.29 | X-H torsion
[ 10718 10713 10712 10709 ] final  176.36 input   66.30 | X-H torsion
[ 10763 10752 10751 10750 ] final  -23.59 input  -60.55 | X-H torsion
[ 11005 11000 10999 10996 ] final   76.61 input  -57.11 | X-H torsion

> <Gold.Protein.ActiveResidues>
 VAL166  LYS551  ARG553  GLY616  TRP617  ASP618  TYR619  PRO620  LYS621  CYS622 
 ASP623  PHE694  ASN695  SER759  ASP760  ASP761  ALA762  ILE779  LEU786  VAL792 
 PHE793  MET794  SER795  GLU796  ALA797  LYS798  CYS799  TRP800  GLU811  SER814 

> <Gold.Protein.RotatedAtoms>
  150.7250  134.0396  159.3760 H   0  0  0  0  0  0  0  0  0  0  0  0  # atno 6907 bound_to 6896
  151.8369  135.0601  160.0453 H   0  0  0  0  0  0  0  0  0  0  0  0  # atno 6908 bound_to 6896
  152.2892  133.5508  159.5583 H   0  0  0  0  0  0  0  0  0  0  0  0  # atno 6909 bound_to 6896
  146.2420  140.1383  142.8336 H   0  0  0  0  0  0  0  0  0  0  0  0  # atno 7974 bound_to 7965
  155.7265  140.0796  157.2308 H   0  0  0  0  0  0  0  0  0  0  0  0  # atno 8008 bound_to 7997
  154.4038  140.1603  156.2515 H   0  0  0  0  0  0  0  0  0  0  0  0  # atno 8009 bound_to 7997
  155.9149  140.3401  155.6130 H   0  0  0  0  0  0  0  0  0  0  0  0  # atno 8010 bound_to 7997
  139.5068  144.6272  151.5906 H   0  0  0  0  0  0  0  0  0  0  0  0  # atno 10167 bound_to 10162
  156.9212  130.9941  151.3004 H   0  0  0  0  0  0  0  0  0  0  0  0  # atno 10718 bound_to 10713
  153.6702  135.6972  153.5149 H   0  0  0  0  0  0  0  0  0  0  0  0  # atno 10763 bound_to 10752
  153.2563  135.4259  155.0848 H   0  0  0  0  0  0  0  0  0  0  0  0  # atno 10764 bound_to 10752
  154.8428  135.3544  154.6246 H   0  0  0  0  0  0  0  0  0  0  0  0  # atno 10765 bound_to 10752
  139.9290  134.7615  156.1417 H   0  0  0  0  0  0  0  0  0  0  0  0  # atno 11005 bound_to 11000
  145.0268  140.8838  143.5133 LP  0  0  0  0  0  0  0  0  0  0  0  0  # atno 17320 bound_to 7965
  145.1440  139.2554  143.5475 LP  0  0  0  0  0  0  0  0  0  0  0  0  # atno 17321 bound_to 7965
  140.5993  143.9638  150.6376 LP  0  0  0  0  0  0  0  0  0  0  0  0  # atno 17342 bound_to 10162
  140.2845  143.3367  152.1121 LP  0  0  0  0  0  0  0  0  0  0  0  0  # atno 17343 bound_to 10162
  157.5906  130.8441  149.8654 LP  0  0  0  0  0  0  0  0  0  0  0  0  # atno 17370 bound_to 10713
  156.0490  130.3721  150.1247 LP  0  0  0  0  0  0  0  0  0  0  0  0  # atno 17371 bound_to 10713
  141.0868  133.6731  156.2453 LP  0  0  0  0  0  0  0  0  0  0  0  0  # atno 17394 bound_to 11000
  140.6253  134.5319  157.5553 LP  0  0  0  0  0  0  0  0  0  0  0  0  # atno 17395 bound_to 11000

$$$$
