#       Name:                AV-unprocessed.smi:955
#       Creating user name   scv26
#       Creation time:       Fri Mar 27 02:17:03 2020


#       File generated by GOLD software.
#

@<TRIPOS>MOLECULE
AV-unprocessed.smi:955
    34    34     1
SMALL
NO_CHARGES


@<TRIPOS>ATOM
      1 ****        -2.4486  -0.4156   2.2691 C.3            1 S1                 0.0000
      2 ****        -2.0857  -0.5342   0.7796 C.3            1 S1                 0.0000
      3 ****        -0.6305  -0.6196   0.6763 N.am           1 S1                 0.0000
      4 ****         0.0470  -1.1239  -0.3683 C.2            1 S1                 0.0000
      5 ****        -0.5059  -1.6249  -1.3486 O.2            1 S1                 0.0000
      6 ****         1.5791  -1.0381  -0.2848 C.3            1 S1                 0.0000
      7 ****         2.2891  -2.0457  -1.2125 C.3            1 S1                 0.0000
      8 ****         2.0183   0.3333  -0.5185 N.pl3          1 S1                 0.0000
      9 ****         2.3492   1.2890   0.4209 C.2            1 S1                 0.0000
     10 ****         2.6551   2.4377  -0.2506 C.2            1 S1                 0.0000
     11 ****         2.4675   2.0900  -1.6168 C.2            1 S1                 0.0000
     12 ****         2.0799   0.8352  -1.7740 N.2            1 S1                 0.0000
     13 ****        -2.5987   0.7265   0.0640 C.2            1 S1                 0.0000
     14 ****        -3.7596   0.6193  -0.5864 N.am           1 S1                 0.0000
     15 ****        -1.9700   1.7835   0.1085 O.2            1 S1                 0.0000
     16 ****        -3.5282  -0.3496   2.4099 H              1 S1                 0.0000
     17 ****        -1.9985   0.4657   2.7292 H              1 S1                 0.0000
     18 ****        -2.1033  -1.2886   2.8237 H              1 S1                 0.0000
     19 ****        -2.5487  -1.4282   0.3570 H              1 S1                 0.0000
     20 ****        -0.0990  -0.2228   1.4373 H              1 S1                 0.0000
     21 ****         1.8590  -1.2937   0.7385 H              1 S1                 0.0000
     22 ****         1.9936  -3.0693  -0.9800 H              1 S1                 0.0000
     23 ****         3.3713  -1.9843  -1.0954 H              1 S1                 0.0000
     24 ****         2.0610  -1.8677  -2.2643 H              1 S1                 0.0000
     25 ****         2.3379   1.0747   1.4792 H              1 S1                 0.0000
     26 ****         2.9599   3.3841   0.1705 H              1 S1                 0.0000
     27 ****         2.5960   2.7087  -2.4926 H              1 S1                 0.0000
     28 ****        -4.1462   1.4203  -1.0644 H              1 S1                 0.0000
     29 ****        -4.2520  -0.2621  -0.5886 H              1 S1                 0.0000
     30 ****        -1.5040  -1.6694  -1.3912 LP             1 S1                 0.0000
     31 ****         0.0434  -1.9870  -2.1017 LP             1 S1                 0.0000
     32 ****         1.8772   0.3619  -2.6312 LP             1 S1                 0.0000
     33 ****        -1.1099   1.8327   0.6163 LP             1 S1                 0.0000
     34 ****        -2.3192   2.5932  -0.3631 LP             1 S1                 0.0000
@<TRIPOS>BOND
    1    1    2 1     
    2    1   16 1     
    3    1   17 1     
    4    1   18 1     
    5    2    3 1     
    6    2   13 1     
    7    2   19 1     
    8    3    4 am    
    9    3   20 1     
   10    4    5 2     
   11    4    6 1     
   12    6    7 1     
   13    6    8 1     
   14    6   21 1     
   15    7   22 1     
   16    7   23 1     
   17    7   24 1     
   18    8   12 1     
   19    8    9 1     
   20    9   10 2     
   21    9   25 1     
   22   10   11 1     
   23   10   26 1     
   24   11   12 2     
   25   11   27 1     
   26   13   14 am    
   27   13   15 2     
   28   14   28 1     
   29   14   29 1     
   30    5   30 1     
   31    5   31 1     
   32   12   32 1     
   33   15   33 1     
   34   15   34 1     
@<TRIPOS>SUBSTRUCTURE
      1 S1             1
@<TRIPOS>SET
LONE_PAIRS      STATIC     ATOMS    <user>   **** ""
5 30 31 32 33 34
DONOR_HYDROGENS      STATIC     ATOMS    <user>   **** ""
3 20 28 29
ATOM$BLUE        STATIC     ATOMS    COLORGROUP SYSTEM
5 30 31 32 33 34
ATOM$RED        STATIC     ATOMS    COLORGROUP SYSTEM
3 20 28 29
