AV-unprocessed.smi:3297|AV-procd|sdf|12639|dock3
  -GOLD-   2272018573D 1   1.00000     0.00000
 Structure written by MMmdl.
 34 35  0  0  0  0  0  0  0  0  1 V2000
  145.4097  141.5398  154.5979 O   0  0  0  0  0  0  0  0  0  0  0  0
  146.5099  142.3777  154.3135 C   0  0  0  0  0  0  0  0  0  0  0  0
  147.7685  141.5350  154.0751 C   0  0  0  0  0  0  0  0  0  0  0  0
  147.7441  140.4116  154.9443 O   0  0  0  0  0  0  0  0  0  0  0  0
  148.9890  140.1230  155.5669 C   0  0  1  0  0  0  0  0  0  0  0  0
  149.9481  139.6226  154.4738 C   0  0  0  0  0  0  0  0  0  0  0  0
  151.3478  139.3853  155.0598 C   0  0  0  0  0  0  0  0  0  0  0  0
  151.8726  140.6526  155.7538 C   0  0  0  0  0  0  0  0  0  0  0  0
  150.9200  141.1322  156.7548 N   0  0  0  0  0  0  0  0  0  0  0  0
  151.4556  142.0758  157.6551 C   0  0  0  0  0  0  0  0  0  0  0  0
  151.2306  143.3915  157.4123 N   0  0  0  0  0  0  0  0  0  0  0  0
  151.7500  144.3080  158.2564 C   0  0  0  0  0  0  0  0  0  0  0  0
  152.5187  143.9689  159.3858 C   0  0  0  0  0  0  0  0  0  0  0  0
  152.7504  142.6061  159.6474 C   0  0  0  0  0  0  0  0  0  0  0  0
  152.2111  141.6427  158.7728 C   0  0  0  0  0  0  0  0  0  0  0  0
  152.4058  140.3248  159.0219 F   0  0  0  0  0  0  0  0  0  0  0  0
  149.5669  141.3798  156.2520 C   0  0  0  0  0  0  0  0  0  0  0  0
  145.0543  141.2235  153.7816 H   0  0  0  0  0  0  0  0  0  0  0  0
  146.2686  142.9435  153.4132 H   0  0  0  0  0  0  0  0  0  0  0  0
  146.6600  143.0983  155.1181 H   0  0  0  0  0  0  0  0  0  0  0  0
  147.8496  141.2464  153.0266 H   0  0  0  0  0  0  0  0  0  0  0  0
  148.6476  142.1359  154.3132 H   0  0  0  0  0  0  0  0  0  0  0  0
  148.8620  139.3264  156.3024 H   0  0  0  0  0  0  0  0  0  0  0  0
  149.5662  138.7032  154.0288 H   0  0  0  0  0  0  0  0  0  0  0  0
  150.0085  140.3578  153.6701 H   0  0  0  0  0  0  0  0  0  0  0  0
  151.3110  138.5641  155.7770 H   0  0  0  0  0  0  0  0  0  0  0  0
  152.0368  139.0789  154.2723 H   0  0  0  0  0  0  0  0  0  0  0  0
  152.8458  140.4446  156.1971 H   0  0  0  0  0  0  0  0  0  0  0  0
  152.0294  141.4413  155.0168 H   0  0  0  0  0  0  0  0  0  0  0  0
  151.5467  145.3428  158.0237 H   0  0  0  0  0  0  0  0  0  0  0  0
  152.9165  144.7342  160.0357 H   0  0  0  0  0  0  0  0  0  0  0  0
  153.3295  142.3033  160.5073 H   0  0  0  0  0  0  0  0  0  0  0  0
  149.5934  142.2087  155.5429 H   0  0  0  0  0  0  0  0  0  0  0  0
  148.9254  141.6839  157.0794 H   0  0  0  0  0  0  0  0  0  0  0  0
  1  2  1  0  0  0  0
  1 18  1  0  0  0  0
  2  3  1  0  0  0  0
  2 19  1  0  0  0  0
  2 20  1  0  0  0  0
  3  4  1  0  0  0  0
  3 21  1  0  0  0  0
  3 22  1  0  0  0  0
  4  5  1  0  0  0  0
  5 17  1  0  0  0  0
  5  6  1  0  0  0  0
  5 23  1  0  0  0  0
  6  7  1  0  0  0  0
  6 24  1  0  0  0  0
  6 25  1  0  0  0  0
  7  8  1  0  0  0  0
  7 26  1  0  0  0  0
  7 27  1  0  0  0  0
  8  9  1  0  0  0  0
  8 28  1  0  0  0  0
  8 29  1  0  0  0  0
  9 10  1  0  0  0  0
  9 17  1  0  0  0  0
 10 15  1  0  0  0  0
 10 11  2  0  0  0  0
 11 12  1  0  0  0  0
 12 13  2  0  0  0  0
 12 30  1  0  0  0  0
 13 14  1  0  0  0  0
 13 31  1  0  0  0  0
 14 15  2  0  0  0  0
 14 32  1  0  0  0  0
 15 16  1  0  0  0  0
 17 33  1  0  0  0  0
 17 34  1  0  0  0  0
M  END
> <s_m_source_file>
AV-unprocessed.smi

> <i_m_source_file_index>
3297

> <i_lp_mmshare_version>
43012

> <i_f3d_flags>
0

> <s_epik_input>
W09IXVtDSDJdW0NIMl1PW0NAQEhdMVtDSDJdW0NIMl1bQ0gyXU4oW0NIMl0xKWMybltjSF1bY0hdW2NIXWMyRg==

> <s_epik_cmdline>
J2VwaWtfcHl0aG9uJywgJy1waCcsICc3LjAnLCAnLXRuJywgJzgnLCAnLW1hJywgJzIwMCcsICctbWV0YWxfYmluZGluZycsICctaW1hZScsICc8aW5maWxlLm1hZT4nLCAnLW9tYWUnLCAnPG91dGZpbGUubWFlPic=

> <r_lp_tautomer_probability>
1

> <r_epik_Ionization_Penalty>
0.00104501

> <r_epik_Ionization_Penalty_Charging>
0

> <r_epik_Ionization_Penalty_Neutral>
0.00104501

> <r_epik_State_Penalty>
0.000654582

> <r_epik_Charging_Adjusted_Penalty>
0.000654582

> <i_epik_Tot_Q>
0

> <i_epik_Tot_abs_Q>
0

> <r_epik_Metal_State_Penalty>
-0

> <b_epik_Metal_Only>
0

> <s_lp_Force_Field>
OPLS_2005

> <r_lp_Energy>
21.7067

> <b_lp_Chiralities_Consistent>
1

> <s_lp_Variant>
AV-unprocessed.smi:3297-2

> <Gold.Version>
5.8.1

> <Gold.Id.Protein>
6NUR|6NUR_protein|mol2

> <Gold.PLP.Fitness>
38.8891

> <Gold.PLP.PLP>
-37.6652

> <Gold.PLP.part.hbond>
-1.0000

> <Gold.PLP.part.metal>
0.0000

> <Gold.PLP.part.buried>
-5.4797

> <Gold.PLP.part.nonpolar>
-31.9711

> <Gold.PLP.part.repulsive>
0.2438

> <Gold.PLP.ligand.clash>
0.0000

> <Gold.PLP.ligand.torsion>
1.0570

> <Gold.PLP.Chemscore.Hbond>
1.0000

> <Gold.PLP.Chemscore.CHOScore>
0.0000

> <Gold.PLP.Chemscore.Metal>
0.0000

> <Gold.Chemscore.Hbonds>
donor molecule, donor type, donor heavy atom, donor atom, acceptor molecule, acceptor atom, score
      L1  H     1    18       P1 10175  1.00

> <Gold.PLP.Chemscore.Internal.Correction>
0.3380

> <Gold.Rescore>
     Score         DG    S(hbond)    S(metal)    S(lipo)     H(rot)  DE(clash)    DE(int)     intcor
     12.33     -13.38       0.96        0.00      89.32       2.25       0.04       1.01       ----

> <Gold.Chemscore.Fitness>
12.3344

> <Gold.Chemscore.DG>
-13.3791

> <Gold.Chemscore.ZeroCoef>
-5.4800

> <Gold.Chemscore.Hbond>
0.9624

> <Gold.Chemscore.Metal>
0.0000

> <Gold.Chemscore.Lipo>
89.3220

> <Gold.Chemscore.Internal_Hbond>
0.0000

> <Gold.Chemscore.DEClash>
0.0354

> <Gold.Chemscore.DEInternal>
1.0093

> <Gold.Chemscore.Rot>
2.2524

> <Gold.Chemscore.Internal.Correction>
   9.000000E+99

> <Gold.Chemscore.Hbonds>
donor molecule, donor type, donor heavy atom, donor atom, acceptor molecule, acceptor atom, score
      L1  H     1    18       P1 10175  0.47

> <Gold.Chemscore.Hbond.Weighted>
-3.2146

> <Gold.Chemscore.Metal.Weighted>
-0.0000

> <Gold.Chemscore.Lipo.Weighted>
-10.4507

> <Gold.Chemscore.Internal_Hbond.Weighted>
0.0000

> <Gold.Chemscore.DEClash.Weighted>
0.0354

> <Gold.Chemscore.DEInternal.Weighted>
1.0093

> <Gold.Chemscore.Rot.Weighted>
5.7661

> <Gold.Chemscore.Internal.Correction.Weighted>
   9.000000E+99

> <Gold.Protein.RotatedTorsions>
[ 6907 6896 6895 6894 ] final   13.08 input  -60.11 | X-H torsion
[ 7974 7965 7964 7962 ] final  157.72 input  175.53 | X-H torsion
[ 8008 7997 7996 7995 ] final  -64.20 input   59.86 | X-H torsion
[ 10167 10162 10161 10158 ] final   35.93 input  -65.29 | X-H torsion
[ 10718 10713 10712 10709 ] final   19.70 input   66.30 | X-H torsion
[ 10763 10752 10751 10750 ] final  -63.71 input  -60.55 | X-H torsion
[ 11005 11000 10999 10996 ] final   10.69 input  -57.11 | X-H torsion

> <Gold.Protein.ActiveResidues>
 VAL166  LYS551  ARG553  GLY616  TRP617  ASP618  TYR619  PRO620  LYS621  CYS622 
 ASP623  PHE694  ASN695  SER759  ASP760  ASP761  ALA762  ILE779  LEU786  VAL792 
 PHE793  MET794  SER795  GLU796  ALA797  LYS798  CYS799  TRP800  GLU811  SER814 

> <Gold.Protein.RotatedAtoms>
  151.7806  135.0762  160.0372 H   0  0  0  0  0  0  0  0  0  0  0  0  # atno 6907 bound_to 6896
  152.3225  133.5865  159.5763 H   0  0  0  0  0  0  0  0  0  0  0  0  # atno 6908 bound_to 6896
  150.7377  133.9905  159.3647 H   0  0  0  0  0  0  0  0  0  0  0  0  # atno 6909 bound_to 6896
  144.7887  139.7379  143.6230 H   0  0  0  0  0  0  0  0  0  0  0  0  # atno 7974 bound_to 7965
  154.4598  140.0959  156.6860 H   0  0  0  0  0  0  0  0  0  0  0  0  # atno 8008 bound_to 7997
  155.5029  140.3474  155.4356 H   0  0  0  0  0  0  0  0  0  0  0  0  # atno 8009 bound_to 7997
  156.0848  140.1382  156.9656 H   0  0  0  0  0  0  0  0  0  0  0  0  # atno 8010 bound_to 7997
  140.4176  144.1505  150.6145 H   0  0  0  0  0  0  0  0  0  0  0  0  # atno 10167 bound_to 10162
  157.1141  130.6521  149.5905 H   0  0  0  0  0  0  0  0  0  0  0  0  # atno 10718 bound_to 10713
  154.3191  135.6200  153.5500 H   0  0  0  0  0  0  0  0  0  0  0  0  # atno 10763 bound_to 10752
  152.9821  135.5719  154.5090 H   0  0  0  0  0  0  0  0  0  0  0  0  # atno 10764 bound_to 10752
  154.4755  135.2861  155.1587 H   0  0  0  0  0  0  0  0  0  0  0  0  # atno 10765 bound_to 10752
  140.5117  134.0646  155.7820 H   0  0  0  0  0  0  0  0  0  0  0  0  # atno 11005 bound_to 11000
  146.2130  139.5500  142.9668 LP  0  0  0  0  0  0  0  0  0  0  0  0  # atno 17320 bound_to 7965
  145.5852  141.0377  143.2100 LP  0  0  0  0  0  0  0  0  0  0  0  0  # atno 17321 bound_to 7965
  140.4569  143.2464  151.9272 LP  0  0  0  0  0  0  0  0  0  0  0  0  # atno 17342 bound_to 10162
  139.4782  144.5506  151.8391 LP  0  0  0  0  0  0  0  0  0  0  0  0  # atno 17343 bound_to 10162
  155.9843  130.4868  150.6979 LP  0  0  0  0  0  0  0  0  0  0  0  0  # atno 17370 bound_to 10713
  157.4534  131.0875  151.0822 LP  0  0  0  0  0  0  0  0  0  0  0  0  # atno 17371 bound_to 10713
  141.1382  133.9185  157.2386 LP  0  0  0  0  0  0  0  0  0  0  0  0  # atno 17394 bound_to 11000
  139.9655  135.0143  156.9376 LP  0  0  0  0  0  0  0  0  0  0  0  0  # atno 17395 bound_to 11000

$$$$
