AV-unprocessed.smi:2818|AV-procd|sdf|10848|dock3
  -GOLD-   2272015293D 1   1.00000     0.00000
 Structure written by MMmdl.
 25 26  0  0  0  0  0  0  0  0  2 V2000
  155.5544  140.8029  161.0036 O   0  0  0  0  0  0  0  0  0  0  0  0
  154.8235  140.5618  160.0168 C   0  0  0  0  0  0  0  0  0  0  0  0
  155.1127  139.6910  159.1660 O   0  5  0  0  0  0  0  0  0  0  0  0
  153.5521  141.3468  159.8482 C   0  0  0  0  0  0  0  0  0  0  0  0
  153.2329  142.4122  160.7198 C   0  0  0  0  0  0  0  0  0  0  0  0
  152.0295  143.1136  160.5177 C   0  0  0  0  0  0  0  0  0  0  0  0
  151.1573  142.8227  159.5305 N   0  0  0  0  0  0  0  0  0  0  0  0
  151.4579  141.8003  158.6920 C   0  0  0  0  0  0  0  0  0  0  0  0
  150.5786  141.4855  157.6747 O   0  0  0  0  0  0  0  0  0  0  0  0
  150.9670  141.6950  156.3157 C   0  0  2  0  0  0  0  0  0  0  0  0
  149.7556  141.6799  155.3921 C   0  0  0  0  0  0  0  0  0  0  0  0
  149.6105  140.2012  155.0669 C   0  0  0  0  0  0  0  0  0  0  0  0
  150.9541  139.7793  154.9068 O   0  0  0  0  0  0  0  0  0  0  0  0
  151.7648  140.4651  155.8564 C   0  0  0  0  0  0  0  0  0  0  0  0
  152.6389  141.0411  158.8135 C   0  0  0  0  0  0  0  0  0  0  0  0
  153.8913  142.6926  161.5290 H   0  0  0  0  0  0  0  0  0  0  0  0
  151.7599  143.9325  161.1682 H   0  0  0  0  0  0  0  0  0  0  0  0
  151.5671  142.5994  156.2029 H   0  0  0  0  0  0  0  0  0  0  0  0
  148.8551  142.1074  155.8337 H   0  0  0  0  0  0  0  0  0  0  0  0
  149.9791  142.2351  154.4801 H   0  0  0  0  0  0  0  0  0  0  0  0
  149.1523  139.6617  155.8975 H   0  0  0  0  0  0  0  0  0  0  0  0
  149.0213  140.0210  154.1676 H   0  0  0  0  0  0  0  0  0  0  0  0
  152.7053  140.7504  155.3842 H   0  0  0  0  0  0  0  0  0  0  0  0
  152.0006  139.8046  156.6919 H   0  0  0  0  0  0  0  0  0  0  0  0
  152.8324  140.2365  158.1190 H   0  0  0  0  0  0  0  0  0  0  0  0
  1  2  2  0  0  0  0
  2  3  1  0  0  0  0
  2  4  1  0  0  0  0
  4 15  1  0  0  0  0
  4  5  2  0  0  0  0
  5  6  1  0  0  0  0
  5 16  1  0  0  0  0
  6  7  2  0  0  0  0
  6 17  1  0  0  0  0
  7  8  1  0  0  0  0
  8  9  1  0  0  0  0
  8 15  2  0  0  0  0
  9 10  1  0  0  0  0
 10 14  1  0  0  0  0
 10 11  1  0  0  0  0
 10 18  1  0  0  0  0
 11 12  1  0  0  0  0
 11 19  1  0  0  0  0
 11 20  1  0  0  0  0
 12 13  1  0  0  0  0
 12 21  1  0  0  0  0
 12 22  1  0  0  0  0
 13 14  1  0  0  0  0
 14 23  1  0  0  0  0
 14 24  1  0  0  0  0
 15 25  1  0  0  0  0
M  CHG  1   3  -1
M  END
> <s_m_source_file>
AV-unprocessed.smi

> <i_m_source_file_index>
2818

> <i_lp_mmshare_version>
43012

> <i_f3d_flags>
0

> <s_epik_input>
Tz1DKFtPSF0pYzFbY0hdW2NIXW5jKFtjSF0xKU9bQ0BASF0yW0NIMl1bQ0gyXU9bQ0gyXTI=

> <s_epik_cmdline>
J2VwaWtfcHl0aG9uJywgJy1waCcsICc3LjAnLCAnLXRuJywgJzgnLCAnLW1hJywgJzIwMCcsICctbWV0YWxfYmluZGluZycsICctaW1hZScsICc8aW5maWxlLm1hZT4nLCAnLW9tYWUnLCAnPG91dGZpbGUubWFlPic=

> <r_lp_tautomer_probability>
1

> <r_epik_Ionization_Penalty>
0.000147497

> <r_epik_Ionization_Penalty_Charging>
0.00010957

> <r_epik_Ionization_Penalty_Neutral>
3.79274e-05

> <r_epik_State_Penalty>
-0

> <r_epik_Charging_Adjusted_Penalty>
0.00010957

> <i_epik_Tot_Q>
-1

> <i_epik_Tot_abs_Q>
1

> <r_epik_Metal_State_Penalty>
-0

> <b_epik_Metal_Only>
0

> <s_lp_Force_Field>
OPLS_2005

> <r_lp_Energy>
14.7061

> <b_lp_Chiralities_Consistent>
1

> <s_lp_Variant>
AV-unprocessed.smi:2818-1

> <Gold.Version>
5.8.1

> <Gold.Id.Protein>
6NUR|6NUR_protein|mol2

> <Gold.PLP.Fitness>
38.9100

> <Gold.PLP.PLP>
-31.7574

> <Gold.PLP.part.hbond>
-3.2170

> <Gold.PLP.part.metal>
0.0000

> <Gold.PLP.part.buried>
-4.1919

> <Gold.PLP.part.nonpolar>
-24.0323

> <Gold.PLP.part.repulsive>
0.0966

> <Gold.PLP.ligand.clash>
0.0000

> <Gold.PLP.ligand.torsion>
0.2578

> <Gold.PLP.Chemscore.Hbond>
2.5500

> <Gold.PLP.Chemscore.CHOScore>
0.0000

> <Gold.PLP.Chemscore.Metal>
0.0000

> <Gold.Chemscore.Hbonds>
donor molecule, donor type, donor heavy atom, donor atom, acceptor molecule, acceptor atom, score
      P1  H  7989  7998       L1    13  0.55
      P1  H  7997  8010       L1     3  2.00

> <Gold.PLP.Chemscore.Internal.Correction>
0.0183

> <Gold.Rescore>
     Score         DG    S(hbond)    S(metal)    S(lipo)     H(rot)  DE(clash)    DE(int)     intcor
     13.14     -13.49       0.98        0.00      68.42       1.28       0.01       0.34       ----

> <Gold.Chemscore.Fitness>
13.1372

> <Gold.Chemscore.DG>
-13.4887

> <Gold.Chemscore.ZeroCoef>
-5.4800

> <Gold.Chemscore.Hbond>
0.9813

> <Gold.Chemscore.Metal>
0.0000

> <Gold.Chemscore.Lipo>
68.4183

> <Gold.Chemscore.Internal_Hbond>
0.0000

> <Gold.Chemscore.DEClash>
0.0149

> <Gold.Chemscore.DEInternal>
0.3367

> <Gold.Chemscore.Rot>
1.2788

> <Gold.Chemscore.Internal.Correction>
   9.000000E+99

> <Gold.Chemscore.Hbonds>
donor molecule, donor type, donor heavy atom, donor atom, acceptor molecule, acceptor atom, score
      P1  H  7989  7998       L1    13  0.02
      P1  H  7997  8010       L1     3  0.97

> <Gold.Chemscore.Hbond.Weighted>
-3.2776

> <Gold.Chemscore.Metal.Weighted>
-0.0000

> <Gold.Chemscore.Lipo.Weighted>
-8.0049

> <Gold.Chemscore.Internal_Hbond.Weighted>
0.0000

> <Gold.Chemscore.DEClash.Weighted>
0.0149

> <Gold.Chemscore.DEInternal.Weighted>
0.3367

> <Gold.Chemscore.Rot.Weighted>
3.2738

> <Gold.Chemscore.Internal.Correction.Weighted>
   9.000000E+99

> <Gold.Protein.RotatedTorsions>
[ 6907 6896 6895 6894 ] final  175.32 input  -60.11 | X-H torsion
[ 7974 7965 7964 7962 ] final  105.00 input  175.53 | X-H torsion
[ 8008 7997 7996 7995 ] final  -22.77 input   59.86 | X-H torsion
[ 10167 10162 10161 10158 ] final -109.34 input  -65.29 | X-H torsion
[ 10718 10713 10712 10709 ] final -123.94 input   66.30 | X-H torsion
[ 10763 10752 10751 10750 ] final   48.48 input  -60.55 | X-H torsion
[ 11005 11000 10999 10996 ] final    8.31 input  -57.11 | X-H torsion

> <Gold.Protein.ActiveResidues>
 VAL166  LYS551  ARG553  GLY616  TRP617  ASP618  TYR619  PRO620  LYS621  CYS622 
 ASP623  PHE694  ASN695  SER759  ASP760  ASP761  ALA762  ILE779  LEU786  VAL792 
 PHE793  MET794  SER795  GLU796  ALA797  LYS798  CYS799  TRP800  GLU811  SER814 

> <Gold.Protein.RotatedAtoms>
  151.7382  133.3320  159.3358 H   0  0  0  0  0  0  0  0  0  0  0  0  # atno 6907 bound_to 6896
  150.7584  134.6302  159.6192 H   0  0  0  0  0  0  0  0  0  0  0  0  # atno 6908 bound_to 6896
  152.3548  134.6957  160.0277 H   0  0  0  0  0  0  0  0  0  0  0  0  # atno 6909 bound_to 6896
  145.3255  139.2501  143.3689 H   0  0  0  0  0  0  0  0  0  0  0  0  # atno 7974 bound_to 7965
  154.4624  140.1999  156.0208 H   0  0  0  0  0  0  0  0  0  0  0  0  # atno 8008 bound_to 7997
  156.0865  140.3264  155.7732 H   0  0  0  0  0  0  0  0  0  0  0  0  # atno 8009 bound_to 7997
  155.5026  140.0555  157.2927 H   0  0  0  0  0  0  0  0  0  0  0  0  # atno 8010 bound_to 7997
  140.1564  143.4157  152.1458 H   0  0  0  0  0  0  0  0  0  0  0  0  # atno 10167 bound_to 10162
  156.1545  130.6558  150.9961 H   0  0  0  0  0  0  0  0  0  0  0  0  # atno 10718 bound_to 10713
  152.9792  135.5943  154.3932 H   0  0  0  0  0  0  0  0  0  0  0  0  # atno 10763 bound_to 10752
  154.3585  135.2767  155.2335 H   0  0  0  0  0  0  0  0  0  0  0  0  # atno 10764 bound_to 10752
  154.4342  135.6029  153.6143 H   0  0  0  0  0  0  0  0  0  0  0  0  # atno 10765 bound_to 10752
  140.5384  134.0398  155.7896 H   0  0  0  0  0  0  0  0  0  0  0  0  # atno 11005 bound_to 11000
  146.3066  140.3821  142.8685 LP  0  0  0  0  0  0  0  0  0  0  0  0  # atno 17320 bound_to 7965
  144.8906  140.7518  143.5929 LP  0  0  0  0  0  0  0  0  0  0  0  0  # atno 17321 bound_to 7965
  139.5402  144.7249  151.4760 LP  0  0  0  0  0  0  0  0  0  0  0  0  # atno 17342 bound_to 10162
  140.6671  143.8375  150.6954 LP  0  0  0  0  0  0  0  0  0  0  0  0  # atno 17343 bound_to 10162
  157.6684  131.0867  150.7673 LP  0  0  0  0  0  0  0  0  0  0  0  0  # atno 17370 bound_to 10713
  156.7739  130.4838  149.5413 LP  0  0  0  0  0  0  0  0  0  0  0  0  # atno 17371 bound_to 10713
  141.1241  133.9412  157.2670 LP  0  0  0  0  0  0  0  0  0  0  0  0  # atno 17394 bound_to 11000
  139.9517  135.0174  156.9012 LP  0  0  0  0  0  0  0  0  0  0  0  0  # atno 17395 bound_to 11000

$$$$
