AV-unprocessed.smi:249|AV-procd|sdf|1921|dock9
  -GOLD-   2262021 23D 1   1.00000     0.00000
 Structure written by MMmdl.
 64 67  0  0  0  0  0  0  0  0  2 V2000
  143.4781  136.5337  152.1222 C   0  0  0  0  0  0  0  0  0  0  0  0
  144.9588  136.2736  151.7987 C   0  0  0  0  0  0  0  0  0  0  0  0
  145.8924  137.2365  152.4531 N   0  3  1  0  0  0  0  0  0  0  0  0
  145.7415  138.6150  151.9015 C   0  0  0  0  0  0  0  0  0  0  0  0
  146.7740  139.5905  152.4834 C   0  0  0  0  0  0  0  0  0  0  0  0
  146.6650  139.6300  154.0115 C   0  0  2  0  0  0  0  0  0  0  0  0
  147.6033  140.5821  154.6123 N   0  0  0  0  0  0  0  0  0  0  0  0
  147.6641  141.9722  154.1666 C   0  0  0  0  0  0  0  0  0  0  0  0
  148.2104  140.2564  155.7826 C   0  0  0  0  0  0  0  0  0  0  0  0
  147.4379  139.9576  156.8603 N   0  0  0  0  0  0  0  0  0  0  0  0
  148.0006  139.6219  158.0245 C   0  0  0  0  0  0  0  0  0  0  0  0
  149.2962  139.5323  158.3294 N   0  0  0  0  0  0  0  0  0  0  0  0
  150.0788  139.8497  157.2592 C   0  0  0  0  0  0  0  0  0  0  0  0
  149.6243  140.2167  155.9602 C   0  0  0  0  0  0  0  0  0  0  0  0
  150.7151  140.4753  155.1367 N   0  0  0  0  0  0  0  0  0  0  0  0
  151.7518  140.2600  155.8991 C   0  0  0  0  0  0  0  0  0  0  0  0
  151.4606  139.8991  157.1950 N   0  0  0  0  0  0  0  0  0  0  0  0
  152.4162  139.6001  158.2468 C   0  0  0  0  0  0  0  0  0  0  0  0
  152.4525  140.6317  159.4052 C   0  0  1  0  0  0  0  0  0  0  0  0
  153.5403  140.2144  160.4220 C   0  0  0  0  0  0  0  0  0  0  0  0
  154.8243  140.1918  159.8317 O   0  0  0  0  0  0  0  0  0  0  0  0
  152.6029  142.1122  158.9467 C   0  0  2  0  0  0  0  0  0  0  0  0
  152.6427  143.1259  160.0800 C   0  0  0  0  0  0  0  0  0  0  0  0
  152.3327  144.4279  159.3569 C   0  0  0  0  0  0  0  0  0  0  0  0
  151.3523  144.0709  158.3951 O   0  0  0  0  0  0  0  0  0  0  0  0
  151.4432  142.6778  158.1099 C   0  0  0  0  0  0  0  0  0  0  0  0
  146.8424  138.2093  154.5619 C   0  0  0  0  0  0  0  0  0  0  0  0
  145.8163  137.2293  153.9521 C   0  0  2  0  0  0  0  0  0  0  0  0
  146.0453  135.8330  154.5676 C   0  0  0  0  0  0  0  0  0  0  0  0
  142.8390  135.9109  151.4957 H   0  0  0  0  0  0  0  0  0  0  0  0
  143.2078  137.5732  151.9347 H   0  0  0  0  0  0  0  0  0  0  0  0
  143.2292  136.2959  153.1559 H   0  0  0  0  0  0  0  0  0  0  0  0
  145.2322  135.2516  152.0647 H   0  0  0  0  0  0  0  0  0  0  0  0
  145.0392  136.3446  150.7164 H   0  0  0  0  0  0  0  0  0  0  0  0
  145.8672  138.6139  150.8204 H   0  0  0  0  0  0  0  0  0  0  0  0
  144.7316  138.9775  152.1009 H   0  0  0  0  0  0  0  0  0  0  0  0
  147.7746  139.2846  152.1753 H   0  0  0  0  0  0  0  0  0  0  0  0
  146.6114  140.5872  152.0715 H   0  0  0  0  0  0  0  0  0  0  0  0
  145.6462  139.9463  154.2319 H   0  0  0  0  0  0  0  0  0  0  0  0
  148.6722  142.3716  154.2835 H   0  0  0  0  0  0  0  0  0  0  0  0
  146.9791  142.5900  154.7478 H   0  0  0  0  0  0  0  0  0  0  0  0
  147.3925  142.0655  153.1158 H   0  0  0  0  0  0  0  0  0  0  0  0
  147.3146  139.3929  158.8266 H   0  0  0  0  0  0  0  0  0  0  0  0
  152.7640  140.3743  155.5388 H   0  0  0  0  0  0  0  0  0  0  0  0
  152.1657  138.6128  158.6365 H   0  0  0  0  0  0  0  0  0  0  0  0
  153.4054  139.5076  157.7966 H   0  0  0  0  0  0  0  0  0  0  0  0
  151.5058  140.5560  159.9407 H   0  0  0  0  0  0  0  0  0  0  0  0
  153.5580  140.8870  161.2792 H   0  0  0  0  0  0  0  0  0  0  0  0
  153.3248  139.2230  160.8219 H   0  0  0  0  0  0  0  0  0  0  0  0
  154.9804  139.3274  159.4828 H   0  0  0  0  0  0  0  0  0  0  0  0
  153.5247  142.2180  158.3720 H   0  0  0  0  0  0  0  0  0  0  0  0
  151.8639  142.9122  160.8138 H   0  0  0  0  0  0  0  0  0  0  0  0
  153.6025  143.1582  160.5966 H   0  0  0  0  0  0  0  0  0  0  0  0
  151.9733  145.2094  160.0268 H   0  0  0  0  0  0  0  0  0  0  0  0
  153.2189  144.7988  158.8403 H   0  0  0  0  0  0  0  0  0  0  0  0
  151.5964  142.5279  157.0421 H   0  0  0  0  0  0  0  0  0  0  0  0
  150.4936  142.2172  158.3841 H   0  0  0  0  0  0  0  0  0  0  0  0
  147.8514  137.8473  154.3615 H   0  0  0  0  0  0  0  0  0  0  0  0
  146.7333  138.2300  155.6471 H   0  0  0  0  0  0  0  0  0  0  0  0
  144.8177  137.5639  154.2385 H   0  0  0  0  0  0  0  0  0  0  0  0
  146.1472  135.8975  155.6514 H   0  0  0  0  0  0  0  0  0  0  0  0
  146.9542  135.3709  154.1810 H   0  0  0  0  0  0  0  0  0  0  0  0
  145.2114  135.1560  154.3860 H   0  0  0  0  0  0  0  0  0  0  0  0
  146.8263  136.9317  152.2182 H   0  0  0  0  0  0  0  0  0  0  0  0
  1  2  1  0  0  0  0
  1 30  1  0  0  0  0
  1 31  1  0  0  0  0
  1 32  1  0  0  0  0
  2  3  1  0  0  0  0
  2 33  1  0  0  0  0
  2 34  1  0  0  0  0
  3 28  1  0  0  0  0
  3  4  1  0  0  0  0
  3 64  1  0  0  0  0
  4  5  1  0  0  0  0
  4 35  1  0  0  0  0
  4 36  1  0  0  0  0
  5  6  1  0  0  0  0
  5 37  1  0  0  0  0
  5 38  1  0  0  0  0
  6  7  1  0  0  0  0
  6 27  1  0  0  0  0
  6 39  1  0  0  0  0
  7  8  1  0  0  0  0
  7  9  1  0  0  0  0
  8 40  1  0  0  0  0
  8 41  1  0  0  0  0
  8 42  1  0  0  0  0
  9 14  1  0  0  0  0
  9 10  2  0  0  0  0
 10 11  1  0  0  0  0
 11 12  2  0  0  0  0
 11 43  1  0  0  0  0
 12 13  1  0  0  0  0
 13 17  1  0  0  0  0
 13 14  2  0  0  0  0
 14 15  1  0  0  0  0
 15 16  2  0  0  0  0
 16 17  1  0  0  0  0
 16 44  1  0  0  0  0
 17 18  1  0  0  0  0
 18 19  1  0  0  0  0
 18 45  1  0  0  0  0
 18 46  1  0  0  0  0
 19 20  1  0  0  0  0
 19 22  1  0  0  0  0
 19 47  1  0  0  0  0
 20 21  1  0  0  0  0
 20 48  1  0  0  0  0
 20 49  1  0  0  0  0
 21 50  1  0  0  0  0
 22 26  1  0  0  0  0
 22 23  1  0  0  0  0
 22 51  1  0  0  0  0
 23 24  1  0  0  0  0
 23 52  1  0  0  0  0
 23 53  1  0  0  0  0
 24 25  1  0  0  0  0
 24 54  1  0  0  0  0
 24 55  1  0  0  0  0
 25 26  1  0  0  0  0
 26 56  1  0  0  0  0
 26 57  1  0  0  0  0
 27 28  1  0  0  0  0
 27 58  1  0  0  0  0
 27 59  1  0  0  0  0
 28 29  1  0  0  0  0
 28 60  1  0  0  0  0
 29 61  1  0  0  0  0
 29 62  1  0  0  0  0
 29 63  1  0  0  0  0
M  CHG  1   3   1
M  END
> <s_m_source_file>
AV-unprocessed.smi

> <i_m_source_file_index>
249

> <i_lp_mmshare_version>
43012

> <i_f3d_flags>
0

> <s_epik_input>
W0NIM11bQ0gyXU4xW0NIMl1bQ0gyXVtDQEhdKFtDSDJdW0NASF0xW0NIM10pTihbQ0gzXSljKG5bY0hdbjIpYyhjMjMpbltjSF1uM1tDSDJdW0NASF0oW0NIMl1bT0hdKVtDQEBIXTRbQ0gyXVtDSDJdT1tDSDJdNA==

> <s_epik_cmdline>
J2VwaWtfcHl0aG9uJywgJy1waCcsICc3LjAnLCAnLXRuJywgJzgnLCAnLW1hJywgJzIwMCcsICctbWV0YWxfYmluZGluZycsICctaW1hZScsICc8aW5maWxlLm1hZT4nLCAnLW9tYWUnLCAnPG91dGZpbGUubWFlPic=

> <r_lp_tautomer_probability>
1

> <r_epik_Ionization_Penalty>
0.00294688

> <r_epik_Ionization_Penalty_Charging>
0.00169971

> <r_epik_Ionization_Penalty_Neutral>
0.00124717

> <r_epik_State_Penalty>
-0

> <r_epik_Charging_Adjusted_Penalty>
0.00169971

> <i_epik_Tot_Q>
1

> <i_epik_Tot_abs_Q>
1

> <r_epik_Metal_State_Penalty>
-0

> <b_epik_Metal_Only>
0

> <s_lp_Force_Field>
OPLS_2005

> <r_lp_Energy>
53.8216

> <b_lp_Chiralities_Consistent>
1

> <s_lp_Variant>
AV-unprocessed.smi:249-24

> <Gold.Version>
5.8.1

> <Gold.Id.Protein>
6NUR|6NUR_protein|mol2

> <Gold.PLP.Fitness>
52.0731

> <Gold.PLP.PLP>
-46.0215

> <Gold.PLP.part.hbond>
-2.0000

> <Gold.PLP.part.metal>
0.0000

> <Gold.PLP.part.buried>
-1.3934

> <Gold.PLP.part.nonpolar>
-42.6149

> <Gold.PLP.part.repulsive>
0.2722

> <Gold.PLP.ligand.clash>
0.0650

> <Gold.PLP.ligand.torsion>
1.6742

> <Gold.PLP.Chemscore.Hbond>
3.0000

> <Gold.PLP.Chemscore.CHOScore>
0.0000

> <Gold.PLP.Chemscore.Metal>
0.0000

> <Gold.Chemscore.Hbonds>
donor molecule, donor type, donor heavy atom, donor atom, acceptor molecule, acceptor atom, score
      L1  H     3    64       P1  7948  0.91
      P1  H  7989  7998       L1    15  0.95

> <Gold.PLP.Chemscore.Internal.Correction>
0.4649

> <Gold.Rescore>
     Score         DG    S(hbond)    S(metal)    S(lipo)     H(rot)  DE(clash)    DE(int)     intcor
     14.15     -17.58       1.84        0.00     108.95       2.65       0.27       3.15       ----

> <Gold.Chemscore.Fitness>
14.1538

> <Gold.Chemscore.DG>
-17.5783

> <Gold.Chemscore.ZeroCoef>
-5.4800

> <Gold.Chemscore.Hbond>
1.8381

> <Gold.Chemscore.Metal>
0.0000

> <Gold.Chemscore.Lipo>
108.9471

> <Gold.Chemscore.Internal_Hbond>
0.0000

> <Gold.Chemscore.DEClash>
0.2712

> <Gold.Chemscore.DEInternal>
3.1533

> <Gold.Chemscore.Rot>
2.6515

> <Gold.Chemscore.Internal.Correction>
   9.000000E+99

> <Gold.Chemscore.Hbonds>
donor molecule, donor type, donor heavy atom, donor atom, acceptor molecule, acceptor atom, score
      L1  H     3    64       P1  7948  0.46
      P1  H  7989  7998       L1    15  0.20

> <Gold.Chemscore.Hbond.Weighted>
-6.1394

> <Gold.Chemscore.Metal.Weighted>
-0.0000

> <Gold.Chemscore.Lipo.Weighted>
-12.7468

> <Gold.Chemscore.Internal_Hbond.Weighted>
0.0000

> <Gold.Chemscore.DEClash.Weighted>
0.2712

> <Gold.Chemscore.DEInternal.Weighted>
3.1533

> <Gold.Chemscore.Rot.Weighted>
6.7880

> <Gold.Chemscore.Internal.Correction.Weighted>
   9.000000E+99

> <Gold.Protein.RotatedTorsions>
[ 6907 6896 6895 6894 ] final    6.05 input  -60.11 | X-H torsion
[ 7974 7965 7964 7962 ] final  -50.08 input  175.53 | X-H torsion
[ 8008 7997 7996 7995 ] final   25.61 input   59.86 | X-H torsion
[ 10167 10162 10161 10158 ] final   20.58 input  -65.29 | X-H torsion
[ 10718 10713 10712 10709 ] final  156.95 input   66.30 | X-H torsion
[ 10763 10752 10751 10750 ] final   77.16 input  -60.55 | X-H torsion
[ 11005 11000 10999 10996 ] final  -19.08 input  -57.11 | X-H torsion

> <Gold.Protein.ActiveResidues>
 VAL166  LYS551  ARG553  GLY616  TRP617  ASP618  TYR619  PRO620  LYS621  CYS622 
 ASP623  PHE694  ASN695  SER759  ASP760  ASP761  ALA762  ILE779  LEU786  VAL792 
 PHE793  MET794  SER795  GLU796  ALA797  LYS798  CYS799  TRP800  GLU811  SER814 

> <Gold.Protein.RotatedAtoms>
  151.6674  135.0981  160.0191 H   0  0  0  0  0  0  0  0  0  0  0  0  # atno 6907 bound_to 6896
  152.3911  133.6676  159.6247 H   0  0  0  0  0  0  0  0  0  0  0  0  # atno 6908 bound_to 6896
  150.7827  133.8869  159.3343 H   0  0  0  0  0  0  0  0  0  0  0  0  # atno 6909 bound_to 6896
  145.9337  140.7726  142.9587 H   0  0  0  0  0  0  0  0  0  0  0  0  # atno 7974 bound_to 7965
  155.0144  140.3140  155.4817 H   0  0  0  0  0  0  0  0  0  0  0  0  # atno 8008 bound_to 7997
  156.2903  140.2208  156.5202 H   0  0  0  0  0  0  0  0  0  0  0  0  # atno 8009 bound_to 7997
  154.7506  140.0466  157.0878 H   0  0  0  0  0  0  0  0  0  0  0  0  # atno 8010 bound_to 7997
  140.5492  143.9539  150.6567 H   0  0  0  0  0  0  0  0  0  0  0  0  # atno 10167 bound_to 10162
  157.1980  131.0670  151.2041 H   0  0  0  0  0  0  0  0  0  0  0  0  # atno 10718 bound_to 10713
  153.0778  135.4924  154.8440 H   0  0  0  0  0  0  0  0  0  0  0  0  # atno 10763 bound_to 10752
  154.7111  135.3020  154.9198 H   0  0  0  0  0  0  0  0  0  0  0  0  # atno 10764 bound_to 10752
  153.9892  135.6780  153.4806 H   0  0  0  0  0  0  0  0  0  0  0  0  # atno 10765 bound_to 10752
  140.8332  133.7981  155.9780 H   0  0  0  0  0  0  0  0  0  0  0  0  # atno 11005 bound_to 11000
  144.6768  140.2168  143.7371 LP  0  0  0  0  0  0  0  0  0  0  0  0  # atno 17320 bound_to 7965
  145.8393  139.2122  143.1837 LP  0  0  0  0  0  0  0  0  0  0  0  0  # atno 17321 bound_to 7965
  140.2960  143.3292  152.1017 LP  0  0  0  0  0  0  0  0  0  0  0  0  # atno 17342 bound_to 10162
  139.5020  144.6726  151.6206 LP  0  0  0  0  0  0  0  0  0  0  0  0  # atno 17343 bound_to 10162
  157.3795  130.7224  149.6620 LP  0  0  0  0  0  0  0  0  0  0  0  0  # atno 17370 bound_to 10713
  155.9704  130.4176  150.4289 LP  0  0  0  0  0  0  0  0  0  0  0  0  # atno 17371 bound_to 10713
  140.8976  134.2418  157.5060 LP  0  0  0  0  0  0  0  0  0  0  0  0  # atno 17394 bound_to 11000
  139.8704  134.9691  156.4655 LP  0  0  0  0  0  0  0  0  0  0  0  0  # atno 17395 bound_to 11000

$$$$
