#       Name:                AV-unprocessed.smi:1752
#       Creating user name   scv26
#       Creation time:       Fri Mar 27 08:27:42 2020


#       File generated by GOLD software.
#

@<TRIPOS>MOLECULE
AV-unprocessed.smi:1752
    46    47     1
SMALL
NO_CHARGES


@<TRIPOS>ATOM
      1 ****        -2.7029  -1.5396  -2.3000 C.3            1 S1                 0.0000
      2 ****        -2.5544  -0.5637  -1.1250 C.3            1 S1                 0.0000
      3 ****        -3.6424  -0.8013  -0.0558 C.3            1 S1                 0.0000
      4 ****        -3.6098   0.1861   1.0087 N.pl3          1 S1                 0.0000
      5 ****        -3.1381   0.0421   2.2967 C.2            1 S1                 0.0000
      6 ****        -3.2995   1.2433   2.9250 C.2            1 S1                 0.0000
      7 ****        -3.8909   2.0689   1.9282 C.2            1 S1                 0.0000
      8 ****        -4.0771   1.4326   0.7830 N.2            1 S1                 0.0000
      9 ****        -1.2202  -0.7170  -0.5457 N.am           1 S1                 0.0000
     10 ****        -0.4107   0.2830  -0.1520 C.2            1 S1                 0.0000
     11 ****        -0.7215   1.4699  -0.2590 O.2            1 S1                 0.0000
     12 ****         0.7335  -0.1274   0.4497 N.am           1 S1                 0.0000
     13 ****         1.2991  -1.4869   0.3012 C.3            1 S1                 0.0000
     14 ****         2.8422  -1.5480   0.3995 C.3            1 S1                 0.0000
     15 ****         3.6021  -0.6808  -0.6279 C.3            1 S1                 0.0000
     16 ****         3.0236   0.6696  -0.8641 N.4            1 S1                 1.0000
     17 ****         3.8342   1.4533  -1.8221 C.3            1 S1                 0.0000
     18 ****         2.6931   1.4480   0.3599 C.3            1 S1                 0.0000
     19 ****         1.5567   0.8301   1.2080 C.3            1 S1                 0.0000
     20 ****        -3.6774  -1.4317  -2.7771 H              1 S1                 0.0000
     21 ****        -2.6068  -2.5754  -1.9725 H              1 S1                 0.0000
     22 ****        -1.9433  -1.3577  -3.0612 H              1 S1                 0.0000
     23 ****        -2.6732   0.4436  -1.5283 H              1 S1                 0.0000
     24 ****        -4.6323  -0.7711  -0.5137 H              1 S1                 0.0000
     25 ****        -3.5355  -1.7933   0.3855 H              1 S1                 0.0000
     26 ****        -2.7252  -0.8905   2.6521 H              1 S1                 0.0000
     27 ****        -3.0359   1.4945   3.9416 H              1 S1                 0.0000
     28 ****        -4.1884   3.1046   2.0026 H              1 S1                 0.0000
     29 ****        -0.9006  -1.6633  -0.3989 H              1 S1                 0.0000
     30 ****         0.8587  -2.1294   1.0647 H              1 S1                 0.0000
     31 ****         1.0219  -1.9155  -0.6634 H              1 S1                 0.0000
     32 ****         3.1747  -1.3001   1.4069 H              1 S1                 0.0000
     33 ****         3.1559  -2.5840   0.2671 H              1 S1                 0.0000
     34 ****         4.6424  -0.5834  -0.3138 H              1 S1                 0.0000
     35 ****         3.6163  -1.2050  -1.5843 H              1 S1                 0.0000
     36 ****         4.8057   1.7063  -1.3958 H              1 S1                 0.0000
     37 ****         3.3270   2.3800  -2.0930 H              1 S1                 0.0000
     38 ****         3.9996   0.8892  -2.7407 H              1 S1                 0.0000
     39 ****         3.5874   1.5986   0.9662 H              1 S1                 0.0000
     40 ****         2.3661   2.4405   0.0459 H              1 S1                 0.0000
     41 ****         0.9462   1.6300   1.6317 H              1 S1                 0.0000
     42 ****         1.9630   0.3387   2.0914 H              1 S1                 0.0000
     43 ****         2.1376   0.5106  -1.3227 H              1 S1                 0.0000
     44 ****        -4.4747   1.7939  -0.0604 LP             1 S1                 0.0000
     45 ****        -1.6062   1.7217  -0.6514 LP             1 S1                 0.0000
     46 ****        -0.0892   2.1819   0.0466 LP             1 S1                 0.0000
@<TRIPOS>BOND
    1    1    2 1     
    2    1   20 1     
    3    1   21 1     
    4    1   22 1     
    5    2    3 1     
    6    2    9 1     
    7    2   23 1     
    8    3    4 1     
    9    3   24 1     
   10    3   25 1     
   11    4    8 1     
   12    4    5 1     
   13    5    6 2     
   14    5   26 1     
   15    6    7 1     
   16    6   27 1     
   17    7    8 2     
   18    7   28 1     
   19    9   10 am    
   20    9   29 1     
   21   10   11 2     
   22   10   12 am    
   23   12   19 1     
   24   12   13 1     
   25   13   14 1     
   26   13   30 1     
   27   13   31 1     
   28   14   15 1     
   29   14   32 1     
   30   14   33 1     
   31   15   16 1     
   32   15   34 1     
   33   15   35 1     
   34   16   17 1     
   35   16   18 1     
   36   16   43 1     
   37   17   36 1     
   38   17   37 1     
   39   17   38 1     
   40   18   19 1     
   41   18   39 1     
   42   18   40 1     
   43   19   41 1     
   44   19   42 1     
   45    8   44 1     
   46   11   45 1     
   47   11   46 1     
@<TRIPOS>SUBSTRUCTURE
      1 S1             1
@<TRIPOS>SET
LONE_PAIRS      STATIC     ATOMS    <user>   **** ""
3 44 45 46
DONOR_HYDROGENS      STATIC     ATOMS    <user>   **** ""
2 29 43
ATOM$BLUE        STATIC     ATOMS    COLORGROUP SYSTEM
3 44 45 46
ATOM$RED        STATIC     ATOMS    COLORGROUP SYSTEM
2 29 43
