AV-unprocessed.smi:837|AV-procd|sdf|3901|dock5
  -GOLD-   22720 1363D 1   1.00000     0.00000
 Structure written by MMmdl.
 48 50  0  0  0  0  0  0  0  0  2 V2000
  148.4129  139.6955  153.9190 C   0  0  0  0  0  0  0  0  0  0  0  0
  149.1649  140.4358  155.0470 C   0  0  1  0  0  0  0  0  0  0  0  0
  148.1636  140.9057  156.1265 C   0  0  0  0  0  0  0  0  0  0  0  0
  148.8517  141.7157  157.2348 C   0  0  0  0  0  0  0  0  0  0  0  0
  149.9900  140.9174  157.8822 C   0  0  0  0  0  0  0  0  0  0  0  0
  151.0060  140.4502  156.8255 C   0  0  0  0  0  0  0  0  0  0  0  0
  150.3648  139.6420  155.6650 C   0  0  2  0  0  0  0  0  0  0  0  0
  151.3834  139.3984  154.6581 N   0  5  0  0  0  0  0  0  0  0  0  0
  151.5947  138.0659  154.5526 C   0  0  0  0  0  0  0  0  0  0  0  0
  152.4007  137.5054  153.8107 O   0  0  0  0  0  0  0  0  0  0  0  0
  150.7899  137.3818  155.3872 N   0  0  0  0  0  0  0  0  0  0  0  0
  150.7775  135.9200  155.5375 C   0  0  0  0  0  0  0  0  0  0  0  0
  149.3654  135.3160  155.5528 C   0  0  0  0  0  0  0  0  0  0  0  0
  148.8087  135.0172  156.6107 O   0  0  0  0  0  0  0  0  0  0  0  0
  148.7908  135.1487  154.3519 N   0  0  0  0  0  0  0  0  0  0  0  0
  147.4575  134.6012  154.1328 C   0  0  0  0  0  0  0  0  0  0  0  0
  147.4878  133.4070  153.1650 C   0  0  0  0  0  0  0  0  0  0  0  0
  146.2726  133.3787  152.2589 C   0  0  0  0  0  0  0  0  0  0  0  0
  145.4252  132.2523  152.2235 C   0  0  0  0  0  0  0  0  0  0  0  0
  144.3047  132.2733  151.3707 C   0  0  0  0  0  0  0  0  0  0  0  0
  144.0789  133.4236  150.5884 C   0  0  0  0  0  0  0  0  0  0  0  0
  144.8832  134.5084  150.6150 N   0  0  0  0  0  0  0  0  0  0  0  0
  145.9560  134.4798  151.4348 C   0  0  0  0  0  0  0  0  0  0  0  0
  150.0211  138.2170  156.0948 C   0  0  0  0  0  0  0  0  0  0  0  0
  149.1824  137.9138  156.9446 O   0  0  0  0  0  0  0  0  0  0  0  0
  147.9165  138.7961  154.2839 H   0  0  0  0  0  0  0  0  0  0  0  0
  149.0846  139.4023  153.1121 H   0  0  0  0  0  0  0  0  0  0  0  0
  147.6462  140.3345  153.4804 H   0  0  0  0  0  0  0  0  0  0  0  0
  149.5801  141.3386  154.5952 H   0  0  0  0  0  0  0  0  0  0  0  0
  147.3882  141.5194  155.6669 H   0  0  0  0  0  0  0  0  0  0  0  0
  147.6488  140.0502  156.5643 H   0  0  0  0  0  0  0  0  0  0  0  0
  149.2473  142.6426  156.8173 H   0  0  0  0  0  0  0  0  0  0  0  0
  148.1222  142.0037  157.9923 H   0  0  0  0  0  0  0  0  0  0  0  0
  150.4937  141.5326  158.6281 H   0  0  0  0  0  0  0  0  0  0  0  0
  149.5822  140.0626  158.4216 H   0  0  0  0  0  0  0  0  0  0  0  0
  151.5102  141.3290  156.4195 H   0  0  0  0  0  0  0  0  0  0  0  0
  151.7853  139.8627  157.3145 H   0  0  0  0  0  0  0  0  0  0  0  0
  151.3433  135.4577  154.7271 H   0  0  0  0  0  0  0  0  0  0  0  0
  151.2944  135.6364  156.4558 H   0  0  0  0  0  0  0  0  0  0  0  0
  149.3150  135.4213  153.5331 H   0  0  0  0  0  0  0  0  0  0  0  0
  147.0129  134.3106  155.0863 H   0  0  0  0  0  0  0  0  0  0  0  0
  146.8283  135.3936  153.7261 H   0  0  0  0  0  0  0  0  0  0  0  0
  148.3887  133.4452  152.5507 H   0  0  0  0  0  0  0  0  0  0  0  0
  147.5345  132.4688  153.7202 H   0  0  0  0  0  0  0  0  0  0  0  0
  145.6281  131.3882  152.8393 H   0  0  0  0  0  0  0  0  0  0  0  0
  143.6343  131.4283  151.3177 H   0  0  0  0  0  0  0  0  0  0  0  0
  143.2291  133.4737  149.9238 H   0  0  0  0  0  0  0  0  0  0  0  0
  146.5781  135.3627  151.4346 H   0  0  0  0  0  0  0  0  0  0  0  0
  1  2  1  0  0  0  0
  1 26  1  0  0  0  0
  1 27  1  0  0  0  0
  1 28  1  0  0  0  0
  2  7  1  0  0  0  0
  2  3  1  0  0  0  0
  2 29  1  0  0  0  0
  3  4  1  0  0  0  0
  3 30  1  0  0  0  0
  3 31  1  0  0  0  0
  4  5  1  0  0  0  0
  4 32  1  0  0  0  0
  4 33  1  0  0  0  0
  5  6  1  0  0  0  0
  5 34  1  0  0  0  0
  5 35  1  0  0  0  0
  6  7  1  0  0  0  0
  6 36  1  0  0  0  0
  6 37  1  0  0  0  0
  7 24  1  0  0  0  0
  7  8  1  0  0  0  0
  8  9  1  0  0  0  0
  9 10  2  0  0  0  0
  9 11  1  0  0  0  0
 11 12  1  0  0  0  0
 11 24  1  0  0  0  0
 12 13  1  0  0  0  0
 12 38  1  0  0  0  0
 12 39  1  0  0  0  0
 13 14  2  0  0  0  0
 13 15  1  0  0  0  0
 15 16  1  0  0  0  0
 15 40  1  0  0  0  0
 16 17  1  0  0  0  0
 16 41  1  0  0  0  0
 16 42  1  0  0  0  0
 17 18  1  0  0  0  0
 17 43  1  0  0  0  0
 17 44  1  0  0  0  0
 18 23  1  0  0  0  0
 18 19  2  0  0  0  0
 19 20  1  0  0  0  0
 19 45  1  0  0  0  0
 20 21  2  0  0  0  0
 20 46  1  0  0  0  0
 21 22  1  0  0  0  0
 21 47  1  0  0  0  0
 22 23  2  0  0  0  0
 23 48  1  0  0  0  0
 24 25  2  0  0  0  0
M  CHG  1   8  -1
M  END
> <s_m_source_file>
AV-unprocessed.smi

> <i_m_source_file_index>
837

> <i_lp_mmshare_version>
43012

> <i_f3d_flags>
0

> <s_epik_input>
W0NIMl0xW0NIMl1bQ0gyXVtDSDJdW0NAQEhdKFtDSDNdKVtDQEBdMTJbTkhdQyg9TylOKEMyPU8pW0NIMl1DKD1PKVtOSF1bQ0gyXVtDSDJdYzNbY0hdW2NIXVtjSF1uW2NIXTM=

> <s_epik_cmdline>
J2VwaWtfcHl0aG9uJywgJy1waCcsICc3LjAnLCAnLXRuJywgJzgnLCAnLW1hJywgJzIwMCcsICctbWV0YWxfYmluZGluZycsICctaW1hZScsICc8aW5maWxlLm1hZT4nLCAnLW9tYWUnLCAnPG91dGZpbGUubWFlPic=

> <r_lp_tautomer_probability>
1

> <r_epik_Ionization_Penalty>
6.03002

> <r_epik_Ionization_Penalty_Charging>
6.01728

> <r_epik_Ionization_Penalty_Neutral>
0.0127382

> <r_epik_State_Penalty>
6.02713

> <r_epik_Charging_Adjusted_Penalty>
12.0444

> <i_epik_Tot_Q>
-1

> <i_epik_Tot_abs_Q>
1

> <r_epik_Metal_State_Penalty>
1.99078

> <b_epik_Metal_Only>
1

> <s_lp_Force_Field>
OPLS_2005

> <r_lp_Energy>
14.5441

> <b_lp_Chiralities_Consistent>
1

> <s_lp_Variant>
AV-unprocessed.smi:837-10

> <Gold.Version>
5.8.1

> <Gold.Id.Protein>
6NUR|6NUR_protein|mol2

> <Gold.PLP.Fitness>
45.2593

> <Gold.PLP.PLP>
-33.0246

> <Gold.PLP.part.hbond>
-3.0000

> <Gold.PLP.part.metal>
0.0000

> <Gold.PLP.part.buried>
-4.4370

> <Gold.PLP.part.nonpolar>
-26.7400

> <Gold.PLP.part.repulsive>
0.7921

> <Gold.PLP.ligand.clash>
0.0000

> <Gold.PLP.ligand.torsion>
0.7254

> <Gold.PLP.Chemscore.Hbond>
2.5520

> <Gold.PLP.Chemscore.CHOScore>
2.0000

> <Gold.PLP.Chemscore.Metal>
0.0000

> <Gold.Chemscore.Hbonds>
donor molecule, donor type, donor heavy atom, donor atom, acceptor molecule, acceptor atom, score
      L1  H    15    40       P1  7948  0.77
      P1  H  7989  7998       L1     8  1.00
      P1  H 10752 10765       L1    10  0.82
      L1  C    21    47       P1 10186  1.00
      L1  C    23    48       P1  7948  1.00

> <Gold.PLP.Chemscore.Internal.Correction>
0.0296

> <Gold.Rescore>
     Score         DG    S(hbond)    S(metal)    S(lipo)     H(rot)  DE(clash)    DE(int)     intcor
     15.02     -17.79       2.62        0.00      70.07       1.81       0.16       2.62       ----

> <Gold.Chemscore.Fitness>
15.0154

> <Gold.Chemscore.DG>
-17.7944

> <Gold.Chemscore.ZeroCoef>
-5.4800

> <Gold.Chemscore.Hbond>
2.6189

> <Gold.Chemscore.Metal>
0.0000

> <Gold.Chemscore.Lipo>
70.0710

> <Gold.Chemscore.Internal_Hbond>
0.0000

> <Gold.Chemscore.DEClash>
0.1638

> <Gold.Chemscore.DEInternal>
2.6152

> <Gold.Chemscore.Rot>
1.8090

> <Gold.Chemscore.Internal.Correction>
   9.000000E+99

> <Gold.Chemscore.Hbonds>
donor molecule, donor type, donor heavy atom, donor atom, acceptor molecule, acceptor atom, score
      L1  H    15    40       P1  7948  0.23
      P1  H  7989  7998       L1     8  0.88
      P1  H 10752 10765       L1    10  0.79

> <Gold.Chemscore.Hbond.Weighted>
-8.7471

> <Gold.Chemscore.Metal.Weighted>
-0.0000

> <Gold.Chemscore.Lipo.Weighted>
-8.1983

> <Gold.Chemscore.Internal_Hbond.Weighted>
0.0000

> <Gold.Chemscore.DEClash.Weighted>
0.1638

> <Gold.Chemscore.DEInternal.Weighted>
2.6152

> <Gold.Chemscore.Rot.Weighted>
4.6310

> <Gold.Chemscore.Internal.Correction.Weighted>
   9.000000E+99

> <Gold.Protein.RotatedTorsions>
[ 6907 6896 6895 6894 ] final  -91.75 input  -60.11 | X-H torsion
[ 7974 7965 7964 7962 ] final  147.80 input  175.53 | X-H torsion
[ 8008 7997 7996 7995 ] final  130.21 input   59.86 | X-H torsion
[ 10167 10162 10161 10158 ] final  -78.99 input  -65.29 | X-H torsion
[ 10718 10713 10712 10709 ] final  -41.74 input   66.30 | X-H torsion
[ 10763 10752 10751 10750 ] final  147.37 input  -60.55 | X-H torsion
[ 11005 11000 10999 10996 ] final   68.78 input  -57.11 | X-H torsion

> <Gold.Protein.ActiveResidues>
 VAL166  LYS551  ARG553  GLY616  TRP617  ASP618  TYR619  PRO620  LYS621  CYS622 
 ASP623  PHE694  ASN695  SER759  ASP760  ASP761  ALA762  ILE779  LEU786  VAL792 
 PHE793  MET794  SER795  GLU796  ALA797  LYS798  CYS799  TRP800  GLU811  SER814 

> <Gold.Protein.RotatedAtoms>
  150.6896  134.2229  159.4403 H   0  0  0  0  0  0  0  0  0  0  0  0  # atno 6907 bound_to 6896
  152.0184  134.9834  160.0579 H   0  0  0  0  0  0  0  0  0  0  0  0  # atno 6908 bound_to 6896
  152.1421  133.4435  159.4809 H   0  0  0  0  0  0  0  0  0  0  0  0  # atno 6909 bound_to 6896
  144.8563  139.6074  143.5951 H   0  0  0  0  0  0  0  0  0  0  0  0  # atno 7974 bound_to 7965
  156.2950  140.2601  156.2724 H   0  0  0  0  0  0  0  0  0  0  0  0  # atno 8008 bound_to 7997
  154.9682  140.0391  157.2240 H   0  0  0  0  0  0  0  0  0  0  0  0  # atno 8009 bound_to 7997
  154.7883  140.2807  155.6015 H   0  0  0  0  0  0  0  0  0  0  0  0  # atno 8010 bound_to 7997
  140.4633  143.2447  151.8316 H   0  0  0  0  0  0  0  0  0  0  0  0  # atno 10167 bound_to 10162
  156.2671  130.4203  149.8478 H   0  0  0  0  0  0  0  0  0  0  0  0  # atno 10718 bound_to 10713
  154.0371  135.2892  155.3360 H   0  0  0  0  0  0  0  0  0  0  0  0  # atno 10763 bound_to 10752
  154.6952  135.5210  153.8451 H   0  0  0  0  0  0  0  0  0  0  0  0  # atno 10764 bound_to 10752
  153.0615  135.6615  154.0579 H   0  0  0  0  0  0  0  0  0  0  0  0  # atno 10765 bound_to 10752
  139.9691  134.6930  156.0483 H   0  0  0  0  0  0  0  0  0  0  0  0  # atno 11005 bound_to 11000
  146.2825  139.6916  142.9218 LP  0  0  0  0  0  0  0  0  0  0  0  0  # atno 17320 bound_to 7965
  145.4400  141.0421  143.2863 LP  0  0  0  0  0  0  0  0  0  0  0  0  # atno 17321 bound_to 7965
  139.4809  144.4981  151.9096 LP  0  0  0  0  0  0  0  0  0  0  0  0  # atno 17342 bound_to 10162
  140.4067  144.2423  150.5890 LP  0  0  0  0  0  0  0  0  0  0  0  0  # atno 17343 bound_to 10162
  156.5973  130.8531  151.3423 LP  0  0  0  0  0  0  0  0  0  0  0  0  # atno 17370 bound_to 10713
  157.7271  130.9638  150.1685 LP  0  0  0  0  0  0  0  0  0  0  0  0  # atno 17371 bound_to 10713
  141.1371  133.6572  156.3625 LP  0  0  0  0  0  0  0  0  0  0  0  0  # atno 17394 bound_to 11000
  140.5331  134.6193  157.5356 LP  0  0  0  0  0  0  0  0  0  0  0  0  # atno 17395 bound_to 11000

$$$$
