AV-unprocessed.smi:40|AV-procd|sdf|380|dock2
  -GOLD-   2262016233D 1   1.00000     0.00000
 Structure written by MMmdl.
 47 48  0  0  0  0  0  0  0  0  1 V2000
  151.9903  145.5290  158.9026 C   0  0  0  0  0  0  0  0  0  0  0  0
  152.6578  144.6301  159.9490 C   0  0  0  0  0  0  0  0  0  0  0  0
  152.9803  143.2328  159.4020 C   0  0  0  0  0  0  0  0  0  0  0  0
  153.5901  142.3061  160.4663 C   0  0  0  0  0  0  0  0  0  0  0  0
  153.9463  140.9162  159.9216 C   0  0  0  0  0  0  0  0  0  0  0  0
  153.9464  139.9836  160.9895 O   0  0  0  0  0  0  0  0  0  0  0  0
  153.9708  138.6614  160.7463 C   0  0  0  0  0  0  0  0  0  0  0  0
  154.0036  138.1695  159.6185 O   0  0  0  0  0  0  0  0  0  0  0  0
  153.9885  137.8913  161.9799 N   0  0  0  0  0  0  0  0  0  0  0  0
  154.0144  136.5458  162.1514 C   0  0  0  0  0  0  0  0  0  0  0  0
  154.4479  135.7129  161.2200 N   0  0  0  0  0  0  0  0  0  0  0  0
  154.5018  134.3526  161.3626 C   0  0  0  0  0  0  0  0  0  0  0  0
  154.8365  133.6580  160.4048 O   0  0  0  0  0  0  0  0  0  0  0  0
  154.1489  133.8096  162.6291 N   0  0  0  0  0  0  0  0  0  0  0  0
  154.1169  132.2984  162.8616 C   0  0  1  0  0  0  0  0  0  0  0  0
  153.3266  132.0006  163.9794 O   0  0  0  0  0  0  0  0  0  0  0  0
  152.0040  131.6837  163.5785 C   0  0  2  0  0  0  0  0  0  0  0  0
  151.1969  131.0506  164.7216 C   0  0  0  0  0  0  0  0  0  0  0  0
  152.2612  130.8095  162.3534 C   0  0  2  0  0  0  0  0  0  0  0  0
  152.5999  129.4874  162.7407 O   0  0  0  0  0  0  0  0  0  0  0  0
  153.4211  131.5503  161.6883 C   0  0  2  0  0  0  0  0  0  0  0  0
  154.2878  130.6837  160.9799 O   0  0  0  0  0  0  0  0  0  0  0  0
  153.6356  134.6695  163.5941 C   0  0  0  0  0  0  0  0  0  0  0  0
  153.5742  136.0069  163.4175 C   0  0  0  0  0  0  0  0  0  0  0  0
  153.1019  136.8070  164.3892 F   0  0  0  0  0  0  0  0  0  0  0  0
  155.1581  132.0204  163.0297 H   0  0  0  0  0  0  0  0  0  0  0  0
  151.5123  132.6068  163.2654 H   0  0  0  0  0  0  0  0  0  0  0  0
  151.3882  130.7598  161.7017 H   0  0  0  0  0  0  0  0  0  0  0  0
  152.9775  132.2590  160.9899 H   0  0  0  0  0  0  0  0  0  0  0  0
  151.7706  146.5125  159.3185 H   0  0  0  0  0  0  0  0  0  0  0  0
  151.0510  145.0974  158.5552 H   0  0  0  0  0  0  0  0  0  0  0  0
  152.6361  145.6707  158.0357 H   0  0  0  0  0  0  0  0  0  0  0  0
  153.5728  145.1061  160.3035 H   0  0  0  0  0  0  0  0  0  0  0  0
  152.0000  144.5408  160.8146 H   0  0  0  0  0  0  0  0  0  0  0  0
  152.0654  142.7881  159.0099 H   0  0  0  0  0  0  0  0  0  0  0  0
  153.6655  143.3195  158.5582 H   0  0  0  0  0  0  0  0  0  0  0  0
  154.4913  142.7681  160.8702 H   0  0  0  0  0  0  0  0  0  0  0  0
  152.8991  142.1991  161.3033 H   0  0  0  0  0  0  0  0  0  0  0  0
  153.2299  140.6089  159.1587 H   0  0  0  0  0  0  0  0  0  0  0  0
  154.9324  140.9438  159.4557 H   0  0  0  0  0  0  0  0  0  0  0  0
  153.9672  138.4558  162.8166 H   0  0  0  0  0  0  0  0  0  0  0  0
  150.2067  130.7481  164.3804 H   0  0  0  0  0  0  0  0  0  0  0  0
  151.0648  131.7617  165.5372 H   0  0  0  0  0  0  0  0  0  0  0  0
  151.6956  130.1724  165.1321 H   0  0  0  0  0  0  0  0  0  0  0  0
  153.0059  129.0569  162.0037 H   0  0  0  0  0  0  0  0  0  0  0  0
  154.0687  129.7915  161.2008 H   0  0  0  0  0  0  0  0  0  0  0  0
  153.2574  134.2794  164.5272 H   0  0  0  0  0  0  0  0  0  0  0  0
  1  2  1  0  0  0  0
  1 30  1  0  0  0  0
  1 31  1  0  0  0  0
  1 32  1  0  0  0  0
  2  3  1  0  0  0  0
  2 33  1  0  0  0  0
  2 34  1  0  0  0  0
  3  4  1  0  0  0  0
  3 35  1  0  0  0  0
  3 36  1  0  0  0  0
  4  5  1  0  0  0  0
  4 37  1  0  0  0  0
  4 38  1  0  0  0  0
  5  6  1  0  0  0  0
  5 39  1  0  0  0  0
  5 40  1  0  0  0  0
  6  7  1  0  0  0  0
  7  8  2  0  0  0  0
  7  9  1  0  0  0  0
  9 10  1  0  0  0  0
  9 41  1  0  0  0  0
 10 24  1  0  0  0  0
 10 11  2  0  0  0  0
 11 12  1  0  0  0  0
 12 13  2  0  0  0  0
 12 14  1  0  0  0  0
 14 15  1  0  0  0  0
 14 23  1  0  0  0  0
 15 26  1  0  0  0  0
 15 21  1  0  0  0  0
 15 16  1  0  0  0  0
 16 17  1  0  0  0  0
 17 27  1  0  0  0  0
 17 18  1  0  0  0  0
 17 19  1  0  0  0  0
 18 42  1  0  0  0  0
 18 43  1  0  0  0  0
 18 44  1  0  0  0  0
 19 28  1  0  0  0  0
 19 20  1  0  0  0  0
 19 21  1  0  0  0  0
 20 45  1  0  0  0  0
 21 29  1  0  0  0  0
 21 22  1  0  0  0  0
 22 46  1  0  0  0  0
 23 24  2  0  0  0  0
 23 47  1  0  0  0  0
 24 25  1  0  0  0  0
M  END
> <s_m_source_file>
AV-unprocessed.smi

> <i_m_source_file_index>
40

> <i_lp_mmshare_version>
43012

> <i_f3d_flags>
0

> <s_epik_input>
W0NIM11bQ0gyXVtDSDJdW0NIMl1bQ0gyXU9DKD1PKVtOSF1jMW5jKD1PKW4oW2NIXWMxRilbQ0BASF0yT1tDQEhdKFtDSDNdKVtDQEBIXShbT0hdKVtDQEhdMltPSF0=

> <s_epik_cmdline>
J2VwaWtfcHl0aG9uJywgJy1waCcsICc3LjAnLCAnLXRuJywgJzgnLCAnLW1hJywgJzIwMCcsICctbWV0YWxfYmluZGluZycsICctaW1hZScsICc8aW5maWxlLm1hZT4nLCAnLW9tYWUnLCAnPG91dGZpbGUubWFlPic=

> <r_lp_tautomer_probability>
1

> <r_epik_Ionization_Penalty>
2.29506e-06

> <r_epik_Ionization_Penalty_Charging>
8.26867e-09

> <r_epik_Ionization_Penalty_Neutral>
2.2868e-06

> <r_epik_State_Penalty>
-0

> <r_epik_Charging_Adjusted_Penalty>
8.26867e-09

> <i_epik_Tot_Q>
0

> <i_epik_Tot_abs_Q>
0

> <r_epik_Metal_State_Penalty>
-0

> <b_epik_Metal_Only>
0

> <s_epik_Chemistry_Notes>
This compound has an ester and may undergo hydrolysis at high or low pH. This compound contains an acetal/aminal-like group ( X-CH(R)-Y where X, Y are N, S, or O) that may be acid/base labile, releasing an aldehyde.

> <s_lp_Force_Field>
OPLS_2005

> <r_lp_Energy>
41.2702

> <b_lp_Chiralities_Consistent>
1

> <s_lp_Variant>
AV-unprocessed.smi:40-14

> <Gold.Version>
5.8.1

> <Gold.Id.Protein>
6NUR|6NUR_protein|mol2

> <Gold.PLP.Fitness>
44.3227

> <Gold.PLP.PLP>
-45.2828

> <Gold.PLP.part.hbond>
0.0000

> <Gold.PLP.part.metal>
0.0000

> <Gold.PLP.part.buried>
-5.2692

> <Gold.PLP.part.nonpolar>
-39.9481

> <Gold.PLP.part.repulsive>
0.0000

> <Gold.PLP.ligand.clash>
0.0000

> <Gold.PLP.ligand.torsion>
0.5926

> <Gold.PLP.Chemscore.Hbond>
0.0000

> <Gold.PLP.Chemscore.CHOScore>
0.0000

> <Gold.PLP.Chemscore.Metal>
0.0000

> <Gold.PLP.Chemscore.Internal.Correction>
0.2251

> <Gold.Rescore>
     Score         DG    S(hbond)    S(metal)    S(lipo)     H(rot)  DE(clash)    DE(int)     intcor
      4.88      -7.86       0.00        0.00     101.18       3.70       0.14       2.84       ----

> <Gold.Chemscore.Fitness>
4.8777

> <Gold.Chemscore.DG>
-7.8573

> <Gold.Chemscore.ZeroCoef>
-5.4800

> <Gold.Chemscore.Hbond>
0.0000

> <Gold.Chemscore.Metal>
0.0000

> <Gold.Chemscore.Lipo>
101.1821

> <Gold.Chemscore.Internal_Hbond>
0.0000

> <Gold.Chemscore.DEClash>
0.1383

> <Gold.Chemscore.DEInternal>
2.8414

> <Gold.Chemscore.Rot>
3.6957

> <Gold.Chemscore.Internal.Correction>
   9.000000E+99

> <Gold.Chemscore.Hbond.Weighted>
-0.0000

> <Gold.Chemscore.Metal.Weighted>
-0.0000

> <Gold.Chemscore.Lipo.Weighted>
-11.8383

> <Gold.Chemscore.Internal_Hbond.Weighted>
0.0000

> <Gold.Chemscore.DEClash.Weighted>
0.1383

> <Gold.Chemscore.DEInternal.Weighted>
2.8414

> <Gold.Chemscore.Rot.Weighted>
9.4610

> <Gold.Chemscore.Internal.Correction.Weighted>
   9.000000E+99

> <Gold.Protein.RotatedTorsions>
[ 6907 6896 6895 6894 ] final -158.47 input  -60.11 | X-H torsion
[ 7974 7965 7964 7962 ] final -117.41 input  175.53 | X-H torsion
[ 8008 7997 7996 7995 ] final -106.93 input   59.86 | X-H torsion
[ 10167 10162 10161 10158 ] final -157.78 input  -65.29 | X-H torsion
[ 10718 10713 10712 10709 ] final  131.69 input   66.30 | X-H torsion
[ 10763 10752 10751 10750 ] final  124.53 input  -60.55 | X-H torsion
[ 11005 11000 10999 10996 ] final  -66.97 input  -57.11 | X-H torsion

> <Gold.Protein.ActiveResidues>
 VAL166  LYS551  ARG553  GLY616  TRP617  ASP618  TYR619  PRO620  LYS621  CYS622 
 ASP623  PHE694  ASN695  SER759  ASP760  ASP761  ALA762  ILE779  LEU786  VAL792 
 PHE793  MET794  SER795  GLU796  ALA797  LYS798  CYS799  TRP800  GLU811  SER814 

> <Gold.Protein.RotatedAtoms>
  151.3187  133.4049  159.2652 H   0  0  0  0  0  0  0  0  0  0  0  0  # atno 6907 bound_to 6896
  151.0053  134.9355  159.7987 H   0  0  0  0  0  0  0  0  0  0  0  0  # atno 6908 bound_to 6896
  152.5286  134.3152  159.9180 H   0  0  0  0  0  0  0  0  0  0  0  0  # atno 6909 bound_to 6896
  145.0856  140.8455  143.4013 H   0  0  0  0  0  0  0  0  0  0  0  0  # atno 7974 bound_to 7965
  154.9218  140.0407  157.2002 H   0  0  0  0  0  0  0  0  0  0  0  0  # atno 8008 bound_to 7997
  154.8247  140.2889  155.5741 H   0  0  0  0  0  0  0  0  0  0  0  0  # atno 8009 bound_to 7997
  156.2982  140.2512  156.3160 H   0  0  0  0  0  0  0  0  0  0  0  0  # atno 8010 bound_to 7997
  139.6743  143.9690  152.2302 H   0  0  0  0  0  0  0  0  0  0  0  0  # atno 10167 bound_to 10162
  157.4943  131.1092  150.9514 H   0  0  0  0  0  0  0  0  0  0  0  0  # atno 10718 bound_to 10713
  153.6628  135.3343  155.3132 H   0  0  0  0  0  0  0  0  0  0  0  0  # atno 10763 bound_to 10752
  154.8510  135.4368  154.1786 H   0  0  0  0  0  0  0  0  0  0  0  0  # atno 10764 bound_to 10752
  153.2757  135.7004  153.7511 H   0  0  0  0  0  0  0  0  0  0  0  0  # atno 10765 bound_to 10752
  141.1496  133.6710  156.6222 H   0  0  0  0  0  0  0  0  0  0  0  0  # atno 11005 bound_to 11000
  145.1127  139.2746  143.5629 LP  0  0  0  0  0  0  0  0  0  0  0  0  # atno 17320 bound_to 7965
  146.3531  140.0727  142.8622 LP  0  0  0  0  0  0  0  0  0  0  0  0  # atno 17321 bound_to 7965
  139.9463  144.6649  150.8216 LP  0  0  0  0  0  0  0  0  0  0  0  0  # atno 17342 bound_to 10162
  140.7630  143.3211  151.2619 LP  0  0  0  0  0  0  0  0  0  0  0  0  # atno 17343 bound_to 10162
  157.0206  130.5672  149.5331 LP  0  0  0  0  0  0  0  0  0  0  0  0  # atno 17370 bound_to 10713
  156.0191  130.5286  150.8223 LP  0  0  0  0  0  0  0  0  0  0  0  0  # atno 17371 bound_to 10713
  140.3532  134.7751  157.4481 LP  0  0  0  0  0  0  0  0  0  0  0  0  # atno 17394 bound_to 11000
  140.0844  134.5687  155.8507 LP  0  0  0  0  0  0  0  0  0  0  0  0  # atno 17395 bound_to 11000

$$$$
