AV-unprocessed.smi:2014|AV-procd|sdf|8161|dock3
  -GOLD-   2272010403D 1   1.00000     0.00000
 Structure written by MMmdl.
 46 48  0  0  0  0  0  0  0  0  1 V2000
  149.7670  130.2435  155.7876 C   0  0  0  0  0  0  0  0  0  0  0  0
  150.1652  131.6313  155.2655 C   0  0  2  0  0  0  0  0  0  0  0  0
  150.5127  132.5892  156.4211 C   0  0  0  0  0  0  0  0  0  0  0  0
  150.9086  133.9816  155.9046 C   0  0  0  0  0  0  0  0  0  0  0  0
  149.8078  134.5869  155.0102 C   0  0  1  0  0  0  0  0  0  0  0  0
  150.2378  135.8719  154.4679 N   0  0  0  0  0  0  0  0  0  0  0  0
  150.8972  136.8206  155.1500 C   0  0  0  0  0  0  0  0  0  0  0  0
  151.2004  136.7090  156.3390 O   0  0  0  0  0  0  0  0  0  0  0  0
  151.2617  138.0831  154.3542 C   0  0  0  0  0  0  0  0  0  0  0  0
  150.6166  139.3112  154.8686 N   0  0  0  0  0  0  0  0  0  0  0  0
  151.3468  140.1343  155.7638 C   0  0  0  0  0  0  0  0  0  0  0  0
  152.5024  139.8522  156.0861 O   0  0  0  0  0  0  0  0  0  0  0  0
  150.6311  141.3031  156.2700 C   0  0  0  0  0  0  0  0  0  0  0  0
  151.3190  142.1347  157.2009 C   0  0  0  0  0  0  0  0  0  0  0  0
  151.8597  142.8060  157.9735 N   0  0  0  0  0  0  0  0  0  0  0  0
  149.3704  141.5716  155.8725 C   0  0  0  0  0  0  0  0  0  0  0  0
  148.6934  140.7810  154.9696 N   0  0  0  0  0  0  0  0  0  0  0  0
  147.3045  140.9992  154.6788 C   0  0  0  0  0  0  0  0  0  0  0  0
  146.8719  142.2034  153.8646 C   0  0  0  0  0  0  0  0  0  0  0  0
  146.5885  142.1532  155.3461 C   0  0  0  0  0  0  0  0  0  0  0  0
  149.2832  139.5931  154.4847 C   0  0  0  0  0  0  0  0  0  0  0  0
  148.6548  138.8192  153.7583 O   0  0  0  0  0  0  0  0  0  0  0  0
  149.4584  133.6294  153.8562 C   0  0  0  0  0  0  0  0  0  0  0  0
  149.0613  132.2392  154.3791 C   0  0  0  0  0  0  0  0  0  0  0  0
  148.8775  130.2960  156.4165 H   0  0  0  0  0  0  0  0  0  0  0  0
  150.5687  129.8031  156.3813 H   0  0  0  0  0  0  0  0  0  0  0  0
  149.5540  129.5605  154.9644 H   0  0  0  0  0  0  0  0  0  0  0  0
  151.0586  131.5067  154.6514 H   0  0  0  0  0  0  0  0  0  0  0  0
  149.6579  132.6826  157.0925 H   0  0  0  0  0  0  0  0  0  0  0  0
  151.3281  132.1764  157.0162 H   0  0  0  0  0  0  0  0  0  0  0  0
  151.1103  134.6388  156.7515 H   0  0  0  0  0  0  0  0  0  0  0  0
  151.8418  133.9069  155.3441 H   0  0  0  0  0  0  0  0  0  0  0  0
  148.9076  134.7365  155.6097 H   0  0  0  0  0  0  0  0  0  0  0  0
  150.0267  136.0485  153.4964 H   0  0  0  0  0  0  0  0  0  0  0  0
  152.3473  138.1949  154.3500 H   0  0  0  0  0  0  0  0  0  0  0  0
  151.0108  137.9113  153.3065 H   0  0  0  0  0  0  0  0  0  0  0  0
  148.8709  142.4423  156.2726 H   0  0  0  0  0  0  0  0  0  0  0  0
  146.7139  140.0958  154.5364 H   0  0  0  0  0  0  0  0  0  0  0  0
  147.6365  142.9019  153.5296 H   0  0  0  0  0  0  0  0  0  0  0  0
  146.0314  142.0731  153.1862 H   0  0  0  0  0  0  0  0  0  0  0  0
  145.5577  141.9927  155.6553 H   0  0  0  0  0  0  0  0  0  0  0  0
  147.1684  142.8160  155.9856 H   0  0  0  0  0  0  0  0  0  0  0  0
  148.6436  134.0431  153.2604 H   0  0  0  0  0  0  0  0  0  0  0  0
  150.3128  133.5309  153.1847 H   0  0  0  0  0  0  0  0  0  0  0  0
  148.8531  131.5793  153.5362 H   0  0  0  0  0  0  0  0  0  0  0  0
  148.1327  132.3169  154.9463 H   0  0  0  0  0  0  0  0  0  0  0  0
  1  2  1  0  0  0  0
  1 25  1  0  0  0  0
  1 26  1  0  0  0  0
  1 27  1  0  0  0  0
  2 24  1  0  0  0  0
  2  3  1  0  0  0  0
  2 28  1  0  0  0  0
  3  4  1  0  0  0  0
  3 29  1  0  0  0  0
  3 30  1  0  0  0  0
  4  5  1  0  0  0  0
  4 31  1  0  0  0  0
  4 32  1  0  0  0  0
  5  6  1  0  0  0  0
  5 23  1  0  0  0  0
  5 33  1  0  0  0  0
  6  7  1  0  0  0  0
  6 34  1  0  0  0  0
  7  8  2  0  0  0  0
  7  9  1  0  0  0  0
  9 10  1  0  0  0  0
  9 35  1  0  0  0  0
  9 36  1  0  0  0  0
 10 21  1  0  0  0  0
 10 11  1  0  0  0  0
 11 12  2  0  0  0  0
 11 13  1  0  0  0  0
 13 14  1  0  0  0  0
 13 16  2  0  0  0  0
 14 15  3  0  0  0  0
 16 17  1  0  0  0  0
 16 37  1  0  0  0  0
 17 18  1  0  0  0  0
 17 21  1  0  0  0  0
 18 20  1  0  0  0  0
 18 19  1  0  0  0  0
 18 38  1  0  0  0  0
 19 20  1  0  0  0  0
 19 39  1  0  0  0  0
 19 40  1  0  0  0  0
 20 41  1  0  0  0  0
 20 42  1  0  0  0  0
 21 22  2  0  0  0  0
 23 24  1  0  0  0  0
 23 43  1  0  0  0  0
 23 44  1  0  0  0  0
 24 45  1  0  0  0  0
 24 46  1  0  0  0  0
M  END
> <s_m_source_file>
AV-unprocessed.smi

> <i_m_source_file_index>
2014

> <i_lp_mmshare_version>
43012

> <i_f3d_flags>
0

> <s_epik_input>
W0NIM11bQ0BASF0xW0NIMl1bQ0gyXVtDQEhdKFtDSDJdW0NIMl0xKVtOSF1DKD1PKVtDSDJdbjJjKD1PKWMoQyNOKVtjSF1uKGMyPU8pW0NIXTNbQ0gyXVtDSDJdMw==

> <s_epik_cmdline>
J2VwaWtfcHl0aG9uJywgJy1waCcsICc3LjAnLCAnLXRuJywgJzgnLCAnLW1hJywgJzIwMCcsICctbWV0YWxfYmluZGluZycsICctaW1hZScsICc8aW5maWxlLm1hZT4nLCAnLW9tYWUnLCAnPG91dGZpbGUubWFlPic=

> <r_lp_tautomer_probability>
1

> <r_epik_Ionization_Penalty>
1.91358e-08

> <r_epik_Ionization_Penalty_Charging>
8.89021e-11

> <r_epik_Ionization_Penalty_Neutral>
1.90469e-08

> <r_epik_State_Penalty>
-0

> <r_epik_Charging_Adjusted_Penalty>
8.89021e-11

> <i_epik_Tot_Q>
0

> <i_epik_Tot_abs_Q>
0

> <r_epik_Metal_State_Penalty>
-0

> <b_epik_Metal_Only>
0

> <s_lp_Force_Field>
OPLS_2005

> <r_lp_Energy>
34.0792

> <b_lp_Chiralities_Consistent>
1

> <s_lp_Variant>
AV-unprocessed.smi:2014-1

> <Gold.Version>
5.8.1

> <Gold.Id.Protein>
6NUR|6NUR_protein|mol2

> <Gold.PLP.Fitness>
50.3142

> <Gold.PLP.PLP>
-43.9518

> <Gold.PLP.part.hbond>
-2.8377

> <Gold.PLP.part.metal>
0.0000

> <Gold.PLP.part.buried>
-4.5582

> <Gold.PLP.part.nonpolar>
-37.1162

> <Gold.PLP.part.repulsive>
1.2848

> <Gold.PLP.ligand.clash>
0.0000

> <Gold.PLP.ligand.torsion>
0.6735

> <Gold.PLP.Chemscore.Hbond>
1.5000

> <Gold.PLP.Chemscore.CHOScore>
1.0000

> <Gold.PLP.Chemscore.Metal>
0.0000

> <Gold.Chemscore.Hbonds>
donor molecule, donor type, donor heavy atom, donor atom, acceptor molecule, acceptor atom, score
      L1  H     6    34       P1  7948  0.50
      P1  H  7997  8010       L1    12  1.00
      L1  C    16    37       P1  8028  1.00

> <Gold.PLP.Chemscore.Internal.Correction>
0.2093

> <Gold.Rescore>
     Score         DG    S(hbond)    S(metal)    S(lipo)     H(rot)  DE(clash)    DE(int)     intcor
     13.92     -14.46       1.80        0.00      62.70       1.70       0.06       0.48       ----

> <Gold.Chemscore.Fitness>
13.9158

> <Gold.Chemscore.DG>
-14.4562

> <Gold.Chemscore.ZeroCoef>
-5.4800

> <Gold.Chemscore.Hbond>
1.7970

> <Gold.Chemscore.Metal>
0.0000

> <Gold.Chemscore.Lipo>
62.7017

> <Gold.Chemscore.Internal_Hbond>
0.0000

> <Gold.Chemscore.DEClash>
0.0594

> <Gold.Chemscore.DEInternal>
0.4810

> <Gold.Chemscore.Rot>
1.7038

> <Gold.Chemscore.Internal.Correction>
   9.000000E+99

> <Gold.Chemscore.Hbonds>
donor molecule, donor type, donor heavy atom, donor atom, acceptor molecule, acceptor atom, score
      L1  H     6    34       P1  7948  0.02
      P1  H  7997  8010       L1    12  1.00

> <Gold.Chemscore.Hbond.Weighted>
-6.0019

> <Gold.Chemscore.Metal.Weighted>
-0.0000

> <Gold.Chemscore.Lipo.Weighted>
-7.3361

> <Gold.Chemscore.Internal_Hbond.Weighted>
0.0000

> <Gold.Chemscore.DEClash.Weighted>
0.0594

> <Gold.Chemscore.DEInternal.Weighted>
0.4810

> <Gold.Chemscore.Rot.Weighted>
4.3618

> <Gold.Chemscore.Internal.Correction.Weighted>
   9.000000E+99

> <Gold.Protein.RotatedTorsions>
[ 6907 6896 6895 6894 ] final   54.07 input  -60.11 | X-H torsion
[ 7974 7965 7964 7962 ] final   45.78 input  175.53 | X-H torsion
[ 8008 7997 7996 7995 ] final   84.67 input   59.86 | X-H torsion
[ 10167 10162 10161 10158 ] final  128.86 input  -65.29 | X-H torsion
[ 10718 10713 10712 10709 ] final   31.59 input   66.30 | X-H torsion
[ 10763 10752 10751 10750 ] final  -23.93 input  -60.55 | X-H torsion
[ 11005 11000 10999 10996 ] final  -12.90 input  -57.11 | X-H torsion

> <Gold.Protein.ActiveResidues>
 VAL166  LYS551  ARG553  GLY616  TRP617  ASP618  TYR619  PRO620  LYS621  CYS622 
 ASP623  PHE694  ASN695  SER759  ASP760  ASP761  ALA762  ILE779  LEU786  VAL792 
 PHE793  MET794  SER795  GLU796  ALA797  LYS798  CYS799  TRP800  GLU811  SER814 

> <Gold.Protein.RotatedAtoms>
  152.3401  134.7146  160.0265 H   0  0  0  0  0  0  0  0  0  0  0  0  # atno 6907 bound_to 6896
  151.7534  133.3323  159.3406 H   0  0  0  0  0  0  0  0  0  0  0  0  # atno 6908 bound_to 6896
  150.7474  134.6104  159.6128 H   0  0  0  0  0  0  0  0  0  0  0  0  # atno 6909 bound_to 6896
  146.0449  139.4927  142.9755 H   0  0  0  0  0  0  0  0  0  0  0  0  # atno 7974 bound_to 7965
  155.9401  140.3408  155.6320 H   0  0  0  0  0  0  0  0  0  0  0  0  # atno 8008 bound_to 7997
  155.7050  140.0765  157.2413 H   0  0  0  0  0  0  0  0  0  0  0  0  # atno 8009 bound_to 7997
  154.4101  140.1633  156.2220 H   0  0  0  0  0  0  0  0  0  0  0  0  # atno 8010 bound_to 7997
  139.5506  144.6810  151.4335 H   0  0  0  0  0  0  0  0  0  0  0  0  # atno 10167 bound_to 10162
  157.2744  130.7224  149.6522 H   0  0  0  0  0  0  0  0  0  0  0  0  # atno 10718 bound_to 10713
  153.6756  135.6969  153.5133 H   0  0  0  0  0  0  0  0  0  0  0  0  # atno 10763 bound_to 10752
  153.2524  135.4271  155.0810 H   0  0  0  0  0  0  0  0  0  0  0  0  # atno 10764 bound_to 10752
  154.8414  135.3534  154.6300 H   0  0  0  0  0  0  0  0  0  0  0  0  # atno 10765 bound_to 10752
  140.7706  133.8442  155.9203 H   0  0  0  0  0  0  0  0  0  0  0  0  # atno 11005 bound_to 11000
  145.6823  141.0188  143.1600 LP  0  0  0  0  0  0  0  0  0  0  0  0  # atno 17320 bound_to 7965
  144.7093  139.8435  143.7420 LP  0  0  0  0  0  0  0  0  0  0  0  0  # atno 17321 bound_to 7965
  140.6767  143.8173  150.7068 LP  0  0  0  0  0  0  0  0  0  0  0  0  # atno 17342 bound_to 10162
  140.1614  143.4272  152.2064 LP  0  0  0  0  0  0  0  0  0  0  0  0  # atno 17343 bound_to 10162
  155.9663  130.4357  150.5104 LP  0  0  0  0  0  0  0  0  0  0  0  0  # atno 17370 bound_to 10713
  157.3035  131.0650  151.2051 LP  0  0  0  0  0  0  0  0  0  0  0  0  # atno 17371 bound_to 10713
  140.9578  134.1695  157.4678 LP  0  0  0  0  0  0  0  0  0  0  0  0  # atno 17394 bound_to 11000
  139.8756  134.9933  156.5639 LP  0  0  0  0  0  0  0  0  0  0  0  0  # atno 17395 bound_to 11000

$$$$
