#       Name:                AV-unprocessed.smi:527
#       Creating user name   scv26
#       Creation time:       Thu Mar 26 23:29:49 2020


#       File generated by GOLD software.
#

@<TRIPOS>MOLECULE
AV-unprocessed.smi:527
    47    48     1
SMALL
NO_CHARGES


@<TRIPOS>ATOM
      1 ****        -4.0185  -2.0324   2.8582 C.3            1 S1                 0.0000
      2 ****        -3.6139  -1.2516   1.5940 C.3            1 S1                 0.0000
      3 ****        -4.1419  -1.9857   0.3455 C.3            1 S1                 0.0000
      4 ****        -3.8032  -1.2303  -0.9436 C.3            1 S1                 0.0000
      5 ****        -2.2904  -1.0285  -1.0656 C.3            1 S1                 0.0000
      6 ****        -1.7207  -0.2896   0.1602 C.3            1 S1                 0.0000
      7 ****        -0.2700  -0.1785   0.0121 N.am           1 S1                 0.0000
      8 ****         0.3818   0.8601  -0.5319 C.2            1 S1                 0.0000
      9 ****        -0.1860   1.8632  -0.9698 O.2            1 S1                 0.0000
     10 ****         1.7120   0.6470  -0.5328 N.am           1 S1                 0.0000
     11 ****         2.6768   1.4725  -0.9873 C.2            1 S1                 0.0000
     12 ****         2.4786   2.5923  -1.4664 O.2            1 S1                 0.0000
     13 ****         4.1031   0.9195  -0.8664 C.3            1 S1                 0.0000
     14 ****         5.0935   1.7546  -1.5247 N.pl3          1 S1                 0.0000
     15 ****         5.4737   1.7111  -2.8602 C.2            1 S1                 0.0000
     16 ****         6.4329   2.6842  -3.0277 C.2            1 S1                 0.0000
     17 ****         6.6573   3.3349  -1.8167 N.2            1 S1                 0.0000
     18 ****         5.8274   2.7323  -0.9748 C.2            1 S1                 0.0000
     19 ****        -2.0816  -1.0036   1.4915 C.3            1 S1                 0.0000
     20 ****        -1.5422  -0.2144   2.7047 C.3            1 S1                 0.0000
     21 ****        -3.4870  -2.9823   2.9253 H              1 S1                 0.0000
     22 ****        -5.0868  -2.2512   2.8566 H              1 S1                 0.0000
     23 ****        -3.8178  -1.4678   3.7680 H              1 S1                 0.0000
     24 ****        -4.1104  -0.2810   1.6373 H              1 S1                 0.0000
     25 ****        -3.7172  -2.9896   0.3005 H              1 S1                 0.0000
     26 ****        -5.2230  -2.1116   0.4144 H              1 S1                 0.0000
     27 ****        -4.1758  -1.7814  -1.8076 H              1 S1                 0.0000
     28 ****        -4.3074  -0.2630  -0.9499 H              1 S1                 0.0000
     29 ****        -1.8040  -1.9992  -1.1737 H              1 S1                 0.0000
     30 ****        -2.0707  -0.4697  -1.9763 H              1 S1                 0.0000
     31 ****        -2.1612   0.7092   0.1911 H              1 S1                 0.0000
     32 ****         0.2765  -0.9581   0.3478 H              1 S1                 0.0000
     33 ****         2.0235  -0.2346  -0.1531 H              1 S1                 0.0000
     34 ****         4.3672   0.8247   0.1877 H              1 S1                 0.0000
     35 ****         4.1476  -0.0795  -1.3025 H              1 S1                 0.0000
     36 ****         5.0404   1.0129  -3.5613 H              1 S1                 0.0000
     37 ****         6.9736   2.9642  -3.9197 H              1 S1                 0.0000
     38 ****         5.7510   3.0087   0.0666 H              1 S1                 0.0000
     39 ****        -1.5889  -1.9773   1.4896 H              1 S1                 0.0000
     40 ****        -2.0359   0.7535   2.7963 H              1 S1                 0.0000
     41 ****        -0.4708  -0.0304   2.6277 H              1 S1                 0.0000
     42 ****        -1.6903  -0.7548   3.6387 H              1 S1                 0.0000
     43 ****        -1.1829   1.9312  -0.9295 LP             1 S1                 0.0000
     44 ****         0.3503   2.6088  -1.3654 LP             1 S1                 0.0000
     45 ****         1.5465   2.9473  -1.5390 LP             1 S1                 0.0000
     46 ****         3.2500   3.1448  -1.7821 LP             1 S1                 0.0000
     47 ****         7.2947   4.0816  -1.6264 LP             1 S1                 0.0000
@<TRIPOS>BOND
    1    1    2 1     
    2    1   21 1     
    3    1   22 1     
    4    1   23 1     
    5    2   19 1     
    6    2    3 1     
    7    2   24 1     
    8    3    4 1     
    9    3   25 1     
   10    3   26 1     
   11    4    5 1     
   12    4   27 1     
   13    4   28 1     
   14    5    6 1     
   15    5   29 1     
   16    5   30 1     
   17    6    7 1     
   18    6   19 1     
   19    6   31 1     
   20    7    8 1     
   21    7   32 1     
   22    8    9 2     
   23    8   10 1     
   24   10   11 1     
   25   10   33 1     
   26   11   12 2     
   27   11   13 1     
   28   13   14 1     
   29   13   34 1     
   30   13   35 1     
   31   14   18 1     
   32   14   15 1     
   33   15   16 2     
   34   15   36 1     
   35   16   17 1     
   36   16   37 1     
   37   17   18 2     
   38   18   38 1     
   39   19   20 1     
   40   19   39 1     
   41   20   40 1     
   42   20   41 1     
   43   20   42 1     
   44    9   43 1     
   45    9   44 1     
   46   12   45 1     
   47   12   46 1     
   48   17   47 1     
@<TRIPOS>SUBSTRUCTURE
      1 S1             1
@<TRIPOS>SET
LONE_PAIRS      STATIC     ATOMS    <user>   **** ""
5 43 44 45 46 47
DONOR_HYDROGENS      STATIC     ATOMS    <user>   **** ""
2 32 33
ATOM$BLUE        STATIC     ATOMS    COLORGROUP SYSTEM
5 43 44 45 46 47
ATOM$RED        STATIC     ATOMS    COLORGROUP SYSTEM
2 32 33
