AV-unprocessed.smi:1467|AV-procd|sdf|5956|dock8
  -GOLD-   22720 6 43D 1   1.00000     0.00000
 Structure written by MMmdl.
 41 42  0  0  0  0  0  0  0  0  2 V2000
  151.3087  141.3778  155.5867 C   0  0  0  0  0  0  0  0  0  0  0  0
  151.8581  139.9806  155.2907 C   0  0  0  0  0  0  0  0  0  0  0  0
  152.9261  139.6570  155.8100 O   0  0  0  0  0  0  0  0  0  0  0  0
  151.1613  139.1519  154.4764 N   0  0  0  0  0  0  0  0  0  0  0  0
  149.8450  139.4342  153.8965 C   0  0  0  0  0  0  0  0  0  0  0  0
  148.8079  138.4824  154.5198 C   0  0  0  0  0  0  0  0  0  0  0  0
  149.2022  137.0569  154.3539 N   0  3  0  0  0  0  0  0  0  0  0  0
  148.2020  136.1314  154.9431 C   0  0  0  0  0  0  0  0  0  0  0  0
  146.8079  136.2787  154.3036 C   0  0  0  0  0  0  0  0  0  0  0  0
  146.6364  135.3630  153.1815 N   0  0  0  0  0  0  0  0  0  0  0  0
  145.4813  134.7694  152.8486 C   0  0  0  0  0  0  0  0  0  0  0  0
  144.4324  134.9328  153.4721 O   0  0  0  0  0  0  0  0  0  0  0  0
  145.6262  133.9823  151.7701 N   0  0  0  0  0  0  0  0  0  0  0  0
  144.6218  133.2209  151.1198 C   0  0  0  0  0  0  0  0  0  0  0  0
  144.7925  132.5447  149.8810 C   0  0  0  0  0  0  0  0  0  0  0  0
  143.6823  131.9210  149.5135 N   0  0  0  0  0  0  0  0  0  0  0  0
  142.8038  132.1946  150.5045 N   0  0  0  0  0  0  0  0  0  0  0  0
  143.3315  132.9833  151.5028 C   0  0  0  0  0  0  0  0  0  0  0  0
  150.5966  136.7909  154.8052 C   0  0  0  0  0  0  0  0  0  0  0  0
  151.5925  137.7835  154.1779 C   0  0  0  0  0  0  0  0  0  0  0  0
  141.8575  131.8414  150.4847 H   0  0  0  0  0  0  0  0  0  0  0  0
  150.3379  141.3167  156.0790 H   0  0  0  0  0  0  0  0  0  0  0  0
  151.2067  141.9563  154.6684 H   0  0  0  0  0  0  0  0  0  0  0  0
  151.9830  141.9226  156.2483 H   0  0  0  0  0  0  0  0  0  0  0  0
  149.5194  140.4651  154.0271 H   0  0  0  0  0  0  0  0  0  0  0  0
  149.8921  139.2778  152.8177 H   0  0  0  0  0  0  0  0  0  0  0  0
  148.6945  138.7044  155.5824 H   0  0  0  0  0  0  0  0  0  0  0  0
  147.8356  138.6506  154.0548 H   0  0  0  0  0  0  0  0  0  0  0  0
  148.5573  135.1029  154.8623 H   0  0  0  0  0  0  0  0  0  0  0  0
  148.1164  136.3444  156.0098 H   0  0  0  0  0  0  0  0  0  0  0  0
  146.0255  136.1114  155.0461 H   0  0  0  0  0  0  0  0  0  0  0  0
  146.6614  137.2874  153.9191 H   0  0  0  0  0  0  0  0  0  0  0  0
  147.4505  135.1750  152.6143 H   0  0  0  0  0  0  0  0  0  0  0  0
  146.5506  133.9225  151.3687 H   0  0  0  0  0  0  0  0  0  0  0  0
  145.6669  132.4866  149.2496 H   0  0  0  0  0  0  0  0  0  0  0  0
  142.7540  133.2915  152.3618 H   0  0  0  0  0  0  0  0  0  0  0  0
  150.6448  136.8607  155.8932 H   0  0  0  0  0  0  0  0  0  0  0  0
  150.8947  135.7777  154.5390 H   0  0  0  0  0  0  0  0  0  0  0  0
  151.6266  137.6476  153.0960 H   0  0  0  0  0  0  0  0  0  0  0  0
  152.6008  137.5685  154.5347 H   0  0  0  0  0  0  0  0  0  0  0  0
  149.1902  136.8892  153.3579 H   0  0  0  0  0  0  0  0  0  0  0  0
  1  2  1  0  0  0  0
  1 22  1  0  0  0  0
  1 23  1  0  0  0  0
  1 24  1  0  0  0  0
  2  3  2  0  0  0  0
  2  4  1  0  0  0  0
  4 20  1  0  0  0  0
  4  5  1  0  0  0  0
  5  6  1  0  0  0  0
  5 25  1  0  0  0  0
  5 26  1  0  0  0  0
  6  7  1  0  0  0  0
  6 27  1  0  0  0  0
  6 28  1  0  0  0  0
  7  8  1  0  0  0  0
  7 19  1  0  0  0  0
  7 41  1  0  0  0  0
  8  9  1  0  0  0  0
  8 29  1  0  0  0  0
  8 30  1  0  0  0  0
  9 10  1  0  0  0  0
  9 31  1  0  0  0  0
  9 32  1  0  0  0  0
 10 11  1  0  0  0  0
 10 33  1  0  0  0  0
 11 12  2  0  0  0  0
 11 13  1  0  0  0  0
 13 14  1  0  0  0  0
 13 34  1  0  0  0  0
 14 18  2  0  0  0  0
 14 15  1  0  0  0  0
 15 16  2  0  0  0  0
 15 35  1  0  0  0  0
 16 17  1  0  0  0  0
 17 21  1  0  0  0  0
 17 18  1  0  0  0  0
 18 36  1  0  0  0  0
 19 20  1  0  0  0  0
 19 37  1  0  0  0  0
 19 38  1  0  0  0  0
 20 39  1  0  0  0  0
 20 40  1  0  0  0  0
M  CHG  1   7   1
M  END
> <s_m_source_file>
AV-unprocessed.smi

> <i_m_source_file_index>
1467

> <i_lp_mmshare_version>
43012

> <i_f3d_flags>
0

> <s_epik_input>
W0NIM11DKD1PKU4xW0NIMl1bQ0gyXU4oW0NIMl1bQ0gyXTEpW0NIMl1bQ0gyXVtOSF1DKD1PKVtOSF1jMltjSF1uW25IXVtjSF0y

> <s_epik_cmdline>
J2VwaWtfcHl0aG9uJywgJy1waCcsICc3LjAnLCAnLXRuJywgJzgnLCAnLW1hJywgJzIwMCcsICctbWV0YWxfYmluZGluZycsICctaW1hZScsICc8aW5maWxlLm1hZT4nLCAnLW9tYWUnLCAnPG91dGZpbGUubWFlPic=

> <r_lp_tautomer_probability>
0.5

> <r_epik_Ionization_Penalty>
0.630073

> <r_epik_Ionization_Penalty_Charging>
0.630034

> <r_epik_Ionization_Penalty_Neutral>
3.91951e-05

> <r_epik_State_Penalty>
0.646805

> <r_epik_Charging_Adjusted_Penalty>
1.27684

> <i_epik_Tot_Q>
1

> <i_epik_Tot_abs_Q>
1

> <r_epik_Metal_State_Penalty>
0.646807

> <b_epik_Metal_Only>
0

> <s_lp_Force_Field>
OPLS_2005

> <r_lp_Energy>
42.6294

> <b_lp_Chiralities_Consistent>
1

> <s_lp_Variant>
AV-unprocessed.smi:1467-2

> <Gold.Version>
5.8.1

> <Gold.Id.Protein>
6NUR|6NUR_protein|mol2

> <Gold.PLP.Fitness>
53.5652

> <Gold.PLP.PLP>
-33.5528

> <Gold.PLP.part.hbond>
-5.8413

> <Gold.PLP.part.metal>
0.0000

> <Gold.PLP.part.buried>
-5.1679

> <Gold.PLP.part.nonpolar>
-24.8481

> <Gold.PLP.part.repulsive>
0.4540

> <Gold.PLP.ligand.clash>
0.0000

> <Gold.PLP.ligand.torsion>
0.4216

> <Gold.PLP.Chemscore.Hbond>
5.5131

> <Gold.PLP.Chemscore.CHOScore>
1.4240

> <Gold.PLP.Chemscore.Metal>
0.0000

> <Gold.Chemscore.Hbonds>
donor molecule, donor type, donor heavy atom, donor atom, acceptor molecule, acceptor atom, score
      L1  H     7    41       P1  7948  2.00
      L1  H    10    33       P1  7948  0.75
      L1  H    17    21       P1 10952  0.78
      P1  H  7997  8010       L1     3  1.00
      P1  H 10785 10796       L1    16  0.91
      L1  C    15    35       P1  7921  0.06
      L1  C    18    36       P1 10957  0.18

> <Gold.PLP.Chemscore.Internal.Correction>
0.0445

> <Gold.Rescore>
     Score         DG    S(hbond)    S(metal)    S(lipo)     H(rot)  DE(clash)    DE(int)     intcor
     19.69     -21.28       3.87        0.00      62.78       1.75       0.06       1.53       ----

> <Gold.Chemscore.Fitness>
19.6875

> <Gold.Chemscore.DG>
-21.2791

> <Gold.Chemscore.ZeroCoef>
-5.4800

> <Gold.Chemscore.Hbond>
3.8732

> <Gold.Chemscore.Metal>
0.0000

> <Gold.Chemscore.Lipo>
62.7848

> <Gold.Chemscore.Internal_Hbond>
0.0000

> <Gold.Chemscore.DEClash>
0.0630

> <Gold.Chemscore.DEInternal>
1.5286

> <Gold.Chemscore.Rot>
1.7513

> <Gold.Chemscore.Internal.Correction>
   9.000000E+99

> <Gold.Chemscore.Hbonds>
donor molecule, donor type, donor heavy atom, donor atom, acceptor molecule, acceptor atom, score
      L1  H     7    41       P1  7948  0.98
      L1  H    10    33       P1  7948  0.75
      L1  H    17    21       P1 10952  0.22
      P1  H  7997  8010       L1     3  0.95
      P1  H 10785 10796       L1    16  0.57

> <Gold.Chemscore.Hbond.Weighted>
-12.9366

> <Gold.Chemscore.Metal.Weighted>
-0.0000

> <Gold.Chemscore.Lipo.Weighted>
-7.3458

> <Gold.Chemscore.Internal_Hbond.Weighted>
0.0000

> <Gold.Chemscore.DEClash.Weighted>
0.0630

> <Gold.Chemscore.DEInternal.Weighted>
1.5286

> <Gold.Chemscore.Rot.Weighted>
4.4833

> <Gold.Chemscore.Internal.Correction.Weighted>
   9.000000E+99

> <Gold.Protein.RotatedTorsions>
[ 6907 6896 6895 6894 ] final  103.19 input  -60.11 | X-H torsion
[ 7974 7965 7964 7962 ] final -108.91 input  175.53 | X-H torsion
[ 8008 7997 7996 7995 ] final   91.89 input   59.86 | X-H torsion
[ 10167 10162 10161 10158 ] final   94.28 input  -65.29 | X-H torsion
[ 10718 10713 10712 10709 ] final -171.11 input   66.30 | X-H torsion
[ 10763 10752 10751 10750 ] final   62.50 input  -60.55 | X-H torsion
[ 11005 11000 10999 10996 ] final   45.35 input  -57.11 | X-H torsion

> <Gold.Protein.ActiveResidues>
 VAL166  LYS551  ARG553  GLY616  TRP617  ASP618  TYR619  PRO620  LYS621  CYS622 
 ASP623  PHE694  ASN695  SER759  ASP760  ASP761  ALA762  ILE779  LEU786  VAL792 
 PHE793  MET794  SER795  GLU796  ALA797  LYS798  CYS799  TRP800  GLU811  SER814 

> <Gold.Protein.RotatedAtoms>
  152.5302  133.9863  159.7829 H   0  0  0  0  0  0  0  0  0  0  0  0  # atno 6907 bound_to 6896
  151.0107  133.5960  159.2690 H   0  0  0  0  0  0  0  0  0  0  0  0  # atno 6908 bound_to 6896
  151.3036  135.0782  159.9300 H   0  0  0  0  0  0  0  0  0  0  0  0  # atno 6909 bound_to 6896
  145.1871  140.8998  143.3446 H   0  0  0  0  0  0  0  0  0  0  0  0  # atno 7974 bound_to 7965
  156.0290  140.3332  155.7120 H   0  0  0  0  0  0  0  0  0  0  0  0  # atno 8008 bound_to 7997
  155.5912  140.0646  157.2776 H   0  0  0  0  0  0  0  0  0  0  0  0  # atno 8009 bound_to 7997
  154.4346  140.1827  156.1064 H   0  0  0  0  0  0  0  0  0  0  0  0  # atno 8010 bound_to 7997
  139.8099  144.6778  150.9655 H   0  0  0  0  0  0  0  0  0  0  0  0  # atno 10167 bound_to 10162
  156.7360  130.9324  151.3107 H   0  0  0  0  0  0  0  0  0  0  0  0  # atno 10718 bound_to 10713
  152.9985  135.5463  154.6203 H   0  0  0  0  0  0  0  0  0  0  0  0  # atno 10763 bound_to 10752
  154.5504  135.2826  155.1016 H   0  0  0  0  0  0  0  0  0  0  0  0  # atno 10764 bound_to 10752
  154.2258  135.6442  153.5212 H   0  0  0  0  0  0  0  0  0  0  0  0  # atno 10765 bound_to 10752
  140.1468  134.4513  155.8410 H   0  0  0  0  0  0  0  0  0  0  0  0  # atno 11005 bound_to 11000
  145.0078  139.3538  143.6135 LP  0  0  0  0  0  0  0  0  0  0  0  0  # atno 17320 bound_to 7965
  146.3443  139.9328  142.8751 LP  0  0  0  0  0  0  0  0  0  0  0  0  # atno 17321 bound_to 7965
  140.7818  143.4196  151.0862 LP  0  0  0  0  0  0  0  0  0  0  0  0  # atno 17342 bound_to 10162
  139.7863  143.8282  152.3145 LP  0  0  0  0  0  0  0  0  0  0  0  0  # atno 17343 bound_to 10162
  157.6839  130.9166  150.0335 LP  0  0  0  0  0  0  0  0  0  0  0  0  # atno 17370 bound_to 10713
  156.1496  130.3642  149.9458 LP  0  0  0  0  0  0  0  0  0  0  0  0  # atno 17371 bound_to 10713
  141.2193  133.6855  156.7348 LP  0  0  0  0  0  0  0  0  0  0  0  0  # atno 17394 bound_to 11000
  140.2654  134.8434  157.3798 LP  0  0  0  0  0  0  0  0  0  0  0  0  # atno 17395 bound_to 11000

$$$$
