AV-unprocessed.smi:2386|AV-procd|sdf|9467|dock9
  -GOLD-   2272013 93D 1   1.00000     0.00000
 Structure written by MMmdl.
 43 44  0  0  0  0  0  0  0  0  2 V2000
  146.3213  130.4063  152.1085 C   0  0  0  0  0  0  0  0  0  0  0  0
  145.6079  131.6755  151.6929 C   0  0  0  0  0  0  0  0  0  0  0  0
  144.3024  131.6340  151.1655 C   0  0  0  0  0  0  0  0  0  0  0  0
  143.6959  132.8491  150.8006 C   0  0  0  0  0  0  0  0  0  0  0  0
  144.4142  134.0472  150.9783 C   0  0  0  0  0  0  0  0  0  0  0  0
  145.7205  134.0016  151.5150 C   0  0  0  0  0  0  0  0  0  0  0  0
  146.3570  135.2633  151.6561 N   0  0  0  0  0  0  0  0  0  0  0  0
  145.8000  136.4447  151.9755 C   0  0  0  0  0  0  0  0  0  0  0  0
  144.6069  136.6298  152.2176 O   0  0  0  0  0  0  0  0  0  0  0  0
  146.7190  137.4207  152.0081 N   0  0  0  0  0  0  0  0  0  0  0  0
  146.4486  138.8222  152.3140 C   0  0  0  0  0  0  0  0  0  0  0  0
  147.4555  139.4275  153.3113 C   0  0  0  0  0  0  0  0  0  0  0  0
  147.8215  138.4843  154.4732 C   0  0  0  0  0  0  0  0  0  0  0  0
  149.1004  137.7697  154.2351 N   0  3  0  0  0  0  0  0  0  0  0  0
  150.2716  138.6784  154.2596 C   0  0  0  0  0  0  0  0  0  0  0  0
  151.5642  137.9010  153.9599 C   0  0  0  0  0  0  0  0  0  0  0  0
  151.7142  136.8449  154.8998 O   0  0  0  0  0  0  0  0  0  0  0  0
  150.6420  135.9138  154.8274 C   0  0  0  0  0  0  0  0  0  0  0  0
  149.3164  136.6230  155.1524 C   0  0  0  0  0  0  0  0  0  0  0  0
  146.2977  132.8244  151.8619 N   0  0  0  0  0  0  0  0  0  0  0  0
  145.7036  129.5267  151.9254 H   0  0  0  0  0  0  0  0  0  0  0  0
  146.5616  130.4379  153.1716 H   0  0  0  0  0  0  0  0  0  0  0  0
  147.2500  130.2924  151.5488 H   0  0  0  0  0  0  0  0  0  0  0  0
  143.7769  130.6982  151.0430 H   0  0  0  0  0  0  0  0  0  0  0  0
  142.6963  132.8634  150.3917 H   0  0  0  0  0  0  0  0  0  0  0  0
  143.9619  134.9892  150.7043 H   0  0  0  0  0  0  0  0  0  0  0  0
  147.3519  135.2666  151.4884 H   0  0  0  0  0  0  0  0  0  0  0  0
  147.6750  137.1798  151.7903 H   0  0  0  0  0  0  0  0  0  0  0  0
  146.4761  139.3820  151.3787 H   0  0  0  0  0  0  0  0  0  0  0  0
  145.4330  138.9219  152.7005 H   0  0  0  0  0  0  0  0  0  0  0  0
  148.3518  139.7015  152.7557 H   0  0  0  0  0  0  0  0  0  0  0  0
  147.0574  140.3600  153.7132 H   0  0  0  0  0  0  0  0  0  0  0  0
  147.9180  139.0794  155.3821 H   0  0  0  0  0  0  0  0  0  0  0  0
  147.0208  137.7670  154.6597 H   0  0  0  0  0  0  0  0  0  0  0  0
  150.1433  139.4696  153.5201 H   0  0  0  0  0  0  0  0  0  0  0  0
  150.3420  139.1591  155.2365 H   0  0  0  0  0  0  0  0  0  0  0  0
  151.5535  137.5025  152.9441 H   0  0  0  0  0  0  0  0  0  0  0  0
  152.4266  138.5636  154.0328 H   0  0  0  0  0  0  0  0  0  0  0  0
  150.6070  135.4560  153.8376 H   0  0  0  0  0  0  0  0  0  0  0  0
  150.8232  135.1113  155.5425 H   0  0  0  0  0  0  0  0  0  0  0  0
  149.3301  136.9770  156.1844 H   0  0  0  0  0  0  0  0  0  0  0  0
  148.4976  135.9089  155.0715 H   0  0  0  0  0  0  0  0  0  0  0  0
  149.0536  137.3967  153.2975 H   0  0  0  0  0  0  0  0  0  0  0  0
  1  2  1  0  0  0  0
  1 21  1  0  0  0  0
  1 22  1  0  0  0  0
  1 23  1  0  0  0  0
  2 20  1  0  0  0  0
  2  3  2  0  0  0  0
  3  4  1  0  0  0  0
  3 24  1  0  0  0  0
  4  5  2  0  0  0  0
  4 25  1  0  0  0  0
  5  6  1  0  0  0  0
  5 26  1  0  0  0  0
  6  7  1  0  0  0  0
  6 20  2  0  0  0  0
  7  8  1  0  0  0  0
  7 27  1  0  0  0  0
  8  9  2  0  0  0  0
  8 10  1  0  0  0  0
 10 11  1  0  0  0  0
 10 28  1  0  0  0  0
 11 12  1  0  0  0  0
 11 29  1  0  0  0  0
 11 30  1  0  0  0  0
 12 13  1  0  0  0  0
 12 31  1  0  0  0  0
 12 32  1  0  0  0  0
 13 14  1  0  0  0  0
 13 33  1  0  0  0  0
 13 34  1  0  0  0  0
 14 19  1  0  0  0  0
 14 15  1  0  0  0  0
 14 43  1  0  0  0  0
 15 16  1  0  0  0  0
 15 35  1  0  0  0  0
 15 36  1  0  0  0  0
 16 17  1  0  0  0  0
 16 37  1  0  0  0  0
 16 38  1  0  0  0  0
 17 18  1  0  0  0  0
 18 19  1  0  0  0  0
 18 39  1  0  0  0  0
 18 40  1  0  0  0  0
 19 41  1  0  0  0  0
 19 42  1  0  0  0  0
M  CHG  1  14   1
M  END
> <s_m_source_file>
AV-unprocessed.smi

> <i_m_source_file_index>
2386

> <i_lp_mmshare_version>
43012

> <i_f3d_flags>
0

> <s_epik_input>
W0NIM11jMVtjSF1bY0hdW2NIXWMobjEpW05IXUMoPU8pW05IXVtDSDJdW0NIMl1bQ0gyXU4yW0NIMl1bQ0gyXU9bQ0gyXVtDSDJdMg==

> <s_epik_cmdline>
J2VwaWtfcHl0aG9uJywgJy1waCcsICc3LjAnLCAnLXRuJywgJzgnLCAnLW1hJywgJzIwMCcsICctbWV0YWxfYmluZGluZycsICctaW1hZScsICc8aW5maWxlLm1hZT4nLCAnLW9tYWUnLCAnPG91dGZpbGUubWFlPic=

> <r_epik_Ionization_Penalty>
0.270568

> <r_epik_Ionization_Penalty_Charging>
0.270496

> <r_epik_Ionization_Penalty_Neutral>
7.21828e-05

> <r_epik_State_Penalty>
0.262618

> <r_epik_Charging_Adjusted_Penalty>
0.533114

> <i_epik_Tot_Q>
1

> <i_epik_Tot_abs_Q>
1

> <r_epik_Metal_State_Penalty>
0.26262

> <b_epik_Metal_Only>
0

> <s_lp_Force_Field>
OPLS_2005

> <r_lp_Energy>
18.5564

> <b_lp_Chiralities_Consistent>
1

> <s_lp_Variant>
AV-unprocessed.smi:2386-1

> <Gold.Version>
5.8.1

> <Gold.Id.Protein>
6NUR|6NUR_protein|mol2

> <Gold.PLP.Fitness>
48.6843

> <Gold.PLP.PLP>
-35.4767

> <Gold.PLP.part.hbond>
-3.8384

> <Gold.PLP.part.metal>
0.0000

> <Gold.PLP.part.buried>
-4.4983

> <Gold.PLP.part.nonpolar>
-28.6346

> <Gold.PLP.part.repulsive>
1.1906

> <Gold.PLP.ligand.clash>
0.0000

> <Gold.PLP.ligand.torsion>
0.7437

> <Gold.PLP.Chemscore.Hbond>
4.8873

> <Gold.PLP.Chemscore.CHOScore>
0.0000

> <Gold.PLP.Chemscore.Metal>
0.0000

> <Gold.Chemscore.Hbonds>
donor molecule, donor type, donor heavy atom, donor atom, acceptor molecule, acceptor atom, score
      L1  H     7    27       P1  7948  0.90
      L1  H    10    28       P1  7948  1.00
      L1  H    14    43       P1  7948  2.00
      P1  H 10752 10763       L1    17  0.62

> <Gold.PLP.Chemscore.Internal.Correction>
0.0331

> <Gold.Rescore>
     Score         DG    S(hbond)    S(metal)    S(lipo)     H(rot)  DE(clash)    DE(int)     intcor
     19.79     -21.82       3.44        0.00      80.08       1.76       0.03       2.00       ----

> <Gold.Chemscore.Fitness>
19.7926

> <Gold.Chemscore.DG>
-21.8243

> <Gold.Chemscore.ZeroCoef>
-5.4800

> <Gold.Chemscore.Hbond>
3.4367

> <Gold.Chemscore.Metal>
0.0000

> <Gold.Chemscore.Lipo>
80.0830

> <Gold.Chemscore.Internal_Hbond>
0.0000

> <Gold.Chemscore.DEClash>
0.0326

> <Gold.Chemscore.DEInternal>
1.9991

> <Gold.Chemscore.Rot>
1.7593

> <Gold.Chemscore.Internal.Correction>
   9.000000E+99

> <Gold.Chemscore.Hbonds>
donor molecule, donor type, donor heavy atom, donor atom, acceptor molecule, acceptor atom, score
      L1  H     7    27       P1  7948  0.75
      L1  H    10    28       P1  7948  0.95
      L1  H    14    43       P1  7948  1.00
      P1  H 10752 10763       L1    17  0.06

> <Gold.Chemscore.Hbond.Weighted>
-11.4785

> <Gold.Chemscore.Metal.Weighted>
-0.0000

> <Gold.Chemscore.Lipo.Weighted>
-9.3697

> <Gold.Chemscore.Internal_Hbond.Weighted>
0.0000

> <Gold.Chemscore.DEClash.Weighted>
0.0326

> <Gold.Chemscore.DEInternal.Weighted>
1.9991

> <Gold.Chemscore.Rot.Weighted>
4.5039

> <Gold.Chemscore.Internal.Correction.Weighted>
   9.000000E+99

> <Gold.Protein.RotatedTorsions>
[ 6907 6896 6895 6894 ] final   25.21 input  -60.11 | X-H torsion
[ 7974 7965 7964 7962 ] final   30.24 input  175.53 | X-H torsion
[ 8008 7997 7996 7995 ] final  125.44 input   59.86 | X-H torsion
[ 10167 10162 10161 10158 ] final  131.94 input  -65.29 | X-H torsion
[ 10718 10713 10712 10709 ] final  -57.18 input   66.30 | X-H torsion
[ 10763 10752 10751 10750 ] final   77.84 input  -60.55 | X-H torsion
[ 11005 11000 10999 10996 ] final   99.78 input  -57.11 | X-H torsion

> <Gold.Protein.ActiveResidues>
 VAL166  LYS551  ARG553  GLY616  TRP617  ASP618  TYR619  PRO620  LYS621  CYS622 
 ASP623  PHE694  ASN695  SER759  ASP760  ASP761  ALA762  ILE779  LEU786  VAL792 
 PHE793  MET794  SER795  GLU796  ALA797  LYS798  CYS799  TRP800  GLU811  SER814 

> <Gold.Protein.RotatedAtoms>
  151.9692  135.0085  160.0551 H   0  0  0  0  0  0  0  0  0  0  0  0  # atno 6907 bound_to 6896
  152.1799  133.4695  159.4961 H   0  0  0  0  0  0  0  0  0  0  0  0  # atno 6908 bound_to 6896
  150.6915  134.1764  159.4275 H   0  0  0  0  0  0  0  0  0  0  0  0  # atno 6909 bound_to 6896
  146.1623  139.6814  142.9025 H   0  0  0  0  0  0  0  0  0  0  0  0  # atno 7974 bound_to 7965
  156.2834  140.2716  156.1949 H   0  0  0  0  0  0  0  0  0  0  0  0  # atno 8008 bound_to 7997
  155.0420  140.0386  157.2531 H   0  0  0  0  0  0  0  0  0  0  0  0  # atno 8009 bound_to 7997
  154.7266  140.2698  155.6499 H   0  0  0  0  0  0  0  0  0  0  0  0  # atno 8010 bound_to 7997
  139.5362  144.6684  151.4779 H   0  0  0  0  0  0  0  0  0  0  0  0  # atno 10167 bound_to 10162
  156.1230  130.4164  150.0406 H   0  0  0  0  0  0  0  0  0  0  0  0  # atno 10718 bound_to 10713
  153.0829  135.4899  154.8539 H   0  0  0  0  0  0  0  0  0  0  0  0  # atno 10763 bound_to 10752
  154.7173  135.3032  154.9105 H   0  0  0  0  0  0  0  0  0  0  0  0  # atno 10764 bound_to 10752
  153.9780  135.6793  153.4802 H   0  0  0  0  0  0  0  0  0  0  0  0  # atno 10765 bound_to 10752
  139.8770  134.9111  156.4658 H   0  0  0  0  0  0  0  0  0  0  0  0  # atno 11005 bound_to 11000
  145.4556  141.0430  143.2780 LP  0  0  0  0  0  0  0  0  0  0  0  0  # atno 17320 bound_to 7965
  144.8044  139.6079  143.7057 LP  0  0  0  0  0  0  0  0  0  0  0  0  # atno 17321 bound_to 7965
  140.6569  143.8581  150.6845 LP  0  0  0  0  0  0  0  0  0  0  0  0  # atno 17342 bound_to 10162
  140.1963  143.3995  152.1825 LP  0  0  0  0  0  0  0  0  0  0  0  0  # atno 17343 bound_to 10162
  156.8339  130.9402  151.3635 LP  0  0  0  0  0  0  0  0  0  0  0  0  # atno 17370 bound_to 10713
  157.6413  130.8808  149.9454 LP  0  0  0  0  0  0  0  0  0  0  0  0  # atno 17371 bound_to 10713
  140.8831  133.7903  155.9489 LP  0  0  0  0  0  0  0  0  0  0  0  0  # atno 17394 bound_to 11000
  140.8833  134.2585  157.5133 LP  0  0  0  0  0  0  0  0  0  0  0  0  # atno 17395 bound_to 11000

$$$$
