AV-unprocessed.smi:1774|AV-procd|sdf|7168|dock6
  -GOLD-   22720 8403D 1   1.00000     0.00000
 Structure written by MMmdl.
 46 47  0  0  0  0  0  0  0  0  2 V2000
  147.6889  133.1486  152.3057 C   0  0  0  0  0  0  0  0  0  0  0  0
  146.3217  133.1590  151.6411 C   0  0  0  0  0  0  0  0  0  0  0  0
  145.7420  131.9380  151.2356 C   0  0  0  0  0  0  0  0  0  0  0  0
  144.4785  131.9495  150.6205 C   0  0  0  0  0  0  0  0  0  0  0  0
  143.8442  133.1897  150.4350 C   0  0  0  0  0  0  0  0  0  0  0  0
  144.3904  134.3613  150.8198 N   0  0  0  0  0  0  0  0  0  0  0  0
  145.6091  134.3675  151.4162 C   0  0  0  0  0  0  0  0  0  0  0  0
  146.2463  135.5656  151.8472 N   0  0  0  0  0  0  0  0  0  0  0  0
  145.7117  136.6031  152.5150 C   0  0  0  0  0  0  0  0  0  0  0  0
  144.5382  136.6927  152.8773 O   0  0  0  0  0  0  0  0  0  0  0  0
  146.6267  137.5553  152.7481 N   0  0  0  0  0  0  0  0  0  0  0  0
  146.3654  138.8005  153.4607 C   0  0  0  0  0  0  0  0  0  0  0  0
  147.4845  139.8327  153.2254 C   0  0  0  0  0  0  0  0  0  0  0  0
  148.6002  139.6805  154.1915 N   0  3  1  0  0  0  0  0  0  0  0  0
  149.6854  138.8151  153.6718 C   0  0  0  0  0  0  0  0  0  0  0  0
  150.7983  138.6255  154.7218 C   0  0  2  0  0  0  0  0  0  0  0  0
  150.4014  137.6893  155.8774 C   0  0  0  0  0  0  0  0  0  0  0  0
  151.2567  139.8943  155.1885 O   0  0  0  0  0  0  0  0  0  0  0  0
  150.2411  140.7386  155.7246 C   0  0  1  0  0  0  0  0  0  0  0  0
  150.9033  142.0476  156.1689 C   0  0  0  0  0  0  0  0  0  0  0  0
  149.1549  140.9735  154.6596 C   0  0  0  0  0  0  0  0  0  0  0  0
  148.0595  132.1312  152.4355 H   0  0  0  0  0  0  0  0  0  0  0  0
  147.6398  133.6138  153.2905 H   0  0  0  0  0  0  0  0  0  0  0  0
  148.4117  133.6950  151.6990 H   0  0  0  0  0  0  0  0  0  0  0  0
  146.2566  131.0014  151.3924 H   0  0  0  0  0  0  0  0  0  0  0  0
  144.0080  131.0318  150.2995 H   0  0  0  0  0  0  0  0  0  0  0  0
  142.8729  133.2433  149.9660 H   0  0  0  0  0  0  0  0  0  0  0  0
  147.2282  135.6341  151.6248 H   0  0  0  0  0  0  0  0  0  0  0  0
  147.5692  137.4039  152.4190 H   0  0  0  0  0  0  0  0  0  0  0  0
  145.3928  139.1882  153.1569 H   0  0  0  0  0  0  0  0  0  0  0  0
  146.2893  138.5724  154.5241 H   0  0  0  0  0  0  0  0  0  0  0  0
  147.8641  139.6911  152.2122 H   0  0  0  0  0  0  0  0  0  0  0  0
  147.0995  140.8528  153.2694 H   0  0  0  0  0  0  0  0  0  0  0  0
  149.2859  137.8440  153.3761 H   0  0  0  0  0  0  0  0  0  0  0  0
  150.1021  139.2717  152.7725 H   0  0  0  0  0  0  0  0  0  0  0  0
  151.6501  138.1634  154.2220 H   0  0  0  0  0  0  0  0  0  0  0  0
  150.1952  136.6846  155.5072 H   0  0  0  0  0  0  0  0  0  0  0  0
  149.5079  138.0306  156.3996 H   0  0  0  0  0  0  0  0  0  0  0  0
  151.2065  137.6110  156.6081 H   0  0  0  0  0  0  0  0  0  0  0  0
  149.7978  140.2706  156.6038 H   0  0  0  0  0  0  0  0  0  0  0  0
  150.1720  142.7316  156.6008 H   0  0  0  0  0  0  0  0  0  0  0  0
  151.3807  142.5544  155.3297 H   0  0  0  0  0  0  0  0  0  0  0  0
  151.6684  141.8605  156.9230 H   0  0  0  0  0  0  0  0  0  0  0  0
  149.5699  141.5205  153.8112 H   0  0  0  0  0  0  0  0  0  0  0  0
  148.3661  141.5951  155.0823 H   0  0  0  0  0  0  0  0  0  0  0  0
  148.2213  139.2069  154.9992 H   0  0  0  0  0  0  0  0  0  0  0  0
  1  2  1  0  0  0  0
  1 22  1  0  0  0  0
  1 23  1  0  0  0  0
  1 24  1  0  0  0  0
  2  7  1  0  0  0  0
  2  3  2  0  0  0  0
  3  4  1  0  0  0  0
  3 25  1  0  0  0  0
  4  5  2  0  0  0  0
  4 26  1  0  0  0  0
  5  6  1  0  0  0  0
  5 27  1  0  0  0  0
  6  7  2  0  0  0  0
  7  8  1  0  0  0  0
  8  9  1  0  0  0  0
  8 28  1  0  0  0  0
  9 10  2  0  0  0  0
  9 11  1  0  0  0  0
 11 12  1  0  0  0  0
 11 29  1  0  0  0  0
 12 13  1  0  0  0  0
 12 30  1  0  0  0  0
 12 31  1  0  0  0  0
 13 14  1  0  0  0  0
 13 32  1  0  0  0  0
 13 33  1  0  0  0  0
 14 21  1  0  0  0  0
 14 15  1  0  0  0  0
 14 46  1  0  0  0  0
 15 16  1  0  0  0  0
 15 34  1  0  0  0  0
 15 35  1  0  0  0  0
 16 17  1  0  0  0  0
 16 18  1  0  0  0  0
 16 36  1  0  0  0  0
 17 37  1  0  0  0  0
 17 38  1  0  0  0  0
 17 39  1  0  0  0  0
 18 19  1  0  0  0  0
 19 20  1  0  0  0  0
 19 21  1  0  0  0  0
 19 40  1  0  0  0  0
 20 41  1  0  0  0  0
 20 42  1  0  0  0  0
 20 43  1  0  0  0  0
 21 44  1  0  0  0  0
 21 45  1  0  0  0  0
M  CHG  1  14   1
M  END
> <s_m_source_file>
AV-unprocessed.smi

> <i_m_source_file_index>
1774

> <i_lp_mmshare_version>
43012

> <i_f3d_flags>
0

> <s_epik_input>
W0NIM11jMVtjSF1bY0hdW2NIXW5jMVtOSF1DKD1PKVtOSF1bQ0gyXVtDSDJdTjJbQ0gyXVtDQEBIXShbQ0gzXSlPW0NAQEhdKFtDSDNdKVtDSDJdMg==

> <s_epik_cmdline>
J2VwaWtfcHl0aG9uJywgJy1waCcsICc3LjAnLCAnLXRuJywgJzgnLCAnLW1hJywgJzIwMCcsICctbWV0YWxfYmluZGluZycsICctaW1hZScsICc8aW5maWxlLm1hZT4nLCAnLW9tYWUnLCAnPG91dGZpbGUubWFlPic=

> <r_epik_Ionization_Penalty>
0.602573

> <r_epik_Ionization_Penalty_Charging>
0.602531

> <r_epik_Ionization_Penalty_Neutral>
4.21996e-05

> <r_epik_State_Penalty>
0.617039

> <r_epik_Charging_Adjusted_Penalty>
1.21957

> <i_epik_Tot_Q>
1

> <i_epik_Tot_abs_Q>
1

> <r_epik_Metal_State_Penalty>
0.617042

> <b_epik_Metal_Only>
0

> <s_lp_Force_Field>
OPLS_2005

> <r_lp_Energy>
18.8628

> <b_lp_Chiralities_Consistent>
1

> <s_lp_Variant>
AV-unprocessed.smi:1774-5

> <Gold.Version>
5.8.1

> <Gold.Id.Protein>
6NUR|6NUR_protein|mol2

> <Gold.PLP.Fitness>
44.1446

> <Gold.PLP.PLP>
-34.3399

> <Gold.PLP.part.hbond>
-3.0968

> <Gold.PLP.part.metal>
0.0000

> <Gold.PLP.part.buried>
-3.0923

> <Gold.PLP.part.nonpolar>
-29.3720

> <Gold.PLP.part.repulsive>
0.4444

> <Gold.PLP.ligand.clash>
0.0000

> <Gold.PLP.ligand.torsion>
1.1235

> <Gold.PLP.Chemscore.Hbond>
3.0000

> <Gold.PLP.Chemscore.CHOScore>
1.0000

> <Gold.PLP.Chemscore.Metal>
0.0000

> <Gold.Chemscore.Hbonds>
donor molecule, donor type, donor heavy atom, donor atom, acceptor molecule, acceptor atom, score
      L1  H     8    28       P1  7948  1.00
      L1  H    11    29       P1  7948  1.00
      P1  H  7989  7998       L1    18  1.00
      L1  C     5    27       P1 10186  1.00

> <Gold.PLP.Chemscore.Internal.Correction>
0.0518

> <Gold.Rescore>
     Score         DG    S(hbond)    S(metal)    S(lipo)     H(rot)  DE(clash)    DE(int)     intcor
     17.78     -18.80       2.05        0.00      87.99       1.49       0.02       1.00       ----

> <Gold.Chemscore.Fitness>
17.7807

> <Gold.Chemscore.DG>
-18.8044

> <Gold.Chemscore.ZeroCoef>
-5.4800

> <Gold.Chemscore.Hbond>
2.0526

> <Gold.Chemscore.Metal>
0.0000

> <Gold.Chemscore.Lipo>
87.9904

> <Gold.Chemscore.Internal_Hbond>
0.0000

> <Gold.Chemscore.DEClash>
0.0199

> <Gold.Chemscore.DEInternal>
1.0038

> <Gold.Chemscore.Rot>
1.4946

> <Gold.Chemscore.Internal.Correction>
   9.000000E+99

> <Gold.Chemscore.Hbonds>
donor molecule, donor type, donor heavy atom, donor atom, acceptor molecule, acceptor atom, score
      L1  H     8    28       P1  7948  0.99
      L1  H    11    29       P1  7948  0.95
      P1  H  7989  7998       L1    18  0.10

> <Gold.Chemscore.Hbond.Weighted>
-6.8556

> <Gold.Chemscore.Metal.Weighted>
-0.0000

> <Gold.Chemscore.Lipo.Weighted>
-10.2949

> <Gold.Chemscore.Internal_Hbond.Weighted>
0.0000

> <Gold.Chemscore.DEClash.Weighted>
0.0199

> <Gold.Chemscore.DEInternal.Weighted>
1.0038

> <Gold.Chemscore.Rot.Weighted>
3.8261

> <Gold.Chemscore.Internal.Correction.Weighted>
   9.000000E+99

> <Gold.Protein.RotatedTorsions>
[ 6907 6896 6895 6894 ] final -107.03 input  -60.11 | X-H torsion
[ 7974 7965 7964 7962 ] final  -92.10 input  175.53 | X-H torsion
[ 8008 7997 7996 7995 ] final -115.93 input   59.86 | X-H torsion
[ 10167 10162 10161 10158 ] final   50.99 input  -65.29 | X-H torsion
[ 10718 10713 10712 10709 ] final   37.75 input   66.30 | X-H torsion
[ 10763 10752 10751 10750 ] final   -0.32 input  -60.55 | X-H torsion
[ 11005 11000 10999 10996 ] final   71.49 input  -57.11 | X-H torsion

> <Gold.Protein.ActiveResidues>
 VAL166  LYS551  ARG553  GLY616  TRP617  ASP618  TYR619  PRO620  LYS621  CYS622 
 ASP623  PHE694  ASN695  SER759  ASP760  ASP761  ALA762  ILE779  LEU786  VAL792 
 PHE793  MET794  SER795  GLU796  ALA797  LYS798  CYS799  TRP800  GLU811  SER814 

> <Gold.Protein.RotatedAtoms>
  150.7422  133.9887  159.3599 H   0  0  0  0  0  0  0  0  0  0  0  0  # atno 6907 bound_to 6896
  151.7833  135.0753  160.0386 H   0  0  0  0  0  0  0  0  0  0  0  0  # atno 6908 bound_to 6896
  152.3259  133.5867  159.5812 H   0  0  0  0  0  0  0  0  0  0  0  0  # atno 6909 bound_to 6896
  145.4043  140.9540  143.2270 H   0  0  0  0  0  0  0  0  0  0  0  0  # atno 7974 bound_to 7965
  155.0598  140.0393  157.2572 H   0  0  0  0  0  0  0  0  0  0  0  0  # atno 8008 bound_to 7997
  154.7069  140.2685  155.6642 H   0  0  0  0  0  0  0  0  0  0  0  0  # atno 8009 bound_to 7997
  156.2778  140.2729  156.1698 H   0  0  0  0  0  0  0  0  0  0  0  0  # atno 8010 bound_to 7997
  140.2666  144.3313  150.6302 H   0  0  0  0  0  0  0  0  0  0  0  0  # atno 10167 bound_to 10162
  157.3507  130.7597  149.6976 H   0  0  0  0  0  0  0  0  0  0  0  0  # atno 10718 bound_to 10713
  153.3304  135.6975  153.6953 H   0  0  0  0  0  0  0  0  0  0  0  0  # atno 10763 bound_to 10752
  153.5757  135.3507  155.2856 H   0  0  0  0  0  0  0  0  0  0  0  0  # atno 10764 bound_to 10752
  154.8617  135.4283  154.2491 H   0  0  0  0  0  0  0  0  0  0  0  0  # atno 10765 bound_to 10752
  139.9541  134.7176  156.0795 H   0  0  0  0  0  0  0  0  0  0  0  0  # atno 11005 bound_to 11000
  144.8353  139.5561  143.6925 LP  0  0  0  0  0  0  0  0  0  0  0  0  # atno 17320 bound_to 7965
  146.2736  139.6698  142.9278 LP  0  0  0  0  0  0  0  0  0  0  0  0  # atno 17321 bound_to 7965
  140.5923  143.2167  151.7229 LP  0  0  0  0  0  0  0  0  0  0  0  0  # atno 17342 bound_to 10162
  139.5001  144.3920  152.0270 LP  0  0  0  0  0  0  0  0  0  0  0  0  # atno 17343 bound_to 10162
  155.9721  130.4141  150.4117 LP  0  0  0  0  0  0  0  0  0  0  0  0  # atno 17370 bound_to 10713
  157.2179  131.0475  151.2563 LP  0  0  0  0  0  0  0  0  0  0  0  0  # atno 17371 bound_to 10713
  141.1209  133.6613  156.3212 LP  0  0  0  0  0  0  0  0  0  0  0  0  # atno 17394 bound_to 11000
  140.5651  134.5896  157.5443 LP  0  0  0  0  0  0  0  0  0  0  0  0  # atno 17395 bound_to 11000

$$$$
