AV-unprocessed.smi:288|AV-procd|sdf|2212|dock5
  -GOLD-   2262022 43D 1   1.00000     0.00000
 Structure written by MMmdl.
 33 34  0  0  0  0  0  0  0  0  1 V2000
  149.8534  139.8296  153.8522 O   0  0  0  0  0  0  0  0  0  0  0  0
  150.1283  140.3628  154.9285 C   0  0  0  0  0  0  0  0  0  0  0  0
  149.3301  141.4309  155.5209 C   0  0  0  0  0  0  0  0  0  0  0  0
  148.2484  141.8907  154.8693 F   0  0  0  0  0  0  0  0  0  0  0  0
  149.6578  141.9670  156.7166 C   0  0  0  0  0  0  0  0  0  0  0  0
  150.7530  141.5507  157.4565 N   0  0  0  0  0  0  0  0  0  0  0  0
  151.0945  142.1597  158.7998 C   0  0  1  0  0  0  0  0  0  0  0  0
  152.4671  142.8554  158.7445 C   0  0  0  0  0  0  0  0  0  0  0  0
  152.1719  144.2206  159.3319 C   0  0  0  0  0  0  0  0  0  0  0  0
  150.7183  144.4257  158.9332 C   0  0  0  0  0  0  0  0  0  0  0  0
  150.1504  143.1377  159.1331 O   0  0  0  0  0  0  0  0  0  0  0  0
  151.5812  140.5211  156.9599 C   0  0  0  0  0  0  0  0  0  0  0  0
  152.5490  140.1203  157.6112 O   0  0  0  0  0  0  0  0  0  0  0  0
  151.2496  139.9706  155.6993 N   0  0  0  0  0  0  0  0  0  0  0  0
  152.0953  138.9075  155.1815 C   0  0  0  0  0  0  0  0  0  0  0  0
  151.3024  137.6606  154.7287 C   0  0  1  0  0  0  0  0  0  0  0  0
  152.1668  136.8198  153.9888 O   0  0  0  0  0  0  0  0  0  0  0  0
  150.7554  136.8480  155.9188 C   0  0  0  0  0  0  0  0  0  0  0  0
  150.1482  135.7439  155.4828 F   0  0  0  0  0  0  0  0  0  0  0  0
  151.7339  136.5171  156.7626 F   0  0  0  0  0  0  0  0  0  0  0  0
  149.8541  137.5772  156.5771 F   0  0  0  0  0  0  0  0  0  0  0  0
  149.0214  142.7514  157.0960 H   0  0  0  0  0  0  0  0  0  0  0  0
  151.0351  141.3435  159.5220 H   0  0  0  0  0  0  0  0  0  0  0  0
  153.2140  142.2944  159.3068 H   0  0  0  0  0  0  0  0  0  0  0  0
  152.7994  142.9521  157.7095 H   0  0  0  0  0  0  0  0  0  0  0  0
  152.2610  144.1896  160.4186 H   0  0  0  0  0  0  0  0  0  0  0  0
  152.8329  145.0012  158.9545 H   0  0  0  0  0  0  0  0  0  0  0  0
  150.2171  145.1833  159.5356 H   0  0  0  0  0  0  0  0  0  0  0  0
  150.6414  144.7127  157.8835 H   0  0  0  0  0  0  0  0  0  0  0  0
  152.7274  139.3117  154.3889 H   0  0  0  0  0  0  0  0  0  0  0  0
  152.7995  138.6617  155.9780 H   0  0  0  0  0  0  0  0  0  0  0  0
  150.4667  137.9487  154.0895 H   0  0  0  0  0  0  0  0  0  0  0  0
  151.6867  136.4642  153.2565 H   0  0  0  0  0  0  0  0  0  0  0  0
  1  2  2  0  0  0  0
  2 14  1  0  0  0  0
  2  3  1  0  0  0  0
  3  4  1  0  0  0  0
  3  5  2  0  0  0  0
  5  6  1  0  0  0  0
  5 22  1  0  0  0  0
  6  7  1  0  0  0  0
  6 12  1  0  0  0  0
  7 11  1  0  0  0  0
  7  8  1  0  0  0  0
  7 23  1  0  0  0  0
  8  9  1  0  0  0  0
  8 24  1  0  0  0  0
  8 25  1  0  0  0  0
  9 10  1  0  0  0  0
  9 26  1  0  0  0  0
  9 27  1  0  0  0  0
 10 11  1  0  0  0  0
 10 28  1  0  0  0  0
 10 29  1  0  0  0  0
 12 13  2  0  0  0  0
 12 14  1  0  0  0  0
 14 15  1  0  0  0  0
 15 16  1  0  0  0  0
 15 30  1  0  0  0  0
 15 31  1  0  0  0  0
 16 17  1  0  0  0  0
 16 18  1  0  0  0  0
 16 32  1  0  0  0  0
 17 33  1  0  0  0  0
 18 19  1  0  0  0  0
 18 20  1  0  0  0  0
 18 21  1  0  0  0  0
M  END
> <s_m_source_file>
AV-unprocessed.smi

> <i_m_source_file_index>
288

> <i_lp_mmshare_version>
43012

> <i_f3d_flags>
0

> <s_epik_input>
TzFbQ0gyXVtDSDJdW0NIMl1bQ0BIXTFuKFtjSF1jKEYpYzI9TyljKD1PKW4yW0NIMl1bQ0BIXShbT0hdKUMoRikoRilG

> <s_epik_cmdline>
J2VwaWtfcHl0aG9uJywgJy1waCcsICc3LjAnLCAnLXRuJywgJzgnLCAnLW1hJywgJzIwMCcsICctbWV0YWxfYmluZGluZycsICctaW1hZScsICc8aW5maWxlLm1hZT4nLCAnLW9tYWUnLCAnPG91dGZpbGUubWFlPic=

> <r_lp_tautomer_probability>
1

> <r_epik_Ionization_Penalty>
0.000551119

> <r_epik_Ionization_Penalty_Charging>
2.51184e-08

> <r_epik_Ionization_Penalty_Neutral>
0.000551094

> <r_epik_State_Penalty>
0.000345115

> <r_epik_Charging_Adjusted_Penalty>
0.00034514

> <i_epik_Tot_Q>
0

> <i_epik_Tot_abs_Q>
0

> <r_epik_Metal_State_Penalty>
-0

> <b_epik_Metal_Only>
0

> <s_epik_Chemistry_Notes>
This compound contains an acetal/aminal-like group ( X-CH(R)-Y where X, Y are N, S, or O) that may be acid/base labile, releasing an aldehyde.

> <s_lp_Force_Field>
OPLS_2005

> <r_lp_Energy>
35.613

> <b_lp_Chiralities_Consistent>
1

> <s_lp_Variant>
AV-unprocessed.smi:288-4

> <Gold.Version>
5.8.1

> <Gold.Id.Protein>
6NUR|6NUR_protein|mol2

> <Gold.PLP.Fitness>
49.0626

> <Gold.PLP.PLP>
-38.6424

> <Gold.PLP.part.hbond>
-4.2015

> <Gold.PLP.part.metal>
0.0000

> <Gold.PLP.part.buried>
-2.4704

> <Gold.PLP.part.nonpolar>
-34.2365

> <Gold.PLP.part.repulsive>
2.9253

> <Gold.PLP.ligand.clash>
0.0000

> <Gold.PLP.ligand.torsion>
0.2134

> <Gold.PLP.Chemscore.Hbond>
3.0000

> <Gold.PLP.Chemscore.CHOScore>
0.6097

> <Gold.PLP.Chemscore.Metal>
0.0000

> <Gold.Chemscore.Hbonds>
donor molecule, donor type, donor heavy atom, donor atom, acceptor molecule, acceptor atom, score
      L1  H    17    33       P1  7949  1.00
      P1  H  7997  8009       L1    13  0.90
      P1  H 10752 10764       L1    17  0.43
      L1  C     5    22       P1  8028  0.70

> <Gold.PLP.Chemscore.Internal.Correction>
0.0179

> <Gold.Rescore>
     Score         DG    S(hbond)    S(metal)    S(lipo)     H(rot)  DE(clash)    DE(int)     intcor
     11.25     -15.74       2.82        0.00      63.39       2.57       1.45       3.04       ----

> <Gold.Chemscore.Fitness>
11.2505

> <Gold.Chemscore.DG>
-15.7406

> <Gold.Chemscore.ZeroCoef>
-5.4800

> <Gold.Chemscore.Hbond>
2.8179

> <Gold.Chemscore.Metal>
0.0000

> <Gold.Chemscore.Lipo>
63.3889

> <Gold.Chemscore.Internal_Hbond>
0.0000

> <Gold.Chemscore.DEClash>
1.4493

> <Gold.Chemscore.DEInternal>
3.0407

> <Gold.Chemscore.Rot>
2.5656

> <Gold.Chemscore.Internal.Correction>
   9.000000E+99

> <Gold.Chemscore.Hbonds>
donor molecule, donor type, donor heavy atom, donor atom, acceptor molecule, acceptor atom, score
      L1  H    17    33       P1  7949  0.97
      P1  H  7997  8009       L1    13  0.76
      P1  H 10752 10764       L1    17  0.04

> <Gold.Chemscore.Hbond.Weighted>
-9.4119

> <Gold.Chemscore.Metal.Weighted>
-0.0000

> <Gold.Chemscore.Lipo.Weighted>
-7.4165

> <Gold.Chemscore.Internal_Hbond.Weighted>
0.0000

> <Gold.Chemscore.DEClash.Weighted>
1.4493

> <Gold.Chemscore.DEInternal.Weighted>
3.0407

> <Gold.Chemscore.Rot.Weighted>
6.5679

> <Gold.Chemscore.Internal.Correction.Weighted>
   9.000000E+99

> <Gold.Protein.RotatedTorsions>
[ 6907 6896 6895 6894 ] final -122.19 input  -60.11 | X-H torsion
[ 7974 7965 7964 7962 ] final  176.23 input  175.53 | X-H torsion
[ 8008 7997 7996 7995 ] final -177.82 input   59.86 | X-H torsion
[ 10167 10162 10161 10158 ] final  -77.52 input  -65.29 | X-H torsion
[ 10718 10713 10712 10709 ] final -111.28 input   66.30 | X-H torsion
[ 10763 10752 10751 10750 ] final  -90.65 input  -60.55 | X-H torsion
[ 11005 11000 10999 10996 ] final   42.78 input  -57.11 | X-H torsion

> <Gold.Protein.ActiveResidues>
 VAL166  LYS551  ARG553  GLY616  TRP617  ASP618  TYR619  PRO620  LYS621  CYS622 
 ASP623  PHE694  ASN695  SER759  ASP760  ASP761  ALA762  ILE779  LEU786  VAL792 
 PHE793  MET794  SER795  GLU796  ALA797  LYS798  CYS799  TRP800  GLU811  SER814 

> <Gold.Protein.RotatedAtoms>
  150.8553  133.7725  159.3010 H   0  0  0  0  0  0  0  0  0  0  0  0  # atno 6907 bound_to 6896
  151.5384  135.1067  159.9930 H   0  0  0  0  0  0  0  0  0  0  0  0  # atno 6908 bound_to 6896
  152.4585  133.7728  159.6864 H   0  0  0  0  0  0  0  0  0  0  0  0  # atno 6909 bound_to 6896
  144.7188  140.0066  143.6440 H   0  0  0  0  0  0  0  0  0  0  0  0  # atno 7974 bound_to 7965
  156.0115  140.1241  157.0449 H   0  0  0  0  0  0  0  0  0  0  0  0  # atno 8008 bound_to 7997
  154.4277  140.1087  156.5905 H   0  0  0  0  0  0  0  0  0  0  0  0  # atno 8009 bound_to 7997
  155.6073  140.3471  155.4614 H   0  0  0  0  0  0  0  0  0  0  0  0  # atno 8010 bound_to 7997
  140.4763  143.2413  151.8127 H   0  0  0  0  0  0  0  0  0  0  0  0  # atno 10167 bound_to 10162
  156.0638  130.5859  150.8352 H   0  0  0  0  0  0  0  0  0  0  0  0  # atno 10718 bound_to 10713
  154.6680  135.5296  153.8102 H   0  0  0  0  0  0  0  0  0  0  0  0  # atno 10763 bound_to 10752
  153.0483  135.6522  154.0769 H   0  0  0  0  0  0  0  0  0  0  0  0  # atno 10764 bound_to 10752
  154.0671  135.2957  155.3294 H   0  0  0  0  0  0  0  0  0  0  0  0  # atno 10765 bound_to 10752
  140.1707  134.4226  155.8259 H   0  0  0  0  0  0  0  0  0  0  0  0  # atno 11005 bound_to 11000
  146.0292  139.3320  143.0765 LP  0  0  0  0  0  0  0  0  0  0  0  0  # atno 17320 bound_to 7965
  145.8473  140.9548  143.0768 LP  0  0  0  0  0  0  0  0  0  0  0  0  # atno 17321 bound_to 7965
  139.4826  144.4829  151.9284 LP  0  0  0  0  0  0  0  0  0  0  0  0  # atno 17342 bound_to 10162
  140.3914  144.2611  150.5899 LP  0  0  0  0  0  0  0  0  0  0  0  0  # atno 17343 bound_to 10162
  157.5666  131.0946  150.9481 LP  0  0  0  0  0  0  0  0  0  0  0  0  # atno 17370 bound_to 10713
  156.9706  130.5489  149.5290 LP  0  0  0  0  0  0  0  0  0  0  0  0  # atno 17371 bound_to 10713
  141.2217  133.6955  156.7758 LP  0  0  0  0  0  0  0  0  0  0  0  0  # atno 17394 bound_to 11000
  140.2381  134.8635  157.3545 LP  0  0  0  0  0  0  0  0  0  0  0  0  # atno 17395 bound_to 11000

$$$$
