AV-unprocessed.smi:1854|AV-procd|sdf|7529|dock2
  -GOLD-   22720 9243D 1   1.00000     0.00000
 Structure written by MMmdl.
 39 41  0  0  0  0  0  0  0  0  1 V2000
  152.3276  135.7284  156.6291 O   0  0  0  0  0  0  0  0  0  0  0  0
  151.5648  136.4881  157.2236 C   0  0  0  0  0  0  0  0  0  0  0  0
  151.9569  137.4432  158.0788 N   0  0  0  0  0  0  0  0  0  0  0  0
  153.3414  137.7259  158.4437 C   0  0  0  0  0  0  0  0  0  0  0  0
  153.5087  137.5421  159.9240 C   0  0  0  0  0  0  0  0  0  0  0  0
  153.1950  136.3982  160.5338 N   0  0  0  0  0  0  0  0  0  0  0  0
  153.5055  136.6613  161.8535 C   0  0  0  0  0  0  0  0  0  0  0  0
  153.3998  135.8451  163.0024 C   0  0  0  0  0  0  0  0  0  0  0  0
  153.7911  136.3364  164.2652 C   0  0  0  0  0  0  0  0  0  0  0  0
  154.2918  137.6478  164.3972 C   0  0  0  0  0  0  0  0  0  0  0  0
  154.4034  138.4782  163.2655 C   0  0  0  0  0  0  0  0  0  0  0  0
  154.0106  137.9833  162.0076 C   0  0  0  0  0  0  0  0  0  0  0  0
  153.9931  138.5236  160.7263 N   0  0  0  0  0  0  0  0  0  0  0  0
  154.4241  139.8619  160.3545 C   0  0  0  0  0  0  0  0  0  0  0  0
  153.2809  140.6641  159.7221 C   0  0  0  0  0  0  0  0  0  0  0  0
  153.2478  141.9512  160.3211 O   0  0  0  0  0  0  0  0  0  0  0  0
  152.8333  143.0211  159.5551 C   0  0  0  0  0  0  0  0  0  0  0  0
  152.7273  142.9866  158.1408 C   0  0  0  0  0  0  0  0  0  0  0  0
  152.2947  144.1215  157.4279 C   0  0  0  0  0  0  0  0  0  0  0  0
  151.9628  145.3031  158.1146 C   0  0  0  0  0  0  0  0  0  0  0  0
  152.0653  145.3490  159.5169 C   0  0  0  0  0  0  0  0  0  0  0  0
  152.4979  144.2152  160.2325 C   0  0  0  0  0  0  0  0  0  0  0  0
  152.6128  144.2989  161.9542 Cl  0  0  0  0  0  0  0  0  0  0  0  0
  150.4683  136.4766  157.1252 H   0  0  0  0  0  0  0  0  0  0  0  0
  151.2449  138.0114  158.5144 H   0  0  0  0  0  0  0  0  0  0  0  0
  154.0313  137.0717  157.9075 H   0  0  0  0  0  0  0  0  0  0  0  0
  153.5942  138.7475  158.1606 H   0  0  0  0  0  0  0  0  0  0  0  0
  153.0184  134.8387  162.9115 H   0  0  0  0  0  0  0  0  0  0  0  0
  153.7074  135.7038  165.1369 H   0  0  0  0  0  0  0  0  0  0  0  0
  154.5902  138.0162  165.3678 H   0  0  0  0  0  0  0  0  0  0  0  0
  154.7870  139.4830  163.3629 H   0  0  0  0  0  0  0  0  0  0  0  0
  154.8147  140.3763  161.2323 H   0  0  0  0  0  0  0  0  0  0  0  0
  155.2557  139.7780  159.6544 H   0  0  0  0  0  0  0  0  0  0  0  0
  153.4440  140.7514  158.6467 H   0  0  0  0  0  0  0  0  0  0  0  0
  152.3328  140.1487  159.8836 H   0  0  0  0  0  0  0  0  0  0  0  0
  152.9731  142.1001  157.5766 H   0  0  0  0  0  0  0  0  0  0  0  0
  152.2179  144.0844  156.3512 H   0  0  0  0  0  0  0  0  0  0  0  0
  151.6306  146.1729  157.5672 H   0  0  0  0  0  0  0  0  0  0  0  0
  151.8110  146.2568  160.0440 H   0  0  0  0  0  0  0  0  0  0  0  0
  1  2  2  0  0  0  0
  2  3  1  0  0  0  0
  2 24  1  0  0  0  0
  3  4  1  0  0  0  0
  3 25  1  0  0  0  0
  4  5  1  0  0  0  0
  4 26  1  0  0  0  0
  4 27  1  0  0  0  0
  5 13  1  0  0  0  0
  5  6  2  0  0  0  0
  6  7  1  0  0  0  0
  7 12  2  0  0  0  0
  7  8  1  0  0  0  0
  8  9  2  0  0  0  0
  8 28  1  0  0  0  0
  9 10  1  0  0  0  0
  9 29  1  0  0  0  0
 10 11  2  0  0  0  0
 10 30  1  0  0  0  0
 11 12  1  0  0  0  0
 11 31  1  0  0  0  0
 12 13  1  0  0  0  0
 13 14  1  0  0  0  0
 14 15  1  0  0  0  0
 14 32  1  0  0  0  0
 14 33  1  0  0  0  0
 15 16  1  0  0  0  0
 15 34  1  0  0  0  0
 15 35  1  0  0  0  0
 16 17  1  0  0  0  0
 17 22  1  0  0  0  0
 17 18  2  0  0  0  0
 18 19  1  0  0  0  0
 18 36  1  0  0  0  0
 19 20  2  0  0  0  0
 19 37  1  0  0  0  0
 20 21  1  0  0  0  0
 20 38  1  0  0  0  0
 21 22  2  0  0  0  0
 21 39  1  0  0  0  0
 22 23  1  0  0  0  0
M  END
> <s_m_source_file>
AV-unprocessed.smi

> <i_m_source_file_index>
1854

> <i_lp_mmshare_version>
43012

> <i_f3d_flags>
0

> <s_epik_input>
Tz1bQ0hdW05IXVtDSDJdYyhuMSluKGMoYzEyKVtjSF1bY0hdW2NIXVtjSF0yKVtDSDJdW0NIMl1PYzNbY0hdW2NIXVtjSF1bY0hdYzNDbA==

> <s_epik_cmdline>
J2VwaWtfcHl0aG9uJywgJy1waCcsICc3LjAnLCAnLXRuJywgJzgnLCAnLW1hJywgJzIwMCcsICctbWV0YWxfYmluZGluZycsICctaW1hZScsICc8aW5maWxlLm1hZT4nLCAnLW9tYWUnLCAnPG91dGZpbGUubWFlPic=

> <r_lp_tautomer_probability>
1

> <r_epik_Ionization_Penalty>
0.0546265

> <r_epik_Ionization_Penalty_Charging>
0

> <r_epik_Ionization_Penalty_Neutral>
0.0546265

> <r_epik_State_Penalty>
0.0470049

> <r_epik_Charging_Adjusted_Penalty>
0.0470049

> <i_epik_Tot_Q>
0

> <i_epik_Tot_abs_Q>
0

> <r_epik_Metal_State_Penalty>
0.0430103

> <b_epik_Metal_Only>
0

> <s_lp_Force_Field>
OPLS_2005

> <r_lp_Energy>
13.3616

> <b_lp_Chiralities_Consistent>
1

> <s_lp_Variant>
AV-unprocessed.smi:1854-1

> <Gold.Version>
5.8.1

> <Gold.Id.Protein>
6NUR|6NUR_protein|mol2

> <Gold.PLP.Fitness>
54.6597

> <Gold.PLP.PLP>
-50.1281

> <Gold.PLP.part.hbond>
-1.9655

> <Gold.PLP.part.metal>
0.0000

> <Gold.PLP.part.buried>
-5.0418

> <Gold.PLP.part.nonpolar>
-43.5220

> <Gold.PLP.part.repulsive>
0.0949

> <Gold.PLP.ligand.clash>
0.0000

> <Gold.PLP.ligand.torsion>
0.7456

> <Gold.PLP.Chemscore.Hbond>
1.9913

> <Gold.PLP.Chemscore.CHOScore>
0.0000

> <Gold.PLP.Chemscore.Metal>
0.0000

> <Gold.Chemscore.Hbonds>
donor molecule, donor type, donor heavy atom, donor atom, acceptor molecule, acceptor atom, score
      P1  H  6896  6909       L1     6  1.00
      P1  H 10752 10764       L1     1  1.00

> <Gold.PLP.Chemscore.Internal.Correction>
0.0491

> <Gold.Rescore>
     Score         DG    S(hbond)    S(metal)    S(lipo)     H(rot)  DE(clash)    DE(int)     intcor
     21.80     -23.01       1.89        0.00     148.94       2.42       0.44       0.77       ----

> <Gold.Chemscore.Fitness>
21.8021

> <Gold.Chemscore.DG>
-23.0091

> <Gold.Chemscore.ZeroCoef>
-5.4800

> <Gold.Chemscore.Hbond>
1.8860

> <Gold.Chemscore.Metal>
0.0000

> <Gold.Chemscore.Lipo>
148.9420

> <Gold.Chemscore.Internal_Hbond>
0.0000

> <Gold.Chemscore.DEClash>
0.4372

> <Gold.Chemscore.DEInternal>
0.7698

> <Gold.Chemscore.Rot>
2.4205

> <Gold.Chemscore.Internal.Correction>
   9.000000E+99

> <Gold.Chemscore.Hbonds>
donor molecule, donor type, donor heavy atom, donor atom, acceptor molecule, acceptor atom, score
      P1  H  6896  6909       L1     6  0.98
      P1  H 10752 10764       L1     1  0.98

> <Gold.Chemscore.Hbond.Weighted>
-6.2994

> <Gold.Chemscore.Metal.Weighted>
-0.0000

> <Gold.Chemscore.Lipo.Weighted>
-17.4262

> <Gold.Chemscore.Internal_Hbond.Weighted>
0.0000

> <Gold.Chemscore.DEClash.Weighted>
0.4372

> <Gold.Chemscore.DEInternal.Weighted>
0.7698

> <Gold.Chemscore.Rot.Weighted>
6.1965

> <Gold.Chemscore.Internal.Correction.Weighted>
   9.000000E+99

> <Gold.Protein.RotatedTorsions>
[ 6907 6896 6895 6894 ] final  154.95 input  -60.11 | X-H torsion
[ 7974 7965 7964 7962 ] final  -13.18 input  175.53 | X-H torsion
[ 8008 7997 7996 7995 ] final  -25.19 input   59.86 | X-H torsion
[ 10167 10162 10161 10158 ] final  -36.24 input  -65.29 | X-H torsion
[ 10718 10713 10712 10709 ] final   -7.45 input   66.30 | X-H torsion
[ 10763 10752 10751 10750 ] final    0.30 input  -60.55 | X-H torsion
[ 11005 11000 10999 10996 ] final -137.45 input  -57.11 | X-H torsion

> <Gold.Protein.ActiveResidues>
 VAL166  LYS551  ARG553  GLY616  TRP617  ASP618  TYR619  PRO620  LYS621  CYS622 
 ASP623  PHE694  ASN695  SER759  ASP760  ASP761  ALA762  ILE779  LEU786  VAL792 
 PHE793  MET794  SER795  GLU796  ALA797  LYS798  CYS799  TRP800  GLU811  SER814 

> <Gold.Protein.RotatedAtoms>
  152.0511  133.4019  159.4377 H   0  0  0  0  0  0  0  0  0  0  0  0  # atno 6907 bound_to 6896
  150.6870  134.3307  159.4835 H   0  0  0  0  0  0  0  0  0  0  0  0  # atno 6908 bound_to 6896
  152.1117  134.9269  160.0617 H   0  0  0  0  0  0  0  0  0  0  0  0  # atno 6909 bound_to 6896
  146.2124  140.3166  142.8387 H   0  0  0  0  0  0  0  0  0  0  0  0  # atno 7974 bound_to 7965
  154.4489  140.1933  156.0580 H   0  0  0  0  0  0  0  0  0  0  0  0  # atno 8008 bound_to 7997
  156.0604  140.3297  155.7428 H   0  0  0  0  0  0  0  0  0  0  0  0  # atno 8009 bound_to 7997
  155.5420  140.0587  157.2859 H   0  0  0  0  0  0  0  0  0  0  0  0  # atno 8010 bound_to 7997
  140.7147  143.3422  151.2333 H   0  0  0  0  0  0  0  0  0  0  0  0  # atno 10167 bound_to 10162
  156.7171  130.5139  149.5877 H   0  0  0  0  0  0  0  0  0  0  0  0  # atno 10718 bound_to 10713
  153.3224  135.6970  153.7018 H   0  0  0  0  0  0  0  0  0  0  0  0  # atno 10763 bound_to 10752
  153.5853  135.3490  155.2891 H   0  0  0  0  0  0  0  0  0  0  0  0  # atno 10764 bound_to 10752
  154.8600  135.4305  154.2392 H   0  0  0  0  0  0  0  0  0  0  0  0  # atno 10765 bound_to 10752
  140.8709  134.2052  157.4651 H   0  0  0  0  0  0  0  0  0  0  0  0  # atno 11005 bound_to 11000
  144.8950  140.7572  143.5903 LP  0  0  0  0  0  0  0  0  0  0  0  0  # atno 17320 bound_to 7965
  145.3089  139.1825  143.4649 LP  0  0  0  0  0  0  0  0  0  0  0  0  # atno 17321 bound_to 7965
  139.6932  143.9656  152.2870 LP  0  0  0  0  0  0  0  0  0  0  0  0  # atno 17342 bound_to 10162
  139.9325  144.6732  150.8348 LP  0  0  0  0  0  0  0  0  0  0  0  0  # atno 17343 bound_to 10162
  156.1620  130.6380  151.0731 LP  0  0  0  0  0  0  0  0  0  0  0  0  # atno 17370 bound_to 10713
  157.6913  131.0809  150.7099 LP  0  0  0  0  0  0  0  0  0  0  0  0  # atno 17371 bound_to 10713
  139.8712  134.9774  156.4957 LP  0  0  0  0  0  0  0  0  0  0  0  0  # atno 17394 bound_to 11000
  140.8574  133.8086  155.9230 LP  0  0  0  0  0  0  0  0  0  0  0  0  # atno 17395 bound_to 11000

$$$$
