AV-unprocessed.smi:2593|AV-procd|sdf|10165|dock3
  -GOLD-   2272014183D 1   1.00000     0.00000
 Structure written by MMmdl.
 41 43  0  0  0  0  0  0  0  0  2 V2000
  154.4288  137.0727  161.0937 C   0  0  0  0  0  0  0  0  0  0  0  0
  153.3499  136.7195  160.2469 O   0  0  0  0  0  0  0  0  0  0  0  0
  152.5674  137.8392  159.8639 C   0  0  0  0  0  0  0  0  0  0  0  0
  153.2145  138.5306  158.6557 C   0  0  0  0  0  0  0  0  0  0  0  0
  152.4264  139.6604  158.1852 N   0  0  0  0  0  0  0  0  0  0  0  0
  151.4853  139.6727  157.2087 C   0  0  0  0  0  0  0  0  0  0  0  0
  151.0586  138.2022  156.3208 S   0  0  0  0  0  0  0  0  0  0  0  0
  151.1477  138.8270  154.6164 C   0  0  0  0  0  0  0  0  0  0  0  0
  149.7932  139.3616  154.1980 C   0  0  0  0  0  0  0  0  0  0  0  0
  149.3246  140.6246  154.6191 C   0  0  0  0  0  0  0  0  0  0  0  0
  148.0541  141.0639  154.1938 C   0  0  0  0  0  0  0  0  0  0  0  0
  147.2795  140.2330  153.3580 C   0  0  0  0  0  0  0  0  0  0  0  0
  147.7955  138.9796  152.9672 C   0  0  0  0  0  0  0  0  0  0  0  0
  147.0815  138.1095  152.1457 N   0  0  0  0  0  0  0  0  0  0  0  0
  149.0181  138.5958  153.3961 N   0  3  0  0  0  0  0  0  0  0  0  0
  150.9110  140.8561  156.9830 N   0  0  0  0  0  0  0  0  0  0  0  0
  151.5343  141.6827  157.8967 C   0  0  0  0  0  0  0  0  0  0  0  0
  151.3621  143.0613  158.1557 C   0  0  0  0  0  0  0  0  0  0  0  0
  152.1220  143.6992  159.1580 C   0  0  0  0  0  0  0  0  0  0  0  0
  153.0622  142.9693  159.9139 C   0  0  0  0  0  0  0  0  0  0  0  0
  153.2497  141.5951  159.6706 C   0  0  0  0  0  0  0  0  0  0  0  0
  152.4895  140.9639  158.6677 C   0  0  0  0  0  0  0  0  0  0  0  0
  154.9985  136.1800  161.3516 H   0  0  0  0  0  0  0  0  0  0  0  0
  154.0707  137.5229  162.0203 H   0  0  0  0  0  0  0  0  0  0  0  0
  155.1045  137.7731  160.6010 H   0  0  0  0  0  0  0  0  0  0  0  0
  151.5566  137.5187  159.6073 H   0  0  0  0  0  0  0  0  0  0  0  0
  152.4861  138.5400  160.6962 H   0  0  0  0  0  0  0  0  0  0  0  0
  154.2093  138.8883  158.9224 H   0  0  0  0  0  0  0  0  0  0  0  0
  153.3565  137.8227  157.8389 H   0  0  0  0  0  0  0  0  0  0  0  0
  151.9041  139.6099  154.5456 H   0  0  0  0  0  0  0  0  0  0  0  0
  151.4397  138.0204  153.9428 H   0  0  0  0  0  0  0  0  0  0  0  0
  149.9317  141.2491  155.2585 H   0  0  0  0  0  0  0  0  0  0  0  0
  147.6778  142.0273  154.5054 H   0  0  0  0  0  0  0  0  0  0  0  0
  146.3039  140.5572  153.0254 H   0  0  0  0  0  0  0  0  0  0  0  0
  146.1632  138.3459  151.7981 H   0  0  0  0  0  0  0  0  0  0  0  0
  147.4462  137.2028  151.8910 H   0  0  0  0  0  0  0  0  0  0  0  0
  150.6432  143.6288  157.5831 H   0  0  0  0  0  0  0  0  0  0  0  0
  151.9818  144.7530  159.3492 H   0  0  0  0  0  0  0  0  0  0  0  0
  153.6388  143.4643  160.6815 H   0  0  0  0  0  0  0  0  0  0  0  0
  153.9665  141.0327  160.2506 H   0  0  0  0  0  0  0  0  0  0  0  0
  149.3759  137.6866  153.1026 H   0  0  0  0  0  0  0  0  0  0  0  0
  1  2  1  0  0  0  0
  1 23  1  0  0  0  0
  1 24  1  0  0  0  0
  1 25  1  0  0  0  0
  2  3  1  0  0  0  0
  3  4  1  0  0  0  0
  3 26  1  0  0  0  0
  3 27  1  0  0  0  0
  4  5  1  0  0  0  0
  4 28  1  0  0  0  0
  4 29  1  0  0  0  0
  5 22  1  0  0  0  0
  5  6  1  0  0  0  0
  6  7  1  0  0  0  0
  6 16  2  0  0  0  0
  7  8  1  0  0  0  0
  8  9  1  0  0  0  0
  8 30  1  0  0  0  0
  8 31  1  0  0  0  0
  9 15  1  0  0  0  0
  9 10  2  0  0  0  0
 10 11  1  0  0  0  0
 10 32  1  0  0  0  0
 11 12  2  0  0  0  0
 11 33  1  0  0  0  0
 12 13  1  0  0  0  0
 12 34  1  0  0  0  0
 13 14  1  0  0  0  0
 13 15  2  0  0  0  0
 14 35  1  0  0  0  0
 14 36  1  0  0  0  0
 15 41  1  0  0  0  0
 16 17  1  0  0  0  0
 17 22  2  0  0  0  0
 17 18  1  0  0  0  0
 18 19  2  0  0  0  0
 18 37  1  0  0  0  0
 19 20  1  0  0  0  0
 19 38  1  0  0  0  0
 20 21  2  0  0  0  0
 20 39  1  0  0  0  0
 21 22  1  0  0  0  0
 21 40  1  0  0  0  0
M  CHG  1  15   1
M  END
> <s_m_source_file>
AV-unprocessed.smi

> <i_m_source_file_index>
2593

> <i_lp_mmshare_version>
43012

> <i_f3d_flags>
0

> <s_epik_input>
W2NIXTFbY0hdW2NIXVtjSF1jKGMxMiluKFtDSDJdW0NIMl1PW0NIM10pYyhuMilTW0NIMl1jM1tjSF1bY0hdW2NIXWMobjMpW05IMl0=

> <s_epik_cmdline>
J2VwaWtfcHl0aG9uJywgJy1waCcsICc3LjAnLCAnLXRuJywgJzgnLCAnLW1hJywgJzIwMCcsICctbWV0YWxfYmluZGluZycsICctaW1hZScsICc8aW5maWxlLm1hZT4nLCAnLW9tYWUnLCAnPG91dGZpbGUubWFlPic=

> <r_epik_Ionization_Penalty>
2.18774

> <r_epik_Ionization_Penalty_Charging>
2.15599

> <r_epik_Ionization_Penalty_Neutral>
0.0317477

> <r_epik_State_Penalty>
2.32894

> <r_epik_Charging_Adjusted_Penalty>
4.48493

> <i_epik_Tot_Q>
1

> <i_epik_Tot_abs_Q>
1

> <r_epik_Metal_State_Penalty>
2.33496

> <b_epik_Metal_Only>
0

> <s_lp_Force_Field>
OPLS_2005

> <r_lp_Energy>
14.8683

> <b_lp_Chiralities_Consistent>
1

> <s_lp_Variant>
AV-unprocessed.smi:2593-3

> <Gold.Version>
5.8.1

> <Gold.Id.Protein>
6NUR|6NUR_protein|mol2

> <Gold.PLP.Fitness>
57.0210

> <Gold.PLP.PLP>
-44.7153

> <Gold.PLP.part.hbond>
-4.7382

> <Gold.PLP.part.metal>
0.0000

> <Gold.PLP.part.buried>
1.0010

> <Gold.PLP.part.nonpolar>
-40.4241

> <Gold.PLP.part.repulsive>
0.2038

> <Gold.PLP.ligand.clash>
0.0000

> <Gold.PLP.ligand.torsion>
1.0337

> <Gold.PLP.Chemscore.Hbond>
4.7589

> <Gold.PLP.Chemscore.CHOScore>
0.0000

> <Gold.PLP.Chemscore.Metal>
0.0000

> <Gold.Chemscore.Hbonds>
donor molecule, donor type, donor heavy atom, donor atom, acceptor molecule, acceptor atom, score
      L1  H    14    36       P1  7948  1.73
      L1  H    15    41       P1  7948  1.63
      P1  H  6896  6909       L1     2  0.78

> <Gold.PLP.Chemscore.Internal.Correction>
0.0964

> <Gold.Rescore>
     Score         DG    S(hbond)    S(metal)    S(lipo)     H(rot)  DE(clash)    DE(int)     intcor
     21.09     -22.41       2.64        0.00     117.64       2.21       0.18       1.14       ----

> <Gold.Chemscore.Fitness>
21.0868

> <Gold.Chemscore.DG>
-22.4076

> <Gold.Chemscore.ZeroCoef>
-5.4800

> <Gold.Chemscore.Hbond>
2.6390

> <Gold.Chemscore.Metal>
0.0000

> <Gold.Chemscore.Lipo>
117.6427

> <Gold.Chemscore.Internal_Hbond>
0.0000

> <Gold.Chemscore.DEClash>
0.1784

> <Gold.Chemscore.DEInternal>
1.1424

> <Gold.Chemscore.Rot>
2.2073

> <Gold.Chemscore.Internal.Correction>
   9.000000E+99

> <Gold.Chemscore.Hbonds>
donor molecule, donor type, donor heavy atom, donor atom, acceptor molecule, acceptor atom, score
      L1  H    14    36       P1  7948  0.85
      L1  H    15    41       P1  7948  0.76
      P1  H  6896  6909       L1     2  0.46

> <Gold.Chemscore.Hbond.Weighted>
-8.8142

> <Gold.Chemscore.Metal.Weighted>
-0.0000

> <Gold.Chemscore.Lipo.Weighted>
-13.7642

> <Gold.Chemscore.Internal_Hbond.Weighted>
0.0000

> <Gold.Chemscore.DEClash.Weighted>
0.1784

> <Gold.Chemscore.DEInternal.Weighted>
1.1424

> <Gold.Chemscore.Rot.Weighted>
5.6508

> <Gold.Chemscore.Internal.Correction.Weighted>
   9.000000E+99

> <Gold.Protein.RotatedTorsions>
[ 6907 6896 6895 6894 ] final  152.47 input  -60.11 | X-H torsion
[ 7974 7965 7964 7962 ] final -131.75 input  175.53 | X-H torsion
[ 8008 7997 7996 7995 ] final  137.22 input   59.86 | X-H torsion
[ 10167 10162 10161 10158 ] final    7.10 input  -65.29 | X-H torsion
[ 10718 10713 10712 10709 ] final  173.17 input   66.30 | X-H torsion
[ 10763 10752 10751 10750 ] final  151.84 input  -60.55 | X-H torsion
[ 11005 11000 10999 10996 ] final -151.51 input  -57.11 | X-H torsion

> <Gold.Protein.ActiveResidues>
 VAL166  LYS551  ARG553  GLY616  TRP617  ASP618  TYR619  PRO620  LYS621  CYS622 
 ASP623  PHE694  ASN695  SER759  ASP760  ASP761  ALA762  ILE779  LEU786  VAL792 
 PHE793  MET794  SER795  GLU796  ALA797  LYS798  CYS799  TRP800  GLU811  SER814 

> <Gold.Protein.RotatedAtoms>
  152.0863  133.4178  159.4523 H   0  0  0  0  0  0  0  0  0  0  0  0  # atno 6907 bound_to 6896
  150.6862  134.2923  159.4681 H   0  0  0  0  0  0  0  0  0  0  0  0  # atno 6908 bound_to 6896
  152.0770  134.9495  160.0624 H   0  0  0  0  0  0  0  0  0  0  0  0  # atno 6909 bound_to 6896
  144.9350  140.7173  143.4882 H   0  0  0  0  0  0  0  0  0  0  0  0  # atno 7974 bound_to 7965
  156.3002  140.2425  156.3874 H   0  0  0  0  0  0  0  0  0  0  0  0  # atno 8008 bound_to 7997
  154.8645  140.0418  157.1706 H   0  0  0  0  0  0  0  0  0  0  0  0  # atno 8009 bound_to 7997
  154.8861  140.2956  155.5401 H   0  0  0  0  0  0  0  0  0  0  0  0  # atno 8010 bound_to 7997
  140.6390  143.7818  150.7401 H   0  0  0  0  0  0  0  0  0  0  0  0  # atno 10167 bound_to 10162
  156.9682  131.0082  151.2911 H   0  0  0  0  0  0  0  0  0  0  0  0  # atno 10718 bound_to 10713
  154.1104  135.2839  155.3232 H   0  0  0  0  0  0  0  0  0  0  0  0  # atno 10763 bound_to 10752
  154.6494  135.5374  153.7886 H   0  0  0  0  0  0  0  0  0  0  0  0  # atno 10764 bound_to 10752
  153.0347  135.6506  154.1263 H   0  0  0  0  0  0  0  0  0  0  0  0  # atno 10765 bound_to 10752
  140.7288  134.3644  157.5170 H   0  0  0  0  0  0  0  0  0  0  0  0  # atno 11005 bound_to 11000
  145.3081  139.1828  143.4653 LP  0  0  0  0  0  0  0  0  0  0  0  0  # atno 17320 bound_to 7965
  146.3263  140.3081  142.8625 LP  0  0  0  0  0  0  0  0  0  0  0  0  # atno 17321 bound_to 7965
  140.1445  143.4412  152.2172 LP  0  0  0  0  0  0  0  0  0  0  0  0  # atno 17342 bound_to 10162
  139.5600  144.7399  151.4183 LP  0  0  0  0  0  0  0  0  0  0  0  0  # atno 17343 bound_to 10162
  157.5611  130.8246  149.8267 LP  0  0  0  0  0  0  0  0  0  0  0  0  # atno 17370 bound_to 10713
  156.0294  130.3769  150.1731 LP  0  0  0  0  0  0  0  0  0  0  0  0  # atno 17371 bound_to 10713
  139.8831  134.9005  156.2789 LP  0  0  0  0  0  0  0  0  0  0  0  0  # atno 17394 bound_to 11000
  140.9939  133.7192  156.0856 LP  0  0  0  0  0  0  0  0  0  0  0  0  # atno 17395 bound_to 11000

$$$$
