AV-unprocessed.smi:353|AV-procd|sdf|2402|dock7
  -GOLD-   2262022333D 1   1.00000     0.00000
 Structure written by MMmdl.
 36 37  0  0  0  0  0  0  0  0  1 V2000
  146.3293  137.7626  152.7235 C   0  0  0  0  0  0  0  0  0  0  0  0
  147.2657  138.9647  152.5752 C   0  0  0  0  0  0  0  0  0  0  0  0
  148.5270  138.7436  153.2628 N   0  0  0  0  0  0  0  0  0  0  0  0
  149.1834  139.6002  154.1371 C   0  0  0  0  0  0  0  0  0  0  0  0
  148.6552  140.9070  154.4956 C   0  0  0  0  0  0  0  0  0  0  0  0
  149.2586  141.7050  155.3070 N   0  0  0  0  0  0  0  0  0  0  0  0
  150.4583  141.3226  155.8734 N   0  0  0  0  0  0  0  0  0  0  0  0
  151.0183  142.3109  156.8032 C   0  0  0  0  0  0  0  0  0  0  0  0
  150.9516  141.8207  158.2587 C   0  0  0  0  0  0  0  0  0  0  0  0
  152.2648  141.5335  158.7203 O   0  0  0  0  0  0  0  0  0  0  0  0
  152.6068  141.9114  159.9999 C   0  0  0  0  0  0  0  0  0  0  0  0
  151.9561  143.0469  160.5251 C   0  0  0  0  0  0  0  0  0  0  0  0
  152.2463  143.5078  161.8235 C   0  0  0  0  0  0  0  0  0  0  0  0
  153.1947  142.8324  162.6138 C   0  0  0  0  0  0  0  0  0  0  0  0
  153.5539  143.3955  164.2044 Cl  0  0  0  0  0  0  0  0  0  0  0  0
  153.8495  141.6958  162.1032 C   0  0  0  0  0  0  0  0  0  0  0  0
  153.5584  141.2348  160.8044 C   0  0  0  0  0  0  0  0  0  0  0  0
  151.0843  140.1310  155.6380 C   0  0  0  0  0  0  0  0  0  0  0  0
  152.1537  139.8290  156.1694 O   0  0  0  0  0  0  0  0  0  0  0  0
  150.3675  139.2484  154.7060 C   0  0  0  0  0  0  0  0  0  0  0  0
  151.0865  137.7132  154.3492 Cl  0  0  0  0  0  0  0  0  0  0  0  0
  145.3871  137.9404  152.2049 H   0  0  0  0  0  0  0  0  0  0  0  0
  146.1002  137.5674  153.7716 H   0  0  0  0  0  0  0  0  0  0  0  0
  146.7753  136.8609  152.3030 H   0  0  0  0  0  0  0  0  0  0  0  0
  147.4616  139.1525  151.5191 H   0  0  0  0  0  0  0  0  0  0  0  0
  146.7891  139.8577  152.9807 H   0  0  0  0  0  0  0  0  0  0  0  0
  148.9654  137.8518  153.0803 H   0  0  0  0  0  0  0  0  0  0  0  0
  147.7063  141.1826  154.0359 H   0  0  0  0  0  0  0  0  0  0  0  0
  152.0440  142.5753  156.5405 H   0  0  0  0  0  0  0  0  0  0  0  0
  150.4534  143.2406  156.7157 H   0  0  0  0  0  0  0  0  0  0  0  0
  150.5100  142.5995  158.8819 H   0  0  0  0  0  0  0  0  0  0  0  0
  150.3139  140.9373  158.3226 H   0  0  0  0  0  0  0  0  0  0  0  0
  151.2277  143.5714  159.9241 H   0  0  0  0  0  0  0  0  0  0  0  0
  151.7407  144.3804  162.2105 H   0  0  0  0  0  0  0  0  0  0  0  0
  154.5772  141.1745  162.7075 H   0  0  0  0  0  0  0  0  0  0  0  0
  154.0787  140.3587  160.4487 H   0  0  0  0  0  0  0  0  0  0  0  0
  1  2  1  0  0  0  0
  1 22  1  0  0  0  0
  1 23  1  0  0  0  0
  1 24  1  0  0  0  0
  2  3  1  0  0  0  0
  2 25  1  0  0  0  0
  2 26  1  0  0  0  0
  3  4  1  0  0  0  0
  3 27  1  0  0  0  0
  4 20  2  0  0  0  0
  4  5  1  0  0  0  0
  5  6  2  0  0  0  0
  5 28  1  0  0  0  0
  6  7  1  0  0  0  0
  7  8  1  0  0  0  0
  7 18  1  0  0  0  0
  8  9  1  0  0  0  0
  8 29  1  0  0  0  0
  8 30  1  0  0  0  0
  9 10  1  0  0  0  0
  9 31  1  0  0  0  0
  9 32  1  0  0  0  0
 10 11  1  0  0  0  0
 11 17  1  0  0  0  0
 11 12  2  0  0  0  0
 12 13  1  0  0  0  0
 12 33  1  0  0  0  0
 13 14  2  0  0  0  0
 13 34  1  0  0  0  0
 14 15  1  0  0  0  0
 14 16  1  0  0  0  0
 16 17  2  0  0  0  0
 16 35  1  0  0  0  0
 17 36  1  0  0  0  0
 18 19  2  0  0  0  0
 18 20  1  0  0  0  0
 20 21  1  0  0  0  0
M  END
> <s_m_source_file>
AV-unprocessed.smi

> <i_m_source_file_index>
353

> <i_lp_mmshare_version>
43012

> <i_f3d_flags>
0

> <s_epik_input>
W0NIM11bQ0gyXVtOSF1jMVtjSF1ubihjKD1PKWMxQ2wpW0NIMl1bQ0gyXU9jMltjSF1bY0hdYyhDbClbY0hdW2NIXTI=

> <s_epik_cmdline>
J2VwaWtfcHl0aG9uJywgJy1waCcsICc3LjAnLCAnLXRuJywgJzgnLCAnLW1hJywgJzIwMCcsICctbWV0YWxfYmluZGluZycsICctaW1hZScsICc8aW5maWxlLm1hZT4nLCAnLW9tYWUnLCAnPG91dGZpbGUubWFlPic=

> <r_lp_tautomer_probability>
1

> <r_epik_Ionization_Penalty>
1.47008e-05

> <r_epik_Ionization_Penalty_Charging>
1.08079e-09

> <r_epik_Ionization_Penalty_Neutral>
1.46998e-05

> <r_epik_State_Penalty>
-0

> <r_epik_Charging_Adjusted_Penalty>
1.08079e-09

> <i_epik_Tot_Q>
0

> <i_epik_Tot_abs_Q>
0

> <r_epik_Metal_State_Penalty>
-0

> <b_epik_Metal_Only>
0

> <s_lp_Force_Field>
OPLS_2005

> <r_lp_Energy>
29.5526

> <b_lp_Chiralities_Consistent>
1

> <s_lp_Variant>
AV-unprocessed.smi:353-1

> <Gold.Version>
5.8.1

> <Gold.Id.Protein>
6NUR|6NUR_protein|mol2

> <Gold.PLP.Fitness>
54.6293

> <Gold.PLP.PLP>
-52.2716

> <Gold.PLP.part.hbond>
-2.4282

> <Gold.PLP.part.metal>
0.0000

> <Gold.PLP.part.buried>
-1.7597

> <Gold.PLP.part.nonpolar>
-48.5436

> <Gold.PLP.part.repulsive>
0.8088

> <Gold.PLP.ligand.clash>
0.0000

> <Gold.PLP.ligand.torsion>
1.1616

> <Gold.PLP.Chemscore.Hbond>
1.5525

> <Gold.PLP.Chemscore.CHOScore>
0.0000

> <Gold.PLP.Chemscore.Metal>
0.0000

> <Gold.Chemscore.Hbonds>
donor molecule, donor type, donor heavy atom, donor atom, acceptor molecule, acceptor atom, score
      L1  H     3    27       P1  7948  0.90
      P1  H  7997  8009       L1    19  0.57

> <Gold.PLP.Chemscore.Internal.Correction>
0.0236

> <Gold.Rescore>
     Score         DG    S(hbond)    S(metal)    S(lipo)     H(rot)  DE(clash)    DE(int)     intcor
     20.81     -22.39       1.62        0.00     134.14       1.64       0.33       1.24       ----

> <Gold.Chemscore.Fitness>
20.8145

> <Gold.Chemscore.DG>
-22.3874

> <Gold.Chemscore.ZeroCoef>
-5.4800

> <Gold.Chemscore.Hbond>
1.6191

> <Gold.Chemscore.Metal>
0.0000

> <Gold.Chemscore.Lipo>
134.1359

> <Gold.Chemscore.Internal_Hbond>
0.0000

> <Gold.Chemscore.DEClash>
0.3308

> <Gold.Chemscore.DEInternal>
1.2421

> <Gold.Chemscore.Rot>
1.6384

> <Gold.Chemscore.Internal.Correction>
   9.000000E+99

> <Gold.Chemscore.Hbonds>
donor molecule, donor type, donor heavy atom, donor atom, acceptor molecule, acceptor atom, score
      L1  H     3    27       P1  7948  0.85
      P1  H  7997  8009       L1    19  0.56

> <Gold.Chemscore.Hbond.Weighted>
-5.4078

> <Gold.Chemscore.Metal.Weighted>
-0.0000

> <Gold.Chemscore.Lipo.Weighted>
-15.6939

> <Gold.Chemscore.Internal_Hbond.Weighted>
0.0000

> <Gold.Chemscore.DEClash.Weighted>
0.3308

> <Gold.Chemscore.DEInternal.Weighted>
1.2421

> <Gold.Chemscore.Rot.Weighted>
4.1943

> <Gold.Chemscore.Internal.Correction.Weighted>
   9.000000E+99

> <Gold.Protein.RotatedTorsions>
[ 6907 6896 6895 6894 ] final   79.63 input  -60.11 | X-H torsion
[ 7974 7965 7964 7962 ] final  -92.09 input  175.53 | X-H torsion
[ 8008 7997 7996 7995 ] final -164.57 input   59.86 | X-H torsion
[ 10167 10162 10161 10158 ] final  131.09 input  -65.29 | X-H torsion
[ 10718 10713 10712 10709 ] final   41.27 input   66.30 | X-H torsion
[ 10763 10752 10751 10750 ] final   34.63 input  -60.55 | X-H torsion
[ 11005 11000 10999 10996 ] final -151.42 input  -57.11 | X-H torsion

> <Gold.Protein.ActiveResidues>
 VAL166  LYS551  ARG553  GLY616  TRP617  ASP618  TYR619  PRO620  LYS621  CYS622 
 ASP623  PHE694  ASN695  SER759  ASP760  ASP761  ALA762  ILE779  LEU786  VAL792 
 PHE793  MET794  SER795  GLU796  ALA797  LYS798  CYS799  TRP800  GLU811  SER814 

> <Gold.Protein.RotatedAtoms>
  152.5206  134.3481  159.9240 H   0  0  0  0  0  0  0  0  0  0  0  0  # atno 6907 bound_to 6896
  151.3431  133.3948  159.2681 H   0  0  0  0  0  0  0  0  0  0  0  0  # atno 6908 bound_to 6896
  150.9787  134.9165  159.7889 H   0  0  0  0  0  0  0  0  0  0  0  0  # atno 6909 bound_to 6896
  145.4044  140.9540  143.2269 H   0  0  0  0  0  0  0  0  0  0  0  0  # atno 7974 bound_to 7965
  155.8375  140.0943  157.1755 H   0  0  0  0  0  0  0  0  0  0  0  0  # atno 8008 bound_to 7997
  154.3981  140.1407  156.3749 H   0  0  0  0  0  0  0  0  0  0  0  0  # atno 8009 bound_to 7997
  155.8100  140.3450  155.5455 H   0  0  0  0  0  0  0  0  0  0  0  0  # atno 8010 bound_to 7997
  139.5399  144.6721  151.4658 H   0  0  0  0  0  0  0  0  0  0  0  0  # atno 10167 bound_to 10162
  157.3917  130.7810  149.7274 H   0  0  0  0  0  0  0  0  0  0  0  0  # atno 10718 bound_to 10713
  153.0155  135.6355  154.1699 H   0  0  0  0  0  0  0  0  0  0  0  0  # atno 10763 bound_to 10752
  154.1438  135.2833  155.3155 H   0  0  0  0  0  0  0  0  0  0  0  0  # atno 10764 bound_to 10752
  154.6105  135.5558  153.7529 H   0  0  0  0  0  0  0  0  0  0  0  0  # atno 10765 bound_to 10752
  140.7298  134.3634  157.5169 H   0  0  0  0  0  0  0  0  0  0  0  0  # atno 11005 bound_to 11000
  144.8351  139.5563  143.6926 LP  0  0  0  0  0  0  0  0  0  0  0  0  # atno 17320 bound_to 7965
  146.2736  139.6696  142.9279 LP  0  0  0  0  0  0  0  0  0  0  0  0  # atno 17321 bound_to 7965
  140.6625  143.8469  150.6904 LP  0  0  0  0  0  0  0  0  0  0  0  0  # atno 17342 bound_to 10162
  140.1867  143.4069  152.1893 LP  0  0  0  0  0  0  0  0  0  0  0  0  # atno 17343 bound_to 10162
  155.9800  130.4034  150.3555 LP  0  0  0  0  0  0  0  0  0  0  0  0  # atno 17370 bound_to 10713
  157.1671  131.0359  151.2813 LP  0  0  0  0  0  0  0  0  0  0  0  0  # atno 17371 bound_to 10713
  139.8829  134.9010  156.2802 LP  0  0  0  0  0  0  0  0  0  0  0  0  # atno 17394 bound_to 11000
  140.9931  133.7196  156.0844 LP  0  0  0  0  0  0  0  0  0  0  0  0  # atno 17395 bound_to 11000

$$$$
