AV-unprocessed.smi:420|AV-procd|sdf|2533|dock10
  -GOLD-   2262022493D 1   1.00000     0.00000
 Structure written by MMmdl.
 36 38  0  0  0  0  0  0  0  0  1 V2000
  154.2410  141.2386  161.4194 C   0  0  0  0  0  0  0  0  0  0  0  0
  153.3054  141.2510  160.3012 N   0  0  0  0  0  0  0  0  0  0  0  0
  152.8738  140.1861  159.5860 C   0  0  0  0  0  0  0  0  0  0  0  0
  153.2015  139.0126  159.7622 O   0  0  0  0  0  0  0  0  0  0  0  0
  152.0104  140.6354  158.6441 N   0  0  0  0  0  0  0  0  0  0  0  0
  151.3038  139.8230  157.6548 C   0  0  0  0  0  0  0  0  0  0  0  0
  151.5536  140.3219  156.2176 C   0  0  1  0  0  0  0  0  0  0  0  0
  152.6241  139.5827  155.6628 O   0  0  0  0  0  0  0  0  0  0  0  0
  150.2938  140.2015  155.3733 C   0  0  0  0  0  0  0  0  0  0  0  0
  149.8080  138.9362  154.9740 C   0  0  0  0  0  0  0  0  0  0  0  0
  148.6348  138.8377  154.2009 C   0  0  0  0  0  0  0  0  0  0  0  0
  147.9376  140.0023  153.8262 C   0  0  0  0  0  0  0  0  0  0  0  0
  146.8085  139.9073  153.0851 F   0  0  0  0  0  0  0  0  0  0  0  0
  148.4145  141.2657  154.2250 C   0  0  0  0  0  0  0  0  0  0  0  0
  149.5887  141.3648  154.9968 C   0  0  0  0  0  0  0  0  0  0  0  0
  151.8799  142.0265  158.7669 C   0  0  0  0  0  0  0  0  0  0  0  0
  151.1062  142.9540  158.0468 C   0  0  0  0  0  0  0  0  0  0  0  0
  151.2011  144.3122  158.4313 C   0  0  0  0  0  0  0  0  0  0  0  0
  152.0446  144.7080  159.5019 C   0  0  0  0  0  0  0  0  0  0  0  0
  152.8096  143.7535  160.2125 C   0  0  0  0  0  0  0  0  0  0  0  0
  152.6966  142.4122  159.8090 C   0  0  0  0  0  0  0  0  0  0  0  0
  154.6146  140.2361  161.6315 H   0  0  0  0  0  0  0  0  0  0  0  0
  153.7552  141.6145  162.3202 H   0  0  0  0  0  0  0  0  0  0  0  0
  155.0968  141.8775  161.2007 H   0  0  0  0  0  0  0  0  0  0  0  0
  151.5547  138.7664  157.7552 H   0  0  0  0  0  0  0  0  0  0  0  0
  150.2382  139.8930  157.8809 H   0  0  0  0  0  0  0  0  0  0  0  0
  151.8522  141.3711  156.2335 H   0  0  0  0  0  0  0  0  0  0  0  0
  152.6313  139.7233  154.7285 H   0  0  0  0  0  0  0  0  0  0  0  0
  150.3316  138.0360  155.2611 H   0  0  0  0  0  0  0  0  0  0  0  0
  148.2688  137.8682  153.8968 H   0  0  0  0  0  0  0  0  0  0  0  0
  147.8792  142.1595  153.9402 H   0  0  0  0  0  0  0  0  0  0  0  0
  149.9442  142.3386  155.3010 H   0  0  0  0  0  0  0  0  0  0  0  0
  150.4623  142.6484  157.2357 H   0  0  0  0  0  0  0  0  0  0  0  0
  150.6235  145.0569  157.9037 H   0  0  0  0  0  0  0  0  0  0  0  0
  152.1018  145.7504  159.7788 H   0  0  0  0  0  0  0  0  0  0  0  0
  153.4520  144.0455  161.0300 H   0  0  0  0  0  0  0  0  0  0  0  0
  1  2  1  0  0  0  0
  1 22  1  0  0  0  0
  1 23  1  0  0  0  0
  1 24  1  0  0  0  0
  2 21  1  0  0  0  0
  2  3  1  0  0  0  0
  3  4  2  0  0  0  0
  3  5  1  0  0  0  0
  5  6  1  0  0  0  0
  5 16  1  0  0  0  0
  6  7  1  0  0  0  0
  6 25  1  0  0  0  0
  6 26  1  0  0  0  0
  7  8  1  0  0  0  0
  7  9  1  0  0  0  0
  7 27  1  0  0  0  0
  8 28  1  0  0  0  0
  9 15  1  0  0  0  0
  9 10  2  0  0  0  0
 10 11  1  0  0  0  0
 10 29  1  0  0  0  0
 11 12  2  0  0  0  0
 11 30  1  0  0  0  0
 12 13  1  0  0  0  0
 12 14  1  0  0  0  0
 14 15  2  0  0  0  0
 14 31  1  0  0  0  0
 15 32  1  0  0  0  0
 16 21  2  0  0  0  0
 16 17  1  0  0  0  0
 17 18  2  0  0  0  0
 17 33  1  0  0  0  0
 18 19  1  0  0  0  0
 18 34  1  0  0  0  0
 19 20  2  0  0  0  0
 19 35  1  0  0  0  0
 20 21  1  0  0  0  0
 20 36  1  0  0  0  0
M  END
> <s_m_source_file>
AV-unprocessed.smi

> <i_m_source_file_index>
420

> <i_lp_mmshare_version>
43012

> <i_f3d_flags>
0

> <s_epik_input>
W2NIXTFbY0hdW2NIXVtjSF1jKGMxMiluKFtDSDNdKWMoPU8pbjJbQ0gyXVtDQEhdKFtPSF0pYzNbY0hdW2NIXWMoRilbY0hdW2NIXTM=

> <s_epik_cmdline>
J2VwaWtfcHl0aG9uJywgJy1waCcsICc3LjAnLCAnLXRuJywgJzgnLCAnLW1hJywgJzIwMCcsICctbWV0YWxfYmluZGluZycsICctaW1hZScsICc8aW5maWxlLm1hZT4nLCAnLW9tYWUnLCAnPG91dGZpbGUubWFlPic=

> <r_lp_tautomer_probability>
1

> <r_epik_Ionization_Penalty>
1.79795e-06

> <r_epik_Ionization_Penalty_Charging>
2.57375e-09

> <r_epik_Ionization_Penalty_Neutral>
1.79538e-06

> <r_epik_State_Penalty>
-0

> <r_epik_Charging_Adjusted_Penalty>
2.57375e-09

> <i_epik_Tot_Q>
0

> <i_epik_Tot_abs_Q>
0

> <r_epik_Metal_State_Penalty>
-0

> <b_epik_Metal_Only>
0

> <s_lp_Force_Field>
OPLS_2005

> <r_lp_Energy>
43.03

> <b_lp_Chiralities_Consistent>
1

> <s_lp_Variant>
AV-unprocessed.smi:420-2

> <Gold.Version>
5.8.1

> <Gold.Id.Protein>
6NUR|6NUR_protein|mol2

> <Gold.PLP.Fitness>
52.3040

> <Gold.PLP.PLP>
-50.7465

> <Gold.PLP.part.hbond>
-1.0000

> <Gold.PLP.part.metal>
0.0000

> <Gold.PLP.part.buried>
-2.2929

> <Gold.PLP.part.nonpolar>
-47.4850

> <Gold.PLP.part.repulsive>
0.0000

> <Gold.PLP.ligand.clash>
0.0000

> <Gold.PLP.ligand.torsion>
0.7248

> <Gold.PLP.Chemscore.Hbond>
1.0000

> <Gold.PLP.Chemscore.CHOScore>
0.0000

> <Gold.PLP.Chemscore.Metal>
0.0000

> <Gold.Chemscore.Hbonds>
donor molecule, donor type, donor heavy atom, donor atom, acceptor molecule, acceptor atom, score
      P1  H  7997  8008       L1     8  1.00

> <Gold.PLP.Chemscore.Internal.Correction>
0.0071

> <Gold.Rescore>
     Score         DG    S(hbond)    S(metal)    S(lipo)     H(rot)  DE(clash)    DE(int)     intcor
     17.97     -18.88       0.95        0.00     127.97       1.85       0.02       0.90       ----

> <Gold.Chemscore.Fitness>
17.9675

> <Gold.Chemscore.DG>
-18.8818

> <Gold.Chemscore.ZeroCoef>
-5.4800

> <Gold.Chemscore.Hbond>
0.9451

> <Gold.Chemscore.Metal>
0.0000

> <Gold.Chemscore.Lipo>
127.9665

> <Gold.Chemscore.Internal_Hbond>
0.0000

> <Gold.Chemscore.DEClash>
0.0175

> <Gold.Chemscore.DEInternal>
0.8969

> <Gold.Chemscore.Rot>
1.8465

> <Gold.Chemscore.Internal.Correction>
   9.000000E+99

> <Gold.Chemscore.Hbonds>
donor molecule, donor type, donor heavy atom, donor atom, acceptor molecule, acceptor atom, score
      P1  H  7997  8008       L1     8  0.28

> <Gold.Chemscore.Hbond.Weighted>
-3.1568

> <Gold.Chemscore.Metal.Weighted>
-0.0000

> <Gold.Chemscore.Lipo.Weighted>
-14.9721

> <Gold.Chemscore.Internal_Hbond.Weighted>
0.0000

> <Gold.Chemscore.DEClash.Weighted>
0.0175

> <Gold.Chemscore.DEInternal.Weighted>
0.8969

> <Gold.Chemscore.Rot.Weighted>
4.7270

> <Gold.Chemscore.Internal.Correction.Weighted>
   9.000000E+99

> <Gold.Protein.RotatedTorsions>
[ 6907 6896 6895 6894 ] final  -57.18 input  -60.11 | X-H torsion
[ 7974 7965 7964 7962 ] final   39.35 input  175.53 | X-H torsion
[ 8008 7997 7996 7995 ] final  -30.54 input   59.86 | X-H torsion
[ 10167 10162 10161 10158 ] final  120.11 input  -65.29 | X-H torsion
[ 10718 10713 10712 10709 ] final -102.81 input   66.30 | X-H torsion
[ 10763 10752 10751 10750 ] final  123.25 input  -60.55 | X-H torsion
[ 11005 11000 10999 10996 ] final  -99.63 input  -57.11 | X-H torsion

> <Gold.Protein.ActiveResidues>
 VAL166  LYS551  ARG553  GLY616  TRP617  ASP618  TYR619  PRO620  LYS621  CYS622 
 ASP623  PHE694  ASN695  SER759  ASP760  ASP761  ALA762  ILE779  LEU786  VAL792 
 PHE793  MET794  SER795  GLU796  ALA797  LYS798  CYS799  TRP800  GLU811  SER814 

> <Gold.Protein.RotatedAtoms>
  150.8107  134.7259  159.6684 H   0  0  0  0  0  0  0  0  0  0  0  0  # atno 6907 bound_to 6896
  152.4226  134.5923  159.9987 H   0  0  0  0  0  0  0  0  0  0  0  0  # atno 6908 bound_to 6896
  151.6134  133.3308  159.3108 H   0  0  0  0  0  0  0  0  0  0  0  0  # atno 6909 bound_to 6896
  146.0991  139.5663  142.9426 H   0  0  0  0  0  0  0  0  0  0  0  0  # atno 7974 bound_to 7965
  154.4246  140.1788  156.1424 H   0  0  0  0  0  0  0  0  0  0  0  0  # atno 8008 bound_to 7997
  155.9981  140.3362  155.6794 H   0  0  0  0  0  0  0  0  0  0  0  0  # atno 8009 bound_to 7997
  155.6280  140.0667  157.2648 H   0  0  0  0  0  0  0  0  0  0  0  0  # atno 8010 bound_to 7997
  139.6003  144.7054  151.3079 H   0  0  0  0  0  0  0  0  0  0  0  0  # atno 10167 bound_to 10162
  156.0242  130.5438  150.7163 H   0  0  0  0  0  0  0  0  0  0  0  0  # atno 10718 bound_to 10713
  153.6425  135.3377  155.3076 H   0  0  0  0  0  0  0  0  0  0  0  0  # atno 10763 bound_to 10752
  154.8556  135.4322  154.1989 H   0  0  0  0  0  0  0  0  0  0  0  0  # atno 10764 bound_to 10752
  153.2912  135.7017  153.7365 H   0  0  0  0  0  0  0  0  0  0  0  0  # atno 10765 bound_to 10752
  141.1301  133.8336  157.0997 H   0  0  0  0  0  0  0  0  0  0  0  0  # atno 11005 bound_to 11000
  145.5889  141.0372  143.2081 LP  0  0  0  0  0  0  0  0  0  0  0  0  # atno 17320 bound_to 7965
  144.7419  139.7426  143.7307 LP  0  0  0  0  0  0  0  0  0  0  0  0  # atno 17321 bound_to 7965
  140.7244  143.7045  150.7818 LP  0  0  0  0  0  0  0  0  0  0  0  0  # atno 17342 bound_to 10162
  140.0620  143.5145  152.2623 LP  0  0  0  0  0  0  0  0  0  0  0  0  # atno 17343 bound_to 10162
  157.4789  131.0900  151.0559 LP  0  0  0  0  0  0  0  0  0  0  0  0  # atno 17370 bound_to 10713
  157.0998  130.5977  149.5457 LP  0  0  0  0  0  0  0  0  0  0  0  0  # atno 17371 bound_to 10713
  140.0341  134.9887  157.0837 LP  0  0  0  0  0  0  0  0  0  0  0  0  # atno 17394 bound_to 11000
  140.4238  134.1852  155.7165 LP  0  0  0  0  0  0  0  0  0  0  0  0  # atno 17395 bound_to 11000

$$$$
