AV-unprocessed.smi:910|AV-procd|sdf|4134|dock2
  -GOLD-   22720 2 43D 1   1.00000     0.00000
 Structure written by MMmdl.
 45 46  0  0  0  0  0  0  0  0  2 V2000
  146.8054  133.7005  161.9428 C   0  0  0  0  0  0  0  0  0  0  0  0
  147.0754  135.0303  161.3129 C   0  0  0  0  0  0  0  0  0  0  0  0
  148.0966  135.2174  160.3945 N   0  0  0  0  0  0  0  0  0  0  0  0
  148.0379  136.5034  160.0428 C   0  0  0  0  0  0  0  0  0  0  0  0
  148.8407  137.1208  159.1615 N   0  5  0  0  0  0  0  0  0  0  0  0
  149.4197  136.4032  158.1731 C   0  0  0  0  0  0  0  0  0  0  0  0
  149.8122  135.2366  158.2530 O   0  0  0  0  0  0  0  0  0  0  0  0
  149.5769  137.0869  157.0301 N   0  0  0  0  0  0  0  0  0  0  0  0
  150.2984  136.6224  155.8492 C   0  0  0  0  0  0  0  0  0  0  0  0
  150.4953  137.7649  154.8408 C   0  0  0  0  0  0  0  0  0  0  0  0
  149.8014  138.9141  155.3018 O   0  0  0  0  0  0  0  0  0  0  0  0
  150.4229  140.1578  155.0042 C   0  0  2  0  0  0  0  0  0  0  0  0
  151.5259  140.3795  156.0556 C   0  0  0  0  0  0  0  0  0  0  0  0
  150.9432  140.5582  157.4684 C   0  0  0  0  0  0  0  0  0  0  0  0
  149.9108  141.6947  157.5072 C   0  0  0  0  0  0  0  0  0  0  0  0
  148.8020  141.4780  156.4656 C   0  0  0  0  0  0  0  0  0  0  0  0
  149.3828  141.3051  155.0475 C   0  0  2  0  0  0  0  0  0  0  0  0
  148.2717  141.1517  153.9980 C   0  0  0  0  0  0  0  0  0  0  0  0
  147.0422  137.1690  160.6941 O   0  0  0  0  0  0  0  0  0  0  0  0
  146.4414  136.2309  161.4885 C   0  0  0  0  0  0  0  0  0  0  0  0
  145.2910  136.6629  162.3324 C   0  0  0  0  0  0  0  0  0  0  0  0
  147.4346  133.5482  162.8197 H   0  0  0  0  0  0  0  0  0  0  0  0
  147.0026  132.8853  161.2462 H   0  0  0  0  0  0  0  0  0  0  0  0
  145.7663  133.6169  162.2614 H   0  0  0  0  0  0  0  0  0  0  0  0
  149.2315  138.0350  157.0087 H   0  0  0  0  0  0  0  0  0  0  0  0
  151.2552  136.1740  156.1209 H   0  0  0  0  0  0  0  0  0  0  0  0
  149.7054  135.8315  155.3903 H   0  0  0  0  0  0  0  0  0  0  0  0
  151.5547  138.0044  154.7436 H   0  0  0  0  0  0  0  0  0  0  0  0
  150.1411  137.4562  153.8565 H   0  0  0  0  0  0  0  0  0  0  0  0
  150.8950  140.1274  154.0201 H   0  0  0  0  0  0  0  0  0  0  0  0
  152.2235  139.5416  156.0453 H   0  0  0  0  0  0  0  0  0  0  0  0
  152.1054  141.2645  155.7904 H   0  0  0  0  0  0  0  0  0  0  0  0
  150.4730  139.6285  157.7920 H   0  0  0  0  0  0  0  0  0  0  0  0
  151.7455  140.7602  158.1781 H   0  0  0  0  0  0  0  0  0  0  0  0
  149.4738  141.7661  158.5036 H   0  0  0  0  0  0  0  0  0  0  0  0
  150.4081  142.6468  157.3183 H   0  0  0  0  0  0  0  0  0  0  0  0
  148.2137  140.6006  156.7361 H   0  0  0  0  0  0  0  0  0  0  0  0
  148.1131  142.3231  156.4869 H   0  0  0  0  0  0  0  0  0  0  0  0
  149.9140  142.2259  154.8021 H   0  0  0  0  0  0  0  0  0  0  0  0
  147.6506  140.2787  154.1982 H   0  0  0  0  0  0  0  0  0  0  0  0
  148.6874  141.0468  152.9957 H   0  0  0  0  0  0  0  0  0  0  0  0
  147.6166  142.0230  153.9937 H   0  0  0  0  0  0  0  0  0  0  0  0
  144.3596  136.2374  161.9592 H   0  0  0  0  0  0  0  0  0  0  0  0
  145.1909  137.7484  162.3330 H   0  0  0  0  0  0  0  0  0  0  0  0
  145.4246  136.3354  163.3633 H   0  0  0  0  0  0  0  0  0  0  0  0
  1 22  1  0  0  0  0
  1 23  1  0  0  0  0
  1 24  1  0  0  0  0
  1  2  1  0  0  0  0
  2  3  1  0  0  0  0
  2 20  2  0  0  0  0
  3  4  2  0  0  0  0
  4 19  1  0  0  0  0
  4  5  1  0  0  0  0
  5  6  1  0  0  0  0
  6  8  1  0  0  0  0
  6  7  2  0  0  0  0
  8  9  1  0  0  0  0
  8 25  1  0  0  0  0
  9 10  1  0  0  0  0
  9 26  1  0  0  0  0
  9 27  1  0  0  0  0
 10 11  1  0  0  0  0
 10 28  1  0  0  0  0
 10 29  1  0  0  0  0
 11 12  1  0  0  0  0
 12 17  1  0  0  0  0
 12 13  1  0  0  0  0
 12 30  1  0  0  0  0
 13 14  1  0  0  0  0
 13 31  1  0  0  0  0
 13 32  1  0  0  0  0
 14 15  1  0  0  0  0
 14 33  1  0  0  0  0
 14 34  1  0  0  0  0
 15 16  1  0  0  0  0
 15 35  1  0  0  0  0
 15 36  1  0  0  0  0
 16 17  1  0  0  0  0
 16 37  1  0  0  0  0
 16 38  1  0  0  0  0
 17 18  1  0  0  0  0
 17 39  1  0  0  0  0
 18 40  1  0  0  0  0
 18 41  1  0  0  0  0
 18 42  1  0  0  0  0
 19 20  1  0  0  0  0
 20 21  1  0  0  0  0
 21 43  1  0  0  0  0
 21 44  1  0  0  0  0
 21 45  1  0  0  0  0
M  CHG  1   5  -1
M  END
> <s_m_source_file>
AV-unprocessed.smi

> <i_m_source_file_index>
910

> <i_lp_mmshare_version>
43012

> <i_f3d_flags>
0

> <s_epik_input>
W0NIM11jMW5jKG9jMVtDSDNdKVtOSF1DKD1PKVtOSF1bQ0gyXVtDSDJdT1tDQEBIXTJbQ0gyXVtDSDJdW0NIMl1bQ0gyXVtDQEhdMltDSDNd

> <s_epik_cmdline>
J2VwaWtfcHl0aG9uJywgJy1waCcsICc3LjAnLCAnLXRuJywgJzgnLCAnLW1hJywgJzIwMCcsICctbWV0YWxfYmluZGluZycsICctaW1hZScsICc8aW5maWxlLm1hZT4nLCAnLW9tYWUnLCAnPG91dGZpbGUubWFlPic=

> <r_lp_tautomer_probability>
0.107061

> <r_epik_Ionization_Penalty>
10.1763

> <r_epik_Ionization_Penalty_Charging>
7.13067

> <r_epik_Ionization_Penalty_Neutral>
3.04564

> <r_epik_State_Penalty>
5.57927

> <r_epik_Charging_Adjusted_Penalty>
12.7099

> <i_epik_Tot_Q>
-1

> <i_epik_Tot_abs_Q>
1

> <r_epik_Metal_State_Penalty>
1.52303

> <b_epik_Metal_Only>
1

> <s_lp_Force_Field>
OPLS_2005

> <r_lp_Energy>
5.26856

> <b_lp_Chiralities_Consistent>
1

> <s_lp_Variant>
AV-unprocessed.smi:910-19

> <Gold.Version>
5.8.1

> <Gold.Id.Protein>
6NUR|6NUR_protein|mol2

> <Gold.PLP.Fitness>
41.6666

> <Gold.PLP.PLP>
-35.6268

> <Gold.PLP.part.hbond>
-3.0000

> <Gold.PLP.part.metal>
0.0000

> <Gold.PLP.part.buried>
-3.4996

> <Gold.PLP.part.nonpolar>
-29.4793

> <Gold.PLP.part.repulsive>
0.0797

> <Gold.PLP.ligand.clash>
0.0000

> <Gold.PLP.ligand.torsion>
1.2474

> <Gold.PLP.Chemscore.Hbond>
2.8080

> <Gold.PLP.Chemscore.CHOScore>
0.0000

> <Gold.PLP.Chemscore.Metal>
0.0000

> <Gold.Chemscore.Hbonds>
donor molecule, donor type, donor heavy atom, donor atom, acceptor molecule, acceptor atom, score
      P1  H  6896  6908       L1     7  0.94
      P1  H  6934  6947       L1    19  1.00

> <Gold.PLP.Chemscore.Internal.Correction>
0.1106

> <Gold.Rescore>
     Score         DG    S(hbond)    S(metal)    S(lipo)     H(rot)  DE(clash)    DE(int)     intcor
     15.97     -18.74       2.29        0.00      83.40       1.62       0.14       2.64       ----

> <Gold.Chemscore.Fitness>
15.9688

> <Gold.Chemscore.DG>
-18.7409

> <Gold.Chemscore.ZeroCoef>
-5.4800

> <Gold.Chemscore.Hbond>
2.2880

> <Gold.Chemscore.Metal>
0.0000

> <Gold.Chemscore.Lipo>
83.4031

> <Gold.Chemscore.Internal_Hbond>
0.0000

> <Gold.Chemscore.DEClash>
0.1363

> <Gold.Chemscore.DEInternal>
2.6358

> <Gold.Chemscore.Rot>
1.6169

> <Gold.Chemscore.Internal.Correction>
   9.000000E+99

> <Gold.Chemscore.Hbonds>
donor molecule, donor type, donor heavy atom, donor atom, acceptor molecule, acceptor atom, score
      P1  H  6896  6908       L1     7  0.91
      P1  H  6934  6947       L1    19  0.97

> <Gold.Chemscore.Hbond.Weighted>
-7.6420

> <Gold.Chemscore.Metal.Weighted>
-0.0000

> <Gold.Chemscore.Lipo.Weighted>
-9.7582

> <Gold.Chemscore.Internal_Hbond.Weighted>
0.0000

> <Gold.Chemscore.DEClash.Weighted>
0.1363

> <Gold.Chemscore.DEInternal.Weighted>
2.6358

> <Gold.Chemscore.Rot.Weighted>
4.1393

> <Gold.Chemscore.Internal.Correction.Weighted>
   9.000000E+99

> <Gold.Protein.RotatedTorsions>
[ 6907 6896 6895 6894 ] final  149.53 input  -60.11 | X-H torsion
[ 7974 7965 7964 7962 ] final  128.22 input  175.53 | X-H torsion
[ 8008 7997 7996 7995 ] final  -99.74 input   59.86 | X-H torsion
[ 10167 10162 10161 10158 ] final -109.62 input  -65.29 | X-H torsion
[ 10718 10713 10712 10709 ] final  165.93 input   66.30 | X-H torsion
[ 10763 10752 10751 10750 ] final  -64.25 input  -60.55 | X-H torsion
[ 11005 11000 10999 10996 ] final  -54.03 input  -57.11 | X-H torsion

> <Gold.Protein.ActiveResidues>
 VAL166  LYS551  ARG553  GLY616  TRP617  ASP618  TYR619  PRO620  LYS621  CYS622 
 ASP623  PHE694  ASN695  SER759  ASP760  ASP761  ALA762  ILE779  LEU786  VAL792 
 PHE793  MET794  SER795  GLU796  ALA797  LYS798  CYS799  TRP800  GLU811  SER814 

> <Gold.Protein.RotatedAtoms>
  152.1267  133.4384  159.4701 H   0  0  0  0  0  0  0  0  0  0  0  0  # atno 6907 bound_to 6896
  150.6875  134.2469  159.4504 H   0  0  0  0  0  0  0  0  0  0  0  0  # atno 6908 bound_to 6896
  152.0350  134.9745  160.0624 H   0  0  0  0  0  0  0  0  0  0  0  0  # atno 6909 bound_to 6896
  145.0420  139.3955  143.5097 H   0  0  0  0  0  0  0  0  0  0  0  0  # atno 7974 bound_to 7965
  154.8190  140.0445  157.1397 H   0  0  0  0  0  0  0  0  0  0  0  0  # atno 8008 bound_to 7997
  154.9281  140.3036  155.5161 H   0  0  0  0  0  0  0  0  0  0  0  0  # atno 8009 bound_to 7997
  156.2978  140.2328  156.4338 H   0  0  0  0  0  0  0  0  0  0  0  0  # atno 8010 bound_to 7997
  140.1533  143.4181  152.1479 H   0  0  0  0  0  0  0  0  0  0  0  0  # atno 10167 bound_to 10162
  157.0730  131.0371  151.2604 H   0  0  0  0  0  0  0  0  0  0  0  0  # atno 10718 bound_to 10713
  154.3273  135.6184  153.5535 H   0  0  0  0  0  0  0  0  0  0  0  0  # atno 10763 bound_to 10752
  152.9814  135.5738  154.5002 H   0  0  0  0  0  0  0  0  0  0  0  0  # atno 10764 bound_to 10752
  154.4681  135.2858  155.1639 H   0  0  0  0  0  0  0  0  0  0  0  0  # atno 10765 bound_to 10752
  141.1005  133.6618  156.4259 H   0  0  0  0  0  0  0  0  0  0  0  0  # atno 11005 bound_to 11000
  146.3510  140.0025  142.8675 LP  0  0  0  0  0  0  0  0  0  0  0  0  # atno 17320 bound_to 7965
  145.1636  140.9685  143.4363 LP  0  0  0  0  0  0  0  0  0  0  0  0  # atno 17321 bound_to 7965
  139.5415  144.7261  151.4718 LP  0  0  0  0  0  0  0  0  0  0  0  0  # atno 17342 bound_to 10162
  140.6689  143.8338  150.6975 LP  0  0  0  0  0  0  0  0  0  0  0  0  # atno 17343 bound_to 10162
  157.4862  130.7794  149.7462 LP  0  0  0  0  0  0  0  0  0  0  0  0  # atno 17370 bound_to 10713
  155.9945  130.3918  150.2857 LP  0  0  0  0  0  0  0  0  0  0  0  0  # atno 17371 bound_to 10713
  140.5033  134.6465  157.5257 LP  0  0  0  0  0  0  0  0  0  0  0  0  # atno 17394 bound_to 11000
  139.9855  134.7068  155.9781 LP  0  0  0  0  0  0  0  0  0  0  0  0  # atno 17395 bound_to 11000

$$$$
