AV-unprocessed.smi:3222|AV-procd|sdf|12304|dock9
  -GOLD-   2272018143D 1   1.00000     0.00000
 Structure written by MMmdl.
 41 42  0  0  0  0  0  0  0  0  2 V2000
  148.6001  140.4494  157.1563 C   0  0  0  0  0  0  0  0  0  0  0  0
  148.9521  141.5376  156.1191 C   0  0  1  0  0  0  0  0  0  0  0  0
  150.1023  142.3455  156.5878 N   0  3  0  0  0  0  0  0  0  0  0  0
  150.0879  142.7034  158.0213 C   0  0  0  0  0  0  0  0  0  0  0  0
  151.2132  143.6976  158.3474 C   0  0  0  0  0  0  0  0  0  0  0  0
  151.7522  143.4775  159.6866 N   0  0  0  0  0  0  0  0  0  0  0  0
  151.7446  144.5412  160.6769 C   0  0  0  0  0  0  0  0  0  0  0  0
  152.2264  143.8813  161.9774 C   0  0  0  0  0  0  0  0  0  0  0  0
  152.7883  142.5138  161.5722 C   0  0  0  0  0  0  0  0  0  0  0  0
  152.3300  142.3559  160.1326 C   0  0  0  0  0  0  0  0  0  0  0  0
  152.4863  141.3183  159.4906 O   0  0  0  0  0  0  0  0  0  0  0  0
  149.2632  140.9519  154.7146 C   0  0  2  0  0  0  0  0  0  0  0  0
  147.9877  140.6381  153.9084 C   0  0  0  0  0  0  0  0  0  0  0  0
  150.1107  139.7674  154.7821 N   0  0  0  0  0  0  0  0  0  0  0  0
  149.7458  138.4455  154.6275 C   0  0  0  0  0  0  0  0  0  0  0  0
  150.8729  137.6899  154.7795 C   0  0  0  0  0  0  0  0  0  0  0  0
  151.8920  138.6495  155.0326 C   0  0  0  0  0  0  0  0  0  0  0  0
  151.4335  139.8906  155.0367 N   0  0  0  0  0  0  0  0  0  0  0  0
  147.7187  139.8795  156.8624 H   0  0  0  0  0  0  0  0  0  0  0  0
  148.3752  140.8761  158.1331 H   0  0  0  0  0  0  0  0  0  0  0  0
  149.4220  139.7441  157.2830 H   0  0  0  0  0  0  0  0  0  0  0  0
  148.0925  142.2025  156.0197 H   0  0  0  0  0  0  0  0  0  0  0  0
  150.9589  141.8551  156.3739 H   0  0  0  0  0  0  0  0  0  0  0  0
  149.1234  143.1452  158.2749 H   0  0  0  0  0  0  0  0  0  0  0  0
  150.1993  141.8028  158.6245 H   0  0  0  0  0  0  0  0  0  0  0  0
  152.0198  143.6082  157.6177 H   0  0  0  0  0  0  0  0  0  0  0  0
  150.8416  144.7205  158.2713 H   0  0  0  0  0  0  0  0  0  0  0  0
  152.4264  145.3331  160.3639 H   0  0  0  0  0  0  0  0  0  0  0  0
  150.7480  144.9708  160.7877 H   0  0  0  0  0  0  0  0  0  0  0  0
  152.9736  144.4923  162.4850 H   0  0  0  0  0  0  0  0  0  0  0  0
  151.3897  143.7505  162.6650 H   0  0  0  0  0  0  0  0  0  0  0  0
  153.8780  142.5025  161.6115 H   0  0  0  0  0  0  0  0  0  0  0  0
  152.4059  141.7092  162.2013 H   0  0  0  0  0  0  0  0  0  0  0  0
  149.8261  141.7029  154.1576 H   0  0  0  0  0  0  0  0  0  0  0  0
  147.3918  141.5336  153.7326 H   0  0  0  0  0  0  0  0  0  0  0  0
  147.3549  139.9158  154.4251 H   0  0  0  0  0  0  0  0  0  0  0  0
  148.2366  140.2205  152.9322 H   0  0  0  0  0  0  0  0  0  0  0  0
  148.7261  138.1542  154.4231 H   0  0  0  0  0  0  0  0  0  0  0  0
  150.9564  136.6149  154.7206 H   0  0  0  0  0  0  0  0  0  0  0  0
  152.9437  138.4820  155.2132 H   0  0  0  0  0  0  0  0  0  0  0  0
  150.0919  143.2110  156.0672 H   0  0  0  0  0  0  0  0  0  0  0  0
  1  2  1  0  0  0  0
  1 19  1  0  0  0  0
  1 20  1  0  0  0  0
  1 21  1  0  0  0  0
  2  3  1  0  0  0  0
  2 12  1  0  0  0  0
  2 22  1  0  0  0  0
  3  4  1  0  0  0  0
  3 23  1  0  0  0  0
  3 41  1  0  0  0  0
  4  5  1  0  0  0  0
  4 24  1  0  0  0  0
  4 25  1  0  0  0  0
  5  6  1  0  0  0  0
  5 26  1  0  0  0  0
  5 27  1  0  0  0  0
  6 10  1  0  0  0  0
  6  7  1  0  0  0  0
  7  8  1  0  0  0  0
  7 28  1  0  0  0  0
  7 29  1  0  0  0  0
  8  9  1  0  0  0  0
  8 30  1  0  0  0  0
  8 31  1  0  0  0  0
  9 10  1  0  0  0  0
  9 32  1  0  0  0  0
  9 33  1  0  0  0  0
 10 11  2  0  0  0  0
 12 13  1  0  0  0  0
 12 14  1  0  0  0  0
 12 34  1  0  0  0  0
 13 35  1  0  0  0  0
 13 36  1  0  0  0  0
 13 37  1  0  0  0  0
 14 18  1  0  0  0  0
 14 15  1  0  0  0  0
 15 16  2  0  0  0  0
 15 38  1  0  0  0  0
 16 17  1  0  0  0  0
 16 39  1  0  0  0  0
 17 18  2  0  0  0  0
 17 40  1  0  0  0  0
M  CHG  1   3   1
M  END
> <s_m_source_file>
AV-unprocessed.smi

> <i_m_source_file_index>
3222

> <i_lp_mmshare_version>
43012

> <i_f3d_flags>
0

> <s_epik_input>
bjFbY0hdW2NIXVtjSF1uMVtDQEBIXShbQ0gzXSlbQ0BIXShbQ0gzXSlbTkhdW0NIMl1bQ0gyXU4yW0NIMl1bQ0gyXVtDSDJdQzI9Tw==

> <s_epik_cmdline>
J2VwaWtfcHl0aG9uJywgJy1waCcsICc3LjAnLCAnLXRuJywgJzgnLCAnLW1hJywgJzIwMCcsICctbWV0YWxfYmluZGluZycsICctaW1hZScsICc8aW5maWxlLm1hZT4nLCAnLW9tYWUnLCAnPG91dGZpbGUubWFlPic=

> <r_lp_tautomer_probability>
1

> <r_epik_Ionization_Penalty>
0.0064019

> <r_epik_Ionization_Penalty_Charging>
0.00639164

> <r_epik_Ionization_Penalty_Neutral>
1.02567e-05

> <r_epik_State_Penalty>
0.00472531

> <r_epik_Charging_Adjusted_Penalty>
0.011117

> <i_epik_Tot_Q>
1

> <i_epik_Tot_abs_Q>
1

> <r_epik_Metal_State_Penalty>
-0

> <b_epik_Metal_Only>
0

> <s_lp_Force_Field>
OPLS_2005

> <r_lp_Energy>
24.0012

> <b_lp_Chiralities_Consistent>
1

> <s_lp_Variant>
AV-unprocessed.smi:3222-2

> <Gold.Version>
5.8.1

> <Gold.Id.Protein>
6NUR|6NUR_protein|mol2

> <Gold.PLP.Fitness>
51.2020

> <Gold.PLP.PLP>
-44.9469

> <Gold.PLP.part.hbond>
-1.9694

> <Gold.PLP.part.metal>
0.0000

> <Gold.PLP.part.buried>
-5.6987

> <Gold.PLP.part.nonpolar>
-38.0316

> <Gold.PLP.part.repulsive>
0.1215

> <Gold.PLP.ligand.clash>
0.0000

> <Gold.PLP.ligand.torsion>
1.2894

> <Gold.PLP.Chemscore.Hbond>
2.9000

> <Gold.PLP.Chemscore.CHOScore>
0.0000

> <Gold.PLP.Chemscore.Metal>
0.0000

> <Gold.Chemscore.Hbonds>
donor molecule, donor type, donor heavy atom, donor atom, acceptor molecule, acceptor atom, score
      L1  H     3    41       P1  8028  1.63
      P1  H  7989  7998       L1    18  0.55

> <Gold.PLP.Chemscore.Internal.Correction>
0.1339

> <Gold.Rescore>
     Score         DG    S(hbond)    S(metal)    S(lipo)     H(rot)  DE(clash)    DE(int)     intcor
     15.99     -17.61       1.88        0.00      93.65       1.99       0.07       1.55       ----

> <Gold.Chemscore.Fitness>
15.9942

> <Gold.Chemscore.DG>
-17.6145

> <Gold.Chemscore.ZeroCoef>
-5.4800

> <Gold.Chemscore.Hbond>
1.8794

> <Gold.Chemscore.Metal>
0.0000

> <Gold.Chemscore.Lipo>
93.6543

> <Gold.Chemscore.Internal_Hbond>
0.0000

> <Gold.Chemscore.DEClash>
0.0654

> <Gold.Chemscore.DEInternal>
1.5548

> <Gold.Chemscore.Rot>
1.9922

> <Gold.Chemscore.Internal.Correction>
   9.000000E+99

> <Gold.Chemscore.Hbonds>
donor molecule, donor type, donor heavy atom, donor atom, acceptor molecule, acceptor atom, score
      L1  H     3    41       P1  8028  0.80
      P1  H  7989  7998       L1    18  0.03

> <Gold.Chemscore.Hbond.Weighted>
-6.2771

> <Gold.Chemscore.Metal.Weighted>
-0.0000

> <Gold.Chemscore.Lipo.Weighted>
-10.9576

> <Gold.Chemscore.Internal_Hbond.Weighted>
0.0000

> <Gold.Chemscore.DEClash.Weighted>
0.0654

> <Gold.Chemscore.DEInternal.Weighted>
1.5548

> <Gold.Chemscore.Rot.Weighted>
5.1002

> <Gold.Chemscore.Internal.Correction.Weighted>
   9.000000E+99

> <Gold.Protein.RotatedTorsions>
[ 6907 6896 6895 6894 ] final -145.33 input  -60.11 | X-H torsion
[ 7974 7965 7964 7962 ] final   -1.53 input  175.53 | X-H torsion
[ 8008 7997 7996 7995 ] final   -7.29 input   59.86 | X-H torsion
[ 10167 10162 10161 10158 ] final -105.25 input  -65.29 | X-H torsion
[ 10718 10713 10712 10709 ] final  136.05 input   66.30 | X-H torsion
[ 10763 10752 10751 10750 ] final   47.45 input  -60.55 | X-H torsion
[ 11005 11000 10999 10996 ] final   97.29 input  -57.11 | X-H torsion

> <Gold.Protein.ActiveResidues>
 VAL166  LYS551  ARG553  GLY616  TRP617  ASP618  TYR619  PRO620  LYS621  CYS622 
 ASP623  PHE694  ASN695  SER759  ASP760  ASP761  ALA762  ILE779  LEU786  VAL792 
 PHE793  MET794  SER795  GLU796  ALA797  LYS798  CYS799  TRP800  GLU811  SER814 

> <Gold.Protein.RotatedAtoms>
  151.1264  133.5068  159.2600 H   0  0  0  0  0  0  0  0  0  0  0  0  # atno 6907 bound_to 6896
  151.1806  135.0358  159.8800 H   0  0  0  0  0  0  0  0  0  0  0  0  # atno 6908 bound_to 6896
  152.5458  134.1116  159.8414 H   0  0  0  0  0  0  0  0  0  0  0  0  # atno 6909 bound_to 6896
  146.2416  140.1433  142.8335 H   0  0  0  0  0  0  0  0  0  0  0  0  # atno 7974 bound_to 7965
  154.5853  140.2411  155.7996 H   0  0  0  0  0  0  0  0  0  0  0  0  # atno 8008 bound_to 7997
  156.2208  140.2998  155.9904 H   0  0  0  0  0  0  0  0  0  0  0  0  # atno 8009 bound_to 7997
  155.2469  140.0409  157.2972 H   0  0  0  0  0  0  0  0  0  0  0  0  # atno 8010 bound_to 7997
  140.2005  143.3822  152.1133 H   0  0  0  0  0  0  0  0  0  0  0  0  # atno 10167 bound_to 10162
  157.4507  131.1066  151.0036 H   0  0  0  0  0  0  0  0  0  0  0  0  # atno 10718 bound_to 10713
  152.9800  135.5976  154.3764 H   0  0  0  0  0  0  0  0  0  0  0  0  # atno 10763 bound_to 10752
  154.3433  135.2767  155.2413 H   0  0  0  0  0  0  0  0  0  0  0  0  # atno 10764 bound_to 10752
  154.4485  135.5996  153.6231 H   0  0  0  0  0  0  0  0  0  0  0  0  # atno 10765 bound_to 10752
  139.8777  134.8993  156.4285 H   0  0  0  0  0  0  0  0  0  0  0  0  # atno 11005 bound_to 11000
  145.0228  140.8807  143.5156 LP  0  0  0  0  0  0  0  0  0  0  0  0  # atno 17320 bound_to 7965
  145.1485  139.2529  143.5453 LP  0  0  0  0  0  0  0  0  0  0  0  0  # atno 17321 bound_to 7965
  139.5219  144.7052  151.5376 LP  0  0  0  0  0  0  0  0  0  0  0  0  # atno 17342 bound_to 10162
  140.6393  143.8920  150.6677 LP  0  0  0  0  0  0  0  0  0  0  0  0  # atno 17343 bound_to 10162
  157.0867  130.5925  149.5431 LP  0  0  0  0  0  0  0  0  0  0  0  0  # atno 17370 bound_to 10713
  155.9986  130.5060  150.7577 LP  0  0  0  0  0  0  0  0  0  0  0  0  # atno 17371 bound_to 10713
  140.9083  133.7730  155.9761 LP  0  0  0  0  0  0  0  0  0  0  0  0  # atno 17394 bound_to 11000
  140.8574  134.2881  157.5249 LP  0  0  0  0  0  0  0  0  0  0  0  0  # atno 17395 bound_to 11000

$$$$
