AV-unprocessed.smi:1334|AV-procd|sdf|5493|dock8
  -GOLD-   22720 5 73D 1   1.00000     0.00000
 Structure written by MMmdl.
 38 39  0  0  0  0  0  0  0  0  1 V2000
  154.1600  136.9087  160.6153 C   0  0  0  0  0  0  0  0  0  0  0  0
  152.8973  137.6900  160.1973 C   0  0  1  0  0  0  0  0  0  0  0  0
  153.2002  139.1489  159.8253 C   0  0  0  0  0  0  0  0  0  0  0  0
  152.8777  139.5937  158.7234 O   0  0  0  0  0  0  0  0  0  0  0  0
  153.8120  139.8838  160.7682 N   0  0  0  0  0  0  0  0  0  0  0  0
  154.1259  141.3067  160.6720 C   0  0  0  0  0  0  0  0  0  0  0  0
  153.0536  142.1690  161.3628 C   0  0  0  0  0  0  0  0  0  0  0  0
  152.5227  143.3031  160.4979 C   0  0  0  0  0  0  0  0  0  0  0  0
  152.1912  144.5013  161.0176 C   0  0  0  0  0  0  0  0  0  0  0  0
  151.6417  145.6587  160.2039 C   0  0  0  0  0  0  0  0  0  0  0  0
  151.1390  145.2084  158.8232 C   0  0  0  0  0  0  0  0  0  0  0  0
  152.1458  144.2627  158.1572 C   0  0  0  0  0  0  0  0  0  0  0  0
  152.3834  143.0027  159.0092 C   0  0  0  0  0  0  0  0  0  0  0  0
  152.1767  137.0374  159.1108 N   0  0  0  0  0  0  0  0  0  0  0  0
  152.5648  136.7783  157.8604 C   0  0  0  0  0  0  0  0  0  0  0  0
  151.6627  136.1276  157.1394 N   0  0  0  0  0  0  0  0  0  0  0  0
  150.6771  135.9932  158.0757 C   0  0  0  0  0  0  0  0  0  0  0  0
  150.9390  136.5073  159.2769 N   0  0  0  0  0  0  0  0  0  0  0  0
  154.6522  137.3850  161.4638 H   0  0  0  0  0  0  0  0  0  0  0  0
  154.8892  136.8410  159.8067 H   0  0  0  0  0  0  0  0  0  0  0  0
  153.9051  135.8918  160.9147 H   0  0  0  0  0  0  0  0  0  0  0  0
  152.2288  137.7041  161.0599 H   0  0  0  0  0  0  0  0  0  0  0  0
  154.0451  139.4296  161.6391 H   0  0  0  0  0  0  0  0  0  0  0  0
  155.0889  141.4712  161.1555 H   0  0  0  0  0  0  0  0  0  0  0  0
  154.2540  141.6217  159.6353 H   0  0  0  0  0  0  0  0  0  0  0  0
  152.2236  141.5305  161.6691 H   0  0  0  0  0  0  0  0  0  0  0  0
  153.4598  142.5946  162.2809 H   0  0  0  0  0  0  0  0  0  0  0  0
  152.3185  144.6842  162.0746 H   0  0  0  0  0  0  0  0  0  0  0  0
  150.8345  146.1390  160.7556 H   0  0  0  0  0  0  0  0  0  0  0  0
  152.4333  146.4002  160.0947 H   0  0  0  0  0  0  0  0  0  0  0  0
  150.1824  144.6954  158.9319 H   0  0  0  0  0  0  0  0  0  0  0  0
  150.9554  146.0774  158.1907 H   0  0  0  0  0  0  0  0  0  0  0  0
  151.8005  143.9789  157.1628 H   0  0  0  0  0  0  0  0  0  0  0  0
  153.0905  144.7894  158.0169 H   0  0  0  0  0  0  0  0  0  0  0  0
  153.2770  142.4879  158.6557 H   0  0  0  0  0  0  0  0  0  0  0  0
  151.5510  142.3125  158.8763 H   0  0  0  0  0  0  0  0  0  0  0  0
  153.5282  137.0709  157.4694 H   0  0  0  0  0  0  0  0  0  0  0  0
  149.7437  135.4909  157.8692 H   0  0  0  0  0  0  0  0  0  0  0  0
  1  2  1  0  0  0  0
  1 19  1  0  0  0  0
  1 20  1  0  0  0  0
  1 21  1  0  0  0  0
  2  3  1  0  0  0  0
  2 14  1  0  0  0  0
  2 22  1  0  0  0  0
  3  4  2  0  0  0  0
  3  5  1  0  0  0  0
  5  6  1  0  0  0  0
  5 23  1  0  0  0  0
  6  7  1  0  0  0  0
  6 24  1  0  0  0  0
  6 25  1  0  0  0  0
  7  8  1  0  0  0  0
  7 26  1  0  0  0  0
  7 27  1  0  0  0  0
  8 13  1  0  0  0  0
  8  9  2  0  0  0  0
  9 10  1  0  0  0  0
  9 28  1  0  0  0  0
 10 11  1  0  0  0  0
 10 29  1  0  0  0  0
 10 30  1  0  0  0  0
 11 12  1  0  0  0  0
 11 31  1  0  0  0  0
 11 32  1  0  0  0  0
 12 13  1  0  0  0  0
 12 33  1  0  0  0  0
 12 34  1  0  0  0  0
 13 35  1  0  0  0  0
 13 36  1  0  0  0  0
 14 18  1  0  0  0  0
 14 15  1  0  0  0  0
 15 16  2  0  0  0  0
 15 37  1  0  0  0  0
 16 17  1  0  0  0  0
 17 18  2  0  0  0  0
 17 38  1  0  0  0  0
M  END
> <s_m_source_file>
AV-unprocessed.smi

> <i_m_source_file_index>
1334

> <i_lp_mmshare_version>
43012

> <i_f3d_flags>
0

> <s_epik_input>
bjFbY0hdbltjSF1uMVtDQEhdKFtDSDNdKUMoPU8pW05IXVtDSDJdW0NIMl1DMj1bQ0hdW0NIMl1bQ0gyXVtDSDJdW0NIMl0y

> <s_epik_cmdline>
J2VwaWtfcHl0aG9uJywgJy1waCcsICc3LjAnLCAnLXRuJywgJzgnLCAnLW1hJywgJzIwMCcsICctbWV0YWxfYmluZGluZycsICctaW1hZScsICc8aW5maWxlLm1hZT4nLCAnLW9tYWUnLCAnPG91dGZpbGUubWFlPic=

> <r_lp_tautomer_probability>
1

> <r_epik_Ionization_Penalty>
1.26383e-05

> <r_epik_Ionization_Penalty_Charging>
0

> <r_epik_Ionization_Penalty_Neutral>
1.26383e-05

> <r_epik_State_Penalty>
-0

> <r_epik_Charging_Adjusted_Penalty>
0

> <i_epik_Tot_Q>
0

> <i_epik_Tot_abs_Q>
0

> <r_epik_Metal_State_Penalty>
-0

> <b_epik_Metal_Only>
0

> <s_lp_Force_Field>
OPLS_2005

> <r_lp_Energy>
11.5149

> <b_lp_Chiralities_Consistent>
1

> <s_lp_Variant>
AV-unprocessed.smi:1334-2

> <Gold.Version>
5.8.1

> <Gold.Id.Protein>
6NUR|6NUR_protein|mol2

> <Gold.PLP.Fitness>
47.8617

> <Gold.PLP.PLP>
-41.7439

> <Gold.PLP.part.hbond>
-3.0000

> <Gold.PLP.part.metal>
0.0000

> <Gold.PLP.part.buried>
-5.1004

> <Gold.PLP.part.nonpolar>
-34.3046

> <Gold.PLP.part.repulsive>
0.0412

> <Gold.PLP.ligand.clash>
0.0000

> <Gold.PLP.ligand.torsion>
0.9077

> <Gold.PLP.Chemscore.Hbond>
2.6084

> <Gold.PLP.Chemscore.CHOScore>
0.0000

> <Gold.PLP.Chemscore.Metal>
0.0000

> <Gold.Chemscore.Hbonds>
donor molecule, donor type, donor heavy atom, donor atom, acceptor molecule, acceptor atom, score
      P1  H  6896  6908       L1    18  0.55

> <Gold.PLP.Chemscore.Internal.Correction>
0.1079

> <Gold.Rescore>
     Score         DG    S(hbond)    S(metal)    S(lipo)     H(rot)  DE(clash)    DE(int)     intcor
     18.03     -20.08       2.54        0.00     104.73       2.40       0.06       1.99       ----

> <Gold.Chemscore.Fitness>
18.0345

> <Gold.Chemscore.DG>
-20.0792

> <Gold.Chemscore.ZeroCoef>
-5.4800

> <Gold.Chemscore.Hbond>
2.5427

> <Gold.Chemscore.Metal>
0.0000

> <Gold.Chemscore.Lipo>
104.7307

> <Gold.Chemscore.Internal_Hbond>
0.0000

> <Gold.Chemscore.DEClash>
0.0589

> <Gold.Chemscore.DEInternal>
1.9858

> <Gold.Chemscore.Rot>
2.4011

> <Gold.Chemscore.Internal.Correction>
   9.000000E+99

> <Gold.Chemscore.Hbonds>
donor molecule, donor type, donor heavy atom, donor atom, acceptor molecule, acceptor atom, score
      P1  H  6896  6908       L1    18  0.01
      P1  H  7997  8010       L1     4  0.05

> <Gold.Chemscore.Hbond.Weighted>
-8.4926

> <Gold.Chemscore.Metal.Weighted>
-0.0000

> <Gold.Chemscore.Lipo.Weighted>
-12.2535

> <Gold.Chemscore.Internal_Hbond.Weighted>
0.0000

> <Gold.Chemscore.DEClash.Weighted>
0.0589

> <Gold.Chemscore.DEInternal.Weighted>
1.9858

> <Gold.Chemscore.Rot.Weighted>
6.1469

> <Gold.Chemscore.Internal.Correction.Weighted>
   9.000000E+99

> <Gold.Protein.RotatedTorsions>
[ 6907 6896 6895 6894 ] final -123.47 input  -60.11 | X-H torsion
[ 7974 7965 7964 7962 ] final  127.39 input  175.53 | X-H torsion
[ 8008 7997 7996 7995 ] final   36.84 input   59.86 | X-H torsion
[ 10167 10162 10161 10158 ] final  -39.73 input  -65.29 | X-H torsion
[ 10718 10713 10712 10709 ] final   -7.04 input   66.30 | X-H torsion
[ 10763 10752 10751 10750 ] final -145.73 input  -60.55 | X-H torsion
[ 11005 11000 10999 10996 ] final   85.08 input  -57.11 | X-H torsion

> <Gold.Protein.ActiveResidues>
 VAL166  LYS551  ARG553  GLY616  TRP617  ASP618  TYR619  PRO620  LYS621  CYS622 
 ASP623  PHE694  ASN695  SER759  ASP760  ASP761  ALA762  ILE779  LEU786  VAL792 
 PHE793  MET794  SER795  GLU796  ALA797  LYS798  CYS799  TRP800  GLU811  SER814 

> <Gold.Protein.RotatedAtoms>
  150.8674  133.7555  159.2972 H   0  0  0  0  0  0  0  0  0  0  0  0  # atno 6907 bound_to 6896
  151.5178  135.1065  159.9880 H   0  0  0  0  0  0  0  0  0  0  0  0  # atno 6908 bound_to 6896
  152.4670  133.7901  159.6953 H   0  0  0  0  0  0  0  0  0  0  0  0  # atno 6909 bound_to 6896
  145.0511  139.3882  143.5053 H   0  0  0  0  0  0  0  0  0  0  0  0  # atno 7974 bound_to 7965
  155.1940  140.3310  155.4354 H   0  0  0  0  0  0  0  0  0  0  0  0  # atno 8008 bound_to 7997
  156.2432  140.1905  156.6981 H   0  0  0  0  0  0  0  0  0  0  0  0  # atno 8009 bound_to 7997
  154.6186  140.0598  156.9572 H   0  0  0  0  0  0  0  0  0  0  0  0  # atno 8010 bound_to 7997
  140.7055  143.3197  151.2823 H   0  0  0  0  0  0  0  0  0  0  0  0  # atno 10167 bound_to 10162
  156.7230  130.5157  149.5863 H   0  0  0  0  0  0  0  0  0  0  0  0  # atno 10718 bound_to 10713
  154.8370  135.3405  154.6550 H   0  0  0  0  0  0  0  0  0  0  0  0  # atno 10763 bound_to 10752
  153.7164  135.6961  153.5028 H   0  0  0  0  0  0  0  0  0  0  0  0  # atno 10764 bound_to 10752
  153.2414  135.4383  155.0655 H   0  0  0  0  0  0  0  0  0  0  0  0  # atno 10765 bound_to 10752
  139.8982  134.8261  156.2532 H   0  0  0  0  0  0  0  0  0  0  0  0  # atno 11005 bound_to 11000
  146.3518  140.0162  142.8662 LP  0  0  0  0  0  0  0  0  0  0  0  0  # atno 17320 bound_to 7965
  145.1526  140.9631  143.4424 LP  0  0  0  0  0  0  0  0  0  0  0  0  # atno 17321 bound_to 7965
  139.6646  144.0127  152.2715 LP  0  0  0  0  0  0  0  0  0  0  0  0  # atno 17342 bound_to 10162
  139.9706  144.6496  150.7993 LP  0  0  0  0  0  0  0  0  0  0  0  0  # atno 17343 bound_to 10162
  156.1581  130.6355  151.0683 LP  0  0  0  0  0  0  0  0  0  0  0  0  # atno 17370 bound_to 10713
  157.6890  131.0816  150.7162 LP  0  0  0  0  0  0  0  0  0  0  0  0  # atno 17371 bound_to 10713
  141.0210  133.7041  156.1268 LP  0  0  0  0  0  0  0  0  0  0  0  0  # atno 17394 bound_to 11000
  140.7233  134.4334  157.5573 LP  0  0  0  0  0  0  0  0  0  0  0  0  # atno 17395 bound_to 11000

$$$$
