AV-unprocessed.smi:447|AV-procd|sdf|2604|dock9
  -GOLD-   2262023 03D 1   1.00000     0.00000
 Structure written by MMmdl.
 46 48  0  0  0  0  0  0  0  0  2 V2000
  146.2610  142.9877  153.9035 C   0  0  0  0  0  0  0  0  0  0  0  0
  147.1570  141.8247  154.3135 C   0  0  0  0  0  0  0  0  0  0  0  0
  146.9902  140.7131  153.8160 O   0  0  0  0  0  0  0  0  0  0  0  0
  148.0966  142.0959  155.2326 N   0  0  0  0  0  0  0  0  0  0  0  0
  149.1099  141.1685  155.7382 C   0  0  1  0  0  0  0  0  0  0  0  0
  149.9536  140.6778  154.5522 C   0  0  0  0  0  0  0  0  0  0  0  0
  149.9965  141.7561  156.8040 C   0  0  0  0  0  0  0  0  0  0  0  0
  150.1366  143.0846  157.0834 N   0  3  0  0  0  0  0  0  0  0  0  0
  151.0700  143.2641  158.1015 C   0  0  0  0  0  0  0  0  0  0  0  0
  151.5324  144.4237  158.7159 C   0  0  0  0  0  0  0  0  0  0  0  0
  152.5089  144.2613  159.7200 C   0  0  0  0  0  0  0  0  0  0  0  0
  152.9905  142.9848  160.0740 C   0  0  0  0  0  0  0  0  0  0  0  0
  152.5128  141.8177  159.4426 C   0  0  0  0  0  0  0  0  0  0  0  0
  151.5393  141.9841  158.4567 C   0  0  0  0  0  0  0  0  0  0  0  0
  150.8425  141.0805  157.6412 N   0  0  0  0  0  0  0  0  0  0  0  0
  151.1352  139.6367  157.7577 C   0  0  0  0  0  0  0  0  0  0  0  0
  151.5184  138.9335  156.4340 C   0  0  1  0  0  0  0  0  0  0  0  0
  152.9206  138.9255  156.2503 O   0  0  0  0  0  0  0  0  0  0  0  0
  150.8857  137.5556  156.2864 C   0  0  0  0  0  0  0  0  0  0  0  0
  150.2361  136.9212  157.3696 C   0  0  0  0  0  0  0  0  0  0  0  0
  149.6739  135.6399  157.2081 C   0  0  0  0  0  0  0  0  0  0  0  0
  149.7429  134.9899  155.9618 C   0  0  0  0  0  0  0  0  0  0  0  0
  150.3823  135.6186  154.8770 C   0  0  0  0  0  0  0  0  0  0  0  0
  150.9543  136.8950  155.0404 C   0  0  0  0  0  0  0  0  0  0  0  0
  145.6966  143.3541  154.7614 H   0  0  0  0  0  0  0  0  0  0  0  0
  145.5521  142.6794  153.1344 H   0  0  0  0  0  0  0  0  0  0  0  0
  146.8595  143.8080  153.5060 H   0  0  0  0  0  0  0  0  0  0  0  0
  148.1435  143.0422  155.5820 H   0  0  0  0  0  0  0  0  0  0  0  0
  148.5852  140.3136  156.1625 H   0  0  0  0  0  0  0  0  0  0  0  0
  150.6884  139.9343  154.8590 H   0  0  0  0  0  0  0  0  0  0  0  0
  150.4954  141.5011  154.0848 H   0  0  0  0  0  0  0  0  0  0  0  0
  149.3261  140.2173  153.7883 H   0  0  0  0  0  0  0  0  0  0  0  0
  151.1679  145.4026  158.4416 H   0  0  0  0  0  0  0  0  0  0  0  0
  152.8978  145.1327  160.2267 H   0  0  0  0  0  0  0  0  0  0  0  0
  153.7407  142.8975  160.8465 H   0  0  0  0  0  0  0  0  0  0  0  0
  152.8878  140.8455  159.7259 H   0  0  0  0  0  0  0  0  0  0  0  0
  151.9364  139.5120  158.4849 H   0  0  0  0  0  0  0  0  0  0  0  0
  150.2653  139.1515  158.2011 H   0  0  0  0  0  0  0  0  0  0  0  0
  151.1239  139.5409  155.6184 H   0  0  0  0  0  0  0  0  0  0  0  0
  153.1861  138.0475  156.0225 H   0  0  0  0  0  0  0  0  0  0  0  0
  150.1603  137.4100  158.3296 H   0  0  0  0  0  0  0  0  0  0  0  0
  149.1785  135.1602  158.0395 H   0  0  0  0  0  0  0  0  0  0  0  0
  149.3052  134.0103  155.8383 H   0  0  0  0  0  0  0  0  0  0  0  0
  150.4371  135.1207  153.9203 H   0  0  0  0  0  0  0  0  0  0  0  0
  151.4453  137.3685  154.2029 H   0  0  0  0  0  0  0  0  0  0  0  0
  149.6215  143.8142  156.6081 H   0  0  0  0  0  0  0  0  0  0  0  0
  1  2  1  0  0  0  0
  1 25  1  0  0  0  0
  1 26  1  0  0  0  0
  1 27  1  0  0  0  0
  2  3  2  0  0  0  0
  2  4  1  0  0  0  0
  4  5  1  0  0  0  0
  4 28  1  0  0  0  0
  5  6  1  0  0  0  0
  5  7  1  0  0  0  0
  5 29  1  0  0  0  0
  6 30  1  0  0  0  0
  6 31  1  0  0  0  0
  6 32  1  0  0  0  0
  7 15  1  0  0  0  0
  7  8  2  0  0  0  0
  8  9  1  0  0  0  0
  8 46  1  0  0  0  0
  9 14  2  0  0  0  0
  9 10  1  0  0  0  0
 10 11  2  0  0  0  0
 10 33  1  0  0  0  0
 11 12  1  0  0  0  0
 11 34  1  0  0  0  0
 12 13  2  0  0  0  0
 12 35  1  0  0  0  0
 13 14  1  0  0  0  0
 13 36  1  0  0  0  0
 14 15  1  0  0  0  0
 15 16  1  0  0  0  0
 16 17  1  0  0  0  0
 16 37  1  0  0  0  0
 16 38  1  0  0  0  0
 17 18  1  0  0  0  0
 17 19  1  0  0  0  0
 17 39  1  0  0  0  0
 18 40  1  0  0  0  0
 19 24  1  0  0  0  0
 19 20  2  0  0  0  0
 20 21  1  0  0  0  0
 20 41  1  0  0  0  0
 21 22  2  0  0  0  0
 21 42  1  0  0  0  0
 22 23  1  0  0  0  0
 22 43  1  0  0  0  0
 23 24  2  0  0  0  0
 23 44  1  0  0  0  0
 24 45  1  0  0  0  0
M  CHG  1   8   1
M  END
> <s_m_source_file>
AV-unprocessed.smi

> <i_m_source_file_index>
447

> <i_lp_mmshare_version>
43012

> <i_f3d_flags>
0

> <s_epik_input>
W0NIM11DKD1PKVtOSF1bQ0BIXShbQ0gzXSljKG4xKW4oYyhjMTIpW2NIXVtjSF1bY0hdW2NIXTIpW0NIMl1bQ0BIXShbT0hdKWMzW2NIXVtjSF1bY0hdW2NIXVtjSF0z

> <s_epik_cmdline>
J2VwaWtfcHl0aG9uJywgJy1waCcsICc3LjAnLCAnLXRuJywgJzgnLCAnLW1hJywgJzIwMCcsICctbWV0YWxfYmluZGluZycsICctaW1hZScsICc8aW5maWxlLm1hZT4nLCAnLW9tYWUnLCAnPG91dGZpbGUubWFlPic=

> <r_epik_Ionization_Penalty>
0.950381

> <r_epik_Ionization_Penalty_Charging>
0.950379

> <r_epik_Ionization_Penalty_Neutral>
1.42115e-06

> <r_epik_State_Penalty>
0.994584

> <r_epik_Charging_Adjusted_Penalty>
1.94496

> <i_epik_Tot_Q>
1

> <i_epik_Tot_abs_Q>
1

> <r_epik_Metal_State_Penalty>
1.10485

> <b_epik_Metal_Only>
0

> <s_lp_Force_Field>
OPLS_2005

> <r_lp_Energy>
11.8

> <b_lp_Chiralities_Consistent>
1

> <s_lp_Variant>
AV-unprocessed.smi:447-8

> <Gold.Version>
5.8.1

> <Gold.Id.Protein>
6NUR|6NUR_protein|mol2

> <Gold.PLP.Fitness>
55.1329

> <Gold.PLP.PLP>
-45.0150

> <Gold.PLP.part.hbond>
-3.0000

> <Gold.PLP.part.metal>
0.0000

> <Gold.PLP.part.buried>
-5.4096

> <Gold.PLP.part.nonpolar>
-38.2480

> <Gold.PLP.part.repulsive>
0.2737

> <Gold.PLP.ligand.clash>
0.0000

> <Gold.PLP.ligand.torsion>
1.0108

> <Gold.PLP.Chemscore.Hbond>
4.0000

> <Gold.PLP.Chemscore.CHOScore>
0.0000

> <Gold.PLP.Chemscore.Metal>
0.0000

> <Gold.Chemscore.Hbonds>
donor molecule, donor type, donor heavy atom, donor atom, acceptor molecule, acceptor atom, score
      L1  H     4    28       P1  8028  1.00
      L1  H     8    46       P1  8028  1.82
      P1  H  7997  8008       L1    18  1.00

> <Gold.PLP.Chemscore.Internal.Correction>
0.1395

> <Gold.Rescore>
     Score         DG    S(hbond)    S(metal)    S(lipo)     H(rot)  DE(clash)    DE(int)     intcor
     20.99     -23.32       2.94        0.00     121.19       2.41       1.26       1.06       ----

> <Gold.Chemscore.Fitness>
20.9928

> <Gold.Chemscore.DG>
-23.3174

> <Gold.Chemscore.ZeroCoef>
-5.4800

> <Gold.Chemscore.Hbond>
2.9434

> <Gold.Chemscore.Metal>
0.0000

> <Gold.Chemscore.Lipo>
121.1902

> <Gold.Chemscore.Internal_Hbond>
0.0000

> <Gold.Chemscore.DEClash>
1.2639

> <Gold.Chemscore.DEInternal>
1.0608

> <Gold.Chemscore.Rot>
2.4112

> <Gold.Chemscore.Internal.Correction>
   9.000000E+99

> <Gold.Chemscore.Hbonds>
donor molecule, donor type, donor heavy atom, donor atom, acceptor molecule, acceptor atom, score
      L1  H     4    28       P1  8028  0.85
      L1  H     8    46       P1  8028  0.87
      P1  H  7997  8008       L1    18  0.85

> <Gold.Chemscore.Hbond.Weighted>
-9.8308

> <Gold.Chemscore.Metal.Weighted>
-0.0000

> <Gold.Chemscore.Lipo.Weighted>
-14.1792

> <Gold.Chemscore.Internal_Hbond.Weighted>
0.0000

> <Gold.Chemscore.DEClash.Weighted>
1.2639

> <Gold.Chemscore.DEInternal.Weighted>
1.0608

> <Gold.Chemscore.Rot.Weighted>
6.1727

> <Gold.Chemscore.Internal.Correction.Weighted>
   9.000000E+99

> <Gold.Protein.RotatedTorsions>
[ 6907 6896 6895 6894 ] final   57.90 input  -60.11 | X-H torsion
[ 7974 7965 7964 7962 ] final  101.72 input  175.53 | X-H torsion
[ 8008 7997 7996 7995 ] final  -44.46 input   59.86 | X-H torsion
[ 10167 10162 10161 10158 ] final   82.33 input  -65.29 | X-H torsion
[ 10718 10713 10712 10709 ] final -129.96 input   66.30 | X-H torsion
[ 10763 10752 10751 10750 ] final -111.71 input  -60.55 | X-H torsion
[ 11005 11000 10999 10996 ] final   56.31 input  -57.11 | X-H torsion

> <Gold.Protein.ActiveResidues>
 VAL166  LYS551  ARG553  GLY616  TRP617  ASP618  TYR619  PRO620  LYS621  CYS622 
 ASP623  PHE694  ASN695  SER759  ASP760  ASP761  ALA762  ILE779  LEU786  VAL792 
 PHE793  MET794  SER795  GLU796  ALA797  LYS798  CYS799  TRP800  GLU811  SER814 

> <Gold.Protein.RotatedAtoms>
  152.3774  134.6642  160.0154 H   0  0  0  0  0  0  0  0  0  0  0  0  # atno 6907 bound_to 6896
  151.6916  133.3305  159.3252 H   0  0  0  0  0  0  0  0  0  0  0  0  # atno 6908 bound_to 6896
  150.7720  134.6629  159.6394 H   0  0  0  0  0  0  0  0  0  0  0  0  # atno 6909 bound_to 6896
  145.3685  139.2403  143.3468 H   0  0  0  0  0  0  0  0  0  0  0  0  # atno 7974 bound_to 7965
  154.3997  140.1422  156.3686 H   0  0  0  0  0  0  0  0  0  0  0  0  # atno 8008 bound_to 7997
  155.8114  140.3472  155.5439 H   0  0  0  0  0  0  0  0  0  0  0  0  # atno 8009 bound_to 7997
  155.8382  140.0922  157.1741 H   0  0  0  0  0  0  0  0  0  0  0  0  # atno 8010 bound_to 7997
  139.9299  144.6159  150.8355 H   0  0  0  0  0  0  0  0  0  0  0  0  # atno 10167 bound_to 10162
  156.2098  130.6911  151.0636 H   0  0  0  0  0  0  0  0  0  0  0  0  # atno 10718 bound_to 10713
  154.8314  135.4517  154.1081 H   0  0  0  0  0  0  0  0  0  0  0  0  # atno 10763 bound_to 10752
  153.2351  135.6910  153.7852 H   0  0  0  0  0  0  0  0  0  0  0  0  # atno 10764 bound_to 10752
  153.7220  135.3340  155.3245 H   0  0  0  0  0  0  0  0  0  0  0  0  # atno 10765 bound_to 10752
  140.0539  134.5698  155.9231 H   0  0  0  0  0  0  0  0  0  0  0  0  # atno 11005 bound_to 11000
  146.2896  140.4332  142.8745 LP  0  0  0  0  0  0  0  0  0  0  0  0  # atno 17320 bound_to 7965
  144.8593  140.7117  143.6117 LP  0  0  0  0  0  0  0  0  0  0  0  0  # atno 17321 bound_to 7965
  140.7640  143.3238  151.2563 LP  0  0  0  0  0  0  0  0  0  0  0  0  # atno 17342 bound_to 10162
  139.6791  143.9886  152.2798 LP  0  0  0  0  0  0  0  0  0  0  0  0  # atno 17343 bound_to 10162
  157.7032  131.0767  150.6752 LP  0  0  0  0  0  0  0  0  0  0  0  0  # atno 17370 bound_to 10713
  156.6812  130.4567  149.5627 LP  0  0  0  0  0  0  0  0  0  0  0  0  # atno 17371 bound_to 10713
  141.1943  133.6582  156.5588 LP  0  0  0  0  0  0  0  0  0  0  0  0  # atno 17394 bound_to 11000
  140.3875  134.7469  157.4700 LP  0  0  0  0  0  0  0  0  0  0  0  0  # atno 17395 bound_to 11000

$$$$
