#       Name:                AV-unprocessed.smi:3345
#       Creating user name   scv26
#       Creation time:       Fri Mar 27 19:31:26 2020


#       File generated by GOLD software.
#

@<TRIPOS>MOLECULE
AV-unprocessed.smi:3345
    47    48     1
SMALL
NO_CHARGES


@<TRIPOS>ATOM
      1 ****        -2.0421  -1.3420  -2.8724 C.3            1 S1                 0.0000
      2 ****        -1.5248  -0.5468  -1.6668 C.3            1 S1                 0.0000
      3 ****        -1.7618  -1.3025  -0.3412 C.3            1 S1                 0.0000
      4 ****        -1.1816  -0.6785   0.8504 N.3            1 S1                 0.0000
      5 ****        -1.8200   0.5897   1.1939 C.3            1 S1                 0.0000
      6 ****        -1.1913   1.2231   2.4469 C.3            1 S1                 0.0000
      7 ****        -1.2630   0.3062   3.5339 O.3            1 S1                 0.0000
      8 ****        -0.6153  -0.9305   3.2537 C.3            1 S1                 0.0000
      9 ****        -1.2422  -1.5698   2.0025 C.3            1 S1                 0.0000
     10 ****        -0.0961  -0.2883  -1.8288 N.am           1 S1                 0.0000
     11 ****         0.4905   0.9195  -1.8186 C.2            1 S1                 0.0000
     12 ****        -0.1366   1.9790  -1.8489 O.2            1 S1                 0.0000
     13 ****         2.0224   0.9156  -1.7089 C.3            1 S1                 0.0000
     14 ****         2.6626   2.2419  -2.1682 C.3            1 S1                 0.0000
     15 ****         2.4101   0.5530  -0.3499 N.pl3          1 S1                 0.0000
     16 ****         2.7137  -0.6412   0.1643 C.2            1 S1                 0.0000
     17 ****         2.9536  -0.6227   1.4677 N.2            1 S1                 0.0000
     18 ****         2.7548   0.7055   1.7164 C.2            1 S1                 0.0000
     19 ****         2.4167   1.4524   0.6657 N.2            1 S1                 0.0000
     20 ****        -3.1101  -1.5411  -2.7798 H              1 S1                 0.0000
     21 ****        -1.5319  -2.3013  -2.9668 H              1 S1                 0.0000
     22 ****        -1.8895  -0.7903  -3.8006 H              1 S1                 0.0000
     23 ****        -2.0819   0.3905  -1.6403 H              1 S1                 0.0000
     24 ****        -2.8325  -1.4509  -0.1934 H              1 S1                 0.0000
     25 ****        -1.3369  -2.3016  -0.4502 H              1 S1                 0.0000
     26 ****        -1.7335   1.2951   0.3686 H              1 S1                 0.0000
     27 ****        -2.8865   0.4339   1.3626 H              1 S1                 0.0000
     28 ****        -0.1520   1.4968   2.2600 H              1 S1                 0.0000
     29 ****        -1.7198   2.1379   2.7156 H              1 S1                 0.0000
     30 ****         0.4530  -0.7643   3.1094 H              1 S1                 0.0000
     31 ****        -0.7229  -1.5929   4.1126 H              1 S1                 0.0000
     32 ****        -2.2799  -1.8334   2.2126 H              1 S1                 0.0000
     33 ****        -0.7225  -2.5018   1.7775 H              1 S1                 0.0000
     34 ****         0.5066  -1.0980  -1.8180 H              1 S1                 0.0000
     35 ****         2.3943   0.1301  -2.3690 H              1 S1                 0.0000
     36 ****         2.4085   2.4613  -3.2057 H              1 S1                 0.0000
     37 ****         3.7497   2.1912  -2.1027 H              1 S1                 0.0000
     38 ****         2.3351   3.0880  -1.5624 H              1 S1                 0.0000
     39 ****         2.7496  -1.5451  -0.4259 H              1 S1                 0.0000
     40 ****         2.8526   1.1331   2.7034 H              1 S1                 0.0000
     41 ****        -0.2264  -0.4938   0.6189 LP             1 S1                 0.0000
     42 ****        -2.2253   0.1246   3.7363 LP             1 S1                 0.0000
     43 ****        -0.8272   0.7218   4.3322 LP             1 S1                 0.0000
     44 ****        -1.1359   1.9677  -1.8831 LP             1 S1                 0.0000
     45 ****         0.3536   2.8506  -1.8392 LP             1 S1                 0.0000
     46 ****         3.2065  -1.3650   2.0883 LP             1 S1                 0.0000
     47 ****         2.2175   2.4318   0.6339 LP             1 S1                 0.0000
@<TRIPOS>BOND
    1    1    2 1     
    2    1   20 1     
    3    1   21 1     
    4    1   22 1     
    5    2    3 1     
    6    2   10 1     
    7    2   23 1     
    8    3    4 1     
    9    3   24 1     
   10    3   25 1     
   11    4    9 1     
   12    4    5 1     
   13    5    6 1     
   14    5   26 1     
   15    5   27 1     
   16    6    7 1     
   17    6   28 1     
   18    6   29 1     
   19    7    8 1     
   20    8    9 1     
   21    8   30 1     
   22    8   31 1     
   23    9   32 1     
   24    9   33 1     
   25   10   11 am    
   26   10   34 1     
   27   11   12 2     
   28   11   13 1     
   29   13   14 1     
   30   13   15 1     
   31   13   35 1     
   32   14   36 1     
   33   14   37 1     
   34   14   38 1     
   35   15   19 1     
   36   15   16 1     
   37   16   17 2     
   38   16   39 1     
   39   17   18 1     
   40   18   19 2     
   41   18   40 1     
   42    4   41 1     
   43    7   42 1     
   44    7   43 1     
   45   12   44 1     
   46   12   45 1     
   47   17   46 1     
   48   19   47 1     
@<TRIPOS>SUBSTRUCTURE
      1 S1             1
@<TRIPOS>SET
LONE_PAIRS      STATIC     ATOMS    <user>   **** ""
7 41 42 43 44 45 46 47
DONOR_HYDROGENS      STATIC     ATOMS    <user>   **** ""
1 34
ATOM$BLUE        STATIC     ATOMS    COLORGROUP SYSTEM
7 41 42 43 44 45 46 47
ATOM$RED        STATIC     ATOMS    COLORGROUP SYSTEM
1 34
