AV-unprocessed.smi:1965|AV-procd|sdf|7934|dock2
  -GOLD-   2272010103D 1   1.00000     0.00000
 Structure written by MMmdl.
 37 39  0  0  0  0  0  0  0  0  2 V2000
  146.7727  135.8456  157.7934 O   0  0  0  0  0  0  0  0  0  0  0  0
  147.9045  136.3160  157.8928 C   0  0  0  0  0  0  0  0  0  0  0  0
  148.4788  136.4996  159.1008 N   0  0  0  0  0  0  0  0  0  0  0  0
  148.0109  136.2375  160.4217 C   0  0  0  0  0  0  0  0  0  0  0  0
  148.0511  137.1024  161.4436 N   0  0  0  0  0  0  0  0  0  0  0  0
  147.5136  136.5627  162.6149 C   0  0  0  0  0  0  0  0  0  0  0  0
  147.0613  135.2755  162.4674 C   0  0  0  0  0  0  0  0  0  0  0  0
  147.2958  134.6876  160.8433 S   0  0  0  0  0  0  0  0  0  0  0  0
  148.6345  136.6765  156.8249 N   0  0  0  0  0  0  0  0  0  0  0  0
  148.2100  136.5800  155.4323 C   0  0  2  0  0  0  0  0  0  0  0  0
  146.8386  137.2315  155.1797 C   0  0  0  0  0  0  0  0  0  0  0  0
  146.1312  136.3144  154.1626 C   0  0  0  0  0  0  0  0  0  0  0  0
  147.1246  135.2823  153.8100 N   0  3  2  0  0  0  0  0  0  0  0  0
  146.6057  133.9918  153.3068 C   0  0  0  0  0  0  0  0  0  0  0  0
  147.7904  133.0858  152.9159 C   0  0  0  0  0  0  0  0  0  0  0  0
  148.8011  132.9356  154.0711 C   0  0  0  0  0  0  0  0  0  0  0  0
  149.2325  134.3109  154.6160 C   0  0  0  0  0  0  0  0  0  0  0  0
  147.9866  135.1312  154.9919 C   0  0  1  0  0  0  0  0  0  0  0  0
  149.4164  136.8725  159.0621 H   0  0  0  0  0  0  0  0  0  0  0  0
  147.4912  137.1662  163.5102 H   0  0  0  0  0  0  0  0  0  0  0  0
  146.6061  134.6402  163.2127 H   0  0  0  0  0  0  0  0  0  0  0  0
  149.5562  137.0533  156.9968 H   0  0  0  0  0  0  0  0  0  0  0  0
  148.9411  137.0535  154.7735 H   0  0  0  0  0  0  0  0  0  0  0  0
  146.2488  137.2885  156.0960 H   0  0  0  0  0  0  0  0  0  0  0  0
  146.9520  138.2476  154.8004 H   0  0  0  0  0  0  0  0  0  0  0  0
  145.2563  135.8520  154.6223 H   0  0  0  0  0  0  0  0  0  0  0  0
  145.8021  136.8536  153.2739 H   0  0  0  0  0  0  0  0  0  0  0  0
  145.9938  133.5128  154.0728 H   0  0  0  0  0  0  0  0  0  0  0  0
  145.9640  134.1666  152.4426 H   0  0  0  0  0  0  0  0  0  0  0  0
  147.4258  132.1052  152.6088 H   0  0  0  0  0  0  0  0  0  0  0  0
  148.2978  133.5104  152.0486 H   0  0  0  0  0  0  0  0  0  0  0  0
  148.3478  132.3540  154.8749 H   0  0  0  0  0  0  0  0  0  0  0  0
  149.6736  132.3734  153.7368 H   0  0  0  0  0  0  0  0  0  0  0  0
  149.8779  134.1784  155.4846 H   0  0  0  0  0  0  0  0  0  0  0  0
  149.8207  134.8412  153.8658 H   0  0  0  0  0  0  0  0  0  0  0  0
  147.4247  134.6039  155.7668 H   0  0  0  0  0  0  0  0  0  0  0  0
  147.7045  135.6780  153.0839 H   0  0  0  0  0  0  0  0  0  0  0  0
  1  2  2  0  0  0  0
  2  3  1  0  0  0  0
  2  9  1  0  0  0  0
  3  4  1  0  0  0  0
  3 19  1  0  0  0  0
  4  8  1  0  0  0  0
  4  5  2  0  0  0  0
  5  6  1  0  0  0  0
  6  7  2  0  0  0  0
  6 20  1  0  0  0  0
  7  8  1  0  0  0  0
  7 21  1  0  0  0  0
  9 10  1  0  0  0  0
  9 22  1  0  0  0  0
 10 18  1  0  0  0  0
 10 11  1  0  0  0  0
 10 23  1  0  0  0  0
 11 12  1  0  0  0  0
 11 24  1  0  0  0  0
 11 25  1  0  0  0  0
 12 13  1  0  0  0  0
 12 26  1  0  0  0  0
 12 27  1  0  0  0  0
 13 18  1  0  0  0  0
 13 14  1  0  0  0  0
 13 37  1  0  0  0  0
 14 15  1  0  0  0  0
 14 28  1  0  0  0  0
 14 29  1  0  0  0  0
 15 16  1  0  0  0  0
 15 30  1  0  0  0  0
 15 31  1  0  0  0  0
 16 17  1  0  0  0  0
 16 32  1  0  0  0  0
 16 33  1  0  0  0  0
 17 18  1  0  0  0  0
 17 34  1  0  0  0  0
 17 35  1  0  0  0  0
 18 36  1  0  0  0  0
M  CHG  1  13   1
M  END
> <s_m_source_file>
AV-unprocessed.smi

> <i_m_source_file_index>
1965

> <i_lp_mmshare_version>
43012

> <i_f3d_flags>
0

> <s_epik_input>
czFbY0hdW2NIXW5jMVtOSF1DKD1PKVtOSF1bQ0BIXShbQ0gyXVtDSDJdMilbQ0BASF0oTjIzKVtDSDJdW0NIMl1bQ0gyXVtDSDJdMw==

> <s_epik_cmdline>
J2VwaWtfcHl0aG9uJywgJy1waCcsICc3LjAnLCAnLXRuJywgJzgnLCAnLW1hJywgJzIwMCcsICctbWV0YWxfYmluZGluZycsICctaW1hZScsICc8aW5maWxlLm1hZT4nLCAnLW9tYWUnLCAnPG91dGZpbGUubWFlPic=

> <r_lp_tautomer_probability>
1

> <r_epik_Ionization_Penalty>
0.00125962

> <r_epik_Ionization_Penalty_Charging>
0.00107044

> <r_epik_Ionization_Penalty_Neutral>
0.000189176

> <r_epik_State_Penalty>
-0

> <r_epik_Charging_Adjusted_Penalty>
0.00107044

> <i_epik_Tot_Q>
1

> <i_epik_Tot_abs_Q>
1

> <r_epik_Metal_State_Penalty>
0.0179285

> <b_epik_Metal_Only>
0

> <s_lp_Force_Field>
OPLS_2005

> <r_lp_Energy>
35.2759

> <b_lp_Chiralities_Consistent>
1

> <s_lp_Variant>
AV-unprocessed.smi:1965-3

> <Gold.Version>
5.8.1

> <Gold.Id.Protein>
6NUR|6NUR_protein|mol2

> <Gold.PLP.Fitness>
38.3732

> <Gold.PLP.PLP>
-27.9994

> <Gold.PLP.part.hbond>
-3.0000

> <Gold.PLP.part.metal>
0.0000

> <Gold.PLP.part.buried>
-3.2401

> <Gold.PLP.part.nonpolar>
-21.5127

> <Gold.PLP.part.repulsive>
0.1527

> <Gold.PLP.ligand.clash>
0.0000

> <Gold.PLP.ligand.torsion>
0.4698

> <Gold.PLP.Chemscore.Hbond>
3.7680

> <Gold.PLP.Chemscore.CHOScore>
0.0000

> <Gold.PLP.Chemscore.Metal>
0.0000

> <Gold.Chemscore.Hbonds>
donor molecule, donor type, donor heavy atom, donor atom, acceptor molecule, acceptor atom, score
      L1  H    13    37       P1  7948  2.00
      P1  H  6931  6943       L1     5  1.00
      P1  H  6934  6947       L1     5  0.45

> <Gold.PLP.Chemscore.Internal.Correction>
0.0095

> <Gold.Rescore>
     Score         DG    S(hbond)    S(metal)    S(lipo)     H(rot)  DE(clash)    DE(int)     intcor
     16.01     -17.53       2.53        0.00      52.61       1.00       0.00       1.52       ----

> <Gold.Chemscore.Fitness>
16.0056

> <Gold.Chemscore.DG>
-17.5289

> <Gold.Chemscore.ZeroCoef>
-5.4800

> <Gold.Chemscore.Hbond>
2.5310

> <Gold.Chemscore.Metal>
0.0000

> <Gold.Chemscore.Lipo>
52.6091

> <Gold.Chemscore.Internal_Hbond>
0.0000

> <Gold.Chemscore.DEClash>
0.0000

> <Gold.Chemscore.DEInternal>
1.5233

> <Gold.Chemscore.Rot>
1.0000

> <Gold.Chemscore.Internal.Correction>
   9.000000E+99

> <Gold.Chemscore.Hbonds>
donor molecule, donor type, donor heavy atom, donor atom, acceptor molecule, acceptor atom, score
      L1  H    13    37       P1  7948  1.00
      P1  H  6931  6943       L1     5  0.53
      P1  H  6934  6947       L1     5  0.32

> <Gold.Chemscore.Hbond.Weighted>
-8.4536

> <Gold.Chemscore.Metal.Weighted>
-0.0000

> <Gold.Chemscore.Lipo.Weighted>
-6.1553

> <Gold.Chemscore.Internal_Hbond.Weighted>
0.0000

> <Gold.Chemscore.DEClash.Weighted>
0.0000

> <Gold.Chemscore.DEInternal.Weighted>
1.5233

> <Gold.Chemscore.Rot.Weighted>
2.5600

> <Gold.Chemscore.Internal.Correction.Weighted>
   9.000000E+99

> <Gold.Protein.RotatedTorsions>
[ 6907 6896 6895 6894 ] final   24.35 input  -60.11 | X-H torsion
[ 7974 7965 7964 7962 ] final  -41.23 input  175.53 | X-H torsion
[ 8008 7997 7996 7995 ] final   21.90 input   59.86 | X-H torsion
[ 10167 10162 10161 10158 ] final   53.96 input  -65.29 | X-H torsion
[ 10718 10713 10712 10709 ] final  -26.04 input   66.30 | X-H torsion
[ 10763 10752 10751 10750 ] final  142.55 input  -60.55 | X-H torsion
[ 11005 11000 10999 10996 ] final  164.40 input  -57.11 | X-H torsion

> <Gold.Protein.ActiveResidues>
 VAL166  LYS551  ARG553  GLY616  TRP617  ASP618  TYR619  PRO620  LYS621  CYS622 
 ASP623  PHE694  ASN695  SER759  ASP760  ASP761  ALA762  ILE779  LEU786  VAL792 
 PHE793  MET794  SER795  GLU796  ALA797  LYS798  CYS799  TRP800  GLU811  SER814 

> <Gold.Protein.RotatedAtoms>
  151.9562  135.0145  160.0544 H   0  0  0  0  0  0  0  0  0  0  0  0  # atno 6907 bound_to 6896
  152.1909  133.4768  159.5016 H   0  0  0  0  0  0  0  0  0  0  0  0  # atno 6908 bound_to 6896
  150.6935  134.1630  159.4226 H   0  0  0  0  0  0  0  0  0  0  0  0  # atno 6909 bound_to 6896
  146.0230  140.6826  142.9169 H   0  0  0  0  0  0  0  0  0  0  0  0  # atno 7974 bound_to 7965
  154.9576  140.3074  155.5046 H   0  0  0  0  0  0  0  0  0  0  0  0  # atno 8008 bound_to 7997
  156.2980  140.2307  156.4597 H   0  0  0  0  0  0  0  0  0  0  0  0  # atno 8009 bound_to 7997
  154.7996  140.0435  157.1251 H   0  0  0  0  0  0  0  0  0  0  0  0  # atno 8010 bound_to 7997
  140.2352  144.3644  150.6400 H   0  0  0  0  0  0  0  0  0  0  0  0  # atno 10167 bound_to 10162
  156.4564  130.4495  149.6956 H   0  0  0  0  0  0  0  0  0  0  0  0  # atno 10718 bound_to 10713
  153.9577  135.2963  155.3435 H   0  0  0  0  0  0  0  0  0  0  0  0  # atno 10763 bound_to 10752
  154.7392  135.5032  153.9096 H   0  0  0  0  0  0  0  0  0  0  0  0  # atno 10764 bound_to 10752
  153.0962  135.6722  153.9868 H   0  0  0  0  0  0  0  0  0  0  0  0  # atno 10765 bound_to 10752
  140.2455  134.8017  157.3452 H   0  0  0  0  0  0  0  0  0  0  0  0  # atno 11005 bound_to 11000
  144.6998  140.3600  143.7165 LP  0  0  0  0  0  0  0  0  0  0  0  0  # atno 17320 bound_to 7965
  145.7162  139.1697  143.2510 LP  0  0  0  0  0  0  0  0  0  0  0  0  # atno 17321 bound_to 7965
  140.6155  143.2172  151.6800 LP  0  0  0  0  0  0  0  0  0  0  0  0  # atno 17342 bound_to 10162
  139.5096  144.3571  152.0597 LP  0  0  0  0  0  0  0  0  0  0  0  0  # atno 17343 bound_to 10162
  156.3762  130.7555  151.2544 LP  0  0  0  0  0  0  0  0  0  0  0  0  # atno 17370 bound_to 10713
  157.7500  131.0309  150.4157 LP  0  0  0  0  0  0  0  0  0  0  0  0  # atno 17371 bound_to 10713
  140.1610  134.4729  155.7895 LP  0  0  0  0  0  0  0  0  0  0  0  0  # atno 17394 bound_to 11000
  141.2206  133.6901  156.7544 LP  0  0  0  0  0  0  0  0  0  0  0  0  # atno 17395 bound_to 11000

$$$$
