AV-unprocessed.smi:884|AV-procd|sdf|4043|dock2
  -GOLD-   22720 1533D 1   1.00000     0.00000
 Structure written by MMmdl.
 48 50  0  0  0  0  0  0  0  0  2 V2000
  147.2010  139.1122  155.2401 O   0  0  0  0  0  0  0  0  0  0  0  0
  148.0026  138.6114  154.4504 C   0  0  0  0  0  0  0  0  0  0  0  0
  147.7213  137.4922  153.7594 N   0  0  0  0  0  0  0  0  0  0  0  0
  146.4898  136.7123  153.8636 C   0  0  0  0  0  0  0  0  0  0  0  0
  145.6972  136.6760  152.5424 C   0  0  0  0  0  0  0  0  0  0  0  0
  145.5835  135.2922  151.9251 C   0  0  0  0  0  0  0  0  0  0  0  0
  144.3401  134.7403  151.5490 C   0  0  0  0  0  0  0  0  0  0  0  0
  144.3000  133.4414  151.0004 C   0  0  0  0  0  0  0  0  0  0  0  0
  145.5031  132.7245  150.8351 C   0  0  0  0  0  0  0  0  0  0  0  0
  146.7172  133.3227  151.2293 C   0  0  0  0  0  0  0  0  0  0  0  0
  146.7131  134.5655  151.7593 N   0  3  0  0  0  0  0  0  0  0  0  0
  149.2308  139.1377  154.2080 N   0  0  0  0  0  0  0  0  0  0  0  0
  150.4219  138.3897  153.7780 C   0  0  0  0  0  0  0  0  0  0  0  0
  151.3149  138.1399  154.9999 C   0  0  0  0  0  0  0  0  0  0  0  0
  151.9081  139.7104  155.7000 S   0  0  0  0  0  0  0  0  0  0  0  0
  150.3523  140.6704  155.8477 C   0  0  0  0  0  0  0  0  0  0  0  0
  149.5188  140.1742  157.0588 C   0  0  0  0  0  0  0  0  0  0  0  0
  150.1763  140.4660  158.4192 C   0  0  0  0  0  0  0  0  0  0  0  0
  150.4867  141.9597  158.5779 C   0  0  0  0  0  0  0  0  0  0  0  0
  151.3537  142.4642  157.4172 C   0  0  0  0  0  0  0  0  0  0  0  0
  150.6952  142.1668  156.0571 C   0  0  0  0  0  0  0  0  0  0  0  0
  149.5552  140.5379  154.5201 C   0  0  0  0  0  0  0  0  0  0  0  0
  148.4203  137.1523  153.1147 H   0  0  0  0  0  0  0  0  0  0  0  0
  146.7048  135.6934  154.1890 H   0  0  0  0  0  0  0  0  0  0  0  0
  145.8724  137.1510  154.6476 H   0  0  0  0  0  0  0  0  0  0  0  0
  144.6937  137.0704  152.7066 H   0  0  0  0  0  0  0  0  0  0  0  0
  146.1678  137.3448  151.8203 H   0  0  0  0  0  0  0  0  0  0  0  0
  143.4271  135.3014  151.6862 H   0  0  0  0  0  0  0  0  0  0  0  0
  143.3575  133.0005  150.7103 H   0  0  0  0  0  0  0  0  0  0  0  0
  145.4937  131.7282  150.4174 H   0  0  0  0  0  0  0  0  0  0  0  0
  147.6823  132.8448  151.1464 H   0  0  0  0  0  0  0  0  0  0  0  0
  150.1882  137.4433  153.2906 H   0  0  0  0  0  0  0  0  0  0  0  0
  150.9699  138.9613  153.0275 H   0  0  0  0  0  0  0  0  0  0  0  0
  150.7733  137.5831  155.7650 H   0  0  0  0  0  0  0  0  0  0  0  0
  152.1791  137.5371  154.7206 H   0  0  0  0  0  0  0  0  0  0  0  0
  148.5382  140.6514  157.0391 H   0  0  0  0  0  0  0  0  0  0  0  0
  149.3308  139.1058  156.9799 H   0  0  0  0  0  0  0  0  0  0  0  0
  149.5169  140.1407  159.2243 H   0  0  0  0  0  0  0  0  0  0  0  0
  151.0937  139.8859  158.5242 H   0  0  0  0  0  0  0  0  0  0  0  0
  149.5552  142.5259  158.6119 H   0  0  0  0  0  0  0  0  0  0  0  0
  150.9934  142.1376  159.5268 H   0  0  0  0  0  0  0  0  0  0  0  0
  151.5167  143.5373  157.5196 H   0  0  0  0  0  0  0  0  0  0  0  0
  152.3398  142.0018  157.4669 H   0  0  0  0  0  0  0  0  0  0  0  0
  151.3463  142.5171  155.2550 H   0  0  0  0  0  0  0  0  0  0  0  0
  149.7832  142.7606  155.9815 H   0  0  0  0  0  0  0  0  0  0  0  0
  150.1340  140.9600  153.6971 H   0  0  0  0  0  0  0  0  0  0  0  0
  148.6536  141.1513  154.5632 H   0  0  0  0  0  0  0  0  0  0  0  0
  147.6027  134.9769  152.0425 H   0  0  0  0  0  0  0  0  0  0  0  0
  1  2  2  0  0  0  0
  2  3  1  0  0  0  0
  2 12  1  0  0  0  0
  3  4  1  0  0  0  0
  3 23  1  0  0  0  0
  4  5  1  0  0  0  0
  4 24  1  0  0  0  0
  4 25  1  0  0  0  0
  5  6  1  0  0  0  0
  5 26  1  0  0  0  0
  5 27  1  0  0  0  0
  6 11  1  0  0  0  0
  6  7  2  0  0  0  0
  7  8  1  0  0  0  0
  7 28  1  0  0  0  0
  8  9  2  0  0  0  0
  8 29  1  0  0  0  0
  9 10  1  0  0  0  0
  9 30  1  0  0  0  0
 10 11  2  0  0  0  0
 10 31  1  0  0  0  0
 11 48  1  0  0  0  0
 12 22  1  0  0  0  0
 12 13  1  0  0  0  0
 13 14  1  0  0  0  0
 13 32  1  0  0  0  0
 13 33  1  0  0  0  0
 14 15  1  0  0  0  0
 14 34  1  0  0  0  0
 14 35  1  0  0  0  0
 15 16  1  0  0  0  0
 16 21  1  0  0  0  0
 16 17  1  0  0  0  0
 16 22  1  0  0  0  0
 17 18  1  0  0  0  0
 17 36  1  0  0  0  0
 17 37  1  0  0  0  0
 18 19  1  0  0  0  0
 18 38  1  0  0  0  0
 18 39  1  0  0  0  0
 19 20  1  0  0  0  0
 19 40  1  0  0  0  0
 19 41  1  0  0  0  0
 20 21  1  0  0  0  0
 20 42  1  0  0  0  0
 20 43  1  0  0  0  0
 21 44  1  0  0  0  0
 21 45  1  0  0  0  0
 22 46  1  0  0  0  0
 22 47  1  0  0  0  0
M  CHG  1  11   1
M  END
> <s_m_source_file>
AV-unprocessed.smi

> <i_m_source_file_index>
884

> <i_lp_mmshare_version>
43012

> <i_f3d_flags>
0

> <s_epik_input>
bjFbY0hdW2NIXVtjSF1bY0hdYzFbQ0gyXVtDSDJdW05IXUMoPU8pTihbQ0gyXTIpW0NIMl1bQ0gyXVNDMjNbQ0gyXVtDSDJdW0NIMl1bQ0gyXVtDSDJdMw==

> <s_epik_cmdline>
J2VwaWtfcHl0aG9uJywgJy1waCcsICc3LjAnLCAnLXRuJywgJzgnLCAnLW1hJywgJzIwMCcsICctbWV0YWxfYmluZGluZycsICctaW1hZScsICc8aW5maWxlLm1hZT4nLCAnLW9tYWUnLCAnPG91dGZpbGUubWFlPic=

> <r_epik_Ionization_Penalty>
1.55139

> <r_epik_Ionization_Penalty_Charging>
1.55135

> <r_epik_Ionization_Penalty_Neutral>
4.66963e-05

> <r_epik_State_Penalty>
1.64559

> <r_epik_Charging_Adjusted_Penalty>
3.19693

> <i_epik_Tot_Q>
1

> <i_epik_Tot_abs_Q>
1

> <r_epik_Metal_State_Penalty>
1.68773

> <b_epik_Metal_Only>
0

> <s_lp_Force_Field>
OPLS_2005

> <r_lp_Energy>
36.5944

> <b_lp_Chiralities_Consistent>
1

> <s_lp_Variant>
AV-unprocessed.smi:884-2

> <Gold.Version>
5.8.1

> <Gold.Id.Protein>
6NUR|6NUR_protein|mol2

> <Gold.PLP.Fitness>
44.0686

> <Gold.PLP.PLP>
-36.4200

> <Gold.PLP.part.hbond>
-2.0000

> <Gold.PLP.part.metal>
0.0000

> <Gold.PLP.part.buried>
-2.0415

> <Gold.PLP.part.nonpolar>
-32.1799

> <Gold.PLP.part.repulsive>
0.1036

> <Gold.PLP.ligand.clash>
0.0000

> <Gold.PLP.ligand.torsion>
0.6879

> <Gold.PLP.Chemscore.Hbond>
3.0000

> <Gold.PLP.Chemscore.CHOScore>
0.0000

> <Gold.PLP.Chemscore.Metal>
0.0000

> <Gold.Chemscore.Hbonds>
donor molecule, donor type, donor heavy atom, donor atom, acceptor molecule, acceptor atom, score
      L1  H     3    23       P1  7948  1.00
      L1  H    11    48       P1  7948  2.00

> <Gold.PLP.Chemscore.Internal.Correction>
0.0244

> <Gold.Rescore>
     Score         DG    S(hbond)    S(metal)    S(lipo)     H(rot)  DE(clash)    DE(int)     intcor
     20.12     -20.82       1.97        0.00     103.09       1.30       0.10       0.60       ----

> <Gold.Chemscore.Fitness>
20.1179

> <Gold.Chemscore.DG>
-20.8207

> <Gold.Chemscore.ZeroCoef>
-5.4800

> <Gold.Chemscore.Hbond>
1.9747

> <Gold.Chemscore.Metal>
0.0000

> <Gold.Chemscore.Lipo>
103.0870

> <Gold.Chemscore.Internal_Hbond>
0.0000

> <Gold.Chemscore.DEClash>
0.1029

> <Gold.Chemscore.DEInternal>
0.5998

> <Gold.Chemscore.Rot>
1.2953

> <Gold.Chemscore.Internal.Correction>
   9.000000E+99

> <Gold.Chemscore.Hbonds>
donor molecule, donor type, donor heavy atom, donor atom, acceptor molecule, acceptor atom, score
      L1  H     3    23       P1  7948  0.98
      L1  H    11    48       P1  7948  0.81

> <Gold.Chemscore.Hbond.Weighted>
-6.5954

> <Gold.Chemscore.Metal.Weighted>
-0.0000

> <Gold.Chemscore.Lipo.Weighted>
-12.0612

> <Gold.Chemscore.Internal_Hbond.Weighted>
0.0000

> <Gold.Chemscore.DEClash.Weighted>
0.1029

> <Gold.Chemscore.DEInternal.Weighted>
0.5998

> <Gold.Chemscore.Rot.Weighted>
3.3159

> <Gold.Chemscore.Internal.Correction.Weighted>
   9.000000E+99

> <Gold.Protein.RotatedTorsions>
[ 6907 6896 6895 6894 ] final  155.01 input  -60.11 | X-H torsion
[ 7974 7965 7964 7962 ] final  -96.09 input  175.53 | X-H torsion
[ 8008 7997 7996 7995 ] final   23.60 input   59.86 | X-H torsion
[ 10167 10162 10161 10158 ] final -155.87 input  -65.29 | X-H torsion
[ 10718 10713 10712 10709 ] final   96.79 input   66.30 | X-H torsion
[ 10763 10752 10751 10750 ] final  -55.87 input  -60.55 | X-H torsion
[ 11005 11000 10999 10996 ] final  124.35 input  -57.11 | X-H torsion

> <Gold.Protein.ActiveResidues>
 VAL166  LYS551  ARG553  GLY616  TRP617  ASP618  TYR619  PRO620  LYS621  CYS622 
 ASP623  PHE694  ASN695  SER759  ASP760  ASP761  ALA762  ILE779  LEU786  VAL792 
 PHE793  MET794  SER795  GLU796  ALA797  LYS798  CYS799  TRP800  GLU811  SER814 

> <Gold.Protein.RotatedAtoms>
  152.0504  133.4016  159.4374 H   0  0  0  0  0  0  0  0  0  0  0  0  # atno 6907 bound_to 6896
  150.6870  134.3315  159.4838 H   0  0  0  0  0  0  0  0  0  0  0  0  # atno 6908 bound_to 6896
  152.1124  134.9264  160.0617 H   0  0  0  0  0  0  0  0  0  0  0  0  # atno 6909 bound_to 6896
  145.3514  140.9477  143.2552 H   0  0  0  0  0  0  0  0  0  0  0  0  # atno 7974 bound_to 7965
  154.9834  140.3105  155.4936 H   0  0  0  0  0  0  0  0  0  0  0  0  # atno 8008 bound_to 7997
  156.2950  140.2262  156.4874 H   0  0  0  0  0  0  0  0  0  0  0  0  # atno 8009 bound_to 7997
  154.7768  140.0448  157.1084 H   0  0  0  0  0  0  0  0  0  0  0  0  # atno 8010 bound_to 7997
  139.6896  143.9443  152.2378 H   0  0  0  0  0  0  0  0  0  0  0  0  # atno 10167 bound_to 10162
  157.6922  131.0589  150.4544 H   0  0  0  0  0  0  0  0  0  0  0  0  # atno 10718 bound_to 10713
  154.1977  135.6416  153.5078 H   0  0  0  0  0  0  0  0  0  0  0  0  # atno 10763 bound_to 10752
  153.0019  135.5444  154.6348 H   0  0  0  0  0  0  0  0  0  0  0  0  # atno 10764 bound_to 10752
  154.5753  135.2920  155.0760 H   0  0  0  0  0  0  0  0  0  0  0  0  # atno 10765 bound_to 10752
  139.9355  134.9640  156.8397 H   0  0  0  0  0  0  0  0  0  0  0  0  # atno 11005 bound_to 11000
  144.8715  139.5032  143.6765 LP  0  0  0  0  0  0  0  0  0  0  0  0  # atno 17320 bound_to 7965
  146.2966  139.7297  142.9122 LP  0  0  0  0  0  0  0  0  0  0  0  0  # atno 17321 bound_to 7965
  139.9256  144.6773  150.8416 LP  0  0  0  0  0  0  0  0  0  0  0  0  # atno 17342 bound_to 10162
  140.7678  143.3344  151.2340 LP  0  0  0  0  0  0  0  0  0  0  0  0  # atno 17343 bound_to 10162
  156.4893  130.4091  149.6416 LP  0  0  0  0  0  0  0  0  0  0  0  0  # atno 17370 bound_to 10713
  156.3432  130.7393  151.2341 LP  0  0  0  0  0  0  0  0  0  0  0  0  # atno 17371 bound_to 10713
  140.6088  134.0102  155.7568 LP  0  0  0  0  0  0  0  0  0  0  0  0  # atno 17394 bound_to 11000
  141.0966  133.9834  157.3150 LP  0  0  0  0  0  0  0  0  0  0  0  0  # atno 17395 bound_to 11000

$$$$
