AV-unprocessed.smi:232|AV-procd|sdf|1769|dock10
  -GOLD-   2262020303D 1   1.00000     0.00000
 Structure written by MMmdl.
 52 55  0  0  0  0  0  0  0  0  1 V2000
  140.2844  145.4858  154.2248 C   0  0  0  0  0  0  0  0  0  0  0  0
  140.7701  144.1244  154.7371 C   0  0  0  0  0  0  0  0  0  0  0  0
  141.6862  144.2359  155.9729 C   0  0  2  0  0  0  0  0  0  0  0  0
  140.9854  144.7890  157.2205 C   0  0  0  0  0  0  0  0  0  0  0  0
  142.0896  145.5167  157.9958 C   0  0  0  0  0  0  0  0  0  0  0  0
  143.3325  145.4094  157.1022 C   0  0  2  0  0  0  0  0  0  0  0  0
  144.2401  146.6493  157.1728 C   0  0  0  0  0  0  0  0  0  0  0  0
  142.8144  145.1389  155.7661 N   0  0  0  0  0  0  0  0  0  0  0  0
  143.7547  144.7516  154.8707 C   0  0  0  0  0  0  0  0  0  0  0  0
  143.9054  145.4172  153.6945 N   0  0  0  0  0  0  0  0  0  0  0  0
  144.8252  145.0156  152.8119 C   0  0  0  0  0  0  0  0  0  0  0  0
  145.6771  143.9914  152.9006 N   0  0  0  0  0  0  0  0  0  0  0  0
  145.5233  143.3215  154.0789 C   0  0  0  0  0  0  0  0  0  0  0  0
  144.5957  143.6334  155.1109 C   0  0  0  0  0  0  0  0  0  0  0  0
  144.7271  142.7323  156.1601 N   0  0  0  0  0  0  0  0  0  0  0  0
  145.6772  141.9274  155.7674 C   0  0  0  0  0  0  0  0  0  0  0  0
  146.2085  142.2075  154.5284 N   0  0  0  0  0  0  0  0  0  0  0  0
  147.2615  141.4780  153.8450 C   0  0  0  0  0  0  0  0  0  0  0  0
  148.5600  141.4178  154.6726 C   0  0  2  0  0  0  0  0  0  0  0  0
  149.2152  142.6725  154.6630 O   0  0  0  0  0  0  0  0  0  0  0  0
  149.5144  140.2992  154.2078 C   0  0  2  0  0  0  0  0  0  0  0  0
  149.0524  138.8605  154.4557 C   0  0  0  0  0  0  0  0  0  0  0  0
  150.3724  138.1227  154.4424 C   0  0  0  0  0  0  0  0  0  0  0  0
  151.2908  139.1167  155.1494 C   0  0  0  0  0  0  0  0  0  0  0  0
  150.8049  140.4110  154.8035 O   0  0  0  0  0  0  0  0  0  0  0  0
  139.6169  145.3629  153.3717 H   0  0  0  0  0  0  0  0  0  0  0  0
  141.1171  146.1122  153.9040 H   0  0  0  0  0  0  0  0  0  0  0  0
  139.7378  146.0239  154.9995 H   0  0  0  0  0  0  0  0  0  0  0  0
  139.8951  143.5208  154.9804 H   0  0  0  0  0  0  0  0  0  0  0  0
  141.2891  143.5963  153.9364 H   0  0  0  0  0  0  0  0  0  0  0  0
  142.0719  143.2449  156.2184 H   0  0  0  0  0  0  0  0  0  0  0  0
  140.2075  145.5018  156.9436 H   0  0  0  0  0  0  0  0  0  0  0  0
  140.5172  143.9980  157.8070 H   0  0  0  0  0  0  0  0  0  0  0  0
  141.8030  146.5576  158.1526 H   0  0  0  0  0  0  0  0  0  0  0  0
  142.2678  145.0714  158.9750 H   0  0  0  0  0  0  0  0  0  0  0  0
  143.9081  144.5394  157.4238 H   0  0  0  0  0  0  0  0  0  0  0  0
  144.5539  146.8415  158.1990 H   0  0  0  0  0  0  0  0  0  0  0  0
  143.7247  147.5388  156.8094 H   0  0  0  0  0  0  0  0  0  0  0  0
  145.1430  146.5198  156.5759 H   0  0  0  0  0  0  0  0  0  0  0  0
  144.8841  145.5955  151.9027 H   0  0  0  0  0  0  0  0  0  0  0  0
  146.0156  141.0981  156.3716 H   0  0  0  0  0  0  0  0  0  0  0  0
  146.8979  140.4712  153.6366 H   0  0  0  0  0  0  0  0  0  0  0  0
  147.4433  141.9511  152.8791 H   0  0  0  0  0  0  0  0  0  0  0  0
  148.2971  141.2163  155.7118 H   0  0  0  0  0  0  0  0  0  0  0  0
  148.7083  143.2787  155.1810 H   0  0  0  0  0  0  0  0  0  0  0  0
  149.6738  140.4136  153.1343 H   0  0  0  0  0  0  0  0  0  0  0  0
  148.5832  138.7487  155.4337 H   0  0  0  0  0  0  0  0  0  0  0  0
  148.3537  138.5020  153.6992 H   0  0  0  0  0  0  0  0  0  0  0  0
  150.3293  137.1530  154.9392 H   0  0  0  0  0  0  0  0  0  0  0  0
  150.7050  137.9674  153.4151 H   0  0  0  0  0  0  0  0  0  0  0  0
  151.2157  138.9981  156.2310 H   0  0  0  0  0  0  0  0  0  0  0  0
  152.3365  138.9932  154.8671 H   0  0  0  0  0  0  0  0  0  0  0  0
  1  2  1  0  0  0  0
  1 26  1  0  0  0  0
  1 27  1  0  0  0  0
  1 28  1  0  0  0  0
  2  3  1  0  0  0  0
  2 29  1  0  0  0  0
  2 30  1  0  0  0  0
  3  8  1  0  0  0  0
  3  4  1  0  0  0  0
  3 31  1  0  0  0  0
  4  5  1  0  0  0  0
  4 32  1  0  0  0  0
  4 33  1  0  0  0  0
  5  6  1  0  0  0  0
  5 34  1  0  0  0  0
  5 35  1  0  0  0  0
  6  7  1  0  0  0  0
  6  8  1  0  0  0  0
  6 36  1  0  0  0  0
  7 37  1  0  0  0  0
  7 38  1  0  0  0  0
  7 39  1  0  0  0  0
  8  9  1  0  0  0  0
  9 14  1  0  0  0  0
  9 10  2  0  0  0  0
 10 11  1  0  0  0  0
 11 12  2  0  0  0  0
 11 40  1  0  0  0  0
 12 13  1  0  0  0  0
 13 17  1  0  0  0  0
 13 14  2  0  0  0  0
 14 15  1  0  0  0  0
 15 16  2  0  0  0  0
 16 17  1  0  0  0  0
 16 41  1  0  0  0  0
 17 18  1  0  0  0  0
 18 19  1  0  0  0  0
 18 42  1  0  0  0  0
 18 43  1  0  0  0  0
 19 20  1  0  0  0  0
 19 21  1  0  0  0  0
 19 44  1  0  0  0  0
 20 45  1  0  0  0  0
 21 25  1  0  0  0  0
 21 22  1  0  0  0  0
 21 46  1  0  0  0  0
 22 23  1  0  0  0  0
 22 47  1  0  0  0  0
 22 48  1  0  0  0  0
 23 24  1  0  0  0  0
 23 49  1  0  0  0  0
 23 50  1  0  0  0  0
 24 25  1  0  0  0  0
 24 51  1  0  0  0  0
 24 52  1  0  0  0  0
M  END
> <s_m_source_file>
AV-unprocessed.smi

> <i_m_source_file_index>
232

> <i_lp_mmshare_version>
43012

> <i_f3d_flags>
0

> <s_epik_input>
W0NIM11bQ0gyXVtDQEBIXTFbQ0gyXVtDSDJdW0NAQEhdKFtDSDNdKU4xYyhuW2NIXW4yKWMoYzIzKW5bY0hdbjNbQ0gyXVtDQEhdKFtPSF0pW0NAQEhdNFtDSDJdW0NIMl1bQ0gyXU80

> <s_epik_cmdline>
J2VwaWtfcHl0aG9uJywgJy1waCcsICc3LjAnLCAnLXRuJywgJzgnLCAnLW1hJywgJzIwMCcsICctbWV0YWxfYmluZGluZycsICctaW1hZScsICc8aW5maWxlLm1hZT4nLCAnLW9tYWUnLCAnPG91dGZpbGUubWFlPic=

> <r_lp_tautomer_probability>
1

> <r_epik_Ionization_Penalty>
0.00258048

> <r_epik_Ionization_Penalty_Charging>
0

> <r_epik_Ionization_Penalty_Neutral>
0.00258048

> <r_epik_State_Penalty>
0.00168551

> <r_epik_Charging_Adjusted_Penalty>
0.00168551

> <i_epik_Tot_Q>
0

> <i_epik_Tot_abs_Q>
0

> <r_epik_Metal_State_Penalty>
-0

> <b_epik_Metal_Only>
0

> <s_lp_Force_Field>
OPLS_2005

> <r_lp_Energy>
54.2743

> <b_lp_Chiralities_Consistent>
1

> <s_lp_Variant>
AV-unprocessed.smi:232-3

> <Gold.Version>
5.8.1

> <Gold.Id.Protein>
6NUR|6NUR_protein|mol2

> <Gold.PLP.Fitness>
46.3291

> <Gold.PLP.PLP>
-41.5345

> <Gold.PLP.part.hbond>
-3.8129

> <Gold.PLP.part.metal>
0.0000

> <Gold.PLP.part.buried>
-2.5864

> <Gold.PLP.part.nonpolar>
-36.2795

> <Gold.PLP.part.repulsive>
0.5036

> <Gold.PLP.ligand.clash>
0.0000

> <Gold.PLP.ligand.torsion>
0.3881

> <Gold.PLP.Chemscore.Hbond>
1.8222

> <Gold.PLP.Chemscore.CHOScore>
0.0000

> <Gold.PLP.Chemscore.Metal>
0.0000

> <Gold.Chemscore.Hbonds>
donor molecule, donor type, donor heavy atom, donor atom, acceptor molecule, acceptor atom, score
      L1  H    20    45       P1  8028  0.69
      P1  H  7989  7998       L1    25  0.95

> <Gold.PLP.Chemscore.Internal.Correction>
0.1041

> <Gold.Rescore>
     Score         DG    S(hbond)    S(metal)    S(lipo)     H(rot)  DE(clash)    DE(int)     intcor
     12.55     -14.09       2.06        0.00      67.90       2.43       1.27       0.27       ----

> <Gold.Chemscore.Fitness>
12.5491

> <Gold.Chemscore.DG>
-14.0893

> <Gold.Chemscore.ZeroCoef>
-5.4800

> <Gold.Chemscore.Hbond>
2.0585

> <Gold.Chemscore.Metal>
0.0000

> <Gold.Chemscore.Lipo>
67.9030

> <Gold.Chemscore.Internal_Hbond>
0.0000

> <Gold.Chemscore.DEClash>
1.2702

> <Gold.Chemscore.DEInternal>
0.2700

> <Gold.Chemscore.Rot>
2.4260

> <Gold.Chemscore.Internal.Correction>
   9.000000E+99

> <Gold.Chemscore.Hbonds>
donor molecule, donor type, donor heavy atom, donor atom, acceptor molecule, acceptor atom, score
      L1  H    20    45       P1  8028  0.65
      P1  H  7989  7998       L1    25  0.13

> <Gold.Chemscore.Hbond.Weighted>
-6.8754

> <Gold.Chemscore.Metal.Weighted>
-0.0000

> <Gold.Chemscore.Lipo.Weighted>
-7.9446

> <Gold.Chemscore.Internal_Hbond.Weighted>
0.0000

> <Gold.Chemscore.DEClash.Weighted>
1.2702

> <Gold.Chemscore.DEInternal.Weighted>
0.2700

> <Gold.Chemscore.Rot.Weighted>
6.2107

> <Gold.Chemscore.Internal.Correction.Weighted>
   9.000000E+99

> <Gold.Protein.RotatedTorsions>
[ 6907 6896 6895 6894 ] final -150.21 input  -60.11 | X-H torsion
[ 7974 7965 7964 7962 ] final  104.05 input  175.53 | X-H torsion
[ 8008 7997 7996 7995 ] final  110.54 input   59.86 | X-H torsion
[ 10167 10162 10161 10158 ] final   -1.01 input  -65.29 | X-H torsion
[ 10718 10713 10712 10709 ] final   86.80 input   66.30 | X-H torsion
[ 10763 10752 10751 10750 ] final  -95.24 input  -60.55 | X-H torsion
[ 11005 11000 10999 10996 ] final -165.78 input  -57.11 | X-H torsion

> <Gold.Protein.ActiveResidues>
 VAL166  LYS551  ARG553  GLY616  TRP617  ASP618  TYR619  PRO620  LYS621  CYS622 
 ASP623  PHE694  ASN695  SER759  ASP760  ASP761  ALA762  ILE779  LEU786  VAL792 
 PHE793  MET794  SER795  GLU796  ALA797  LYS798  CYS799  TRP800  GLU811  SER814 

> <Gold.Protein.RotatedAtoms>
  151.1952  133.4643  159.2595 H   0  0  0  0  0  0  0  0  0  0  0  0  # atno 6907 bound_to 6896
  151.1124  135.0034  159.8510 H   0  0  0  0  0  0  0  0  0  0  0  0  # atno 6908 bound_to 6896
  152.5451  134.1870  159.8711 H   0  0  0  0  0  0  0  0  0  0  0  0  # atno 6909 bound_to 6896
  145.3379  139.2470  143.3625 H   0  0  0  0  0  0  0  0  0  0  0  0  # atno 7974 bound_to 7965
  156.2060  140.3036  155.9628 H   0  0  0  0  0  0  0  0  0  0  0  0  # atno 8008 bound_to 7997
  155.2840  140.0439  157.3035 H   0  0  0  0  0  0  0  0  0  0  0  0  # atno 8009 bound_to 7997
  154.5634  140.2327  155.8309 H   0  0  0  0  0  0  0  0  0  0  0  0  # atno 8010 bound_to 7997
  140.6792  143.6826  150.8093 H   0  0  0  0  0  0  0  0  0  0  0  0  # atno 10167 bound_to 10162
  157.6933  131.0230  150.3027 H   0  0  0  0  0  0  0  0  0  0  0  0  # atno 10718 bound_to 10713
  154.7130  135.5128  153.8695 H   0  0  0  0  0  0  0  0  0  0  0  0  # atno 10763 bound_to 10752
  153.0796  135.6627  154.0081 H   0  0  0  0  0  0  0  0  0  0  0  0  # atno 10764 bound_to 10752
  153.9919  135.3019  155.3390 H   0  0  0  0  0  0  0  0  0  0  0  0  # atno 10765 bound_to 10752
  140.5718  134.5230  157.5163 H   0  0  0  0  0  0  0  0  0  0  0  0  # atno 11005 bound_to 11000
  146.3019  140.3970  142.8701 LP  0  0  0  0  0  0  0  0  0  0  0  0  # atno 17320 bound_to 7965
  144.8813  140.7404  143.5985 LP  0  0  0  0  0  0  0  0  0  0  0  0  # atno 17321 bound_to 7965
  140.0524  143.5236  152.2667 LP  0  0  0  0  0  0  0  0  0  0  0  0  # atno 17342 bound_to 10162
  139.6103  144.7607  151.2967 LP  0  0  0  0  0  0  0  0  0  0  0  0  # atno 17343 bound_to 10162
  156.3540  130.3836  149.7305 LP  0  0  0  0  0  0  0  0  0  0  0  0  # atno 17370 bound_to 10713
  156.4773  130.8025  151.3040 LP  0  0  0  0  0  0  0  0  0  0  0  0  # atno 17371 bound_to 10713
  139.9358  134.7878  156.0807 LP  0  0  0  0  0  0  0  0  0  0  0  0  # atno 17394 bound_to 11000
  141.1051  133.6663  156.2845 LP  0  0  0  0  0  0  0  0  0  0  0  0  # atno 17395 bound_to 11000

$$$$
