AV-unprocessed.smi:261|AV-procd|sdf|1995|dock6
  -GOLD-   2262021183D 1   1.00000     0.00000
 Structure written by MMmdl.
 51 54  0  0  0  0  0  0  0  0  1 V2000
  151.5069  145.5514  159.4262 C   0  0  0  0  0  0  0  0  0  0  0  0
  152.4209  144.5233  159.0813 O   0  0  0  0  0  0  0  0  0  0  0  0
  151.8342  143.2304  159.0619 C   0  0  1  0  0  0  0  0  0  0  0  0
  151.0197  143.0233  157.7907 C   0  0  0  0  0  0  0  0  0  0  0  0
  150.9405  141.4951  157.6826 C   0  0  1  0  0  0  0  0  0  0  0  0
  150.6870  141.0299  156.2417 C   0  0  0  0  0  0  0  0  0  0  0  0
  150.2300  141.9472  155.3859 N   0  0  0  0  0  0  0  0  0  0  0  0
  150.9104  139.8700  155.8993 O   0  0  0  0  0  0  0  0  0  0  0  0
  152.2349  141.0359  158.1935 N   0  0  0  0  0  0  0  0  0  0  0  0
  152.2336  139.8099  158.7612 C   0  0  0  0  0  0  0  0  0  0  0  0
  151.4107  138.8772  158.2236 N   0  0  0  0  0  0  0  0  0  0  0  0
  151.3590  137.6501  158.7510 C   0  0  0  0  0  0  0  0  0  0  0  0
  152.0307  137.1606  159.7961 N   0  0  0  0  0  0  0  0  0  0  0  0
  152.8592  138.0997  160.3368 C   0  0  0  0  0  0  0  0  0  0  0  0
  153.0248  139.4378  159.8839 C   0  0  0  0  0  0  0  0  0  0  0  0
  153.9525  140.0990  160.6800 N   0  0  0  0  0  0  0  0  0  0  0  0
  154.3095  139.2037  161.5600 C   0  0  0  0  0  0  0  0  0  0  0  0
  153.6952  137.9782  161.4317 N   0  0  0  0  0  0  0  0  0  0  0  0
  153.8914  136.8142  162.2768 C   0  0  0  0  0  0  0  0  0  0  0  0
  153.8310  137.1520  163.7811 C   0  0  1  0  0  0  0  0  0  0  0  0
  153.8136  135.9495  164.5238 O   0  0  0  0  0  0  0  0  0  0  0  0
  154.9603  138.0843  164.2761 C   0  0  1  0  0  0  0  0  0  0  0  0
  154.8418  138.6018  165.7195 C   0  0  0  0  0  0  0  0  0  0  0  0
  156.2333  138.3919  166.2981 C   0  0  0  0  0  0  0  0  0  0  0  0
  157.1009  138.1454  165.0683 C   0  0  0  0  0  0  0  0  0  0  0  0
  156.2292  137.4471  164.1959 O   0  0  0  0  0  0  0  0  0  0  0  0
  152.8593  142.0944  158.9819 C   0  0  0  0  0  0  0  0  0  0  0  0
  151.1802  143.0871  159.9243 H   0  0  0  0  0  0  0  0  0  0  0  0
  150.1329  141.1367  158.3242 H   0  0  0  0  0  0  0  0  0  0  0  0
  152.0167  146.5145  159.4014 H   0  0  0  0  0  0  0  0  0  0  0  0
  151.1065  145.4123  160.4309 H   0  0  0  0  0  0  0  0  0  0  0  0
  150.6763  145.5932  158.7207 H   0  0  0  0  0  0  0  0  0  0  0  0
  150.0378  143.4948  157.8436 H   0  0  0  0  0  0  0  0  0  0  0  0
  151.5513  143.4476  156.9365 H   0  0  0  0  0  0  0  0  0  0  0  0
  150.0463  141.6949  154.4257 H   0  0  0  0  0  0  0  0  0  0  0  0
  150.0698  142.8920  155.7041 H   0  0  0  0  0  0  0  0  0  0  0  0
  150.6803  136.9628  158.2676 H   0  0  0  0  0  0  0  0  0  0  0  0
  155.0274  139.4175  162.3387 H   0  0  0  0  0  0  0  0  0  0  0  0
  153.1341  136.0717  162.0224 H   0  0  0  0  0  0  0  0  0  0  0  0
  154.8576  136.3723  162.0294 H   0  0  0  0  0  0  0  0  0  0  0  0
  152.8816  137.6489  163.9828 H   0  0  0  0  0  0  0  0  0  0  0  0
  154.4542  136.0173  165.2155 H   0  0  0  0  0  0  0  0  0  0  0  0
  155.0102  138.9556  163.6202 H   0  0  0  0  0  0  0  0  0  0  0  0
  154.5696  139.6578  165.7200 H   0  0  0  0  0  0  0  0  0  0  0  0
  154.0943  138.0733  166.3110 H   0  0  0  0  0  0  0  0  0  0  0  0
  156.5786  139.2353  166.8968 H   0  0  0  0  0  0  0  0  0  0  0  0
  156.2363  137.5044  166.9321 H   0  0  0  0  0  0  0  0  0  0  0  0
  157.4033  139.0874  164.6076 H   0  0  0  0  0  0  0  0  0  0  0  0
  157.9973  137.5668  165.2924 H   0  0  0  0  0  0  0  0  0  0  0  0
  153.7478  142.4225  158.4408 H   0  0  0  0  0  0  0  0  0  0  0  0
  153.1831  141.7742  159.9740 H   0  0  0  0  0  0  0  0  0  0  0  0
  1  2  1  0  0  0  0
  1 30  1  0  0  0  0
  1 31  1  0  0  0  0
  1 32  1  0  0  0  0
  2  3  1  0  0  0  0
  3 28  1  0  0  0  0
  3 27  1  0  0  0  0
  3  4  1  0  0  0  0
  4  5  1  0  0  0  0
  4 33  1  0  0  0  0
  4 34  1  0  0  0  0
  5 29  1  0  0  0  0
  5  6  1  0  0  0  0
  5  9  1  0  0  0  0
  6  7  1  0  0  0  0
  6  8  2  0  0  0  0
  7 35  1  0  0  0  0
  7 36  1  0  0  0  0
  9 10  1  0  0  0  0
  9 27  1  0  0  0  0
 10 15  1  0  0  0  0
 10 11  2  0  0  0  0
 11 12  1  0  0  0  0
 12 13  2  0  0  0  0
 12 37  1  0  0  0  0
 13 14  1  0  0  0  0
 14 18  1  0  0  0  0
 14 15  2  0  0  0  0
 15 16  1  0  0  0  0
 16 17  2  0  0  0  0
 17 18  1  0  0  0  0
 17 38  1  0  0  0  0
 18 19  1  0  0  0  0
 19 20  1  0  0  0  0
 19 39  1  0  0  0  0
 19 40  1  0  0  0  0
 20 21  1  0  0  0  0
 20 22  1  0  0  0  0
 20 41  1  0  0  0  0
 21 42  1  0  0  0  0
 22 26  1  0  0  0  0
 22 23  1  0  0  0  0
 22 43  1  0  0  0  0
 23 24  1  0  0  0  0
 23 44  1  0  0  0  0
 23 45  1  0  0  0  0
 24 25  1  0  0  0  0
 24 46  1  0  0  0  0
 24 47  1  0  0  0  0
 25 26  1  0  0  0  0
 25 48  1  0  0  0  0
 25 49  1  0  0  0  0
 27 50  1  0  0  0  0
 27 51  1  0  0  0  0
M  END
> <s_m_source_file>
AV-unprocessed.smi

> <i_m_source_file_index>
261

> <i_lp_mmshare_version>
43012

> <i_f3d_flags>
0

> <s_epik_input>
W0NIM11PW0NASF0xW0NIMl1bQ0BASF0oQyg9TylbTkgyXSlOKFtDSDJdMSljKG5bY0hdbjIpYyhjMjMpbltjSF1uM1tDSDJdW0NASF0oW09IXSlbQ0BASF00W0NIMl1bQ0gyXVtDSDJdTzQ=

> <s_epik_cmdline>
J2VwaWtfcHl0aG9uJywgJy1waCcsICc3LjAnLCAnLXRuJywgJzgnLCAnLW1hJywgJzIwMCcsICctbWV0YWxfYmluZGluZycsICctaW1hZScsICc8aW5maWxlLm1hZT4nLCAnLW9tYWUnLCAnPG91dGZpbGUubWFlPic=

> <r_lp_tautomer_probability>
1

> <r_epik_Ionization_Penalty>
0.000713824

> <r_epik_Ionization_Penalty_Charging>
0

> <r_epik_Ionization_Penalty_Neutral>
0.000713824

> <r_epik_State_Penalty>
0.000402132

> <r_epik_Charging_Adjusted_Penalty>
0.000402132

> <i_epik_Tot_Q>
0

> <i_epik_Tot_abs_Q>
0

> <r_epik_Metal_State_Penalty>
-0

> <b_epik_Metal_Only>
0

> <s_lp_Force_Field>
OPLS_2005

> <r_lp_Energy>
47.7975

> <b_lp_Chiralities_Consistent>
1

> <s_lp_Variant>
AV-unprocessed.smi:261-13

> <Gold.Version>
5.8.1

> <Gold.Id.Protein>
6NUR|6NUR_protein|mol2

> <Gold.PLP.Fitness>
47.8584

> <Gold.PLP.PLP>
-44.4961

> <Gold.PLP.part.hbond>
-1.9937

> <Gold.PLP.part.metal>
0.0000

> <Gold.PLP.part.buried>
-8.2451

> <Gold.PLP.part.nonpolar>
-34.4544

> <Gold.PLP.part.repulsive>
0.1765

> <Gold.PLP.ligand.clash>
0.0000

> <Gold.PLP.ligand.torsion>
1.2416

> <Gold.PLP.Chemscore.Hbond>
1.8636

> <Gold.PLP.Chemscore.CHOScore>
0.0000

> <Gold.PLP.Chemscore.Metal>
0.0000

> <Gold.Chemscore.Hbonds>
donor molecule, donor type, donor heavy atom, donor atom, acceptor molecule, acceptor atom, score
      L1  H     7    36       P1  8028  0.63
      P1  H  6896  6907       L1    13  0.98

> <Gold.PLP.Chemscore.Internal.Correction>
0.2547

> <Gold.Rescore>
     Score         DG    S(hbond)    S(metal)    S(lipo)     H(rot)  DE(clash)    DE(int)     intcor
      7.15     -12.82       1.82        0.00      88.90       3.57       0.02       5.66       ----

> <Gold.Chemscore.Fitness>
7.1465

> <Gold.Chemscore.DG>
-12.8234

> <Gold.Chemscore.ZeroCoef>
-5.4800

> <Gold.Chemscore.Hbond>
1.8239

> <Gold.Chemscore.Metal>
0.0000

> <Gold.Chemscore.Lipo>
88.8979

> <Gold.Chemscore.Internal_Hbond>
0.0000

> <Gold.Chemscore.DEClash>
0.0177

> <Gold.Chemscore.DEInternal>
5.6592

> <Gold.Chemscore.Rot>
3.5740

> <Gold.Chemscore.Internal.Correction>
   9.000000E+99

> <Gold.Chemscore.Hbonds>
donor molecule, donor type, donor heavy atom, donor atom, acceptor molecule, acceptor atom, score
      L1  H     7    36       P1  8028  0.61
      P1  H  6896  6907       L1    13  0.76

> <Gold.Chemscore.Hbond.Weighted>
-6.0918

> <Gold.Chemscore.Metal.Weighted>
-0.0000

> <Gold.Chemscore.Lipo.Weighted>
-10.4011

> <Gold.Chemscore.Internal_Hbond.Weighted>
0.0000

> <Gold.Chemscore.DEClash.Weighted>
0.0177

> <Gold.Chemscore.DEInternal.Weighted>
5.6592

> <Gold.Chemscore.Rot.Weighted>
9.1495

> <Gold.Chemscore.Internal.Correction.Weighted>
   9.000000E+99

> <Gold.Protein.RotatedTorsions>
[ 6907 6896 6895 6894 ] final    9.54 input  -60.11 | X-H torsion
[ 7974 7965 7964 7962 ] final   12.18 input  175.53 | X-H torsion
[ 8008 7997 7996 7995 ] final -111.81 input   59.86 | X-H torsion
[ 10167 10162 10161 10158 ] final -162.89 input  -65.29 | X-H torsion
[ 10718 10713 10712 10709 ] final  119.20 input   66.30 | X-H torsion
[ 10763 10752 10751 10750 ] final  171.37 input  -60.55 | X-H torsion
[ 11005 11000 10999 10996 ] final -163.40 input  -57.11 | X-H torsion

> <Gold.Protein.ActiveResidues>
 VAL166  LYS551  ARG553  GLY616  TRP617  ASP618  TYR619  PRO620  LYS621  CYS622 
 ASP623  PHE694  ASN695  SER759  ASP760  ASP761  ALA762  ILE779  LEU786  VAL792 
 PHE793  MET794  SER795  GLU796  ALA797  LYS798  CYS799  TRP800  GLU811  SER814 

> <Gold.Protein.RotatedAtoms>
  151.7238  135.0889  160.0288 H   0  0  0  0  0  0  0  0  0  0  0  0  # atno 6907 bound_to 6896
  152.3585  133.6263  159.6005 H   0  0  0  0  0  0  0  0  0  0  0  0  # atno 6908 bound_to 6896
  150.7588  133.9378  159.3488 H   0  0  0  0  0  0  0  0  0  0  0  0  # atno 6909 bound_to 6896
  146.2356  139.9375  142.8487 H   0  0  0  0  0  0  0  0  0  0  0  0  # atno 7974 bound_to 7965
  154.9955  140.0395  157.2338 H   0  0  0  0  0  0  0  0  0  0  0  0  # atno 8008 bound_to 7997
  154.7590  140.2781  155.6207 H   0  0  0  0  0  0  0  0  0  0  0  0  # atno 8009 bound_to 7997
  156.2900  140.2632  156.2364 H   0  0  0  0  0  0  0  0  0  0  0  0  # atno 8010 bound_to 7997
  139.6360  144.0350  152.2054 H   0  0  0  0  0  0  0  0  0  0  0  0  # atno 10167 bound_to 10162
  157.5978  131.1055  150.7864 H   0  0  0  0  0  0  0  0  0  0  0  0  # atno 10718 bound_to 10713
  154.4109  135.2756  155.2037 H   0  0  0  0  0  0  0  0  0  0  0  0  # atno 10763 bound_to 10752
  154.4023  135.6041  153.5908 H   0  0  0  0  0  0  0  0  0  0  0  0  # atno 10764 bound_to 10752
  152.9831  135.5929  154.4391 H   0  0  0  0  0  0  0  0  0  0  0  0  # atno 10765 bound_to 10752
  140.5985  134.4972  157.5202 H   0  0  0  0  0  0  0  0  0  0  0  0  # atno 11005 bound_to 11000
  145.1984  140.9843  143.4170 LP  0  0  0  0  0  0  0  0  0  0  0  0  # atno 17320 bound_to 7965
  144.9795  139.3798  143.6269 LP  0  0  0  0  0  0  0  0  0  0  0  0  # atno 17321 bound_to 7965
  140.0027  144.6281  150.7716 LP  0  0  0  0  0  0  0  0  0  0  0  0  # atno 17342 bound_to 10162
  140.7465  143.2892  151.3378 LP  0  0  0  0  0  0  0  0  0  0  0  0  # atno 17343 bound_to 10162
  156.8270  130.5003  149.5336 LP  0  0  0  0  0  0  0  0  0  0  0  0  # atno 17370 bound_to 10713
  156.1044  130.5993  150.9946 LP  0  0  0  0  0  0  0  0  0  0  0  0  # atno 17371 bound_to 10713
  139.9243  134.8087  156.1116 LP  0  0  0  0  0  0  0  0  0  0  0  0  # atno 17394 bound_to 11000
  141.0888  133.6723  156.2495 LP  0  0  0  0  0  0  0  0  0  0  0  0  # atno 17395 bound_to 11000

$$$$
