AV-unprocessed.smi:3258|AV-procd|sdf|12468|dock9
  -GOLD-   2272018363D 1   1.00000     0.00000
 Structure written by MMmdl.
 38 39  0  0  0  0  0  0  0  0  1 V2000
  148.6117  131.4486  153.4004 C   0  0  0  0  0  0  0  0  0  0  0  0
  147.6587  132.6200  153.1108 C   0  0  2  0  0  0  0  0  0  0  0  0
  147.0819  132.5966  151.6782 C   0  0  0  0  0  0  0  0  0  0  0  0
  145.9676  133.5109  151.5071 N   0  0  0  0  0  0  0  0  0  0  0  0
  145.9659  134.8844  151.6269 C   0  0  0  0  0  0  0  0  0  0  0  0
  144.6938  135.3122  151.3758 C   0  0  0  0  0  0  0  0  0  0  0  0
  143.9802  134.1109  151.1063 C   0  0  0  0  0  0  0  0  0  0  0  0
  144.7457  133.0342  151.1838 N   0  0  0  0  0  0  0  0  0  0  0  0
  148.3609  133.8780  153.3487 N   0  0  0  0  0  0  0  0  0  0  0  0
  149.0897  134.1635  154.4371 C   0  0  0  0  0  0  0  0  0  0  0  0
  149.2581  133.3876  155.3779 O   0  0  0  0  0  0  0  0  0  0  0  0
  149.6046  135.3996  154.3789 N   0  0  0  0  0  0  0  0  0  0  0  0
  150.4330  136.0201  155.4079 C   0  0  0  0  0  0  0  0  0  0  0  0
  151.1112  137.3063  154.8998 C   0  0  2  0  0  0  0  0  0  0  0  0
  151.9794  137.9905  155.9361 C   0  0  0  0  0  0  0  0  0  0  0  0
  152.1215  139.3978  155.3608 C   0  0  0  0  0  0  0  0  0  0  0  0
  150.9452  139.6305  154.5906 O   0  0  0  0  0  0  0  0  0  0  0  0
  150.1588  138.4451  154.5325 C   0  0  0  0  0  0  0  0  0  0  0  0
  148.1015  130.4885  153.3218 H   0  0  0  0  0  0  0  0  0  0  0  0
  149.0195  131.5152  154.4096 H   0  0  0  0  0  0  0  0  0  0  0  0
  149.4493  131.4384  152.7022 H   0  0  0  0  0  0  0  0  0  0  0  0
  146.8311  132.5478  153.8193 H   0  0  0  0  0  0  0  0  0  0  0  0
  147.8504  132.8707  150.9543 H   0  0  0  0  0  0  0  0  0  0  0  0
  146.7566  131.5881  151.4168 H   0  0  0  0  0  0  0  0  0  0  0  0
  146.8601  135.4354  151.8793 H   0  0  0  0  0  0  0  0  0  0  0  0
  144.3289  136.3286  151.3831 H   0  0  0  0  0  0  0  0  0  0  0  0
  142.9363  133.9900  150.8573 H   0  0  0  0  0  0  0  0  0  0  0  0
  148.2812  134.5844  152.6319 H   0  0  0  0  0  0  0  0  0  0  0  0
  149.4055  135.9575  153.5613 H   0  0  0  0  0  0  0  0  0  0  0  0
  149.8505  136.2200  156.3090 H   0  0  0  0  0  0  0  0  0  0  0  0
  151.1962  135.2963  155.6946 H   0  0  0  0  0  0  0  0  0  0  0  0
  151.7303  137.0726  154.0319 H   0  0  0  0  0  0  0  0  0  0  0  0
  151.4634  138.0315  156.8966 H   0  0  0  0  0  0  0  0  0  0  0  0
  152.9395  137.4959  156.0864 H   0  0  0  0  0  0  0  0  0  0  0  0
  152.2424  140.1519  156.1389 H   0  0  0  0  0  0  0  0  0  0  0  0
  152.9856  139.4546  154.6980 H   0  0  0  0  0  0  0  0  0  0  0  0
  149.7062  138.3161  153.5490 H   0  0  0  0  0  0  0  0  0  0  0  0
  149.3558  138.5284  155.2662 H   0  0  0  0  0  0  0  0  0  0  0  0
  1  2  1  0  0  0  0
  1 19  1  0  0  0  0
  1 20  1  0  0  0  0
  1 21  1  0  0  0  0
  2  3  1  0  0  0  0
  2  9  1  0  0  0  0
  2 22  1  0  0  0  0
  3  4  1  0  0  0  0
  3 23  1  0  0  0  0
  3 24  1  0  0  0  0
  4  8  1  0  0  0  0
  4  5  1  0  0  0  0
  5  6  2  0  0  0  0
  5 25  1  0  0  0  0
  6  7  1  0  0  0  0
  6 26  1  0  0  0  0
  7  8  2  0  0  0  0
  7 27  1  0  0  0  0
  9 10  1  0  0  0  0
  9 28  1  0  0  0  0
 10 11  2  0  0  0  0
 10 12  1  0  0  0  0
 12 13  1  0  0  0  0
 12 29  1  0  0  0  0
 13 14  1  0  0  0  0
 13 30  1  0  0  0  0
 13 31  1  0  0  0  0
 14 18  1  0  0  0  0
 14 15  1  0  0  0  0
 14 32  1  0  0  0  0
 15 16  1  0  0  0  0
 15 33  1  0  0  0  0
 15 34  1  0  0  0  0
 16 17  1  0  0  0  0
 16 35  1  0  0  0  0
 16 36  1  0  0  0  0
 17 18  1  0  0  0  0
 18 37  1  0  0  0  0
 18 38  1  0  0  0  0
M  END
> <s_m_source_file>
AV-unprocessed.smi

> <i_m_source_file_index>
3258

> <i_lp_mmshare_version>
43012

> <i_f3d_flags>
0

> <s_epik_input>
bjFbY0hdW2NIXVtjSF1uMVtDSDJdW0NAQEhdKFtDSDNdKVtOSF1DKD1PKVtOSF1bQ0gyXVtDQEBIXTJbQ0gyXVtDSDJdT1tDSDJdMg==

> <s_epik_cmdline>
J2VwaWtfcHl0aG9uJywgJy1waCcsICc3LjAnLCAnLXRuJywgJzgnLCAnLW1hJywgJzIwMCcsICctbWV0YWxfYmluZGluZycsICctaW1hZScsICc8aW5maWxlLm1hZT4nLCAnLW9tYWUnLCAnPG91dGZpbGUubWFlPic=

> <r_lp_tautomer_probability>
1

> <r_epik_Ionization_Penalty>
6.85079e-05

> <r_epik_Ionization_Penalty_Charging>
0

> <r_epik_Ionization_Penalty_Neutral>
6.85079e-05

> <r_epik_State_Penalty>
-0

> <r_epik_Charging_Adjusted_Penalty>
0

> <i_epik_Tot_Q>
0

> <i_epik_Tot_abs_Q>
0

> <r_epik_Metal_State_Penalty>
-0

> <b_epik_Metal_Only>
0

> <s_lp_Force_Field>
OPLS_2005

> <r_lp_Energy>
16.0555

> <b_lp_Chiralities_Consistent>
1

> <s_lp_Variant>
AV-unprocessed.smi:3258-1

> <Gold.Version>
5.8.1

> <Gold.Id.Protein>
6NUR|6NUR_protein|mol2

> <Gold.PLP.Fitness>
46.4893

> <Gold.PLP.PLP>
-32.0062

> <Gold.PLP.part.hbond>
-3.0594

> <Gold.PLP.part.metal>
0.0000

> <Gold.PLP.part.buried>
-2.9520

> <Gold.PLP.part.nonpolar>
-26.2700

> <Gold.PLP.part.repulsive>
0.2697

> <Gold.PLP.ligand.clash>
0.0000

> <Gold.PLP.ligand.torsion>
0.2442

> <Gold.PLP.Chemscore.Hbond>
2.9760

> <Gold.PLP.Chemscore.CHOScore>
2.0000

> <Gold.PLP.Chemscore.Metal>
0.0000

> <Gold.Chemscore.Hbonds>
donor molecule, donor type, donor heavy atom, donor atom, acceptor molecule, acceptor atom, score
      L1  H     9    28       P1  7948  0.96
      L1  H    12    29       P1  7948  1.00
      P1  H  7989  7998       L1    17  0.85
      L1  C     5    25       P1  7948  1.00
      L1  C     7    27       P1 10186  1.00

> <Gold.PLP.Chemscore.Internal.Correction>
0.0434

> <Gold.Rescore>
     Score         DG    S(hbond)    S(metal)    S(lipo)     H(rot)  DE(clash)    DE(int)     intcor
     14.30     -15.87       2.36        0.00      62.43       1.87       0.05       1.52       ----

> <Gold.Chemscore.Fitness>
14.3021

> <Gold.Chemscore.DG>
-15.8667

> <Gold.Chemscore.ZeroCoef>
-5.4800

> <Gold.Chemscore.Hbond>
2.3578

> <Gold.Chemscore.Metal>
0.0000

> <Gold.Chemscore.Lipo>
62.4346

> <Gold.Chemscore.Internal_Hbond>
0.0000

> <Gold.Chemscore.DEClash>
0.0451

> <Gold.Chemscore.DEInternal>
1.5194

> <Gold.Chemscore.Rot>
1.8724

> <Gold.Chemscore.Internal.Correction>
   9.000000E+99

> <Gold.Chemscore.Hbonds>
donor molecule, donor type, donor heavy atom, donor atom, acceptor molecule, acceptor atom, score
      L1  H     9    28       P1  7948  0.28
      L1  H    12    29       P1  7948  0.54
      P1  H  7989  7998       L1    17  0.15

> <Gold.Chemscore.Hbond.Weighted>
-7.8751

> <Gold.Chemscore.Metal.Weighted>
-0.0000

> <Gold.Chemscore.Lipo.Weighted>
-7.3048

> <Gold.Chemscore.Internal_Hbond.Weighted>
0.0000

> <Gold.Chemscore.DEClash.Weighted>
0.0451

> <Gold.Chemscore.DEInternal.Weighted>
1.5194

> <Gold.Chemscore.Rot.Weighted>
4.7933

> <Gold.Chemscore.Internal.Correction.Weighted>
   9.000000E+99

> <Gold.Protein.RotatedTorsions>
[ 6907 6896 6895 6894 ] final  -58.81 input  -60.11 | X-H torsion
[ 7974 7965 7964 7962 ] final   39.92 input  175.53 | X-H torsion
[ 8008 7997 7996 7995 ] final -119.20 input   59.86 | X-H torsion
[ 10167 10162 10161 10158 ] final  -17.76 input  -65.29 | X-H torsion
[ 10718 10713 10712 10709 ] final  -87.18 input   66.30 | X-H torsion
[ 10763 10752 10751 10750 ] final -171.45 input  -60.55 | X-H torsion
[ 11005 11000 10999 10996 ] final   -5.78 input  -57.11 | X-H torsion

> <Gold.Protein.ActiveResidues>
 VAL166  LYS551  ARG553  GLY616  TRP617  ASP618  TYR619  PRO620  LYS621  CYS622 
 ASP623  PHE694  ASN695  SER759  ASP760  ASP761  ALA762  ILE779  LEU786  VAL792 
 PHE793  MET794  SER795  GLU796  ALA797  LYS798  CYS799  TRP800  GLU811  SER814 

> <Gold.Protein.RotatedAtoms>
  150.7978  134.7050  159.6571 H   0  0  0  0  0  0  0  0  0  0  0  0  # atno 6907 bound_to 6896
  152.4092  134.6150  160.0045 H   0  0  0  0  0  0  0  0  0  0  0  0  # atno 6908 bound_to 6896
  151.6398  133.3290  159.3164 H   0  0  0  0  0  0  0  0  0  0  0  0  # atno 6909 bound_to 6896
  146.0946  139.5594  142.9454 H   0  0  0  0  0  0  0  0  0  0  0  0  # atno 7974 bound_to 7965
  155.1120  140.0397  157.2726 H   0  0  0  0  0  0  0  0  0  0  0  0  # atno 8008 bound_to 7997
  154.6678  140.2605  155.7014 H   0  0  0  0  0  0  0  0  0  0  0  0  # atno 8009 bound_to 7997
  156.2646  140.2804  156.1176 H   0  0  0  0  0  0  0  0  0  0  0  0  # atno 8010 bound_to 7997
  140.7251  143.4983  150.9902 H   0  0  0  0  0  0  0  0  0  0  0  0  # atno 10167 bound_to 10162
  155.9986  130.4791  150.4827 H   0  0  0  0  0  0  0  0  0  0  0  0  # atno 10718 bound_to 10713
  154.6304  135.2886  155.0223 H   0  0  0  0  0  0  0  0  0  0  0  0  # atno 10763 bound_to 10752
  154.1386  135.6522  153.4941 H   0  0  0  0  0  0  0  0  0  0  0  0  # atno 10764 bound_to 10752
  153.0277  135.5327  154.7129 H   0  0  0  0  0  0  0  0  0  0  0  0  # atno 10765 bound_to 10752
  140.6949  133.9039  155.8643 H   0  0  0  0  0  0  0  0  0  0  0  0  # atno 11005 bound_to 11000
  145.5974  141.0360  143.2037 LP  0  0  0  0  0  0  0  0  0  0  0  0  # atno 17320 bound_to 7965
  144.7385  139.7515  143.7320 LP  0  0  0  0  0  0  0  0  0  0  0  0  # atno 17321 bound_to 7965
  139.8691  143.7215  152.3168 LP  0  0  0  0  0  0  0  0  0  0  0  0  # atno 17342 bound_to 10162
  139.7458  144.7547  151.0583 LP  0  0  0  0  0  0  0  0  0  0  0  0  # atno 17343 bound_to 10162
  157.2831  131.0611  151.2184 LP  0  0  0  0  0  0  0  0  0  0  0  0  # atno 17370 bound_to 10713
  157.3224  130.6944  149.6277 LP  0  0  0  0  0  0  0  0  0  0  0  0  # atno 17371 bound_to 10713
  141.0211  134.0887  157.4119 LP  0  0  0  0  0  0  0  0  0  0  0  0  # atno 17394 bound_to 11000
  139.8913  135.0117  156.6783 LP  0  0  0  0  0  0  0  0  0  0  0  0  # atno 17395 bound_to 11000

$$$$
