AV-unprocessed.smi:1632|AV-procd|sdf|6528|dock6
  -GOLD-   22720 7203D 1   1.00000     0.00000
 Structure written by MMmdl.
 42 44  0  0  0  0  0  0  0  0  1 V2000
  153.6134  136.2566  160.2140 O   0  0  0  0  0  0  0  0  0  0  0  0
  153.5679  136.9744  158.9994 C   0  0  0  0  0  0  0  0  0  0  0  0
  153.3813  138.4750  159.2645 C   0  0  0  0  0  0  0  0  0  0  0  0
  152.3935  139.1470  158.2959 C   0  0  0  0  0  0  0  0  0  0  0  0
  152.1231  140.5837  158.6462 C   0  0  0  0  0  0  0  0  0  0  0  0
  152.9169  141.2338  159.4990 N   0  0  0  0  0  0  0  0  0  0  0  0
  152.3479  142.4891  159.5580 C   0  0  0  0  0  0  0  0  0  0  0  0
  152.7338  143.6392  160.2830 C   0  0  0  0  0  0  0  0  0  0  0  0
  151.9820  144.8285  160.1873 C   0  0  0  0  0  0  0  0  0  0  0  0
  150.8357  144.8834  159.3683 C   0  0  0  0  0  0  0  0  0  0  0  0
  150.4339  143.7477  158.6394 C   0  0  0  0  0  0  0  0  0  0  0  0
  151.1893  142.5633  158.7367 C   0  0  0  0  0  0  0  0  0  0  0  0
  151.0676  141.2985  158.1673 N   0  0  0  0  0  0  0  0  0  0  0  0
  149.9936  140.8928  157.2669 C   0  0  0  0  0  0  0  0  0  0  0  0
  150.2332  141.3400  155.8112 C   0  0  2  0  0  0  0  0  0  0  0  0
  150.3716  142.7465  155.8057 O   0  0  0  0  0  0  0  0  0  0  0  0
  149.1424  140.8704  154.8564 C   0  0  0  0  0  0  0  0  0  0  0  0
  148.1947  141.7898  154.3537 C   0  0  0  0  0  0  0  0  0  0  0  0
  147.1933  141.3645  153.4598 C   0  0  0  0  0  0  0  0  0  0  0  0
  147.1308  140.0155  153.0630 C   0  0  0  0  0  0  0  0  0  0  0  0
  148.0676  139.0920  153.5649 C   0  0  0  0  0  0  0  0  0  0  0  0
  149.0689  139.5148  154.4613 C   0  0  0  0  0  0  0  0  0  0  0  0
  149.9562  138.6096  154.9398 F   0  0  0  0  0  0  0  0  0  0  0  0
  153.7875  136.8641  160.9166 H   0  0  0  0  0  0  0  0  0  0  0  0
  154.5013  136.8034  158.4627 H   0  0  0  0  0  0  0  0  0  0  0  0
  152.7630  136.5856  158.3752 H   0  0  0  0  0  0  0  0  0  0  0  0
  153.0654  138.6327  160.2967 H   0  0  0  0  0  0  0  0  0  0  0  0
  154.3499  138.9629  159.1706 H   0  0  0  0  0  0  0  0  0  0  0  0
  152.7821  139.0554  157.2856 H   0  0  0  0  0  0  0  0  0  0  0  0
  151.4437  138.6114  158.3025 H   0  0  0  0  0  0  0  0  0  0  0  0
  153.6097  143.6060  160.9139 H   0  0  0  0  0  0  0  0  0  0  0  0
  152.2857  145.7018  160.7457 H   0  0  0  0  0  0  0  0  0  0  0  0
  150.2645  145.7976  159.3009 H   0  0  0  0  0  0  0  0  0  0  0  0
  149.5559  143.7873  158.0122 H   0  0  0  0  0  0  0  0  0  0  0  0
  149.8120  139.8222  157.3303 H   0  0  0  0  0  0  0  0  0  0  0  0
  149.0776  141.3562  157.6366 H   0  0  0  0  0  0  0  0  0  0  0  0
  151.1935  140.9477  155.4755 H   0  0  0  0  0  0  0  0  0  0  0  0
  149.5149  143.1309  155.6985 H   0  0  0  0  0  0  0  0  0  0  0  0
  148.2335  142.8272  154.6526 H   0  0  0  0  0  0  0  0  0  0  0  0
  146.4727  142.0734  153.0794 H   0  0  0  0  0  0  0  0  0  0  0  0
  146.3627  139.6883  152.3780 H   0  0  0  0  0  0  0  0  0  0  0  0
  148.0161  138.0558  153.2650 H   0  0  0  0  0  0  0  0  0  0  0  0
  1  2  1  0  0  0  0
  1 24  1  0  0  0  0
  2  3  1  0  0  0  0
  2 25  1  0  0  0  0
  2 26  1  0  0  0  0
  3  4  1  0  0  0  0
  3 27  1  0  0  0  0
  3 28  1  0  0  0  0
  4  5  1  0  0  0  0
  4 29  1  0  0  0  0
  4 30  1  0  0  0  0
  5 13  1  0  0  0  0
  5  6  2  0  0  0  0
  6  7  1  0  0  0  0
  7 12  2  0  0  0  0
  7  8  1  0  0  0  0
  8  9  2  0  0  0  0
  8 31  1  0  0  0  0
  9 10  1  0  0  0  0
  9 32  1  0  0  0  0
 10 11  2  0  0  0  0
 10 33  1  0  0  0  0
 11 12  1  0  0  0  0
 11 34  1  0  0  0  0
 12 13  1  0  0  0  0
 13 14  1  0  0  0  0
 14 15  1  0  0  0  0
 14 35  1  0  0  0  0
 14 36  1  0  0  0  0
 15 16  1  0  0  0  0
 15 17  1  0  0  0  0
 15 37  1  0  0  0  0
 16 38  1  0  0  0  0
 17 22  1  0  0  0  0
 17 18  2  0  0  0  0
 18 19  1  0  0  0  0
 18 39  1  0  0  0  0
 19 20  2  0  0  0  0
 19 40  1  0  0  0  0
 20 21  1  0  0  0  0
 20 41  1  0  0  0  0
 21 22  2  0  0  0  0
 21 42  1  0  0  0  0
 22 23  1  0  0  0  0
M  END
> <s_m_source_file>
AV-unprocessed.smi

> <i_m_source_file_index>
1632

> <i_lp_mmshare_version>
43012

> <i_f3d_flags>
0

> <s_epik_input>
W09IXVtDSDJdW0NIMl1bQ0gyXWMobjEpbihjKGMxMilbY0hdW2NIXVtjSF1bY0hdMilbQ0gyXVtDQEhdKFtPSF0pYzNbY0hdW2NIXVtjSF1bY0hdYzNG

> <s_epik_cmdline>
J2VwaWtfcHl0aG9uJywgJy1waCcsICc3LjAnLCAnLXRuJywgJzgnLCAnLW1hJywgJzIwMCcsICctbWV0YWxfYmluZGluZycsICctaW1hZScsICc8aW5maWxlLm1hZT4nLCAnLW9tYWUnLCAnPG91dGZpbGUubWFlPic=

> <r_epik_Ionization_Penalty>
0.182561

> <r_epik_Ionization_Penalty_Charging>
0

> <r_epik_Ionization_Penalty_Neutral>
0.182561

> <r_epik_State_Penalty>
0.172086

> <r_epik_Charging_Adjusted_Penalty>
0.172086

> <i_epik_Tot_Q>
0

> <i_epik_Tot_abs_Q>
0

> <r_epik_Metal_State_Penalty>
0.000199649

> <b_epik_Metal_Only>
0

> <s_lp_Force_Field>
OPLS_2005

> <r_lp_Energy>
12.9461

> <b_lp_Chiralities_Consistent>
1

> <s_lp_Variant>
AV-unprocessed.smi:1632-1

> <Gold.Version>
5.8.1

> <Gold.Id.Protein>
6NUR|6NUR_protein|mol2

> <Gold.PLP.Fitness>
49.8455

> <Gold.PLP.PLP>
-46.9809

> <Gold.PLP.part.hbond>
-1.7796

> <Gold.PLP.part.metal>
0.0000

> <Gold.PLP.part.buried>
-4.5857

> <Gold.PLP.part.nonpolar>
-40.2471

> <Gold.PLP.part.repulsive>
0.0000

> <Gold.PLP.ligand.clash>
0.0000

> <Gold.PLP.ligand.torsion>
1.1719

> <Gold.PLP.Chemscore.Hbond>
1.7200

> <Gold.PLP.Chemscore.CHOScore>
0.0000

> <Gold.PLP.Chemscore.Metal>
0.0000

> <Gold.Chemscore.Hbonds>
donor molecule, donor type, donor heavy atom, donor atom, acceptor molecule, acceptor atom, score
      L1  H    16    38       P1  8028  0.70
      P1  H  6896  6909       L1     1  1.00

> <Gold.PLP.Chemscore.Internal.Correction>
0.0483

> <Gold.Rescore>
     Score         DG    S(hbond)    S(metal)    S(lipo)     H(rot)  DE(clash)    DE(int)     intcor
     17.28     -18.48       1.80        0.00     126.88       3.07       0.04       1.16       ----

> <Gold.Chemscore.Fitness>
17.2752

> <Gold.Chemscore.DG>
-18.4778

> <Gold.Chemscore.ZeroCoef>
-5.4800

> <Gold.Chemscore.Hbond>
1.8031

> <Gold.Chemscore.Metal>
0.0000

> <Gold.Chemscore.Lipo>
126.8824

> <Gold.Chemscore.Internal_Hbond>
0.0000

> <Gold.Chemscore.DEClash>
0.0404

> <Gold.Chemscore.DEInternal>
1.1621

> <Gold.Chemscore.Rot>
3.0741

> <Gold.Chemscore.Internal.Correction>
   9.000000E+99

> <Gold.Chemscore.Hbonds>
donor molecule, donor type, donor heavy atom, donor atom, acceptor molecule, acceptor atom, score
      L1  H    16    38       P1  8028  0.72
      P1  H  6896  6909       L1     1  0.55

> <Gold.Chemscore.Hbond.Weighted>
-6.0224

> <Gold.Chemscore.Metal.Weighted>
-0.0000

> <Gold.Chemscore.Lipo.Weighted>
-14.8452

> <Gold.Chemscore.Internal_Hbond.Weighted>
0.0000

> <Gold.Chemscore.DEClash.Weighted>
0.0404

> <Gold.Chemscore.DEInternal.Weighted>
1.1621

> <Gold.Chemscore.Rot.Weighted>
7.8698

> <Gold.Chemscore.Internal.Correction.Weighted>
   9.000000E+99

> <Gold.Protein.RotatedTorsions>
[ 6907 6896 6895 6894 ] final  167.44 input  -60.11 | X-H torsion
[ 7974 7965 7964 7962 ] final  -94.26 input  175.53 | X-H torsion
[ 8008 7997 7996 7995 ] final   80.91 input   59.86 | X-H torsion
[ 10167 10162 10161 10158 ] final  -10.60 input  -65.29 | X-H torsion
[ 10718 10713 10712 10709 ] final   13.90 input   66.30 | X-H torsion
[ 10763 10752 10751 10750 ] final -175.38 input  -60.55 | X-H torsion
[ 11005 11000 10999 10996 ] final   17.33 input  -57.11 | X-H torsion

> <Gold.Protein.ActiveResidues>
 VAL166  LYS551  ARG553  GLY616  TRP617  ASP618  TYR619  PRO620  LYS621  CYS622 
 ASP623  PHE694  ASN695  SER759  ASP760  ASP761  ALA762  ILE779  LEU786  VAL792 
 PHE793  MET794  SER795  GLU796  ALA797  LYS798  CYS799  TRP800  GLU811  SER814 

> <Gold.Protein.RotatedAtoms>
  151.8633  133.3461  159.3710 H   0  0  0  0  0  0  0  0  0  0  0  0  # atno 6907 bound_to 6896
  150.7173  134.5185  159.5651 H   0  0  0  0  0  0  0  0  0  0  0  0  # atno 6908 bound_to 6896
  152.2703  134.7940  160.0466 H   0  0  0  0  0  0  0  0  0  0  0  0  # atno 6909 bound_to 6896
  145.3756  140.9511  143.2422 H   0  0  0  0  0  0  0  0  0  0  0  0  # atno 7974 bound_to 7965
  155.8900  140.3439  155.5949 H   0  0  0  0  0  0  0  0  0  0  0  0  # atno 8008 bound_to 7997
  155.7622  140.0834  157.2169 H   0  0  0  0  0  0  0  0  0  0  0  0  # atno 8009 bound_to 7997
  154.4032  140.1534  156.2833 H   0  0  0  0  0  0  0  0  0  0  0  0  # atno 8010 bound_to 7997
  140.7118  143.5730  150.9072 H   0  0  0  0  0  0  0  0  0  0  0  0  # atno 10167 bound_to 10162
  157.0314  130.6194  149.5736 H   0  0  0  0  0  0  0  0  0  0  0  0  # atno 10718 bound_to 10713
  154.5850  135.2840  155.0694 H   0  0  0  0  0  0  0  0  0  0  0  0  # atno 10763 bound_to 10752
  154.2015  135.6423  153.5092 H   0  0  0  0  0  0  0  0  0  0  0  0  # atno 10764 bound_to 10752
  153.0101  135.5470  154.6517 H   0  0  0  0  0  0  0  0  0  0  0  0  # atno 10765 bound_to 10752
  140.4372  134.1359  155.7686 H   0  0  0  0  0  0  0  0  0  0  0  0  # atno 11005 bound_to 11000
  144.8545  139.5271  143.6841 LP  0  0  0  0  0  0  0  0  0  0  0  0  # atno 17320 bound_to 7965
  146.2865  139.7020  142.9191 LP  0  0  0  0  0  0  0  0  0  0  0  0  # atno 17321 bound_to 7965
  139.9456  143.6331  152.3042 LP  0  0  0  0  0  0  0  0  0  0  0  0  # atno 17342 bound_to 10162
  139.6832  144.7654  151.1572 LP  0  0  0  0  0  0  0  0  0  0  0  0  # atno 17343 bound_to 10162
  156.0068  130.5156  150.7858 LP  0  0  0  0  0  0  0  0  0  0  0  0  # atno 17370 bound_to 10713
  157.5175  131.0929  151.0121 LP  0  0  0  0  0  0  0  0  0  0  0  0  # atno 17371 bound_to 10713
  141.1721  133.8588  157.1538 LP  0  0  0  0  0  0  0  0  0  0  0  0  # atno 17394 bound_to 11000
  140.0094  134.9994  157.0363 LP  0  0  0  0  0  0  0  0  0  0  0  0  # atno 17395 bound_to 11000

$$$$
