AV-unprocessed.smi:447|AV-procd|sdf|2599|dock2
  -GOLD-   2262022593D 1   1.00000     0.00000
 Structure written by MMmdl.
 45 47  0  0  0  0  0  0  0  0  1 V2000
  141.0466  138.1346  158.2851 C   0  0  0  0  0  0  0  0  0  0  0  0
  141.0603  136.9824  159.2843 C   0  0  0  0  0  0  0  0  0  0  0  0
  140.6049  135.8866  158.9595 O   0  0  0  0  0  0  0  0  0  0  0  0
  141.5866  137.2394  160.4923 N   0  0  0  0  0  0  0  0  0  0  0  0
  141.7151  136.2733  161.5832 C   0  0  2  0  0  0  0  0  0  0  0  0
  140.9989  136.7946  162.8356 C   0  0  0  0  0  0  0  0  0  0  0  0
  143.1792  136.0099  161.8407 C   0  0  0  0  0  0  0  0  0  0  0  0
  144.0327  136.9823  162.1755 N   0  0  0  0  0  0  0  0  0  0  0  0
  145.2284  136.3083  162.3179 C   0  0  0  0  0  0  0  0  0  0  0  0
  146.5161  136.7850  162.6523 C   0  0  0  0  0  0  0  0  0  0  0  0
  147.6057  135.8943  162.7420 C   0  0  0  0  0  0  0  0  0  0  0  0
  147.4233  134.5176  162.4991 C   0  0  0  0  0  0  0  0  0  0  0  0
  146.1478  134.0224  162.1657 C   0  0  0  0  0  0  0  0  0  0  0  0
  145.0634  134.9158  162.0774 C   0  0  0  0  0  0  0  0  0  0  0  0
  143.7123  134.7620  161.7802 N   0  0  0  0  0  0  0  0  0  0  0  0
  143.0393  133.5061  161.4751 C   0  0  0  0  0  0  0  0  0  0  0  0
  142.8368  133.2886  159.9621 C   0  0  1  0  0  0  0  0  0  0  0  0
  143.9617  133.7657  159.2499 O   0  0  0  0  0  0  0  0  0  0  0  0
  142.5311  131.8325  159.6497 C   0  0  0  0  0  0  0  0  0  0  0  0
  142.3843  131.3969  158.3142 C   0  0  0  0  0  0  0  0  0  0  0  0
  142.1084  130.0440  158.0354 C   0  0  0  0  0  0  0  0  0  0  0  0
  141.9806  129.1192  159.0896 C   0  0  0  0  0  0  0  0  0  0  0  0
  142.1305  129.5474  160.4225 C   0  0  0  0  0  0  0  0  0  0  0  0
  142.4063  130.8999  160.7019 C   0  0  0  0  0  0  0  0  0  0  0  0
  141.5582  139.0138  158.6783 H   0  0  0  0  0  0  0  0  0  0  0  0
  140.0198  138.4134  158.0474 H   0  0  0  0  0  0  0  0  0  0  0  0
  141.5429  137.8371  157.3612 H   0  0  0  0  0  0  0  0  0  0  0  0
  141.9455  138.1672  160.6644 H   0  0  0  0  0  0  0  0  0  0  0  0
  141.2186  135.3537  161.2743 H   0  0  0  0  0  0  0  0  0  0  0  0
  141.0612  136.0705  163.6485 H   0  0  0  0  0  0  0  0  0  0  0  0
  139.9425  136.9771  162.6368 H   0  0  0  0  0  0  0  0  0  0  0  0
  141.4397  137.7279  163.1873 H   0  0  0  0  0  0  0  0  0  0  0  0
  146.6653  137.8381  162.8392 H   0  0  0  0  0  0  0  0  0  0  0  0
  148.5859  136.2698  162.9972 H   0  0  0  0  0  0  0  0  0  0  0  0
  148.2632  133.8417  162.5673 H   0  0  0  0  0  0  0  0  0  0  0  0
  146.0053  132.9691  161.9748 H   0  0  0  0  0  0  0  0  0  0  0  0
  143.6213  132.6871  161.8993 H   0  0  0  0  0  0  0  0  0  0  0  0
  142.0819  133.4881  161.9965 H   0  0  0  0  0  0  0  0  0  0  0  0
  141.9902  133.8864  159.6267 H   0  0  0  0  0  0  0  0  0  0  0  0
  143.6555  134.2472  158.4966 H   0  0  0  0  0  0  0  0  0  0  0  0
  142.4846  132.0988  157.4991 H   0  0  0  0  0  0  0  0  0  0  0  0
  141.9958  129.7156  157.0127 H   0  0  0  0  0  0  0  0  0  0  0  0
  141.7693  128.0818  158.8757 H   0  0  0  0  0  0  0  0  0  0  0  0
  142.0347  128.8379  161.2313 H   0  0  0  0  0  0  0  0  0  0  0  0
  142.5223  131.2190  161.7276 H   0  0  0  0  0  0  0  0  0  0  0  0
  1  2  1  0  0  0  0
  1 25  1  0  0  0  0
  1 26  1  0  0  0  0
  1 27  1  0  0  0  0
  2  3  2  0  0  0  0
  2  4  1  0  0  0  0
  4  5  1  0  0  0  0
  4 28  1  0  0  0  0
  5  6  1  0  0  0  0
  5  7  1  0  0  0  0
  5 29  1  0  0  0  0
  6 30  1  0  0  0  0
  6 31  1  0  0  0  0
  6 32  1  0  0  0  0
  7 15  1  0  0  0  0
  7  8  2  0  0  0  0
  8  9  1  0  0  0  0
  9 14  2  0  0  0  0
  9 10  1  0  0  0  0
 10 11  2  0  0  0  0
 10 33  1  0  0  0  0
 11 12  1  0  0  0  0
 11 34  1  0  0  0  0
 12 13  2  0  0  0  0
 12 35  1  0  0  0  0
 13 14  1  0  0  0  0
 13 36  1  0  0  0  0
 14 15  1  0  0  0  0
 15 16  1  0  0  0  0
 16 17  1  0  0  0  0
 16 37  1  0  0  0  0
 16 38  1  0  0  0  0
 17 18  1  0  0  0  0
 17 19  1  0  0  0  0
 17 39  1  0  0  0  0
 18 40  1  0  0  0  0
 19 24  1  0  0  0  0
 19 20  2  0  0  0  0
 20 21  1  0  0  0  0
 20 41  1  0  0  0  0
 21 22  2  0  0  0  0
 21 42  1  0  0  0  0
 22 23  1  0  0  0  0
 22 43  1  0  0  0  0
 23 24  2  0  0  0  0
 23 44  1  0  0  0  0
 24 45  1  0  0  0  0
M  END
> <s_m_source_file>
AV-unprocessed.smi

> <i_m_source_file_index>
447

> <i_lp_mmshare_version>
43012

> <i_f3d_flags>
0

> <s_epik_input>
W0NIM11DKD1PKVtOSF1bQ0BIXShbQ0gzXSljKG4xKW4oYyhjMTIpW2NIXVtjSF1bY0hdW2NIXTIpW0NIMl1bQ0BIXShbT0hdKWMzW2NIXVtjSF1bY0hdW2NIXVtjSF0z

> <s_epik_cmdline>
J2VwaWtfcHl0aG9uJywgJy1waCcsICc3LjAnLCAnLXRuJywgJzgnLCAnLW1hJywgJzIwMCcsICctbWV0YWxfYmluZGluZycsICctaW1hZScsICc8aW5maWxlLm1hZT4nLCAnLW9tYWUnLCAnPG91dGZpbGUubWFlPic=

> <r_epik_Ionization_Penalty>
0.13301

> <r_epik_Ionization_Penalty_Charging>
0

> <r_epik_Ionization_Penalty_Neutral>
0.13301

> <r_epik_State_Penalty>
0.122384

> <r_epik_Charging_Adjusted_Penalty>
0.122384

> <i_epik_Tot_Q>
0

> <i_epik_Tot_abs_Q>
0

> <r_epik_Metal_State_Penalty>
0.0997374

> <b_epik_Metal_Only>
0

> <s_lp_Force_Field>
OPLS_2005

> <r_lp_Energy>
6.23771

> <b_lp_Chiralities_Consistent>
1

> <s_lp_Variant>
AV-unprocessed.smi:447-3

> <Gold.Version>
5.8.1

> <Gold.Id.Protein>
6NUR|6NUR_protein|mol2

> <Gold.PLP.Fitness>
42.7468

> <Gold.PLP.PLP>
-40.8556

> <Gold.PLP.part.hbond>
-1.0000

> <Gold.PLP.part.metal>
0.0000

> <Gold.PLP.part.buried>
-6.8425

> <Gold.PLP.part.nonpolar>
-32.7215

> <Gold.PLP.part.repulsive>
0.0703

> <Gold.PLP.ligand.clash>
0.0000

> <Gold.PLP.ligand.torsion>
0.5785

> <Gold.PLP.Chemscore.Hbond>
1.0000

> <Gold.PLP.Chemscore.CHOScore>
0.0000

> <Gold.PLP.Chemscore.Metal>
0.0000

> <Gold.Chemscore.Hbonds>
donor molecule, donor type, donor heavy atom, donor atom, acceptor molecule, acceptor atom, score
      P1  H 11000 11005       L1     3  1.00

> <Gold.PLP.Chemscore.Internal.Correction>
0.0482

> <Gold.Rescore>
     Score         DG    S(hbond)    S(metal)    S(lipo)     H(rot)  DE(clash)    DE(int)     intcor
     14.59     -15.03       1.00        0.00     104.57       2.35       0.05       0.40       ----

> <Gold.Chemscore.Fitness>
14.5867

> <Gold.Chemscore.DG>
-15.0308

> <Gold.Chemscore.ZeroCoef>
-5.4800

> <Gold.Chemscore.Hbond>
0.9999

> <Gold.Chemscore.Metal>
0.0000

> <Gold.Chemscore.Lipo>
104.5679

> <Gold.Chemscore.Internal_Hbond>
0.0000

> <Gold.Chemscore.DEClash>
0.0473

> <Gold.Chemscore.DEInternal>
0.3968

> <Gold.Chemscore.Rot>
2.3528

> <Gold.Chemscore.Internal.Correction>
   9.000000E+99

> <Gold.Chemscore.Hbonds>
donor molecule, donor type, donor heavy atom, donor atom, acceptor molecule, acceptor atom, score
      P1  H 11000 11005       L1     3  1.00

> <Gold.Chemscore.Hbond.Weighted>
-3.3395

> <Gold.Chemscore.Metal.Weighted>
-0.0000

> <Gold.Chemscore.Lipo.Weighted>
-12.2344

> <Gold.Chemscore.Internal_Hbond.Weighted>
0.0000

> <Gold.Chemscore.DEClash.Weighted>
0.0473

> <Gold.Chemscore.DEInternal.Weighted>
0.3968

> <Gold.Chemscore.Rot.Weighted>
6.0231

> <Gold.Chemscore.Internal.Correction.Weighted>
   9.000000E+99

> <Gold.Protein.RotatedTorsions>
[ 6907 6896 6895 6894 ] final  158.23 input  -60.11 | X-H torsion
[ 7974 7965 7964 7962 ] final   76.77 input  175.53 | X-H torsion
[ 8008 7997 7996 7995 ] final -179.04 input   59.86 | X-H torsion
[ 10167 10162 10161 10158 ] final -162.78 input  -65.29 | X-H torsion
[ 10718 10713 10712 10709 ] final   17.52 input   66.30 | X-H torsion
[ 10763 10752 10751 10750 ] final -176.64 input  -60.55 | X-H torsion
[ 11005 11000 10999 10996 ] final  176.42 input  -57.11 | X-H torsion

> <Gold.Protein.ActiveResidues>
 VAL166  LYS551  ARG553  GLY616  TRP617  ASP618  TYR619  PRO620  LYS621  CYS622 
 ASP623  PHE694  ASN695  SER759  ASP760  ASP761  ALA762  ILE779  LEU786  VAL792 
 PHE793  MET794  SER795  GLU796  ALA797  LYS798  CYS799  TRP800  GLU811  SER814 

> <Gold.Protein.RotatedAtoms>
  152.0034  133.3834  159.4190 H   0  0  0  0  0  0  0  0  0  0  0  0  # atno 6907 bound_to 6896
  150.6907  134.3809  159.5043 H   0  0  0  0  0  0  0  0  0  0  0  0  # atno 6908 bound_to 6896
  152.1559  134.8950  160.0595 H   0  0  0  0  0  0  0  0  0  0  0  0  # atno 6909 bound_to 6896
  145.6985  139.2575  143.1719 H   0  0  0  0  0  0  0  0  0  0  0  0  # atno 7974 bound_to 7965
  156.0259  140.1271  157.0309 H   0  0  0  0  0  0  0  0  0  0  0  0  # atno 8008 bound_to 7997
  154.4330  140.1059  156.6100 H   0  0  0  0  0  0  0  0  0  0  0  0  # atno 8009 bound_to 7997
  155.5878  140.3469  155.4560 H   0  0  0  0  0  0  0  0  0  0  0  0  # atno 8010 bound_to 7997
  139.6368  144.0335  152.2060 H   0  0  0  0  0  0  0  0  0  0  0  0  # atno 10167 bound_to 10162
  157.0832  130.6397  149.5831 H   0  0  0  0  0  0  0  0  0  0  0  0  # atno 10718 bound_to 10713
  154.5699  135.2827  155.0837 H   0  0  0  0  0  0  0  0  0  0  0  0  # atno 10763 bound_to 10752
  154.2214  135.6390  153.5149 H   0  0  0  0  0  0  0  0  0  0  0  0  # atno 10764 bound_to 10752
  153.0054  135.5515  154.6319 H   0  0  0  0  0  0  0  0  0  0  0  0  # atno 10765 bound_to 10752
  140.3730  134.7013  157.4404 H   0  0  0  0  0  0  0  0  0  0  0  0  # atno 11005 bound_to 11000
  146.0819  140.7755  142.9637 LP  0  0  0  0  0  0  0  0  0  0  0  0  # atno 17320 bound_to 7965
  144.6975  140.3501  143.7183 LP  0  0  0  0  0  0  0  0  0  0  0  0  # atno 17321 bound_to 7965
  140.0015  144.6290  150.7726 LP  0  0  0  0  0  0  0  0  0  0  0  0  # atno 17342 bound_to 10162
  140.7469  143.2898  151.3361 LP  0  0  0  0  0  0  0  0  0  0  0  0  # atno 17343 bound_to 10162
  155.9918  130.4973  150.7313 LP  0  0  0  0  0  0  0  0  0  0  0  0  # atno 17370 bound_to 10713
  157.4782  131.0900  151.0566 LP  0  0  0  0  0  0  0  0  0  0  0  0  # atno 17371 bound_to 10713
  140.0537  134.6094  155.8831 LP  0  0  0  0  0  0  0  0  0  0  0  0  # atno 17394 bound_to 11000
  141.1948  133.6584  156.5614 LP  0  0  0  0  0  0  0  0  0  0  0  0  # atno 17395 bound_to 11000

$$$$
