AV-unprocessed.smi:1824|AV-procd|sdf|7397|dock4
  -GOLD-   22720 9 63D 1   1.00000     0.00000
 Structure written by MMmdl.
 44 46  0  0  0  0  0  0  0  0  1 V2000
  153.2356  140.2332  159.1406 C   0  0  0  0  0  0  0  0  0  0  0  0
  152.3377  139.7125  158.0134 C   0  0  1  0  0  0  0  0  0  0  0  0
  151.6410  140.8554  157.2531 C   0  0  0  0  0  0  0  0  0  0  0  0
  150.8543  140.3630  156.1293 N   0  0  0  0  0  0  0  0  0  0  0  0
  150.1639  141.4591  155.4496 C   0  0  0  0  0  0  0  0  0  0  0  0
  149.1154  141.0257  154.4025 C   0  0  2  0  0  0  0  0  0  0  0  0
  149.7767  140.6691  153.2029 O   0  0  0  0  0  0  0  0  0  0  0  0
  148.1100  142.1524  154.0929 C   0  0  0  0  0  0  0  0  0  0  0  0
  147.1580  142.3601  155.1699 N   0  0  0  0  0  0  0  0  0  0  0  0
  147.1172  141.7226  156.3559 C   0  0  0  0  0  0  0  0  0  0  0  0
  146.1523  142.0714  157.2023 N   0  0  0  0  0  0  0  0  0  0  0  0
  145.4885  143.0495  156.4818 C   0  0  0  0  0  0  0  0  0  0  0  0
  144.3594  143.8296  156.8185 C   0  0  0  0  0  0  0  0  0  0  0  0
  143.8503  144.7804  155.9093 C   0  0  0  0  0  0  0  0  0  0  0  0
  142.7670  145.5193  156.2477 F   0  0  0  0  0  0  0  0  0  0  0  0
  144.4624  144.9653  154.6515 C   0  0  0  0  0  0  0  0  0  0  0  0
  143.9674  145.8804  153.7844 F   0  0  0  0  0  0  0  0  0  0  0  0
  145.5889  144.2000  154.2941 C   0  0  0  0  0  0  0  0  0  0  0  0
  146.0926  143.2527  155.2044 C   0  0  0  0  0  0  0  0  0  0  0  0
  151.7271  139.6076  155.2336 C   0  0  0  0  0  0  0  0  0  0  0  0
  152.4765  138.4680  155.9525 C   0  0  2  0  0  0  0  0  0  0  0  0
  151.5759  137.2682  156.2920 C   0  0  0  0  0  0  0  0  0  0  0  0
  153.1512  138.9686  157.1080 O   0  0  0  0  0  0  0  0  0  0  0  0
  152.6596  140.8020  159.8708 H   0  0  0  0  0  0  0  0  0  0  0  0
  154.0194  140.8840  158.7521 H   0  0  0  0  0  0  0  0  0  0  0  0
  153.7175  139.4088  159.6667 H   0  0  0  0  0  0  0  0  0  0  0  0
  151.5864  139.0542  158.4504 H   0  0  0  0  0  0  0  0  0  0  0  0
  150.9973  141.4026  157.9429 H   0  0  0  0  0  0  0  0  0  0  0  0
  152.3888  141.5654  156.8960 H   0  0  0  0  0  0  0  0  0  0  0  0
  149.6408  142.0367  156.2130 H   0  0  0  0  0  0  0  0  0  0  0  0
  150.8832  142.1514  155.0089 H   0  0  0  0  0  0  0  0  0  0  0  0
  148.5652  140.1578  154.7691 H   0  0  0  0  0  0  0  0  0  0  0  0
  149.1966  140.1290  152.6886 H   0  0  0  0  0  0  0  0  0  0  0  0
  148.6372  143.0924  153.9251 H   0  0  0  0  0  0  0  0  0  0  0  0
  147.5610  141.9346  153.1754 H   0  0  0  0  0  0  0  0  0  0  0  0
  147.8387  140.9607  156.6141 H   0  0  0  0  0  0  0  0  0  0  0  0
  143.8833  143.6969  157.7786 H   0  0  0  0  0  0  0  0  0  0  0  0
  146.0608  144.3405  153.3330 H   0  0  0  0  0  0  0  0  0  0  0  0
  151.1537  139.1863  154.4083 H   0  0  0  0  0  0  0  0  0  0  0  0
  152.4579  140.2836  154.7869 H   0  0  0  0  0  0  0  0  0  0  0  0
  153.2528  138.1018  155.2802 H   0  0  0  0  0  0  0  0  0  0  0  0
  151.1567  136.8303  155.3859 H   0  0  0  0  0  0  0  0  0  0  0  0
  150.7406  137.5504  156.9324 H   0  0  0  0  0  0  0  0  0  0  0  0
  152.1417  136.4896  156.8037 H   0  0  0  0  0  0  0  0  0  0  0  0
  1  2  1  0  0  0  0
  1 24  1  0  0  0  0
  1 25  1  0  0  0  0
  1 26  1  0  0  0  0
  2 23  1  0  0  0  0
  2  3  1  0  0  0  0
  2 27  1  0  0  0  0
  3  4  1  0  0  0  0
  3 28  1  0  0  0  0
  3 29  1  0  0  0  0
  4  5  1  0  0  0  0
  4 20  1  0  0  0  0
  5  6  1  0  0  0  0
  5 30  1  0  0  0  0
  5 31  1  0  0  0  0
  6  7  1  0  0  0  0
  6  8  1  0  0  0  0
  6 32  1  0  0  0  0
  7 33  1  0  0  0  0
  8  9  1  0  0  0  0
  8 34  1  0  0  0  0
  8 35  1  0  0  0  0
  9 19  1  0  0  0  0
  9 10  1  0  0  0  0
 10 11  2  0  0  0  0
 10 36  1  0  0  0  0
 11 12  1  0  0  0  0
 12 19  2  0  0  0  0
 12 13  1  0  0  0  0
 13 14  2  0  0  0  0
 13 37  1  0  0  0  0
 14 15  1  0  0  0  0
 14 16  1  0  0  0  0
 16 17  1  0  0  0  0
 16 18  2  0  0  0  0
 18 19  1  0  0  0  0
 18 38  1  0  0  0  0
 20 21  1  0  0  0  0
 20 39  1  0  0  0  0
 20 40  1  0  0  0  0
 21 22  1  0  0  0  0
 21 23  1  0  0  0  0
 21 41  1  0  0  0  0
 22 42  1  0  0  0  0
 22 43  1  0  0  0  0
 22 44  1  0  0  0  0
M  END
> <s_m_source_file>
AV-unprocessed.smi

> <i_m_source_file_index>
1824

> <i_lp_mmshare_version>
43012

> <i_f3d_flags>
0

> <s_epik_input>
W0NIM11bQ0BASF0xW0NIMl1OKFtDSDJdW0NASF0oTzEpW0NIM10pW0NIMl1bQ0BIXShbT0hdKVtDSDJdbihbY0hdbjIpYyhjMjMpW2NIXWMoRiljKEYpW2NIXTM=

> <s_epik_cmdline>
J2VwaWtfcHl0aG9uJywgJy1waCcsICc3LjAnLCAnLXRuJywgJzgnLCAnLW1hJywgJzIwMCcsICctbWV0YWxfYmluZGluZycsICctaW1hZScsICc8aW5maWxlLm1hZT4nLCAnLW9tYWUnLCAnPG91dGZpbGUubWFlPic=

> <r_epik_Ionization_Penalty>
0.273778

> <r_epik_Ionization_Penalty_Charging>
0

> <r_epik_Ionization_Penalty_Neutral>
0.273778

> <r_epik_State_Penalty>
0.246794

> <r_epik_Charging_Adjusted_Penalty>
0.246794

> <i_epik_Tot_Q>
0

> <i_epik_Tot_abs_Q>
0

> <r_epik_Metal_State_Penalty>
0.238234

> <b_epik_Metal_Only>
0

> <s_lp_Force_Field>
OPLS_2005

> <r_lp_Energy>
30.6075

> <b_lp_Chiralities_Consistent>
1

> <s_lp_Variant>
AV-unprocessed.smi:1824-5

> <Gold.Version>
5.8.1

> <Gold.Id.Protein>
6NUR|6NUR_protein|mol2

> <Gold.PLP.Fitness>
45.7948

> <Gold.PLP.PLP>
-38.5927

> <Gold.PLP.part.hbond>
-1.9057

> <Gold.PLP.part.metal>
0.0000

> <Gold.PLP.part.buried>
-1.2199

> <Gold.PLP.part.nonpolar>
-33.0419

> <Gold.PLP.part.repulsive>
0.0474

> <Gold.PLP.ligand.clash>
0.0000

> <Gold.PLP.ligand.torsion>
0.3261

> <Gold.PLP.Chemscore.Hbond>
2.6080

> <Gold.PLP.Chemscore.CHOScore>
0.0000

> <Gold.PLP.Chemscore.Metal>
0.0000

> <Gold.Chemscore.Hbonds>
donor molecule, donor type, donor heavy atom, donor atom, acceptor molecule, acceptor atom, score
      L1  H     7    33       P1  7957  0.27
      P1  H  7989  7998       L1     7  0.27
      P1  H  7997  8010       L1    23  1.00
      P1  H  8011  8017       L1     7  1.00

> <Gold.PLP.Chemscore.Internal.Correction>
0.0303

> <Gold.Rescore>
     Score         DG    S(hbond)    S(metal)    S(lipo)     H(rot)  DE(clash)    DE(int)     intcor
     13.71     -14.54       1.88        0.00      73.34       2.26       0.38       0.45       ----

> <Gold.Chemscore.Fitness>
13.7056

> <Gold.Chemscore.DG>
-14.5396

> <Gold.Chemscore.ZeroCoef>
-5.4800

> <Gold.Chemscore.Hbond>
1.8770

> <Gold.Chemscore.Metal>
0.0000

> <Gold.Chemscore.Lipo>
73.3404

> <Gold.Chemscore.Internal_Hbond>
0.0000

> <Gold.Chemscore.DEClash>
0.3838

> <Gold.Chemscore.DEInternal>
0.4502

> <Gold.Chemscore.Rot>
2.2619

> <Gold.Chemscore.Internal.Correction>
   9.000000E+99

> <Gold.Chemscore.Hbonds>
donor molecule, donor type, donor heavy atom, donor atom, acceptor molecule, acceptor atom, score
      L1  H     7    33       P1  7957  0.26
      P1  H  7989  7998       L1     7  0.20
      P1  H  7997  8010       L1    23  0.30
      P1  H  8011  8017       L1     7  0.14

> <Gold.Chemscore.Hbond.Weighted>
-6.2692

> <Gold.Chemscore.Metal.Weighted>
-0.0000

> <Gold.Chemscore.Lipo.Weighted>
-8.5808

> <Gold.Chemscore.Internal_Hbond.Weighted>
0.0000

> <Gold.Chemscore.DEClash.Weighted>
0.3838

> <Gold.Chemscore.DEInternal.Weighted>
0.4502

> <Gold.Chemscore.Rot.Weighted>
5.7904

> <Gold.Chemscore.Internal.Correction.Weighted>
   9.000000E+99

> <Gold.Protein.RotatedTorsions>
[ 6907 6896 6895 6894 ] final   20.92 input  -60.11 | X-H torsion
[ 7974 7965 7964 7962 ] final -117.11 input  175.53 | X-H torsion
[ 8008 7997 7996 7995 ] final   68.83 input   59.86 | X-H torsion
[ 10167 10162 10161 10158 ] final  -22.17 input  -65.29 | X-H torsion
[ 10718 10713 10712 10709 ] final   67.82 input   66.30 | X-H torsion
[ 10763 10752 10751 10750 ] final  -89.94 input  -60.55 | X-H torsion
[ 11005 11000 10999 10996 ] final  -90.28 input  -57.11 | X-H torsion

> <Gold.Protein.ActiveResidues>
 VAL166  LYS551  ARG553  GLY616  TRP617  ASP618  TYR619  PRO620  LYS621  CYS622 
 ASP623  PHE694  ASN695  SER759  ASP760  ASP761  ALA762  ILE779  LEU786  VAL792 
 PHE793  MET794  SER795  GLU796  ALA797  LYS798  CYS799  TRP800  GLU811  SER814 

> <Gold.Protein.RotatedAtoms>
  151.9038  135.0367  160.0508 H   0  0  0  0  0  0  0  0  0  0  0  0  # atno 6907 bound_to 6896
  152.2336  133.5074  159.5238 H   0  0  0  0  0  0  0  0  0  0  0  0  # atno 6908 bound_to 6896
  150.7033  134.1099  159.4039 H   0  0  0  0  0  0  0  0  0  0  0  0  # atno 6909 bound_to 6896
  145.0890  140.8477  143.3994 H   0  0  0  0  0  0  0  0  0  0  0  0  # atno 7974 bound_to 7965
  155.7143  140.3494  155.4988 H   0  0  0  0  0  0  0  0  0  0  0  0  # atno 8008 bound_to 7997
  155.9327  140.1087  157.1141 H   0  0  0  0  0  0  0  0  0  0  0  0  # atno 8009 bound_to 7997
  154.4088  140.1228  156.4810 H   0  0  0  0  0  0  0  0  0  0  0  0  # atno 8010 bound_to 7997
  140.7285  143.4560  151.0448 H   0  0  0  0  0  0  0  0  0  0  0  0  # atno 10167 bound_to 10162
  157.6253  130.9341  150.0293 H   0  0  0  0  0  0  0  0  0  0  0  0  # atno 10718 bound_to 10713
  154.6605  135.5322  153.8012 H   0  0  0  0  0  0  0  0  0  0  0  0  # atno 10763 bound_to 10752
  153.0439  135.6504  154.0879 H   0  0  0  0  0  0  0  0  0  0  0  0  # atno 10764 bound_to 10752
  154.0788  135.2948  155.3274 H   0  0  0  0  0  0  0  0  0  0  0  0  # atno 10765 bound_to 10752
  141.1569  133.7682  156.9715 H   0  0  0  0  0  0  0  0  0  0  0  0  # atno 11005 bound_to 11000
  145.1088  139.2771  143.5648 LP  0  0  0  0  0  0  0  0  0  0  0  0  # atno 17320 bound_to 7965
  146.3531  140.0678  142.8625 LP  0  0  0  0  0  0  0  0  0  0  0  0  # atno 17321 bound_to 7965
  139.8240  143.7781  152.3178 LP  0  0  0  0  0  0  0  0  0  0  0  0  # atno 17342 bound_to 10162
  139.7874  144.7423  151.0003 LP  0  0  0  0  0  0  0  0  0  0  0  0  # atno 17343 bound_to 10162
  156.1421  130.3642  149.9566 LP  0  0  0  0  0  0  0  0  0  0  0  0  # atno 17370 bound_to 10713
  156.7605  130.9149  151.3641 LP  0  0  0  0  0  0  0  0  0  0  0  0  # atno 17371 bound_to 10713
  140.1126  134.9467  157.2087 LP  0  0  0  0  0  0  0  0  0  0  0  0  # atno 17394 bound_to 11000
  140.3174  134.2955  155.7253 LP  0  0  0  0  0  0  0  0  0  0  0  0  # atno 17395 bound_to 11000

$$$$
