AV-unprocessed.smi:3204|AV-procd|sdf|12253|dock7
  -GOLD-   2272018 83D 1   1.00000     0.00000
 Structure written by MMmdl.
 30 31  0  0  0  0  0  0  0  0  1 V2000
  151.0047  144.9669  159.2763 C   0  0  0  0  0  0  0  0  0  0  0  0
  152.4452  144.4675  159.1171 C   0  0  0  0  0  0  0  0  0  0  0  0
  152.5344  142.9528  159.1376 C   0  0  0  0  0  0  0  0  0  0  0  0
  153.2901  142.4019  160.1139 N   0  0  0  0  0  0  0  0  0  0  0  0
  153.3588  141.0690  160.1411 C   0  0  0  0  0  0  0  0  0  0  0  0
  152.7548  140.2207  159.3049 N   0  0  0  0  0  0  0  0  0  0  0  0
  151.9902  140.7568  158.3233 C   0  0  0  0  0  0  0  0  0  0  0  0
  151.3254  139.9120  157.4230 N   0  0  0  0  0  0  0  0  0  0  0  0
  152.0520  138.9752  156.5732 C   0  0  1  0  0  0  0  0  0  0  0  0
  151.4268  137.5803  156.6259 C   0  0  0  0  0  0  0  0  0  0  0  0
  151.7610  137.0167  155.3710 O   0  0  0  0  0  0  0  0  0  0  0  0
  151.5584  138.0281  154.3963 C   0  0  0  0  0  0  0  0  0  0  0  0
  151.9885  139.3305  155.0839 C   0  0  2  0  0  0  0  0  0  0  0  0
  153.2657  139.7089  154.6120 O   0  0  0  0  0  0  0  0  0  0  0  0
  151.8465  142.1553  158.1969 C   0  0  0  0  0  0  0  0  0  0  0  0
  151.0794  142.7043  157.2233 F   0  0  0  0  0  0  0  0  0  0  0  0
  150.9674  146.0563  159.2607 H   0  0  0  0  0  0  0  0  0  0  0  0
  150.5727  144.6324  160.2201 H   0  0  0  0  0  0  0  0  0  0  0  0
  150.3711  144.6001  158.4683 H   0  0  0  0  0  0  0  0  0  0  0  0
  152.8680  144.8460  158.1860 H   0  0  0  0  0  0  0  0  0  0  0  0
  153.0646  144.8711  159.9190 H   0  0  0  0  0  0  0  0  0  0  0  0
  153.9649  140.6311  160.9201 H   0  0  0  0  0  0  0  0  0  0  0  0
  150.3222  139.9793  157.3277 H   0  0  0  0  0  0  0  0  0  0  0  0
  153.0897  138.8978  156.9026 H   0  0  0  0  0  0  0  0  0  0  0  0
  151.8079  136.9805  157.4527 H   0  0  0  0  0  0  0  0  0  0  0  0
  150.3394  137.6294  156.7116 H   0  0  0  0  0  0  0  0  0  0  0  0
  152.1043  137.8143  153.4765 H   0  0  0  0  0  0  0  0  0  0  0  0
  150.4960  138.0659  154.1511 H   0  0  0  0  0  0  0  0  0  0  0  0
  151.2763  140.1285  154.8692 H   0  0  0  0  0  0  0  0  0  0  0  0
  153.2573  139.6654  153.6676 H   0  0  0  0  0  0  0  0  0  0  0  0
  1  2  1  0  0  0  0
  1 17  1  0  0  0  0
  1 18  1  0  0  0  0
  1 19  1  0  0  0  0
  2  3  1  0  0  0  0
  2 20  1  0  0  0  0
  2 21  1  0  0  0  0
  3 15  1  0  0  0  0
  3  4  2  0  0  0  0
  4  5  1  0  0  0  0
  5  6  2  0  0  0  0
  5 22  1  0  0  0  0
  6  7  1  0  0  0  0
  7  8  1  0  0  0  0
  7 15  2  0  0  0  0
  8  9  1  0  0  0  0
  8 23  1  0  0  0  0
  9 13  1  0  0  0  0
  9 10  1  0  0  0  0
  9 24  1  0  0  0  0
 10 11  1  0  0  0  0
 10 25  1  0  0  0  0
 10 26  1  0  0  0  0
 11 12  1  0  0  0  0
 12 13  1  0  0  0  0
 12 27  1  0  0  0  0
 12 28  1  0  0  0  0
 13 14  1  0  0  0  0
 13 29  1  0  0  0  0
 14 30  1  0  0  0  0
 15 16  1  0  0  0  0
M  END
> <s_m_source_file>
AV-unprocessed.smi

> <i_m_source_file_index>
3204

> <i_lp_mmshare_version>
43012

> <i_f3d_flags>
0

> <s_epik_input>
W0NIM11bQ0gyXWMxbltjSF1uYyhjMUYpW05IXVtDQEBIXTJbQ0gyXU9bQ0gyXVtDQEhdMltPSF0=

> <s_epik_cmdline>
J2VwaWtfcHl0aG9uJywgJy1waCcsICc3LjAnLCAnLXRuJywgJzgnLCAnLW1hJywgJzIwMCcsICctbWV0YWxfYmluZGluZycsICctaW1hZScsICc8aW5maWxlLm1hZT4nLCAnLW9tYWUnLCAnPG91dGZpbGUubWFlPic=

> <r_lp_tautomer_probability>
1

> <r_epik_Ionization_Penalty>
0.000484964

> <r_epik_Ionization_Penalty_Charging>
0

> <r_epik_Ionization_Penalty_Neutral>
0.000484964

> <r_epik_State_Penalty>
-0

> <r_epik_Charging_Adjusted_Penalty>
0

> <i_epik_Tot_Q>
0

> <i_epik_Tot_abs_Q>
0

> <r_epik_Metal_State_Penalty>
-0

> <b_epik_Metal_Only>
0

> <s_lp_Force_Field>
OPLS_2005

> <r_lp_Energy>
13.9367

> <b_lp_Chiralities_Consistent>
1

> <s_lp_Variant>
AV-unprocessed.smi:3204-4

> <Gold.Version>
5.8.1

> <Gold.Id.Protein>
6NUR|6NUR_protein|mol2

> <Gold.PLP.Fitness>
40.0371

> <Gold.PLP.PLP>
-35.3288

> <Gold.PLP.part.hbond>
-3.0000

> <Gold.PLP.part.metal>
0.0000

> <Gold.PLP.part.buried>
-5.4041

> <Gold.PLP.part.nonpolar>
-27.2931

> <Gold.PLP.part.repulsive>
0.0991

> <Gold.PLP.ligand.clash>
0.0000

> <Gold.PLP.ligand.torsion>
0.6512

> <Gold.PLP.Chemscore.Hbond>
2.0000

> <Gold.PLP.Chemscore.CHOScore>
0.0000

> <Gold.PLP.Chemscore.Metal>
0.0000

> <Gold.Chemscore.Hbonds>
donor molecule, donor type, donor heavy atom, donor atom, acceptor molecule, acceptor atom, score
      P1  H  7997  8009       L1    14  1.00
      P1  H 10752 10764       L1    11  0.98

> <Gold.PLP.Chemscore.Internal.Correction>
0.0108

> <Gold.Rescore>
     Score         DG    S(hbond)    S(metal)    S(lipo)     H(rot)  DE(clash)    DE(int)     intcor
     14.88     -15.60       1.88        0.00      72.99       1.83       0.03       0.68       ----

> <Gold.Chemscore.Fitness>
14.8842

> <Gold.Chemscore.DG>
-15.5958

> <Gold.Chemscore.ZeroCoef>
-5.4800

> <Gold.Chemscore.Hbond>
1.8774

> <Gold.Chemscore.Metal>
0.0000

> <Gold.Chemscore.Lipo>
72.9872

> <Gold.Chemscore.Internal_Hbond>
0.0000

> <Gold.Chemscore.DEClash>
0.0319

> <Gold.Chemscore.DEInternal>
0.6798

> <Gold.Chemscore.Rot>
1.8337

> <Gold.Chemscore.Internal.Correction>
   9.000000E+99

> <Gold.Chemscore.Hbonds>
donor molecule, donor type, donor heavy atom, donor atom, acceptor molecule, acceptor atom, score
      P1  H  7997  8009       L1    14  1.00
      P1  H 10752 10764       L1    11  0.82

> <Gold.Chemscore.Hbond.Weighted>
-6.2706

> <Gold.Chemscore.Metal.Weighted>
-0.0000

> <Gold.Chemscore.Lipo.Weighted>
-8.5395

> <Gold.Chemscore.Internal_Hbond.Weighted>
0.0000

> <Gold.Chemscore.DEClash.Weighted>
0.0319

> <Gold.Chemscore.DEInternal.Weighted>
0.6798

> <Gold.Chemscore.Rot.Weighted>
4.6942

> <Gold.Chemscore.Internal.Correction.Weighted>
   9.000000E+99

> <Gold.Protein.RotatedTorsions>
[ 6907 6896 6895 6894 ] final  -87.52 input  -60.11 | X-H torsion
[ 7974 7965 7964 7962 ] final   93.29 input  175.53 | X-H torsion
[ 8008 7997 7996 7995 ] final -119.93 input   59.86 | X-H torsion
[ 10167 10162 10161 10158 ] final -174.00 input  -65.29 | X-H torsion
[ 10718 10713 10712 10709 ] final  -18.23 input   66.30 | X-H torsion
[ 10763 10752 10751 10750 ] final  -38.76 input  -60.55 | X-H torsion
[ 11005 11000 10999 10996 ] final  -95.41 input  -57.11 | X-H torsion

> <Gold.Protein.ActiveResidues>
 VAL166  LYS551  ARG553  GLY616  TRP617  ASP618  TYR619  PRO620  LYS621  CYS622 
 ASP623  PHE694  ASN695  SER759  ASP760  ASP761  ALA762  ILE779  LEU786  VAL792 
 PHE793  MET794  SER795  GLU796  ALA797  LYS798  CYS799  TRP800  GLU811  SER814 

> <Gold.Protein.RotatedAtoms>
  150.6866  134.2883  159.4655 H   0  0  0  0  0  0  0  0  0  0  0  0  # atno 6907 bound_to 6896
  152.0791  134.9480  160.0583 H   0  0  0  0  0  0  0  0  0  0  0  0  # atno 6908 bound_to 6896
  152.0840  133.4132  159.4551 H   0  0  0  0  0  0  0  0  0  0  0  0  # atno 6909 bound_to 6896
  145.4809  139.2278  143.2883 H   0  0  0  0  0  0  0  0  0  0  0  0  # atno 7974 bound_to 7965
  155.1237  140.0399  157.2757 H   0  0  0  0  0  0  0  0  0  0  0  0  # atno 8008 bound_to 7997
  154.6594  140.2587  155.7099 H   0  0  0  0  0  0  0  0  0  0  0  0  # atno 8009 bound_to 7997
  156.2612  140.2820  156.1060 H   0  0  0  0  0  0  0  0  0  0  0  0  # atno 8010 bound_to 7997
  139.5657  144.1760  152.1309 H   0  0  0  0  0  0  0  0  0  0  0  0  # atno 10167 bound_to 10162
  156.5625  130.4729  149.6400 H   0  0  0  0  0  0  0  0  0  0  0  0  # atno 10718 bound_to 10713
  153.9182  135.6785  153.4748 H   0  0  0  0  0  0  0  0  0  0  0  0  # atno 10763 bound_to 10752
  153.1042  135.4813  154.8919 H   0  0  0  0  0  0  0  0  0  0  0  0  # atno 10764 bound_to 10752
  154.7492  135.3180  154.8545 H   0  0  0  0  0  0  0  0  0  0  0  0  # atno 10765 bound_to 10752
  141.1443  133.8024  157.0431 H   0  0  0  0  0  0  0  0  0  0  0  0  # atno 11005 bound_to 11000
  146.2342  140.5595  142.8962 LP  0  0  0  0  0  0  0  0  0  0  0  0  # atno 17320 bound_to 7965
  144.7890  140.5993  143.6554 LP  0  0  0  0  0  0  0  0  0  0  0  0  # atno 17321 bound_to 7965
  140.1283  144.5311  150.6819 LP  0  0  0  0  0  0  0  0  0  0  0  0  # atno 17342 bound_to 10162
  140.6941  143.2393  151.5051 LP  0  0  0  0  0  0  0  0  0  0  0  0  # atno 17343 bound_to 10162
  156.2787  130.7058  151.1876 LP  0  0  0  0  0  0  0  0  0  0  0  0  # atno 17370 bound_to 10713
  157.7365  131.0561  150.5407 LP  0  0  0  0  0  0  0  0  0  0  0  0  # atno 17371 bound_to 10713
  140.0680  134.9718  157.1419 LP  0  0  0  0  0  0  0  0  0  0  0  0  # atno 17394 bound_to 11000
  140.3752  134.2347  155.7175 LP  0  0  0  0  0  0  0  0  0  0  0  0  # atno 17395 bound_to 11000

$$$$
