#       Name:                AV-unprocessed.smi:1007
#       Creating user name   scv26
#       Creation time:       Fri Mar 27 02:35:03 2020


#       File generated by GOLD software.
#

@<TRIPOS>MOLECULE
AV-unprocessed.smi:1007
    62    64     1
SMALL
NO_CHARGES


@<TRIPOS>ATOM
      1 ****        -7.1389   2.4917   3.4657 C.3            1 S1                 0.0000
      2 ****        -5.7320   2.5765   3.3208 O.3            1 S1                 0.0000
      3 ****        -5.3444   3.4429   2.2675 C.3            1 S1                 0.0000
      4 ****        -3.8097   3.4840   2.2023 C.3            1 S1                 0.0000
      5 ****        -3.2188   2.1521   1.9146 N.4            1 S1                 1.0000
      6 ****        -1.8073   2.0520   2.3599 C.3            1 S1                 0.0000
      7 ****        -1.2545   0.6309   2.1481 C.3            1 S1                 0.0000
      8 ****        -1.3975   0.2021   0.7331 N.4            1 S1                 1.0000
      9 ****        -0.8275  -1.1429   0.4608 C.3            1 S1                 0.0000
     10 ****         0.7140  -1.1537   0.4195 C.3            1 S1                 0.0000
     11 ****         1.1219  -2.4968   0.2546 O.3            1 S1                 0.0000
     12 ****         1.2886  -0.2969  -0.7276 C.3            1 S1                 0.0000
     13 ****         2.7380  -0.3541  -0.7921 N.pl3          1 S1                 0.0000
     14 ****         3.6122   0.3652  -0.0623 C.2            1 S1                 0.0000
     15 ****         4.9065   0.1539  -0.2808 N.2            1 S1                 0.0000
     16 ****         4.8690  -0.8138  -1.2701 C.ar           1 S1                 0.0000
     17 ****         5.9169  -1.4754  -1.9470 C.ar           1 S1                 0.0000
     18 ****         5.6413  -2.4470  -2.9354 C.ar           1 S1                 0.0000
     19 ****         6.7986  -3.1359  -3.6369 C.3            1 S1                 0.0000
     20 ****         4.2992  -2.7693  -3.2607 C.ar           1 S1                 0.0000
     21 ****         3.9789  -3.8100  -4.3191 C.3            1 S1                 0.0000
     22 ****         3.2406  -2.1181  -2.5941 C.ar           1 S1                 0.0000
     23 ****         3.5273  -1.1531  -1.6127 C.ar           1 S1                 0.0000
     24 ****        -2.8081   0.3107   0.2850 C.3            1 S1                 0.0000
     25 ****        -3.3568   1.7329   0.4968 C.3            1 S1                 0.0000
     26 ****        -7.3824   1.8129   4.2830 H              1 S1                 0.0000
     27 ****        -7.6069   2.1071   2.5584 H              1 S1                 0.0000
     28 ****        -7.5715   3.4661   3.6969 H              1 S1                 0.0000
     29 ****        -5.7766   3.1168   1.3213 H              1 S1                 0.0000
     30 ****        -5.7252   4.4466   2.4619 H              1 S1                 0.0000
     31 ****        -3.4774   4.2057   1.4547 H              1 S1                 0.0000
     32 ****        -3.4427   3.8474   3.1633 H              1 S1                 0.0000
     33 ****        -1.2004   2.7763   1.8137 H              1 S1                 0.0000
     34 ****        -1.7354   2.3108   3.4170 H              1 S1                 0.0000
     35 ****        -0.2072   0.6129   2.4467 H              1 S1                 0.0000
     36 ****        -1.7798  -0.0725   2.7965 H              1 S1                 0.0000
     37 ****        -1.1961  -1.8458   1.2102 H              1 S1                 0.0000
     38 ****        -1.1968  -1.5043  -0.5005 H              1 S1                 0.0000
     39 ****         1.1244  -0.8148   1.3703 H              1 S1                 0.0000
     40 ****         2.0671  -2.5270   0.2371 H              1 S1                 0.0000
     41 ****         0.8842  -0.6212  -1.6875 H              1 S1                 0.0000
     42 ****         0.9980   0.7471  -0.6062 H              1 S1                 0.0000
     43 ****         3.2800   1.0831   0.6732 H              1 S1                 0.0000
     44 ****         6.9391  -1.2301  -1.6989 H              1 S1                 0.0000
     45 ****         6.7632  -2.9454  -4.7097 H              1 S1                 0.0000
     46 ****         6.7565  -4.2130  -3.4745 H              1 S1                 0.0000
     47 ****         7.7596  -2.7796  -3.2650 H              1 S1                 0.0000
     48 ****         2.9025  -3.9247  -4.4514 H              1 S1                 0.0000
     49 ****         4.3865  -4.7808  -4.0364 H              1 S1                 0.0000
     50 ****         4.4047  -3.5214  -5.2801 H              1 S1                 0.0000
     51 ****         2.2145  -2.3572  -2.8312 H              1 S1                 0.0000
     52 ****        -2.8798   0.0526  -0.7725 H              1 S1                 0.0000
     53 ****        -3.4192  -0.4111   0.8300 H              1 S1                 0.0000
     54 ****        -4.4025   1.7560   0.1924 H              1 S1                 0.0000
     55 ****        -2.8256   2.4371  -0.1456 H              1 S1                 0.0000
     56 ****        -0.8705   0.8542   0.1693 H              1 S1                 0.0000
     57 ****        -3.7396   1.4904   2.4735 H              1 S1                 0.0000
     58 ****        -5.3737   1.6622   3.1319 LP             1 S1                 0.0000
     59 ****        -5.3418   2.9173   4.1761 LP             1 S1                 0.0000
     60 ****         0.7578  -2.8559  -0.6048 LP             1 S1                 0.0000
     61 ****         0.7817  -3.0477   1.0167 LP             1 S1                 0.0000
     62 ****         5.6986   0.5814   0.1548 LP             1 S1                 0.0000
@<TRIPOS>BOND
    1    1    2 1     
    2    1   26 1     
    3    1   27 1     
    4    1   28 1     
    5    2    3 1     
    6    3    4 1     
    7    3   29 1     
    8    3   30 1     
    9    4    5 1     
   10    4   31 1     
   11    4   32 1     
   12    5   25 1     
   13    5    6 1     
   14    5   57 1     
   15    6    7 1     
   16    6   33 1     
   17    6   34 1     
   18    7    8 1     
   19    7   35 1     
   20    7   36 1     
   21    8    9 1     
   22    8   24 1     
   23    8   56 1     
   24    9   10 1     
   25    9   37 1     
   26    9   38 1     
   27   10   11 1     
   28   10   12 1     
   29   10   39 1     
   30   11   40 1     
   31   12   13 1     
   32   12   41 1     
   33   12   42 1     
   34   13   23 1     
   35   13   14 1     
   36   14   15 2     
   37   14   43 1     
   38   15   16 1     
   39   16   23 ar    
   40   16   17 ar    
   41   17   18 ar    
   42   17   44 1     
   43   18   19 1     
   44   18   20 ar    
   45   19   45 1     
   46   19   46 1     
   47   19   47 1     
   48   20   21 1     
   49   20   22 ar    
   50   21   48 1     
   51   21   49 1     
   52   21   50 1     
   53   22   23 ar    
   54   22   51 1     
   55   24   25 1     
   56   24   52 1     
   57   24   53 1     
   58   25   54 1     
   59   25   55 1     
   60    2   58 1     
   61    2   59 1     
   62   11   60 1     
   63   11   61 1     
   64   15   62 1     
@<TRIPOS>SUBSTRUCTURE
      1 S1             1
@<TRIPOS>SET
LONE_PAIRS      STATIC     ATOMS    <user>   **** ""
5 58 59 60 61 62
DONOR_HYDROGENS      STATIC     ATOMS    <user>   **** ""
3 57 56 40
ATOM$BLUE        STATIC     ATOMS    COLORGROUP SYSTEM
5 58 59 60 61 62
ATOM$RED        STATIC     ATOMS    COLORGROUP SYSTEM
3 57 56 40
