AV-unprocessed.smi:3055|AV-procd|sdf|11642|dock5
  -GOLD-   2272017 33D 1   1.00000     0.00000
 Structure written by MMmdl.
 48 50  0  0  0  0  0  0  0  0  3 V2000
  149.8227  134.2604  156.3699 O   0  0  0  0  0  0  0  0  0  0  0  0
  149.5925  134.2722  155.1600 C   0  0  0  0  0  0  0  0  0  0  0  0
  149.2125  135.3885  154.5187 N   0  0  0  0  0  0  0  0  0  0  0  0
  149.0418  136.6901  155.1519 C   0  0  0  0  0  0  0  0  0  0  0  0
  150.2718  137.5839  154.9303 C   0  0  0  0  0  0  0  0  0  0  0  0
  150.0202  138.9826  155.2910 N   0  0  0  0  0  0  0  0  0  0  0  0
  149.1736  139.8606  154.6645 C   0  0  0  0  0  0  0  0  0  0  0  0
  149.2628  141.0454  155.3488 C   0  0  0  0  0  0  0  0  0  0  0  0
  150.1584  140.8403  156.3641 N   0  3  0  0  0  0  0  0  0  0  0  0
  150.6171  139.5849  156.3281 C   0  0  0  0  0  0  0  0  0  0  0  0
  149.6774  133.1671  154.3766 N   0  0  0  0  0  0  0  0  0  0  0  0
  150.1533  131.8393  154.7958 C   0  0  0  0  0  0  0  0  0  0  0  0
  148.9294  130.9302  154.9976 C   0  0  0  0  0  0  0  0  0  0  0  0
  148.0641  130.8741  153.7230 C   0  0  0  0  0  0  0  0  0  0  0  0
  147.7246  132.2858  153.1747 C   0  0  2  0  0  0  0  0  0  0  0  0
  147.0104  132.2180  151.8690 N   0  3  0  0  0  0  0  0  0  0  0  0
  145.7803  131.3963  151.8581 C   0  0  0  0  0  0  0  0  0  0  0  0
  144.9793  131.8948  150.6611 C   0  0  0  0  0  0  0  0  0  0  0  0
  145.2469  133.3946  150.6758 C   0  0  0  0  0  0  0  0  0  0  0  0
  146.6506  133.5337  151.2802 C   0  0  0  0  0  0  0  0  0  0  0  0
  149.0341  133.1057  153.0583 C   0  0  0  0  0  0  0  0  0  0  0  0
  149.0374  135.3304  153.5265 H   0  0  0  0  0  0  0  0  0  0  0  0
  148.1450  137.1766  154.7644 H   0  0  0  0  0  0  0  0  0  0  0  0
  148.8867  136.5439  156.2217 H   0  0  0  0  0  0  0  0  0  0  0  0
  151.1027  137.2347  155.5445 H   0  0  0  0  0  0  0  0  0  0  0  0
  150.6049  137.5412  153.8922 H   0  0  0  0  0  0  0  0  0  0  0  0
  148.5867  139.5842  153.8004 H   0  0  0  0  0  0  0  0  0  0  0  0
  148.7685  141.9934  155.1936 H   0  0  0  0  0  0  0  0  0  0  0  0
  151.3300  139.1462  157.0035 H   0  0  0  0  0  0  0  0  0  0  0  0
  150.8000  131.4267  154.0199 H   0  0  0  0  0  0  0  0  0  0  0  0
  150.7625  131.8507  155.6996 H   0  0  0  0  0  0  0  0  0  0  0  0
  149.2494  129.9255  155.2751 H   0  0  0  0  0  0  0  0  0  0  0  0
  148.3308  131.3052  155.8291 H   0  0  0  0  0  0  0  0  0  0  0  0
  148.6014  130.3104  152.9588 H   0  0  0  0  0  0  0  0  0  0  0  0
  147.1567  130.3107  153.9408 H   0  0  0  0  0  0  0  0  0  0  0  0
  147.0644  132.7807  153.8896 H   0  0  0  0  0  0  0  0  0  0  0  0
  146.0012  130.3307  151.7891 H   0  0  0  0  0  0  0  0  0  0  0  0
  145.2132  131.5687  152.7745 H   0  0  0  0  0  0  0  0  0  0  0  0
  145.3697  131.4550  149.7423 H   0  0  0  0  0  0  0  0  0  0  0  0
  143.9184  131.6517  150.7289 H   0  0  0  0  0  0  0  0  0  0  0  0
  145.1684  133.8435  149.6853 H   0  0  0  0  0  0  0  0  0  0  0  0
  144.5199  133.8889  151.3218 H   0  0  0  0  0  0  0  0  0  0  0  0
  146.6529  134.3299  152.0260 H   0  0  0  0  0  0  0  0  0  0  0  0
  147.3850  133.7929  150.5169 H   0  0  0  0  0  0  0  0  0  0  0  0
  148.8490  134.1027  152.6576 H   0  0  0  0  0  0  0  0  0  0  0  0
  149.7114  132.6326  152.3456 H   0  0  0  0  0  0  0  0  0  0  0  0
  147.6381  131.7810  151.2092 H   0  0  0  0  0  0  0  0  0  0  0  0
  150.4330  141.5357  157.0467 H   0  0  0  0  0  0  0  0  0  0  0  0
  1  2  2  0  0  0  0
  2  3  1  0  0  0  0
  2 11  1  0  0  0  0
  3  4  1  0  0  0  0
  3 22  1  0  0  0  0
  4  5  1  0  0  0  0
  4 23  1  0  0  0  0
  4 24  1  0  0  0  0
  5  6  1  0  0  0  0
  5 25  1  0  0  0  0
  5 26  1  0  0  0  0
  6 10  1  0  0  0  0
  6  7  1  0  0  0  0
  7  8  2  0  0  0  0
  7 27  1  0  0  0  0
  8  9  1  0  0  0  0
  8 28  1  0  0  0  0
  9 10  2  0  0  0  0
  9 48  1  0  0  0  0
 10 29  1  0  0  0  0
 11 21  1  0  0  0  0
 11 12  1  0  0  0  0
 12 13  1  0  0  0  0
 12 30  1  0  0  0  0
 12 31  1  0  0  0  0
 13 14  1  0  0  0  0
 13 32  1  0  0  0  0
 13 33  1  0  0  0  0
 14 15  1  0  0  0  0
 14 34  1  0  0  0  0
 14 35  1  0  0  0  0
 15 16  1  0  0  0  0
 15 21  1  0  0  0  0
 15 36  1  0  0  0  0
 16 20  1  0  0  0  0
 16 17  1  0  0  0  0
 16 47  1  0  0  0  0
 17 18  1  0  0  0  0
 17 37  1  0  0  0  0
 17 38  1  0  0  0  0
 18 19  1  0  0  0  0
 18 39  1  0  0  0  0
 18 40  1  0  0  0  0
 19 20  1  0  0  0  0
 19 41  1  0  0  0  0
 19 42  1  0  0  0  0
 20 43  1  0  0  0  0
 20 44  1  0  0  0  0
 21 45  1  0  0  0  0
 21 46  1  0  0  0  0
M  CHG  1   9   1
M  CHG  1  16   1
M  END
> <s_m_source_file>
AV-unprocessed.smi

> <i_m_source_file_index>
3055

> <i_lp_mmshare_version>
43012

> <i_f3d_flags>
0

> <s_epik_input>
W2NIXTFuW2NIXVtjSF1uMVtDSDJdW0NIMl1bTkhdQyg9TylOMltDSDJdW0NIMl1bQ0gyXVtDQEhdKFtDSDJdMilOM1tDSDJdW0NIMl1bQ0gyXVtDSDJdMw==

> <s_epik_cmdline>
J2VwaWtfcHl0aG9uJywgJy1waCcsICc3LjAnLCAnLXRuJywgJzgnLCAnLW1hJywgJzIwMCcsICctbWV0YWxfYmluZGluZycsICctaW1hZScsICc8aW5maWxlLm1hZT4nLCAnLW9tYWUnLCAnPG91dGZpbGUubWFlPic=

> <r_lp_tautomer_probability>
1

> <r_epik_Ionization_Penalty>
0.259176

> <r_epik_Ionization_Penalty_Charging>
0.00125522

> <r_epik_Ionization_Penalty_Neutral>
0.257921

> <r_epik_State_Penalty>
0.249312

> <r_epik_Charging_Adjusted_Penalty>
0.250567

> <i_epik_Tot_Q>
2

> <i_epik_Tot_abs_Q>
2

> <r_epik_Metal_State_Penalty>
0.53666

> <b_epik_Metal_Only>
0

> <s_lp_Force_Field>
OPLS_2005

> <r_lp_Energy>
60.4865

> <b_lp_Chiralities_Consistent>
1

> <s_lp_Variant>
AV-unprocessed.smi:3055-2

> <Gold.Version>
5.8.1

> <Gold.Id.Protein>
6NUR|6NUR_protein|mol2

> <Gold.PLP.Fitness>
45.6293

> <Gold.PLP.PLP>
-39.0206

> <Gold.PLP.part.hbond>
-2.0000

> <Gold.PLP.part.metal>
0.0000

> <Gold.PLP.part.buried>
-4.3701

> <Gold.PLP.part.nonpolar>
-31.8670

> <Gold.PLP.part.repulsive>
0.1416

> <Gold.PLP.ligand.clash>
1.2321

> <Gold.PLP.ligand.torsion>
0.3254

> <Gold.PLP.Chemscore.Hbond>
1.8960

> <Gold.PLP.Chemscore.CHOScore>
0.9122

> <Gold.PLP.Chemscore.Metal>
0.0000

> <Gold.Chemscore.Hbonds>
donor molecule, donor type, donor heavy atom, donor atom, acceptor molecule, acceptor atom, score
      L1  H     3    22       P1  7948  0.96
      L1  H    16    47       P1 10747  1.00
      L1  C     7    27       P1  7957  0.13

> <Gold.PLP.Chemscore.Internal.Correction>
0.0671

> <Gold.Rescore>
     Score         DG    S(hbond)    S(metal)    S(lipo)     H(rot)  DE(clash)    DE(int)     intcor
     14.90     -15.21       1.55        0.00      79.88       1.87       0.04       0.28       ----

> <Gold.Chemscore.Fitness>
14.8958

> <Gold.Chemscore.DG>
-15.2145

> <Gold.Chemscore.ZeroCoef>
-5.4800

> <Gold.Chemscore.Hbond>
1.5522

> <Gold.Chemscore.Metal>
0.0000

> <Gold.Chemscore.Lipo>
79.8772

> <Gold.Chemscore.Internal_Hbond>
0.0000

> <Gold.Chemscore.DEClash>
0.0390

> <Gold.Chemscore.DEInternal>
0.2797

> <Gold.Chemscore.Rot>
1.8732

> <Gold.Chemscore.Internal.Correction>
   9.000000E+99

> <Gold.Chemscore.Hbonds>
donor molecule, donor type, donor heavy atom, donor atom, acceptor molecule, acceptor atom, score
      L1  H     3    22       P1  7948  0.51
      L1  H    16    47       P1 10747  1.00

> <Gold.Chemscore.Hbond.Weighted>
-5.1843

> <Gold.Chemscore.Metal.Weighted>
-0.0000

> <Gold.Chemscore.Lipo.Weighted>
-9.3456

> <Gold.Chemscore.Internal_Hbond.Weighted>
0.0000

> <Gold.Chemscore.DEClash.Weighted>
0.0390

> <Gold.Chemscore.DEInternal.Weighted>
0.2797

> <Gold.Chemscore.Rot.Weighted>
4.7954

> <Gold.Chemscore.Internal.Correction.Weighted>
   9.000000E+99

> <Gold.Protein.RotatedTorsions>
[ 6907 6896 6895 6894 ] final   -0.78 input  -60.11 | X-H torsion
[ 7974 7965 7964 7962 ] final -120.54 input  175.53 | X-H torsion
[ 8008 7997 7996 7995 ] final   28.28 input   59.86 | X-H torsion
[ 10167 10162 10161 10158 ] final -169.87 input  -65.29 | X-H torsion
[ 10718 10713 10712 10709 ] final  -15.16 input   66.30 | X-H torsion
[ 10763 10752 10751 10750 ] final   90.28 input  -60.55 | X-H torsion
[ 11005 11000 10999 10996 ] final -116.57 input  -57.11 | X-H torsion

> <Gold.Protein.ActiveResidues>
 VAL166  LYS551  ARG553  GLY616  TRP617  ASP618  TYR619  PRO620  LYS621  CYS622 
 ASP623  PHE694  ASN695  SER759  ASP760  ASP761  ALA762  ILE779  LEU786  VAL792 
 PHE793  MET794  SER795  GLU796  ALA797  LYS798  CYS799  TRP800  GLU811  SER814 

> <Gold.Protein.RotatedAtoms>
  151.5567  135.1066  159.9962 H   0  0  0  0  0  0  0  0  0  0  0  0  # atno 6907 bound_to 6896
  152.4466  133.7543  159.6722 H   0  0  0  0  0  0  0  0  0  0  0  0  # atno 6908 bound_to 6896
  150.8383  133.7910  159.3095 H   0  0  0  0  0  0  0  0  0  0  0  0  # atno 6909 bound_to 6896
  145.0503  140.8213  143.4213 H   0  0  0  0  0  0  0  0  0  0  0  0  # atno 7974 bound_to 7965
  155.0562  140.3185  155.4675 H   0  0  0  0  0  0  0  0  0  0  0  0  # atno 8008 bound_to 7997
  156.2823  140.2137  156.5633 H   0  0  0  0  0  0  0  0  0  0  0  0  # atno 8009 bound_to 7997
  154.7169  140.0493  157.0591 H   0  0  0  0  0  0  0  0  0  0  0  0  # atno 8010 bound_to 7997
  139.5896  144.1243  152.1618 H   0  0  0  0  0  0  0  0  0  0  0  0  # atno 10167 bound_to 10162
  156.6057  130.4836  149.6221 H   0  0  0  0  0  0  0  0  0  0  0  0  # atno 10718 bound_to 10713
  153.1959  135.4439  155.0207 H   0  0  0  0  0  0  0  0  0  0  0  0  # atno 10763 bound_to 10752
  154.8118  135.3298  154.7286 H   0  0  0  0  0  0  0  0  0  0  0  0  # atno 10764 bound_to 10752
  153.7735  135.6983  153.4957 H   0  0  0  0  0  0  0  0  0  0  0  0  # atno 10765 bound_to 10752
  141.0413  133.9831  157.2990 H   0  0  0  0  0  0  0  0  0  0  0  0  # atno 11005 bound_to 11000
  145.1536  139.2500  143.5428 LP  0  0  0  0  0  0  0  0  0  0  0  0  # atno 17320 bound_to 7965
  146.3517  140.1245  142.8599 LP  0  0  0  0  0  0  0  0  0  0  0  0  # atno 17321 bound_to 7965
  140.0814  144.5697  150.7119 LP  0  0  0  0  0  0  0  0  0  0  0  0  # atno 17342 bound_to 10162
  140.7161  143.2546  151.4428 LP  0  0  0  0  0  0  0  0  0  0  0  0  # atno 17343 bound_to 10162
  156.2431  130.6863  151.1575 LP  0  0  0  0  0  0  0  0  0  0  0  0  # atno 17370 bound_to 10713
  157.7268  131.0644  150.5895 LP  0  0  0  0  0  0  0  0  0  0  0  0  # atno 17371 bound_to 10713
  139.9278  135.0201  156.8295 LP  0  0  0  0  0  0  0  0  0  0  0  0  # atno 17394 bound_to 11000
  140.6229  133.9977  155.7626 LP  0  0  0  0  0  0  0  0  0  0  0  0  # atno 17395 bound_to 11000

$$$$
