#       Name:                AV-unprocessed.smi:1547
#       Creating user name   scv26
#       Creation time:       Fri Mar 27 06:39:31 2020


#       File generated by GOLD software.
#

@<TRIPOS>MOLECULE
AV-unprocessed.smi:1547
    43    44     1
SMALL
NO_CHARGES


@<TRIPOS>ATOM
      1 ****        -6.2840   0.8393   0.0673 C.3            1 S1                 0.0000
      2 ****        -4.9252   1.4750   0.0516 C.2            1 S1                 0.0000
      3 ****        -3.6624   0.8511   0.2687 C.2            1 S1                 0.0000
      4 ****        -2.7852   1.8929   0.1374 C.2            1 S1                 0.0000
      5 ****        -1.4292   1.8871   0.2385 N.am           1 S1                 0.0000
      6 ****        -0.6139   0.8581   0.5287 C.2            1 S1                 0.0000
      7 ****        -0.9748  -0.2903   0.7879 O.2            1 S1                 0.0000
      8 ****         0.6731   1.2338   0.5029 N.am           1 S1                 0.0000
      9 ****         1.8009   0.3511   0.7781 C.3            1 S1                 0.0000
     10 ****         2.0973  -0.5795  -0.4130 C.3            1 S1                 0.0000
     11 ****         3.2428  -1.4788  -0.1430 N.4            1 S1                 1.0000
     12 ****         3.0002  -2.5149   0.8913 C.3            1 S1                 0.0000
     13 ****         3.5682  -3.8321   0.3469 C.3            1 S1                 0.0000
     14 ****         4.4641  -3.4119  -0.8134 C.3            1 S1                 0.0000
     15 ****         3.7655  -2.1641  -1.3427 C.3            1 S1                 0.0000
     16 ****        -3.4953   3.0400  -0.1394 N.pl3          1 S1                 0.0000
     17 ****        -3.0154   4.3903  -0.3605 C.3            1 S1                 0.0000
     18 ****        -4.8191   2.7768  -0.1895 N.2            1 S1                 0.0000
     19 ****        -6.2146  -0.2346   0.2417 H              1 S1                 0.0000
     20 ****        -6.7987   0.9881  -0.8822 H              1 S1                 0.0000
     21 ****        -6.9063   1.2635   0.8556 H              1 S1                 0.0000
     22 ****        -3.4587  -0.1875   0.4817 H              1 S1                 0.0000
     23 ****        -0.9824   2.7756   0.0659 H              1 S1                 0.0000
     24 ****         0.8864   2.1965   0.2846 H              1 S1                 0.0000
     25 ****         2.6726   0.9702   0.9917 H              1 S1                 0.0000
     26 ****         1.5983  -0.2214   1.6847 H              1 S1                 0.0000
     27 ****         1.2227  -1.1782  -0.6724 H              1 S1                 0.0000
     28 ****         2.3298   0.0292  -1.2881 H              1 S1                 0.0000
     29 ****         3.5101  -2.2178   1.8082 H              1 S1                 0.0000
     30 ****         1.9401  -2.6263   1.1252 H              1 S1                 0.0000
     31 ****         4.1022  -4.4064   1.1047 H              1 S1                 0.0000
     32 ****         2.7542  -4.4540  -0.0280 H              1 S1                 0.0000
     33 ****         5.4577  -3.1550  -0.4436 H              1 S1                 0.0000
     34 ****         4.5744  -4.1902  -1.5692 H              1 S1                 0.0000
     35 ****         2.9378  -2.4569  -1.9914 H              1 S1                 0.0000
     36 ****         4.4326  -1.5199  -1.9163 H              1 S1                 0.0000
     37 ****        -2.2349   4.3829  -1.1216 H              1 S1                 0.0000
     38 ****        -2.6055   4.7886   0.5677 H              1 S1                 0.0000
     39 ****        -3.8275   5.0368  -0.6959 H              1 S1                 0.0000
     40 ****         4.0006  -0.9066   0.2008 H              1 S1                 0.0000
     41 ****        -1.9482  -0.5192   0.7936 LP             1 S1                 0.0000
     42 ****        -0.2944  -0.9940   0.9926 LP             1 S1                 0.0000
     43 ****        -5.5603   3.4234  -0.3696 LP             1 S1                 0.0000
@<TRIPOS>BOND
    1    1    2 1     
    2    1   19 1     
    3    1   20 1     
    4    1   21 1     
    5    2   18 2     
    6    2    3 1     
    7    3    4 2     
    8    3   22 1     
    9    4    5 1     
   10    4   16 1     
   11    5    6 am    
   12    5   23 1     
   13    6    7 2     
   14    6    8 am    
   15    8    9 1     
   16    8   24 1     
   17    9   10 1     
   18    9   25 1     
   19    9   26 1     
   20   10   11 1     
   21   10   27 1     
   22   10   28 1     
   23   11   15 1     
   24   11   12 1     
   25   11   40 1     
   26   12   13 1     
   27   12   29 1     
   28   12   30 1     
   29   13   14 1     
   30   13   31 1     
   31   13   32 1     
   32   14   15 1     
   33   14   33 1     
   34   14   34 1     
   35   15   35 1     
   36   15   36 1     
   37   16   17 1     
   38   16   18 1     
   39   17   37 1     
   40   17   38 1     
   41   17   39 1     
   42    7   41 1     
   43    7   42 1     
   44   18   43 1     
@<TRIPOS>SUBSTRUCTURE
      1 S1             1
@<TRIPOS>SET
LONE_PAIRS      STATIC     ATOMS    <user>   **** ""
3 41 42 43
DONOR_HYDROGENS      STATIC     ATOMS    <user>   **** ""
3 23 24 40
ATOM$BLUE        STATIC     ATOMS    COLORGROUP SYSTEM
3 41 42 43
ATOM$RED        STATIC     ATOMS    COLORGROUP SYSTEM
3 23 24 40
