AV-unprocessed.smi:1056|AV-procd|sdf|4649|dock1
  -GOLD-   22720 3153D 1   1.00000     0.00000
 Structure written by MMmdl.
 45 47  0  0  0  0  0  0  0  0  4 V2000
  152.4429  142.7245  161.7757 C   0  0  0  0  0  0  0  0  0  0  0  0
  152.1510  142.0913  160.4258 C   0  0  0  0  0  0  0  0  0  0  0  0
  151.1333  142.6540  159.6234 C   0  0  0  0  0  0  0  0  0  0  0  0
  150.8898  142.0532  158.3941 C   0  0  0  0  0  0  0  0  0  0  0  0
  149.9692  142.3660  157.3922 N   0  3  0  0  0  0  0  0  0  0  0  0
  150.1041  141.4879  156.3607 C   0  0  0  0  0  0  0  0  0  0  0  0
  151.0956  140.6157  156.6899 N   0  0  0  0  0  0  0  0  0  0  0  0
  151.6371  139.4873  155.9195 C   0  0  0  0  0  0  0  0  0  0  0  0
  150.5411  138.6426  155.2409 C   0  0  1  0  0  0  0  0  0  0  0  0
  150.1551  139.3245  154.0646 O   0  0  0  0  0  0  0  0  0  0  0  0
  151.0040  137.2167  154.8681 C   0  0  0  0  0  0  0  0  0  0  0  0
  149.8745  136.3119  154.5332 N   0  3  1  0  0  0  0  0  0  0  0  0
  150.2529  134.8768  154.5973 C   0  0  0  0  0  0  0  0  0  0  0  0
  149.1617  134.0062  153.9457 C   0  0  0  0  0  0  0  0  0  0  0  0
  147.8365  134.3936  154.4434 N   0  5  0  0  0  0  0  0  0  0  0  0
  147.4927  135.6026  154.9864 C   0  0  0  0  0  0  0  0  0  0  0  0
  146.3514  135.9574  155.2720 O   0  0  0  0  0  0  0  0  0  0  0  0
  148.6394  136.5941  155.3208 C   0  0  0  0  0  0  0  0  0  0  0  0
  151.6180  140.9314  157.9510 C   0  0  0  0  0  0  0  0  0  0  0  0
  152.6233  140.3638  158.7315 C   0  0  0  0  0  0  0  0  0  0  0  0
  152.8854  140.9599  159.9859 C   0  0  0  0  0  0  0  0  0  0  0  0
  153.9774  140.3628  160.8576 C   0  0  0  0  0  0  0  0  0  0  0  0
  151.8330  143.6135  161.9395 H   0  0  0  0  0  0  0  0  0  0  0  0
  153.4892  143.0228  161.8433 H   0  0  0  0  0  0  0  0  0  0  0  0
  152.2301  142.0210  162.5807 H   0  0  0  0  0  0  0  0  0  0  0  0
  150.5703  143.5155  159.9522 H   0  0  0  0  0  0  0  0  0  0  0  0
  149.5300  141.4857  155.4452 H   0  0  0  0  0  0  0  0  0  0  0  0
  152.2979  139.9129  155.1627 H   0  0  0  0  0  0  0  0  0  0  0  0
  152.2701  138.8747  156.5613 H   0  0  0  0  0  0  0  0  0  0  0  0
  149.6798  138.6065  155.9068 H   0  0  0  0  0  0  0  0  0  0  0  0
  149.4116  138.8834  153.6826 H   0  0  0  0  0  0  0  0  0  0  0  0
  151.6862  137.2894  154.0197 H   0  0  0  0  0  0  0  0  0  0  0  0
  151.5766  136.7649  155.6785 H   0  0  0  0  0  0  0  0  0  0  0  0
  151.1961  134.7059  154.0771 H   0  0  0  0  0  0  0  0  0  0  0  0
  150.4069  134.5862  155.6380 H   0  0  0  0  0  0  0  0  0  0  0  0
  149.2184  134.1318  152.8641 H   0  0  0  0  0  0  0  0  0  0  0  0
  149.3781  132.9550  154.1343 H   0  0  0  0  0  0  0  0  0  0  0  0
  148.8540  136.5262  156.3884 H   0  0  0  0  0  0  0  0  0  0  0  0
  148.2876  137.6065  155.1253 H   0  0  0  0  0  0  0  0  0  0  0  0
  153.1852  139.5027  158.4020 H   0  0  0  0  0  0  0  0  0  0  0  0
  154.4043  139.4669  160.4059 H   0  0  0  0  0  0  0  0  0  0  0  0
  153.5817  140.0850  161.8349 H   0  0  0  0  0  0  0  0  0  0  0  0
  154.7850  141.0809  161.0020 H   0  0  0  0  0  0  0  0  0  0  0  0
  149.6432  136.4780  153.5645 H   0  0  0  0  0  0  0  0  0  0  0  0
  149.2996  143.1249  157.4068 H   0  0  0  0  0  0  0  0  0  0  0  0
  1  2  1  0  0  0  0
  1 23  1  0  0  0  0
  1 24  1  0  0  0  0
  1 25  1  0  0  0  0
  2 21  1  0  0  0  0
  2  3  2  0  0  0  0
  3  4  1  0  0  0  0
  3 26  1  0  0  0  0
  4 19  2  0  0  0  0
  4  5  1  0  0  0  0
  5  6  2  0  0  0  0
  5 45  1  0  0  0  0
  6  7  1  0  0  0  0
  6 27  1  0  0  0  0
  7  8  1  0  0  0  0
  7 19  1  0  0  0  0
  8  9  1  0  0  0  0
  8 28  1  0  0  0  0
  8 29  1  0  0  0  0
  9 10  1  0  0  0  0
  9 11  1  0  0  0  0
  9 30  1  0  0  0  0
 10 31  1  0  0  0  0
 11 12  1  0  0  0  0
 11 32  1  0  0  0  0
 11 33  1  0  0  0  0
 12 18  1  0  0  0  0
 12 13  1  0  0  0  0
 12 44  1  0  0  0  0
 13 14  1  0  0  0  0
 13 34  1  0  0  0  0
 13 35  1  0  0  0  0
 14 15  1  0  0  0  0
 14 36  1  0  0  0  0
 14 37  1  0  0  0  0
 15 16  1  0  0  0  0
 16 17  2  0  0  0  0
 16 18  1  0  0  0  0
 18 38  1  0  0  0  0
 18 39  1  0  0  0  0
 19 20  1  0  0  0  0
 20 21  2  0  0  0  0
 20 40  1  0  0  0  0
 21 22  1  0  0  0  0
 22 41  1  0  0  0  0
 22 42  1  0  0  0  0
 22 43  1  0  0  0  0
M  CHG  1   5   1
M  CHG  1  12   1
M  CHG  1  15  -1
M  END
> <s_m_source_file>
AV-unprocessed.smi

> <i_m_source_file_index>
1056

> <i_lp_mmshare_version>
43012

> <i_f3d_flags>
0

> <s_epik_input>
W0NIM11jKFtjSF0xKWMoW0NIM10pW2NIXWMoYzEyKW4oW2NIXW4yKVtDSDJdW0NASF0oW09IXSlbQ0gyXU4zW0NIMl1bQ0gyXVtOSF1DKD1PKVtDSDJdMw==

> <s_epik_cmdline>
J2VwaWtfcHl0aG9uJywgJy1waCcsICc3LjAnLCAnLXRuJywgJzgnLCAnLW1hJywgJzIwMCcsICctbWV0YWxfYmluZGluZycsICctaW1hZScsICc8aW5maWxlLm1hZT4nLCAnLW9tYWUnLCAnPG91dGZpbGUubWFlPic=

> <r_epik_Ionization_Penalty>
6.22415

> <r_epik_Ionization_Penalty_Charging>
6.22415

> <r_epik_Ionization_Penalty_Neutral>
4.02797e-07

> <r_epik_State_Penalty>
6.37716

> <r_epik_Charging_Adjusted_Penalty>
12.6013

> <i_epik_Tot_Q>
1

> <i_epik_Tot_abs_Q>
3

> <r_epik_Metal_State_Penalty>
2.53509

> <b_epik_Metal_Only>
1

> <s_lp_Force_Field>
OPLS_2005

> <r_lp_Energy>
28.923

> <b_lp_Chiralities_Consistent>
1

> <s_lp_Variant>
AV-unprocessed.smi:1056-20

> <Gold.Version>
5.8.1

> <Gold.Id.Protein>
6NUR|6NUR_protein|mol2

> <Gold.PLP.Fitness>
57.0921

> <Gold.PLP.PLP>
-43.4827

> <Gold.PLP.part.hbond>
-3.8154

> <Gold.PLP.part.metal>
0.0000

> <Gold.PLP.part.buried>
-4.9547

> <Gold.PLP.part.nonpolar>
-35.6503

> <Gold.PLP.part.repulsive>
0.2364

> <Gold.PLP.ligand.clash>
0.0000

> <Gold.PLP.ligand.torsion>
0.7618

> <Gold.PLP.Chemscore.Hbond>
5.0000

> <Gold.PLP.Chemscore.CHOScore>
0.0000

> <Gold.PLP.Chemscore.Metal>
0.0000

> <Gold.Chemscore.Hbonds>
donor molecule, donor type, donor heavy atom, donor atom, acceptor molecule, acceptor atom, score
      L1  H     5    45       P1  8028  0.11
      L1  H    12    44       P1  7948  2.00
      P1  H  7989  7998       L1    10  0.57

> <Gold.PLP.Chemscore.Internal.Correction>
0.1330

> <Gold.Rescore>
     Score         DG    S(hbond)    S(metal)    S(lipo)     H(rot)  DE(clash)    DE(int)     intcor
     18.49     -19.65       2.36        0.00     105.78       2.37       0.47       0.69       ----

> <Gold.Chemscore.Fitness>
18.4889

> <Gold.Chemscore.DG>
-19.6487

> <Gold.Chemscore.ZeroCoef>
-5.4800

> <Gold.Chemscore.Hbond>
2.3552

> <Gold.Chemscore.Metal>
0.0000

> <Gold.Chemscore.Lipo>
105.7757

> <Gold.Chemscore.Internal_Hbond>
0.0000

> <Gold.Chemscore.DEClash>
0.4712

> <Gold.Chemscore.DEInternal>
0.6886

> <Gold.Chemscore.Rot>
2.3724

> <Gold.Chemscore.Internal.Correction>
   9.000000E+99

> <Gold.Chemscore.Hbonds>
donor molecule, donor type, donor heavy atom, donor atom, acceptor molecule, acceptor atom, score
      L1  H     5    45       P1  8028  0.06
      L1  H    12    44       P1  7948  0.50
      P1  H  7989  7998       L1    10  0.47

> <Gold.Chemscore.Hbond.Weighted>
-7.8663

> <Gold.Chemscore.Metal.Weighted>
-0.0000

> <Gold.Chemscore.Lipo.Weighted>
-12.3758

> <Gold.Chemscore.Internal_Hbond.Weighted>
0.0000

> <Gold.Chemscore.DEClash.Weighted>
0.4712

> <Gold.Chemscore.DEInternal.Weighted>
0.6886

> <Gold.Chemscore.Rot.Weighted>
6.0734

> <Gold.Chemscore.Internal.Correction.Weighted>
   9.000000E+99

> <Gold.Protein.RotatedTorsions>
[ 6907 6896 6895 6894 ] final -124.67 input  -60.11 | X-H torsion
[ 7974 7965 7964 7962 ] final  -45.62 input  175.53 | X-H torsion
[ 8008 7997 7996 7995 ] final  126.76 input   59.86 | X-H torsion
[ 10167 10162 10161 10158 ] final   51.33 input  -65.29 | X-H torsion
[ 10718 10713 10712 10709 ] final  -10.82 input   66.30 | X-H torsion
[ 10763 10752 10751 10750 ] final  -62.25 input  -60.55 | X-H torsion
[ 11005 11000 10999 10996 ] final  127.07 input  -57.11 | X-H torsion

> <Gold.Protein.ActiveResidues>
 VAL166  LYS551  ARG553  GLY616  TRP617  ASP618  TYR619  PRO620  LYS621  CYS622 
 ASP623  PHE694  ASN695  SER759  ASP760  ASP761  ALA762  ILE779  LEU786  VAL792 
 PHE793  MET794  SER795  GLU796  ALA797  LYS798  CYS799  TRP800  GLU811  SER814 

> <Gold.Protein.RotatedAtoms>
  150.8791  133.7397  159.2937 H   0  0  0  0  0  0  0  0  0  0  0  0  # atno 6907 bound_to 6896
  151.4984  135.1059  159.9832 H   0  0  0  0  0  0  0  0  0  0  0  0  # atno 6908 bound_to 6896
  152.4748  133.8067  159.7037 H   0  0  0  0  0  0  0  0  0  0  0  0  # atno 6909 bound_to 6896
  145.9802  140.7291  142.9367 H   0  0  0  0  0  0  0  0  0  0  0  0  # atno 7974 bound_to 7965
  156.2873  140.2685  156.2164 H   0  0  0  0  0  0  0  0  0  0  0  0  # atno 8008 bound_to 7997
  155.0213  140.0386  157.2456 H   0  0  0  0  0  0  0  0  0  0  0  0  # atno 8009 bound_to 7997
  154.7434  140.2729  155.6359 H   0  0  0  0  0  0  0  0  0  0  0  0  # atno 8010 bound_to 7997
  140.2630  144.3351  150.6312 H   0  0  0  0  0  0  0  0  0  0  0  0  # atno 10167 bound_to 10162
  156.6680  130.5001  149.6009 H   0  0  0  0  0  0  0  0  0  0  0  0  # atno 10718 bound_to 10713
  154.2970  135.6242  153.5409 H   0  0  0  0  0  0  0  0  0  0  0  0  # atno 10763 bound_to 10752
  152.9845  135.5669  154.5326 H   0  0  0  0  0  0  0  0  0  0  0  0  # atno 10764 bound_to 10752
  154.4949  135.2869  155.1443 H   0  0  0  0  0  0  0  0  0  0  0  0  # atno 10765 bound_to 10752
  139.9488  134.9625  156.8800 H   0  0  0  0  0  0  0  0  0  0  0  0  # atno 11005 bound_to 11000
  144.6859  140.2896  143.7280 LP  0  0  0  0  0  0  0  0  0  0  0  0  # atno 17320 bound_to 7965
  145.7780  139.1881  143.2174 LP  0  0  0  0  0  0  0  0  0  0  0  0  # atno 17321 bound_to 7965
  140.5950  143.2167  151.7181 LP  0  0  0  0  0  0  0  0  0  0  0  0  # atno 17342 bound_to 10162
  139.5011  144.3881  152.0308 LP  0  0  0  0  0  0  0  0  0  0  0  0  # atno 17343 bound_to 10162
  156.1960  130.6590  151.1115 LP  0  0  0  0  0  0  0  0  0  0  0  0  # atno 17370 bound_to 10713
  157.7087  131.0744  150.6578 LP  0  0  0  0  0  0  0  0  0  0  0  0  # atno 17371 bound_to 10713
  140.5768  134.0390  155.7450 LP  0  0  0  0  0  0  0  0  0  0  0  0  # atno 17394 bound_to 11000
  141.1146  133.9561  157.2846 LP  0  0  0  0  0  0  0  0  0  0  0  0  # atno 17395 bound_to 11000

$$$$
