AV-unprocessed.smi:2019|AV-procd|sdf|8172|dock6
  -GOLD-   2272010423D 1   1.00000     0.00000
 Structure written by MMmdl.
 36 37  0  0  0  0  0  0  0  0  1 V2000
  150.8779  141.0495  157.6031 O   0  0  0  0  0  0  0  0  0  0  0  0
  150.7685  142.0883  156.9503 C   0  0  0  0  0  0  0  0  0  0  0  0
  151.5399  143.3521  157.3531 C   0  0  0  0  0  0  0  0  0  0  0  0
  152.0151  143.3153  158.7460 N   0  0  0  0  0  0  0  0  0  0  0  0
  152.8457  142.2380  159.1143 C   0  0  0  0  0  0  0  0  0  0  0  0
  153.3372  142.1130  160.3574 C   0  0  0  0  0  0  0  0  0  0  0  0
  152.9940  143.1217  161.3317 C   0  0  0  0  0  0  0  0  0  0  0  0
  152.2019  144.1572  160.9895 C   0  0  0  0  0  0  0  0  0  0  0  0
  151.6627  144.2981  159.6318 C   0  0  0  0  0  0  0  0  0  0  0  0
  150.9386  145.2408  159.3108 O   0  0  0  0  0  0  0  0  0  0  0  0
  149.9740  142.2003  155.8737 N   0  0  0  0  0  0  0  0  0  0  0  0
  149.1707  141.1212  155.2945 C   0  0  1  0  0  0  0  0  0  0  0  0
  148.3034  141.7345  154.1711 C   0  0  0  0  0  0  0  0  0  0  0  0
  147.0517  140.9063  153.8313 C   0  0  0  0  0  0  0  0  0  0  0  0
  147.3335  139.5186  153.2352 C   0  0  0  0  0  0  0  0  0  0  0  0
  148.0968  138.5805  154.1858 C   0  0  0  0  0  0  0  0  0  0  0  0
  149.5191  138.8926  154.2380 N   0  0  0  0  0  0  0  0  0  0  0  0
  150.0801  140.0231  154.6935 C   0  0  0  0  0  0  0  0  0  0  0  0
  151.2990  140.1816  154.6272 O   0  0  0  0  0  0  0  0  0  0  0  0
  152.3833  143.4999  156.6754 H   0  0  0  0  0  0  0  0  0  0  0  0
  150.8889  144.2120  157.1900 H   0  0  0  0  0  0  0  0  0  0  0  0
  153.0604  141.5311  158.3261 H   0  0  0  0  0  0  0  0  0  0  0  0
  153.9754  141.2822  160.6205 H   0  0  0  0  0  0  0  0  0  0  0  0
  153.3753  143.0467  162.3394 H   0  0  0  0  0  0  0  0  0  0  0  0
  151.9566  144.9030  161.7314 H   0  0  0  0  0  0  0  0  0  0  0  0
  149.9474  143.0900  155.3973 H   0  0  0  0  0  0  0  0  0  0  0  0
  148.5327  140.6966  156.0719 H   0  0  0  0  0  0  0  0  0  0  0  0
  147.9563  142.7193  154.4879 H   0  0  0  0  0  0  0  0  0  0  0  0
  148.8956  141.9110  153.2710 H   0  0  0  0  0  0  0  0  0  0  0  0
  146.4366  140.7980  154.7256 H   0  0  0  0  0  0  0  0  0  0  0  0
  146.4450  141.4699  153.1218 H   0  0  0  0  0  0  0  0  0  0  0  0
  146.3768  139.0562  152.9894 H   0  0  0  0  0  0  0  0  0  0  0  0
  147.8695  139.6152  152.2897 H   0  0  0  0  0  0  0  0  0  0  0  0
  147.6637  138.5929  155.1869 H   0  0  0  0  0  0  0  0  0  0  0  0
  148.0066  137.5554  153.8260 H   0  0  0  0  0  0  0  0  0  0  0  0
  150.1427  138.1924  153.8626 H   0  0  0  0  0  0  0  0  0  0  0  0
  1  2  2  0  0  0  0
  2  3  1  0  0  0  0
  2 11  1  0  0  0  0
  3  4  1  0  0  0  0
  3 20  1  0  0  0  0
  3 21  1  0  0  0  0
  4  9  1  0  0  0  0
  4  5  1  0  0  0  0
  5  6  2  0  0  0  0
  5 22  1  0  0  0  0
  6  7  1  0  0  0  0
  6 23  1  0  0  0  0
  7  8  2  0  0  0  0
  7 24  1  0  0  0  0
  8  9  1  0  0  0  0
  8 25  1  0  0  0  0
  9 10  2  0  0  0  0
 11 12  1  0  0  0  0
 11 26  1  0  0  0  0
 12 18  1  0  0  0  0
 12 13  1  0  0  0  0
 12 27  1  0  0  0  0
 13 14  1  0  0  0  0
 13 28  1  0  0  0  0
 13 29  1  0  0  0  0
 14 15  1  0  0  0  0
 14 30  1  0  0  0  0
 14 31  1  0  0  0  0
 15 16  1  0  0  0  0
 15 32  1  0  0  0  0
 15 33  1  0  0  0  0
 16 17  1  0  0  0  0
 16 34  1  0  0  0  0
 16 35  1  0  0  0  0
 17 18  1  0  0  0  0
 17 36  1  0  0  0  0
 18 19  2  0  0  0  0
M  END
> <s_m_source_file>
AV-unprocessed.smi

> <i_m_source_file_index>
2019

> <i_lp_mmshare_version>
43012

> <i_f3d_flags>
0

> <s_epik_input>
Tz1jMVtjSF1bY0hdW2NIXVtjSF1uMVtDSDJdQyg9TylbTkhdW0NAQEhdMltDSDJdW0NIMl1bQ0gyXVtDSDJdW05IXUMyPU8=

> <s_epik_cmdline>
J2VwaWtfcHl0aG9uJywgJy1waCcsICc3LjAnLCAnLXRuJywgJzgnLCAnLW1hJywgJzIwMCcsICctbWV0YWxfYmluZGluZycsICctaW1hZScsICc8aW5maWxlLm1hZT4nLCAnLW9tYWUnLCAnPG91dGZpbGUubWFlPic=

> <r_lp_tautomer_probability>
1

> <r_epik_Ionization_Penalty>
3.70786e-07

> <r_epik_Ionization_Penalty_Charging>
3.17464e-07

> <r_epik_Ionization_Penalty_Neutral>
5.33217e-08

> <r_epik_State_Penalty>
-0

> <r_epik_Charging_Adjusted_Penalty>
3.17464e-07

> <i_epik_Tot_Q>
0

> <i_epik_Tot_abs_Q>
0

> <r_epik_Metal_State_Penalty>
-0

> <b_epik_Metal_Only>
0

> <s_lp_Force_Field>
OPLS_2005

> <r_lp_Energy>
20.0442

> <b_lp_Chiralities_Consistent>
1

> <s_lp_Variant>
AV-unprocessed.smi:2019-2

> <Gold.Version>
5.8.1

> <Gold.Id.Protein>
6NUR|6NUR_protein|mol2

> <Gold.PLP.Fitness>
48.1314

> <Gold.PLP.PLP>
-43.9807

> <Gold.PLP.part.hbond>
-2.1733

> <Gold.PLP.part.metal>
0.0000

> <Gold.PLP.part.buried>
-4.9804

> <Gold.PLP.part.nonpolar>
-37.0462

> <Gold.PLP.part.repulsive>
0.4458

> <Gold.PLP.ligand.clash>
0.0000

> <Gold.PLP.ligand.torsion>
0.3131

> <Gold.PLP.Chemscore.Hbond>
1.5920

> <Gold.PLP.Chemscore.CHOScore>
0.0000

> <Gold.PLP.Chemscore.Metal>
0.0000

> <Gold.Chemscore.Hbonds>
donor molecule, donor type, donor heavy atom, donor atom, acceptor molecule, acceptor atom, score
      L1  H    11    26       P1  8028  0.67
      P1  H  7989  7998       L1    19  0.59

> <Gold.PLP.Chemscore.Internal.Correction>
0.0009

> <Gold.Rescore>
     Score         DG    S(hbond)    S(metal)    S(lipo)     H(rot)  DE(clash)    DE(int)     intcor
     15.71     -17.32       1.81        0.00      84.50       1.59       0.01       1.60       ----

> <Gold.Chemscore.Fitness>
15.7137

> <Gold.Chemscore.DG>
-17.3157

> <Gold.Chemscore.ZeroCoef>
-5.4800

> <Gold.Chemscore.Hbond>
1.8053

> <Gold.Chemscore.Metal>
0.0000

> <Gold.Chemscore.Lipo>
84.4993

> <Gold.Chemscore.Internal_Hbond>
0.0000

> <Gold.Chemscore.DEClash>
0.0059

> <Gold.Chemscore.DEInternal>
1.5961

> <Gold.Chemscore.Rot>
1.5939

> <Gold.Chemscore.Internal.Correction>
   9.000000E+99

> <Gold.Chemscore.Hbonds>
donor molecule, donor type, donor heavy atom, donor atom, acceptor molecule, acceptor atom, score
      L1  H    11    26       P1  8028  0.67
      P1  H  7989  7998       L1    19  0.46

> <Gold.Chemscore.Hbond.Weighted>
-6.0297

> <Gold.Chemscore.Metal.Weighted>
-0.0000

> <Gold.Chemscore.Lipo.Weighted>
-9.8864

> <Gold.Chemscore.Internal_Hbond.Weighted>
0.0000

> <Gold.Chemscore.DEClash.Weighted>
0.0059

> <Gold.Chemscore.DEInternal.Weighted>
1.5961

> <Gold.Chemscore.Rot.Weighted>
4.0804

> <Gold.Chemscore.Internal.Correction.Weighted>
   9.000000E+99

> <Gold.Protein.RotatedTorsions>
[ 6907 6896 6895 6894 ] final -163.13 input  -60.11 | X-H torsion
[ 7974 7965 7964 7962 ] final  -34.90 input  175.53 | X-H torsion
[ 8008 7997 7996 7995 ] final   54.48 input   59.86 | X-H torsion
[ 10167 10162 10161 10158 ] final  119.58 input  -65.29 | X-H torsion
[ 10718 10713 10712 10709 ] final   -8.54 input   66.30 | X-H torsion
[ 10763 10752 10751 10750 ] final   34.38 input  -60.55 | X-H torsion
[ 11005 11000 10999 10996 ] final  134.37 input  -57.11 | X-H torsion

> <Gold.Protein.ActiveResidues>
 VAL166  LYS551  ARG553  GLY616  TRP617  ASP618  TYR619  PRO620  LYS621  CYS622 
 ASP623  PHE694  ASN695  SER759  ASP760  ASP761  ALA762  ILE779  LEU786  VAL792 
 PHE793  MET794  SER795  GLU796  ALA797  LYS798  CYS799  TRP800  GLU811  SER814 

> <Gold.Protein.RotatedAtoms>
  151.3912  133.3788  159.2720 H   0  0  0  0  0  0  0  0  0  0  0  0  # atno 6907 bound_to 6896
  150.9503  134.8905  159.7678 H   0  0  0  0  0  0  0  0  0  0  0  0  # atno 6908 bound_to 6896
  152.5109  134.3867  159.9422 H   0  0  0  0  0  0  0  0  0  0  0  0  # atno 6909 bound_to 6896
  146.0791  140.6094  142.8916 H   0  0  0  0  0  0  0  0  0  0  0  0  # atno 7974 bound_to 7965
  155.4855  140.3470  155.4346 H   0  0  0  0  0  0  0  0  0  0  0  0  # atno 8008 bound_to 7997
  156.1011  140.1436  156.9494 H   0  0  0  0  0  0  0  0  0  0  0  0  # atno 8009 bound_to 7997
  154.4694  140.0906  156.7084 H   0  0  0  0  0  0  0  0  0  0  0  0  # atno 8010 bound_to 7997
  139.6037  144.7064  151.3004 H   0  0  0  0  0  0  0  0  0  0  0  0  # atno 10167 bound_to 10162
  156.7010  130.5093  149.5917 H   0  0  0  0  0  0  0  0  0  0  0  0  # atno 10718 bound_to 10713
  153.0167  135.6362  154.1659 H   0  0  0  0  0  0  0  0  0  0  0  0  # atno 10763 bound_to 10752
  154.1397  135.2835  155.3165 H   0  0  0  0  0  0  0  0  0  0  0  0  # atno 10764 bound_to 10752
  154.6133  135.5549  153.7558 H   0  0  0  0  0  0  0  0  0  0  0  0  # atno 10765 bound_to 10752
  139.9911  134.9514  156.9858 H   0  0  0  0  0  0  0  0  0  0  0  0  # atno 11005 bound_to 11000
  144.7281  140.4589  143.6958 LP  0  0  0  0  0  0  0  0  0  0  0  0  # atno 17320 bound_to 7965
  145.6250  139.1529  143.3001 LP  0  0  0  0  0  0  0  0  0  0  0  0  # atno 17321 bound_to 7965
  140.7269  143.6979  150.7869 LP  0  0  0  0  0  0  0  0  0  0  0  0  # atno 17342 bound_to 10162
  140.0560  143.5202  152.2651 LP  0  0  0  0  0  0  0  0  0  0  0  0  # atno 17343 bound_to 10162
  156.1728  130.6448  151.0858 LP  0  0  0  0  0  0  0  0  0  0  0  0  # atno 17370 bound_to 10713
  157.6973  131.0789  150.6930 LP  0  0  0  0  0  0  0  0  0  0  0  0  # atno 17371 bound_to 10713
  140.4907  134.1196  155.7232 LP  0  0  0  0  0  0  0  0  0  0  0  0  # atno 17394 bound_to 11000
  141.1566  133.8870  157.1960 LP  0  0  0  0  0  0  0  0  0  0  0  0  # atno 17395 bound_to 11000

$$$$
