AV-unprocessed.smi:72|AV-procd|sdf|688|dock4
  -GOLD-   2262017 03D 1   1.00000     0.00000
 Structure written by MMmdl.
 29 30  0  0  0  0  0  0  0  0  1 V2000
  151.9642  140.5634  158.9157 N   0  0  0  0  0  0  0  0  0  0  0  0
  151.1829  140.7770  157.9185 C   0  0  0  0  0  0  0  0  0  0  0  0
  150.0790  141.6421  157.9220 N   0  0  0  0  0  0  0  0  0  0  0  0
  149.3745  141.7540  156.8384 C   0  0  0  0  0  0  0  0  0  0  0  0
  149.6879  141.0142  155.6248 N   0  0  0  0  0  0  0  0  0  0  0  0
  148.8398  141.1494  154.3745 C   0  0  1  0  0  0  0  0  0  0  0  0
  148.5939  139.8785  153.8488 O   0  0  0  0  0  0  0  0  0  0  0  0
  147.2102  139.5662  153.9475 C   0  0  2  0  0  0  0  0  0  0  0  0
  146.7914  138.5993  152.8250 C   0  0  0  0  0  0  0  0  0  0  0  0
  147.6248  138.7092  151.6896 O   0  0  0  0  0  0  0  0  0  0  0  0
  146.4773  140.9111  154.0135 C   0  0  1  0  0  0  0  0  0  0  0  0
  145.3168  140.7986  154.8130 O   0  0  0  0  0  0  0  0  0  0  0  0
  147.4947  141.8370  154.6757 C   0  0  2  0  0  0  0  0  0  0  0  0
  147.4231  143.1191  154.0856 O   0  0  0  0  0  0  0  0  0  0  0  0
  150.8105  140.1480  155.6027 C   0  0  0  0  0  0  0  0  0  0  0  0
  151.1470  139.5166  154.6015 O   0  0  0  0  0  0  0  0  0  0  0  0
  151.5064  140.0649  156.7572 N   0  0  0  0  0  0  0  0  0  0  0  0
  149.4338  141.6791  153.6291 H   0  0  0  0  0  0  0  0  0  0  0  0
  147.0772  139.0442  154.8949 H   0  0  0  0  0  0  0  0  0  0  0  0
  146.2181  141.2708  153.0169 H   0  0  0  0  0  0  0  0  0  0  0  0
  147.3412  141.9023  155.7541 H   0  0  0  0  0  0  0  0  0  0  0  0
  151.6680  141.1097  159.7121 H   0  0  0  0  0  0  0  0  0  0  0  0
  148.5103  142.4116  156.7721 H   0  0  0  0  0  0  0  0  0  0  0  0
  146.7982  137.5701  153.1843 H   0  0  0  0  0  0  0  0  0  0  0  0
  145.7706  138.8210  152.5128 H   0  0  0  0  0  0  0  0  0  0  0  0
  148.2878  139.3595  151.8650 H   0  0  0  0  0  0  0  0  0  0  0  0
  144.5691  140.7192  154.2404 H   0  0  0  0  0  0  0  0  0  0  0  0
  147.9158  143.7235  154.6200 H   0  0  0  0  0  0  0  0  0  0  0  0
  152.3110  139.4555  156.7760 H   0  0  0  0  0  0  0  0  0  0  0  0
  1  2  2  0  0  0  0
  1 22  1  0  0  0  0
  2 17  1  0  0  0  0
  2  3  1  0  0  0  0
  3  4  2  0  0  0  0
  4  5  1  0  0  0  0
  4 23  1  0  0  0  0
  5  6  1  0  0  0  0
  5 15  1  0  0  0  0
  6 18  1  0  0  0  0
  6 13  1  0  0  0  0
  6  7  1  0  0  0  0
  7  8  1  0  0  0  0
  8 19  1  0  0  0  0
  8  9  1  0  0  0  0
  8 11  1  0  0  0  0
  9 10  1  0  0  0  0
  9 24  1  0  0  0  0
  9 25  1  0  0  0  0
 10 26  1  0  0  0  0
 11 20  1  0  0  0  0
 11 12  1  0  0  0  0
 11 13  1  0  0  0  0
 12 27  1  0  0  0  0
 13 21  1  0  0  0  0
 13 14  1  0  0  0  0
 14 28  1  0  0  0  0
 15 16  2  0  0  0  0
 15 17  1  0  0  0  0
 17 29  1  0  0  0  0
M  END
> <s_m_source_file>
AV-unprocessed.smi

> <i_m_source_file_index>
72

> <i_lp_mmshare_version>
43012

> <i_f3d_flags>
0

> <s_epik_input>
W05IMl1jMW5bY0hdbihjKD1PKW4xKVtDQEBIXTJPW0NASF0oW0NIMl1bT0hdKVtDQEBIXShbT0hdKVtDQEhdMltPSF0=

> <s_epik_cmdline>
J2VwaWtfcHl0aG9uJywgJy1waCcsICc3LjAnLCAnLXRuJywgJzgnLCAnLW1hJywgJzIwMCcsICctbWV0YWxfYmluZGluZycsICctaW1hZScsICc8aW5maWxlLm1hZT4nLCAnLW9tYWUnLCAnPG91dGZpbGUubWFlPic=

> <r_lp_tautomer_probability>
7.17554e-07

> <r_epik_Ionization_Penalty>
0.0066451

> <r_epik_Ionization_Penalty_Charging>
0.00663793

> <r_epik_Ionization_Penalty_Neutral>
7.17052e-06

> <r_epik_State_Penalty>
0.419231

> <r_epik_Charging_Adjusted_Penalty>
0.425868

> <i_epik_Tot_Q>
0

> <i_epik_Tot_abs_Q>
0

> <r_epik_Metal_State_Penalty>
1.44144

> <b_epik_Metal_Only>
0

> <s_epik_Chemistry_Notes>
This compound contains an acetal/aminal-like group ( X-CH(R)-Y where X, Y are N, S, or O) that may be acid/base labile, releasing an aldehyde.

> <s_lp_Force_Field>
OPLS_2005

> <r_lp_Energy>
38.9387

> <b_lp_Chiralities_Consistent>
1

> <s_lp_Variant>
AV-unprocessed.smi:72-26

> <Gold.Version>
5.8.1

> <Gold.Id.Protein>
6NUR|6NUR_protein|mol2

> <Gold.PLP.Fitness>
40.2646

> <Gold.PLP.PLP>
-25.4952

> <Gold.PLP.part.hbond>
-7.0226

> <Gold.PLP.part.metal>
0.0000

> <Gold.PLP.part.buried>
-2.1746

> <Gold.PLP.part.nonpolar>
-18.2337

> <Gold.PLP.part.repulsive>
2.1330

> <Gold.PLP.ligand.clash>
0.0000

> <Gold.PLP.ligand.torsion>
0.8150

> <Gold.PLP.Chemscore.Hbond>
4.6897

> <Gold.PLP.Chemscore.CHOScore>
0.7764

> <Gold.PLP.Chemscore.Metal>
0.0000

> <Gold.Chemscore.Hbonds>
donor molecule, donor type, donor heavy atom, donor atom, acceptor molecule, acceptor atom, score
      L1  H    10    26       P1  7957  0.77
      L1  H    12    27       P1 10175  1.00
      L1  H    14    28       P1  8028  1.00
      P1  H  7954  7966       L1    10  0.90
      P1  H  7989  7998       L1    16  1.00
      L1  C     4    23       P1  8028  0.65

> <Gold.PLP.Chemscore.Internal.Correction>
0.0009

> <Gold.Rescore>
     Score         DG    S(hbond)    S(metal)    S(lipo)     H(rot)  DE(clash)    DE(int)     intcor
      7.62     -11.05       3.93        0.00      24.23       4.06       1.56       1.87       ----

> <Gold.Chemscore.Fitness>
7.6157

> <Gold.Chemscore.DG>
-11.0495

> <Gold.Chemscore.ZeroCoef>
-5.4800

> <Gold.Chemscore.Hbond>
3.9306

> <Gold.Chemscore.Metal>
0.0000

> <Gold.Chemscore.Lipo>
24.2304

> <Gold.Chemscore.Internal_Hbond>
0.0000

> <Gold.Chemscore.DEClash>
1.5594

> <Gold.Chemscore.DEInternal>
1.8744

> <Gold.Chemscore.Rot>
4.0600

> <Gold.Chemscore.Internal.Correction>
   9.000000E+99

> <Gold.Chemscore.Hbonds>
donor molecule, donor type, donor heavy atom, donor atom, acceptor molecule, acceptor atom, score
      L1  H    10    26       P1  7957  0.75
      L1  H    12    27       P1 10175  0.95
      L1  H    14    28       P1  8028  0.50
      P1  H  7954  7966       L1    10  0.37
      P1  H  7989  7998       L1    16  0.30

> <Gold.Chemscore.Hbond.Weighted>
-13.1281

> <Gold.Chemscore.Metal.Weighted>
-0.0000

> <Gold.Chemscore.Lipo.Weighted>
-2.8350

> <Gold.Chemscore.Internal_Hbond.Weighted>
0.0000

> <Gold.Chemscore.DEClash.Weighted>
1.5594

> <Gold.Chemscore.DEInternal.Weighted>
1.8744

> <Gold.Chemscore.Rot.Weighted>
10.3936

> <Gold.Chemscore.Internal.Correction.Weighted>
   9.000000E+99

> <Gold.Protein.RotatedTorsions>
[ 6907 6896 6895 6894 ] final -103.02 input  -60.11 | X-H torsion
[ 7974 7965 7964 7962 ] final   47.40 input  175.53 | X-H torsion
[ 8008 7997 7996 7995 ] final  141.78 input   59.86 | X-H torsion
[ 10167 10162 10161 10158 ] final -130.67 input  -65.29 | X-H torsion
[ 10718 10713 10712 10709 ] final  133.30 input   66.30 | X-H torsion
[ 10763 10752 10751 10750 ] final  -26.40 input  -60.55 | X-H torsion
[ 11005 11000 10999 10996 ] final   44.35 input  -57.11 | X-H torsion

> <Gold.Protein.ActiveResidues>
 VAL166  LYS551  ARG553  GLY616  TRP617  ASP618  TYR619  PRO620  LYS621  CYS622 
 ASP623  PHE694  ASN695  SER759  ASP760  ASP761  ALA762  ILE779  LEU786  VAL792 
 PHE793  MET794  SER795  GLU796  ALA797  LYS798  CYS799  TRP800  GLU811  SER814 

> <Gold.Protein.RotatedAtoms>
  150.7221  134.0493  159.3792 H   0  0  0  0  0  0  0  0  0  0  0  0  # atno 6907 bound_to 6896
  151.8469  135.0569  160.0464 H   0  0  0  0  0  0  0  0  0  0  0  0  # atno 6908 bound_to 6896
  152.2820  133.5443  159.5540 H   0  0  0  0  0  0  0  0  0  0  0  0  # atno 6909 bound_to 6896
  146.0301  139.4753  142.9843 H   0  0  0  0  0  0  0  0  0  0  0  0  # atno 7974 bound_to 7965
  156.2960  140.2306  156.4620 H   0  0  0  0  0  0  0  0  0  0  0  0  # atno 8008 bound_to 7997
  154.8010  140.0448  157.1293 H   0  0  0  0  0  0  0  0  0  0  0  0  # atno 8009 bound_to 7997
  154.9533  140.3045  155.5068 H   0  0  0  0  0  0  0  0  0  0  0  0  # atno 8010 bound_to 7997
  139.9269  143.6317  152.2539 H   0  0  0  0  0  0  0  0  0  0  0  0  # atno 10167 bound_to 10162
  157.4787  131.1084  150.9710 H   0  0  0  0  0  0  0  0  0  0  0  0  # atno 10718 bound_to 10713
  153.7153  135.6948  153.5027 H   0  0  0  0  0  0  0  0  0  0  0  0  # atno 10763 bound_to 10752
  153.2243  135.4359  155.0523 H   0  0  0  0  0  0  0  0  0  0  0  0  # atno 10764 bound_to 10752
  154.8302  135.3468  154.6688 H   0  0  0  0  0  0  0  0  0  0  0  0  # atno 10765 bound_to 10752
  140.1560  134.4401  155.8349 H   0  0  0  0  0  0  0  0  0  0  0  0  # atno 11005 bound_to 11000
  145.7055  141.0123  143.1481 LP  0  0  0  0  0  0  0  0  0  0  0  0  # atno 17320 bound_to 7965
  144.7026  139.8695  143.7439 LP  0  0  0  0  0  0  0  0  0  0  0  0  # atno 17321 bound_to 7965
  139.6814  144.7655  151.1601 LP  0  0  0  0  0  0  0  0  0  0  0  0  # atno 17342 bound_to 10162
  140.7648  143.5719  150.8987 LP  0  0  0  0  0  0  0  0  0  0  0  0  # atno 17343 bound_to 10162
  157.0451  130.5764  149.5362 LP  0  0  0  0  0  0  0  0  0  0  0  0  # atno 17370 bound_to 10713
  156.0110  130.5201  150.7987 LP  0  0  0  0  0  0  0  0  0  0  0  0  # atno 17371 bound_to 10713
  141.2204  133.6892  156.7508 LP  0  0  0  0  0  0  0  0  0  0  0  0  # atno 17394 bound_to 11000
  140.2547  134.8513  157.3701 LP  0  0  0  0  0  0  0  0  0  0  0  0  # atno 17395 bound_to 11000

$$$$
