AV-unprocessed.smi:1228|AV-procd|sdf|5147|dock5
  -GOLD-   22720 4213D 1   1.00000     0.00000
 Structure written by MMmdl.
 44 46  0  0  0  0  0  0  0  0  2 V2000
  150.5869  140.7630  155.4958 C   0  0  0  0  0  0  0  0  0  0  0  0
  149.2313  140.7307  154.8541 C   0  0  0  0  0  0  0  0  0  0  0  0
  148.5310  139.6013  154.3389 C   0  0  0  0  0  0  0  0  0  0  0  0
  147.3647  140.1523  153.8830 C   0  0  0  0  0  0  0  0  0  0  0  0
  146.3042  139.5413  153.2905 N   0  0  0  0  0  0  0  0  0  0  0  0
  146.1605  138.2468  152.9560 C   0  0  0  0  0  0  0  0  0  0  0  0
  147.0073  137.3681  153.1179 O   0  0  0  0  0  0  0  0  0  0  0  0
  144.9582  138.0174  152.4072 N   0  0  0  0  0  0  0  0  0  0  0  0
  144.4817  136.7154  151.9485 C   0  0  2  0  0  0  0  0  0  0  0  0
  144.1281  135.8050  153.1396 C   0  0  0  0  0  0  0  0  0  0  0  0
  143.7144  134.4039  152.6598 C   0  0  0  0  0  0  0  0  0  0  0  0
  144.7781  133.7886  151.8276 N   0  3  1  0  0  0  0  0  0  0  0  0
  144.4504  132.3980  151.4442 C   0  0  0  0  0  0  0  0  0  0  0  0
  145.2440  131.8890  150.2634 C   0  0  0  0  0  0  0  0  0  0  0  0
  143.7932  132.2799  150.0887 C   0  0  0  0  0  0  0  0  0  0  0  0
  145.1116  134.6292  150.6507 C   0  0  0  0  0  0  0  0  0  0  0  0
  145.5565  136.0366  151.0836 C   0  0  0  0  0  0  0  0  0  0  0  0
  147.3903  141.5085  154.1216 N   0  0  0  0  0  0  0  0  0  0  0  0
  146.3909  142.5154  153.8220 C   0  0  0  0  0  0  0  0  0  0  0  0
  148.5483  141.8622  154.7200 N   0  0  0  0  0  0  0  0  0  0  0  0
  150.9489  139.7554  155.7015 H   0  0  0  0  0  0  0  0  0  0  0  0
  150.5633  141.3050  156.4416 H   0  0  0  0  0  0  0  0  0  0  0  0
  151.3149  141.2516  154.8480 H   0  0  0  0  0  0  0  0  0  0  0  0
  148.8496  138.5699  154.3198 H   0  0  0  0  0  0  0  0  0  0  0  0
  145.5237  140.1456  153.0803 H   0  0  0  0  0  0  0  0  0  0  0  0
  144.3234  138.7965  152.3110 H   0  0  0  0  0  0  0  0  0  0  0  0
  143.5906  136.8599  151.3339 H   0  0  0  0  0  0  0  0  0  0  0  0
  144.9846  135.7210  153.8106 H   0  0  0  0  0  0  0  0  0  0  0  0
  143.3189  136.2436  153.7250 H   0  0  0  0  0  0  0  0  0  0  0  0
  143.5117  133.7685  153.5228 H   0  0  0  0  0  0  0  0  0  0  0  0
  142.7884  134.4620  152.0852 H   0  0  0  0  0  0  0  0  0  0  0  0
  144.1724  131.7255  152.2541 H   0  0  0  0  0  0  0  0  0  0  0  0
  145.9957  132.5432  149.8252 H   0  0  0  0  0  0  0  0  0  0  0  0
  145.4802  130.8272  150.2374 H   0  0  0  0  0  0  0  0  0  0  0  0
  143.0740  131.4754  149.9478 H   0  0  0  0  0  0  0  0  0  0  0  0
  143.5827  133.1935  149.5355 H   0  0  0  0  0  0  0  0  0  0  0  0
  145.9097  134.1560  150.0775 H   0  0  0  0  0  0  0  0  0  0  0  0
  144.2447  134.6947  149.9910 H   0  0  0  0  0  0  0  0  0  0  0  0
  145.7665  136.6436  150.2021 H   0  0  0  0  0  0  0  0  0  0  0  0
  146.4923  135.9647  151.6402 H   0  0  0  0  0  0  0  0  0  0  0  0
  146.2608  142.5912  152.7423 H   0  0  0  0  0  0  0  0  0  0  0  0
  146.6958  143.4878  154.2110 H   0  0  0  0  0  0  0  0  0  0  0  0
  145.4410  142.2359  154.2779 H   0  0  0  0  0  0  0  0  0  0  0  0
  145.6084  133.7435  152.4007 H   0  0  0  0  0  0  0  0  0  0  0  0
  1  2  1  0  0  0  0
  1 21  1  0  0  0  0
  1 22  1  0  0  0  0
  1 23  1  0  0  0  0
  2 20  2  0  0  0  0
  2  3  1  0  0  0  0
  3  4  2  0  0  0  0
  3 24  1  0  0  0  0
  4  5  1  0  0  0  0
  4 18  1  0  0  0  0
  5  6  1  0  0  0  0
  5 25  1  0  0  0  0
  6  7  2  0  0  0  0
  6  8  1  0  0  0  0
  8  9  1  0  0  0  0
  8 26  1  0  0  0  0
  9 17  1  0  0  0  0
  9 10  1  0  0  0  0
  9 27  1  0  0  0  0
 10 11  1  0  0  0  0
 10 28  1  0  0  0  0
 10 29  1  0  0  0  0
 11 12  1  0  0  0  0
 11 30  1  0  0  0  0
 11 31  1  0  0  0  0
 12 13  1  0  0  0  0
 12 16  1  0  0  0  0
 12 44  1  0  0  0  0
 13 15  1  0  0  0  0
 13 14  1  0  0  0  0
 13 32  1  0  0  0  0
 14 15  1  0  0  0  0
 14 33  1  0  0  0  0
 14 34  1  0  0  0  0
 15 35  1  0  0  0  0
 15 36  1  0  0  0  0
 16 17  1  0  0  0  0
 16 37  1  0  0  0  0
 16 38  1  0  0  0  0
 17 39  1  0  0  0  0
 17 40  1  0  0  0  0
 18 19  1  0  0  0  0
 18 20  1  0  0  0  0
 19 41  1  0  0  0  0
 19 42  1  0  0  0  0
 19 43  1  0  0  0  0
M  CHG  1  12   1
M  END
> <s_m_source_file>
AV-unprocessed.smi

> <i_m_source_file_index>
1228

> <i_lp_mmshare_version>
43012

> <i_f3d_flags>
0

> <s_epik_input>
W0NIM11jMVtjSF1jKG4objEpW0NIM10pW05IXUMoPU8pW05IXVtDSF0yW0NIMl1bQ0gyXU4oW0NIMl1bQ0gyXTIpW0NIXTNbQ0gyXVtDSDJdMw==

> <s_epik_cmdline>
J2VwaWtfcHl0aG9uJywgJy1waCcsICc3LjAnLCAnLXRuJywgJzgnLCAnLW1hJywgJzIwMCcsICctbWV0YWxfYmluZGluZycsICctaW1hZScsICc8aW5maWxlLm1hZT4nLCAnLW9tYWUnLCAnPG91dGZpbGUubWFlPic=

> <r_lp_tautomer_probability>
1

> <r_epik_Ionization_Penalty>
0.11882

> <r_epik_Ionization_Penalty_Charging>
0.11874

> <r_epik_Ionization_Penalty_Neutral>
8.03064e-05

> <r_epik_State_Penalty>
0.108313

> <r_epik_Charging_Adjusted_Penalty>
0.227053

> <i_epik_Tot_Q>
1

> <i_epik_Tot_abs_Q>
1

> <r_epik_Metal_State_Penalty>
0.108316

> <b_epik_Metal_Only>
0

> <s_lp_Force_Field>
OPLS_2005

> <r_lp_Energy>
27.674

> <b_lp_Chiralities_Consistent>
1

> <s_lp_Variant>
AV-unprocessed.smi:1228-1

> <Gold.Version>
5.8.1

> <Gold.Id.Protein>
6NUR|6NUR_protein|mol2

> <Gold.PLP.Fitness>
41.1491

> <Gold.PLP.PLP>
-35.4530

> <Gold.PLP.part.hbond>
-3.0000

> <Gold.PLP.part.metal>
0.0000

> <Gold.PLP.part.buried>
-5.1940

> <Gold.PLP.part.nonpolar>
-32.2533

> <Gold.PLP.part.repulsive>
4.2510

> <Gold.PLP.ligand.clash>
0.0000

> <Gold.PLP.ligand.torsion>
0.7822

> <Gold.PLP.Chemscore.Hbond>
2.0000

> <Gold.PLP.Chemscore.CHOScore>
0.0000

> <Gold.PLP.Chemscore.Metal>
0.0000

> <Gold.Chemscore.Hbonds>
donor molecule, donor type, donor heavy atom, donor atom, acceptor molecule, acceptor atom, score
      L1  H     5    25       P1 10175  1.00
      L1  H     8    26       P1 10175  1.00

> <Gold.PLP.Chemscore.Internal.Correction>
1.2604

> <Gold.Rescore>
     Score         DG    S(hbond)    S(metal)    S(lipo)     H(rot)  DE(clash)    DE(int)     intcor
     12.90     -18.32       1.97        0.00      80.13       1.21       2.18       3.25       ----

> <Gold.Chemscore.Fitness>
12.9016

> <Gold.Chemscore.DG>
-18.3249

> <Gold.Chemscore.ZeroCoef>
-5.4800

> <Gold.Chemscore.Hbond>
1.9662

> <Gold.Chemscore.Metal>
0.0000

> <Gold.Chemscore.Lipo>
80.1267

> <Gold.Chemscore.Internal_Hbond>
0.0000

> <Gold.Chemscore.DEClash>
2.1775

> <Gold.Chemscore.DEInternal>
3.2458

> <Gold.Chemscore.Rot>
1.2097

> <Gold.Chemscore.Internal.Correction>
   9.000000E+99

> <Gold.Chemscore.Hbonds>
donor molecule, donor type, donor heavy atom, donor atom, acceptor molecule, acceptor atom, score
      L1  H     5    25       P1 10175  0.95
      L1  H     8    26       P1 10175  1.00

> <Gold.Chemscore.Hbond.Weighted>
-6.5670

> <Gold.Chemscore.Metal.Weighted>
-0.0000

> <Gold.Chemscore.Lipo.Weighted>
-9.3748

> <Gold.Chemscore.Internal_Hbond.Weighted>
0.0000

> <Gold.Chemscore.DEClash.Weighted>
2.1775

> <Gold.Chemscore.DEInternal.Weighted>
3.2458

> <Gold.Chemscore.Rot.Weighted>
3.0969

> <Gold.Chemscore.Internal.Correction.Weighted>
   9.000000E+99

> <Gold.Protein.RotatedTorsions>
[ 6907 6896 6895 6894 ] final -107.73 input  -60.11 | X-H torsion
[ 7974 7965 7964 7962 ] final  -94.36 input  175.53 | X-H torsion
[ 8008 7997 7996 7995 ] final  107.83 input   59.86 | X-H torsion
[ 10167 10162 10161 10158 ] final  131.37 input  -65.29 | X-H torsion
[ 10718 10713 10712 10709 ] final   29.42 input   66.30 | X-H torsion
[ 10763 10752 10751 10750 ] final   85.05 input  -60.55 | X-H torsion
[ 11005 11000 10999 10996 ] final -132.04 input  -57.11 | X-H torsion

> <Gold.Protein.ActiveResidues>
 VAL166  LYS551  ARG553  GLY616  TRP617  ASP618  TYR619  PRO620  LYS621  CYS622 
 ASP623  PHE694  ASN695  SER759  ASP760  ASP761  ALA762  ILE779  LEU786  VAL792 
 PHE793  MET794  SER795  GLU796  ALA797  LYS798  CYS799  TRP800  GLU811  SER814 

> <Gold.Protein.RotatedAtoms>
  150.7461  133.9783  159.3567 H   0  0  0  0  0  0  0  0  0  0  0  0  # atno 6907 bound_to 6896
  151.7722  135.0781  160.0371 H   0  0  0  0  0  0  0  0  0  0  0  0  # atno 6908 bound_to 6896
  152.3331  133.5944  159.5860 H   0  0  0  0  0  0  0  0  0  0  0  0  # atno 6909 bound_to 6896
  145.3743  140.9509  143.2429 H   0  0  0  0  0  0  0  0  0  0  0  0  # atno 7974 bound_to 7965
  156.1856  140.3087  155.9231 H   0  0  0  0  0  0  0  0  0  0  0  0  # atno 8008 bound_to 7997
  155.3289  140.0459  157.3059 H   0  0  0  0  0  0  0  0  0  0  0  0  # atno 8009 bound_to 7997
  154.5391  140.2256  155.8681 H   0  0  0  0  0  0  0  0  0  0  0  0  # atno 8010 bound_to 7997
  139.5387  144.6709  151.4698 H   0  0  0  0  0  0  0  0  0  0  0  0  # atno 10167 bound_to 10162
  157.2464  130.7094  149.6383 H   0  0  0  0  0  0  0  0  0  0  0  0  # atno 10718 bound_to 10713
  153.1439  135.4631  154.9537 H   0  0  0  0  0  0  0  0  0  0  0  0  # atno 10763 bound_to 10752
  154.7770  135.3176  154.8074 H   0  0  0  0  0  0  0  0  0  0  0  0  # atno 10764 bound_to 10752
  153.8591  135.6914  153.4839 H   0  0  0  0  0  0  0  0  0  0  0  0  # atno 10765 bound_to 10752
  140.9205  134.1450  157.4318 H   0  0  0  0  0  0  0  0  0  0  0  0  # atno 11005 bound_to 11000
  144.8553  139.5258  143.6837 LP  0  0  0  0  0  0  0  0  0  0  0  0  # atno 17320 bound_to 7965
  146.2871  139.7035  142.9187 LP  0  0  0  0  0  0  0  0  0  0  0  0  # atno 17321 bound_to 7965
  140.6606  143.8506  150.6884 LP  0  0  0  0  0  0  0  0  0  0  0  0  # atno 17342 bound_to 10162
  140.1899  143.4045  152.1871 LP  0  0  0  0  0  0  0  0  0  0  0  0  # atno 17343 bound_to 10162
  155.9668  130.4441  150.5450 LP  0  0  0  0  0  0  0  0  0  0  0  0  # atno 17370 bound_to 10713
  157.3325  131.0702  151.1850 LP  0  0  0  0  0  0  0  0  0  0  0  0  # atno 17371 bound_to 10713
  139.8774  134.9969  156.5821 LP  0  0  0  0  0  0  0  0  0  0  0  0  # atno 17394 bound_to 11000
  140.7994  133.8518  155.8713 LP  0  0  0  0  0  0  0  0  0  0  0  0  # atno 17395 bound_to 11000

$$$$
