AV-unprocessed.smi:3283|AV-procd|sdf|12568|dock10
  -GOLD-   2272018483D 1   1.00000     0.00000
 Structure written by MMmdl.
 44 45  0  0  0  0  0  0  0  0  2 V2000
  151.3512  139.6717  154.7132 C   0  0  0  0  0  0  0  0  0  0  0  0
  149.8565  139.7543  154.4528 C   0  0  0  0  0  0  0  0  0  0  0  0
  149.1510  138.6669  154.0849 C   0  0  0  0  0  0  0  0  0  0  0  0
  147.6675  138.6677  153.7652 C   0  0  0  0  0  0  0  0  0  0  0  0
  146.9809  139.9956  154.1197 C   0  0  0  0  0  0  0  0  0  0  0  0
  147.8815  141.2005  153.7940 C   0  0  1  0  0  0  0  0  0  0  0  0
  147.1132  142.5288  153.9005 C   0  0  0  0  0  0  0  0  0  0  0  0
  149.2211  141.1409  154.5907 C   0  0  1  0  0  0  0  0  0  0  0  0
  149.1008  141.5265  156.0880 C   0  0  0  0  0  0  0  0  0  0  0  0
  150.2478  142.3323  156.5527 N   0  3  0  0  0  0  0  0  0  0  0  0
  150.6375  142.0829  157.9538 C   0  0  0  0  0  0  0  0  0  0  0  0
  151.8517  142.9377  158.3451 C   0  0  0  0  0  0  0  0  0  0  0  0
  152.5986  142.4387  159.5445 C   0  0  0  0  0  0  0  0  0  0  0  0
  153.3760  141.3274  159.7270 C   0  0  0  0  0  0  0  0  0  0  0  0
  153.7974  141.4158  161.0824 C   0  0  0  0  0  0  0  0  0  0  0  0
  153.3244  142.4888  161.6911 N   0  0  0  0  0  0  0  0  0  0  0  0
  152.5899  143.1176  160.7496 N   0  0  0  0  0  0  0  0  0  0  0  0
  151.9138  144.3554  161.0879 C   0  0  0  0  0  0  0  0  0  0  0  0
  151.8872  140.3607  154.0601 H   0  0  0  0  0  0  0  0  0  0  0  0
  151.7314  138.6678  154.5213 H   0  0  0  0  0  0  0  0  0  0  0  0
  151.5894  139.9225  155.7458 H   0  0  0  0  0  0  0  0  0  0  0  0
  149.6523  137.7161  153.9754 H   0  0  0  0  0  0  0  0  0  0  0  0
  147.5616  138.4708  152.6979 H   0  0  0  0  0  0  0  0  0  0  0  0
  147.1819  137.8431  154.2874 H   0  0  0  0  0  0  0  0  0  0  0  0
  146.0372  140.0659  153.5773 H   0  0  0  0  0  0  0  0  0  0  0  0
  146.7198  140.0019  155.1780 H   0  0  0  0  0  0  0  0  0  0  0  0
  148.1503  141.1077  152.7400 H   0  0  0  0  0  0  0  0  0  0  0  0
  146.6780  142.6669  154.8905 H   0  0  0  0  0  0  0  0  0  0  0  0
  146.2921  142.5582  153.1836 H   0  0  0  0  0  0  0  0  0  0  0  0
  147.7606  143.3796  153.6867 H   0  0  0  0  0  0  0  0  0  0  0  0
  149.9118  141.8400  154.1164 H   0  0  0  0  0  0  0  0  0  0  0  0
  148.1710  142.0647  156.2724 H   0  0  0  0  0  0  0  0  0  0  0  0
  149.0670  140.6367  156.7155 H   0  0  0  0  0  0  0  0  0  0  0  0
  151.0393  142.1392  155.9555 H   0  0  0  0  0  0  0  0  0  0  0  0
  149.7937  142.3145  158.6052 H   0  0  0  0  0  0  0  0  0  0  0  0
  150.8660  141.0237  158.0789 H   0  0  0  0  0  0  0  0  0  0  0  0
  152.5378  142.9929  157.4991 H   0  0  0  0  0  0  0  0  0  0  0  0
  151.5219  143.9598  158.5355 H   0  0  0  0  0  0  0  0  0  0  0  0
  153.6110  140.5614  159.0032 H   0  0  0  0  0  0  0  0  0  0  0  0
  154.4277  140.7371  161.6380 H   0  0  0  0  0  0  0  0  0  0  0  0
  150.8348  144.2101  161.0310 H   0  0  0  0  0  0  0  0  0  0  0  0
  152.2069  145.1383  160.3882 H   0  0  0  0  0  0  0  0  0  0  0  0
  152.1741  144.6734  162.0984 H   0  0  0  0  0  0  0  0  0  0  0  0
  150.0042  143.3082  156.4603 H   0  0  0  0  0  0  0  0  0  0  0  0
  1  2  1  0  0  0  0
  1 19  1  0  0  0  0
  1 20  1  0  0  0  0
  1 21  1  0  0  0  0
  2  8  1  0  0  0  0
  2  3  2  0  0  0  0
  3  4  1  0  0  0  0
  3 22  1  0  0  0  0
  4  5  1  0  0  0  0
  4 23  1  0  0  0  0
  4 24  1  0  0  0  0
  5  6  1  0  0  0  0
  5 25  1  0  0  0  0
  5 26  1  0  0  0  0
  6  7  1  0  0  0  0
  6  8  1  0  0  0  0
  6 27  1  0  0  0  0
  7 28  1  0  0  0  0
  7 29  1  0  0  0  0
  7 30  1  0  0  0  0
  8  9  1  0  0  0  0
  8 31  1  0  0  0  0
  9 10  1  0  0  0  0
  9 32  1  0  0  0  0
  9 33  1  0  0  0  0
 10 11  1  0  0  0  0
 10 34  1  0  0  0  0
 10 44  1  0  0  0  0
 11 12  1  0  0  0  0
 11 35  1  0  0  0  0
 11 36  1  0  0  0  0
 12 13  1  0  0  0  0
 12 37  1  0  0  0  0
 12 38  1  0  0  0  0
 13 17  1  0  0  0  0
 13 14  2  0  0  0  0
 14 15  1  0  0  0  0
 14 39  1  0  0  0  0
 15 16  2  0  0  0  0
 15 40  1  0  0  0  0
 16 17  1  0  0  0  0
 17 18  1  0  0  0  0
 18 41  1  0  0  0  0
 18 42  1  0  0  0  0
 18 43  1  0  0  0  0
M  CHG  1  10   1
M  END
> <s_m_source_file>
AV-unprocessed.smi

> <i_m_source_file_index>
3283

> <i_lp_mmshare_version>
43012

> <i_f3d_flags>
0

> <s_epik_input>
W0NIM11DMT1bQ0hdW0NIMl1bQ0gyXVtDQEBIXShbQ0gzXSlbQ0BIXTFbQ0gyXVtOSF1bQ0gyXVtDSDJdYzJbY0hdW2NIXW5uMltDSDNd

> <s_epik_cmdline>
J2VwaWtfcHl0aG9uJywgJy1waCcsICc3LjAnLCAnLXRuJywgJzgnLCAnLW1hJywgJzIwMCcsICctbWV0YWxfYmluZGluZycsICctaW1hZScsICc8aW5maWxlLm1hZT4nLCAnLW9tYWUnLCAnPG91dGZpbGUubWFlPic=

> <r_lp_tautomer_probability>
1

> <r_epik_Ionization_Penalty>
0.000866911

> <r_epik_Ionization_Penalty_Charging>
0.000836385

> <r_epik_Ionization_Penalty_Neutral>
3.05258e-05

> <r_epik_State_Penalty>
-0

> <r_epik_Charging_Adjusted_Penalty>
0.000836385

> <i_epik_Tot_Q>
1

> <i_epik_Tot_abs_Q>
1

> <r_epik_Metal_State_Penalty>
-0

> <b_epik_Metal_Only>
0

> <s_lp_Force_Field>
OPLS_2005

> <r_lp_Energy>
14.2558

> <b_lp_Chiralities_Consistent>
1

> <s_lp_Variant>
AV-unprocessed.smi:3283-1

> <Gold.Version>
5.8.1

> <Gold.Id.Protein>
6NUR|6NUR_protein|mol2

> <Gold.PLP.Fitness>
47.1875

> <Gold.PLP.PLP>
-42.9116

> <Gold.PLP.part.hbond>
-1.0000

> <Gold.PLP.part.metal>
0.0000

> <Gold.PLP.part.buried>
-1.4026

> <Gold.PLP.part.nonpolar>
-40.1698

> <Gold.PLP.part.repulsive>
0.1010

> <Gold.PLP.ligand.clash>
0.0000

> <Gold.PLP.ligand.torsion>
0.9120

> <Gold.PLP.Chemscore.Hbond>
2.0000

> <Gold.PLP.Chemscore.CHOScore>
0.0000

> <Gold.PLP.Chemscore.Metal>
0.0000

> <Gold.Chemscore.Hbonds>
donor molecule, donor type, donor heavy atom, donor atom, acceptor molecule, acceptor atom, score
      L1  H    10    44       P1  8028  2.00

> <Gold.PLP.Chemscore.Internal.Correction>
0.0999

> <Gold.Rescore>
     Score         DG    S(hbond)    S(metal)    S(lipo)     H(rot)  DE(clash)    DE(int)     intcor
     16.81     -18.10       0.93        0.00     113.70       1.48       0.36       0.94       ----

> <Gold.Chemscore.Fitness>
16.8068

> <Gold.Chemscore.DG>
-18.0995

> <Gold.Chemscore.ZeroCoef>
-5.4800

> <Gold.Chemscore.Hbond>
0.9335

> <Gold.Chemscore.Metal>
0.0000

> <Gold.Chemscore.Lipo>
113.6972

> <Gold.Chemscore.Internal_Hbond>
0.0000

> <Gold.Chemscore.DEClash>
0.3576

> <Gold.Chemscore.DEInternal>
0.9350

> <Gold.Chemscore.Rot>
1.4847

> <Gold.Chemscore.Internal.Correction>
   9.000000E+99

> <Gold.Chemscore.Hbonds>
donor molecule, donor type, donor heavy atom, donor atom, acceptor molecule, acceptor atom, score
      L1  H    10    44       P1  8028  0.94

> <Gold.Chemscore.Hbond.Weighted>
-3.1178

> <Gold.Chemscore.Metal.Weighted>
-0.0000

> <Gold.Chemscore.Lipo.Weighted>
-13.3026

> <Gold.Chemscore.Internal_Hbond.Weighted>
0.0000

> <Gold.Chemscore.DEClash.Weighted>
0.3576

> <Gold.Chemscore.DEInternal.Weighted>
0.9350

> <Gold.Chemscore.Rot.Weighted>
3.8008

> <Gold.Chemscore.Internal.Correction.Weighted>
   9.000000E+99

> <Gold.Protein.RotatedTorsions>
[ 6907 6896 6895 6894 ] final   -4.14 input  -60.11 | X-H torsion
[ 7974 7965 7964 7962 ] final   57.40 input  175.53 | X-H torsion
[ 8008 7997 7996 7995 ] final -169.95 input   59.86 | X-H torsion
[ 10167 10162 10161 10158 ] final -170.58 input  -65.29 | X-H torsion
[ 10718 10713 10712 10709 ] final   92.25 input   66.30 | X-H torsion
[ 10763 10752 10751 10750 ] final  124.44 input  -60.55 | X-H torsion
[ 11005 11000 10999 10996 ] final  -77.42 input  -57.11 | X-H torsion

> <Gold.Protein.ActiveResidues>
 VAL166  LYS551  ARG553  GLY616  TRP617  ASP618  TYR619  PRO620  LYS621  CYS622 
 ASP623  PHE694  ASN695  SER759  ASP760  ASP761  ALA762  ILE779  LEU786  VAL792 
 PHE793  MET794  SER795  GLU796  ALA797  LYS798  CYS799  TRP800  GLU811  SER814 

> <Gold.Protein.RotatedAtoms>
  151.5024  135.1062  159.9832 H   0  0  0  0  0  0  0  0  0  0  0  0  # atno 6907 bound_to 6896
  152.4696  133.7996  159.6956 H   0  0  0  0  0  0  0  0  0  0  0  0  # atno 6908 bound_to 6896
  150.8698  133.7459  159.2991 H   0  0  0  0  0  0  0  0  0  0  0  0  # atno 6909 bound_to 6896
  145.9294  139.3795  143.0430 H   0  0  0  0  0  0  0  0  0  0  0  0  # atno 7974 bound_to 7965
  155.9118  140.1059  157.1273 H   0  0  0  0  0  0  0  0  0  0  0  0  # atno 8008 bound_to 7997
  154.4040  140.1273  156.4632 H   0  0  0  0  0  0  0  0  0  0  0  0  # atno 8009 bound_to 7997
  155.7301  140.3468  155.5057 H   0  0  0  0  0  0  0  0  0  0  0  0  # atno 8010 bound_to 7997
  139.5853  144.1331  152.1568 H   0  0  0  0  0  0  0  0  0  0  0  0  # atno 10167 bound_to 10162
  157.6959  131.0436  150.3853 H   0  0  0  0  0  0  0  0  0  0  0  0  # atno 10718 bound_to 10713
  153.6615  135.3345  155.3128 H   0  0  0  0  0  0  0  0  0  0  0  0  # atno 10763 bound_to 10752
  154.8513  135.4364  154.1800 H   0  0  0  0  0  0  0  0  0  0  0  0  # atno 10764 bound_to 10752
  153.2768  135.7005  153.7501 H   0  0  0  0  0  0  0  0  0  0  0  0  # atno 10765 bound_to 10752
  141.1660  133.7022  156.7817 H   0  0  0  0  0  0  0  0  0  0  0  0  # atno 11005 bound_to 11000
  145.8445  140.9562  143.0781 LP  0  0  0  0  0  0  0  0  0  0  0  0  # atno 17320 bound_to 7965
  144.6763  140.0328  143.7482 LP  0  0  0  0  0  0  0  0  0  0  0  0  # atno 17321 bound_to 7965
  140.0894  144.5634  150.7065 LP  0  0  0  0  0  0  0  0  0  0  0  0  # atno 17342 bound_to 10162
  140.7126  143.2517  151.4534 LP  0  0  0  0  0  0  0  0  0  0  0  0  # atno 17343 bound_to 10162
  156.4262  130.3963  149.6791 LP  0  0  0  0  0  0  0  0  0  0  0  0  # atno 17370 bound_to 10713
  156.4025  130.7681  151.2690 LP  0  0  0  0  0  0  0  0  0  0  0  0  # atno 17371 bound_to 10713
  140.2389  134.8628  157.3553 LP  0  0  0  0  0  0  0  0  0  0  0  0  # atno 17394 bound_to 11000
  140.1815  134.4483  155.7769 LP  0  0  0  0  0  0  0  0  0  0  0  0  # atno 17395 bound_to 11000

$$$$
