#       Name:                AV-unprocessed.smi:212
#       Creating user name   scv26
#       Creation time:       Thu Mar 26 19:57:37 2020


#       File generated by GOLD software.
#

@<TRIPOS>MOLECULE
AV-unprocessed.smi:212
    75    78     1
SMALL
NO_CHARGES


@<TRIPOS>ATOM
      1 ****        -1.5634  -2.0919   1.5994 C.3            1 S1                 0.0000
      2 ****        -2.1687  -0.7031   1.3179 C.3            1 S1                 0.0000
      3 ****        -2.2993   0.1780   2.5795 C.3            1 S1                 0.0000
      4 ****        -2.9507   1.4763   2.2593 N.4            1 S1                 1.0000
      5 ****        -3.1647   2.3372   3.4531 C.3            1 S1                 0.0000
      6 ****        -4.6239   2.2976   3.9654 C.3            1 S1                 0.0000
      7 ****        -4.7774   3.2102   5.1937 C.3            1 S1                 0.0000
      8 ****        -5.6370   2.6969   2.8764 C.3            1 S1                 0.0000
      9 ****        -4.9296   0.9870   4.3989 O.3            1 S1                 0.0000
     10 ****        -2.2797   2.1865   1.1396 C.3            1 S1                 0.0000
     11 ****        -2.1729   1.2870  -0.1065 C.3            1 S1                 0.0000
     12 ****        -1.5198   0.0228   0.2183 N.3            1 S1                 0.0000
     13 ****        -0.1671   0.0890   0.1206 C.ar           1 S1                 0.0000
     14 ****         0.6064   0.1825   1.2340 N.ar           1 S1                 0.0000
     15 ****         1.9357   0.2686   1.1253 C.ar           1 S1                 0.0000
     16 ****         2.6828   0.2855   0.0198 N.ar           1 S1                 0.0000
     17 ****         1.9100   0.2009  -1.1004 C.ar           1 S1                 0.0000
     18 ****         0.4909   0.1073  -1.1390 C.ar           1 S1                 0.0000
     19 ****         0.0531   0.0494  -2.4560 N.2            1 S1                 0.0000
     20 ****         1.1522   0.1029  -3.1582 C.2            1 S1                 0.0000
     21 ****         2.3150   0.1758  -2.4234 N.pl3          1 S1                 0.0000
     22 ****         3.6696   0.2464  -2.9396 C.3            1 S1                 0.0000
     23 ****         4.5530  -0.9917  -2.6259 C.3            1 S1                 0.0000
     24 ****         5.9875  -0.7128  -3.1256 C.3            1 S1                 0.0000
     25 ****         6.9158  -1.6175  -2.5632 O.3            1 S1                 0.0000
     26 ****         4.0371  -2.3691  -3.1456 C.3            1 S1                 0.0000
     27 ****         2.9083  -3.0351  -2.3792 C.3            1 S1                 0.0000
     28 ****         2.4973  -4.1338  -3.3529 C.3            1 S1                 0.0000
     29 ****         2.6846  -3.5820  -4.6533 O.3            1 S1                 0.0000
     30 ****         3.5244  -2.4313  -4.5878 C.3            1 S1                 0.0000
     31 ****        -2.1865  -2.6461   2.3017 H              1 S1                 0.0000
     32 ****        -0.5662  -2.0346   2.0344 H              1 S1                 0.0000
     33 ****        -1.4972  -2.6831   0.6855 H              1 S1                 0.0000
     34 ****        -3.1836  -0.8939   0.9660 H              1 S1                 0.0000
     35 ****        -2.8877  -0.3501   3.3297 H              1 S1                 0.0000
     36 ****        -1.3231   0.3617   3.0282 H              1 S1                 0.0000
     37 ****        -2.4696   2.0594   4.2477 H              1 S1                 0.0000
     38 ****        -2.9200   3.3720   3.2069 H              1 S1                 0.0000
     39 ****        -4.5644   4.2497   4.9415 H              1 S1                 0.0000
     40 ****        -4.0953   2.9205   5.9943 H              1 S1                 0.0000
     41 ****        -5.7907   3.1725   5.5958 H              1 S1                 0.0000
     42 ****        -5.4345   3.7004   2.5006 H              1 S1                 0.0000
     43 ****        -6.6570   2.6918   3.2627 H              1 S1                 0.0000
     44 ****        -5.6105   2.0147   2.0262 H              1 S1                 0.0000
     45 ****        -5.8021   0.9851   4.7641 H              1 S1                 0.0000
     46 ****        -2.8418   3.0864   0.8870 H              1 S1                 0.0000
     47 ****        -1.2870   2.5088   1.4580 H              1 S1                 0.0000
     48 ****        -3.1690   1.0701  -0.4939 H              1 S1                 0.0000
     49 ****        -1.6437   1.8119  -0.9031 H              1 S1                 0.0000
     50 ****         2.4785   0.3324   2.0568 H              1 S1                 0.0000
     51 ****         1.1436   0.0801  -4.2384 H              1 S1                 0.0000
     52 ****         3.6277   0.4276  -4.0137 H              1 S1                 0.0000
     53 ****         4.1261   1.1387  -2.5090 H              1 S1                 0.0000
     54 ****         4.6160  -1.0671  -1.5394 H              1 S1                 0.0000
     55 ****         6.0390  -0.7682  -4.2135 H              1 S1                 0.0000
     56 ****         6.3030   0.2920  -2.8432 H              1 S1                 0.0000
     57 ****         7.7787  -1.4006  -2.8820 H              1 S1                 0.0000
     58 ****         4.8661  -3.0755  -3.0816 H              1 S1                 0.0000
     59 ****         3.2219  -3.4256  -1.4107 H              1 S1                 0.0000
     60 ****         2.0638  -2.3718  -2.2171 H              1 S1                 0.0000
     61 ****         3.1505  -5.0007  -3.2446 H              1 S1                 0.0000
     62 ****         1.4692  -4.4637  -3.2026 H              1 S1                 0.0000
     63 ****         2.9149  -1.5676  -4.8465 H              1 S1                 0.0000
     64 ****         4.3376  -2.4955  -5.3112 H              1 S1                 0.0000
     65 ****        -3.8738   1.2486   1.9187 H              1 S1                 0.0000
     66 ****        -4.2722   0.7010   5.0960 LP             1 S1                 0.0000
     67 ****        -4.8880   0.3574   3.6231 LP             1 S1                 0.0000
     68 ****        -1.6900  -0.6468  -0.5046 LP             1 S1                 0.0000
     69 ****         0.1793   0.1869   2.1382 LP             1 S1                 0.0000
     70 ****         3.6806   0.3517   0.0137 LP             1 S1                 0.0000
     71 ****        -0.8873  -0.0178  -2.7893 LP             1 S1                 0.0000
     72 ****         6.6818  -2.5516  -2.8329 LP             1 S1                 0.0000
     73 ****         6.8965  -1.5438  -1.5661 LP             1 S1                 0.0000
     74 ****         1.7965  -3.3209  -5.0317 LP             1 S1                 0.0000
     75 ****         3.1101  -4.2675  -5.2441 LP             1 S1                 0.0000
@<TRIPOS>BOND
    1    1    2 1     
    2    1   31 1     
    3    1   32 1     
    4    1   33 1     
    5    2   12 1     
    6    2    3 1     
    7    2   34 1     
    8    3    4 1     
    9    3   35 1     
   10    3   36 1     
   11    4    5 1     
   12    4   10 1     
   13    4   65 1     
   14    5    6 1     
   15    5   37 1     
   16    5   38 1     
   17    6    7 1     
   18    6    8 1     
   19    6    9 1     
   20    7   39 1     
   21    7   40 1     
   22    7   41 1     
   23    8   42 1     
   24    8   43 1     
   25    8   44 1     
   26    9   45 1     
   27   10   11 1     
   28   10   46 1     
   29   10   47 1     
   30   11   12 1     
   31   11   48 1     
   32   11   49 1     
   33   12   13 1     
   34   13   18 ar    
   35   13   14 ar    
   36   14   15 ar    
   37   15   16 ar    
   38   15   50 1     
   39   16   17 ar    
   40   17   21 1     
   41   17   18 ar    
   42   18   19 1     
   43   19   20 2     
   44   20   21 1     
   45   20   51 1     
   46   21   22 1     
   47   22   23 1     
   48   22   52 1     
   49   22   53 1     
   50   23   24 1     
   51   23   26 1     
   52   23   54 1     
   53   24   25 1     
   54   24   55 1     
   55   24   56 1     
   56   25   57 1     
   57   26   30 1     
   58   26   27 1     
   59   26   58 1     
   60   27   28 1     
   61   27   59 1     
   62   27   60 1     
   63   28   29 1     
   64   28   61 1     
   65   28   62 1     
   66   29   30 1     
   67   30   63 1     
   68   30   64 1     
   69    9   66 1     
   70    9   67 1     
   71   12   68 1     
   72   14   69 1     
   73   16   70 1     
   74   19   71 1     
   75   25   72 1     
   76   25   73 1     
   77   29   74 1     
   78   29   75 1     
@<TRIPOS>SUBSTRUCTURE
      1 S1             1
@<TRIPOS>SET
LONE_PAIRS      STATIC     ATOMS    <user>   **** ""
10 66 67 68 69 70 71 72 73 74 75
DONOR_HYDROGENS      STATIC     ATOMS    <user>   **** ""
3 65 45 57
ATOM$BLUE        STATIC     ATOMS    COLORGROUP SYSTEM
10 66 67 68 69 70 71 72 73 74 75
ATOM$RED        STATIC     ATOMS    COLORGROUP SYSTEM
3 65 45 57
