AV-unprocessed.smi:1202|AV-procd|sdf|5032|dock1
  -GOLD-   22720 4 53D 1   1.00000     0.00000
 Structure written by MMmdl.
 44 45  0  0  0  0  0  0  0  0  3 V2000
  150.2343  132.8415  156.5885 C   0  0  0  0  0  0  0  0  0  0  0  0
  149.5338  134.0877  156.3007 N   0  5  0  0  0  0  0  0  0  0  0  0
  149.0281  134.3983  155.0750 C   0  0  0  0  0  0  0  0  0  0  0  0
  149.1284  133.8147  153.9911 O   0  0  0  0  0  0  0  0  0  0  0  0
  148.2112  135.6959  155.1265 C   0  0  0  0  0  0  0  0  0  0  0  0
  148.9740  136.8329  154.5488 N   0  3  2  0  0  0  0  0  0  0  0  0
  150.2608  137.0949  155.2477 C   0  0  0  0  0  0  0  0  0  0  0  0
  151.0719  138.1907  154.5321 C   0  0  0  0  0  0  0  0  0  0  0  0
  150.2659  139.4911  154.3686 C   0  0  2  0  0  0  0  0  0  0  0  0
  150.0916  140.1477  155.6635 N   0  0  0  0  0  0  0  0  0  0  0  0
  151.0565  140.3454  156.5745 C   0  0  0  0  0  0  0  0  0  0  0  0
  152.2197  139.9721  156.4180 O   0  0  0  0  0  0  0  0  0  0  0  0
  150.6265  141.0602  157.8633 C   0  0  0  0  0  0  0  0  0  0  0  0
  151.3228  142.3398  158.0771 N   0  0  0  0  0  0  0  0  0  0  0  0
  151.0371  143.3855  157.1765 C   0  0  0  0  0  0  0  0  0  0  0  0
  151.6144  144.5926  157.2838 C   0  0  0  0  0  0  0  0  0  0  0  0
  152.5525  144.8073  158.3602 C   0  0  0  0  0  0  0  0  0  0  0  0
  152.8324  143.8142  159.2276 C   0  0  0  0  0  0  0  0  0  0  0  0
  152.2037  142.4931  159.1139 C   0  0  0  0  0  0  0  0  0  0  0  0
  152.4526  141.5799  159.9020 O   0  0  0  0  0  0  0  0  0  0  0  0
  148.9140  139.1778  153.6972 C   0  0  0  0  0  0  0  0  0  0  0  0
  148.1503  138.0625  154.4327 C   0  0  0  0  0  0  0  0  0  0  0  0
  150.5307  132.7764  157.6352 H   0  0  0  0  0  0  0  0  0  0  0  0
  151.1460  132.7317  156.0009 H   0  0  0  0  0  0  0  0  0  0  0  0
  149.6204  131.9631  156.3873 H   0  0  0  0  0  0  0  0  0  0  0  0
  147.2907  135.5320  154.5635 H   0  0  0  0  0  0  0  0  0  0  0  0
  147.9122  135.9231  156.1511 H   0  0  0  0  0  0  0  0  0  0  0  0
  150.0612  137.3836  156.2808 H   0  0  0  0  0  0  0  0  0  0  0  0
  150.8594  136.1846  155.2886 H   0  0  0  0  0  0  0  0  0  0  0  0
  151.9989  138.3850  155.0732 H   0  0  0  0  0  0  0  0  0  0  0  0
  151.3674  137.8261  153.5473 H   0  0  0  0  0  0  0  0  0  0  0  0
  150.8336  140.1641  153.7231 H   0  0  0  0  0  0  0  0  0  0  0  0
  149.1636  140.4787  155.8845 H   0  0  0  0  0  0  0  0  0  0  0  0
  149.5469  141.2230  157.8489 H   0  0  0  0  0  0  0  0  0  0  0  0
  150.8011  140.3821  158.6999 H   0  0  0  0  0  0  0  0  0  0  0  0
  150.3203  143.1462  156.4045 H   0  0  0  0  0  0  0  0  0  0  0  0
  151.3808  145.3831  156.5858 H   0  0  0  0  0  0  0  0  0  0  0  0
  153.0303  145.7694  158.4716 H   0  0  0  0  0  0  0  0  0  0  0  0
  153.5354  143.9940  160.0276 H   0  0  0  0  0  0  0  0  0  0  0  0
  148.2966  140.0747  153.6344 H   0  0  0  0  0  0  0  0  0  0  0  0
  149.0919  138.8648  152.6674 H   0  0  0  0  0  0  0  0  0  0  0  0
  147.2339  137.8389  153.8851 H   0  0  0  0  0  0  0  0  0  0  0  0
  147.8504  138.3976  155.4269 H   0  0  0  0  0  0  0  0  0  0  0  0
  149.2015  136.5483  153.6058 H   0  0  0  0  0  0  0  0  0  0  0  0
  1  2  1  0  0  0  0
  1 23  1  0  0  0  0
  1 24  1  0  0  0  0
  1 25  1  0  0  0  0
  2  3  1  0  0  0  0
  3  4  2  0  0  0  0
  3  5  1  0  0  0  0
  5  6  1  0  0  0  0
  5 26  1  0  0  0  0
  5 27  1  0  0  0  0
  6 22  1  0  0  0  0
  6  7  1  0  0  0  0
  6 44  1  0  0  0  0
  7  8  1  0  0  0  0
  7 28  1  0  0  0  0
  7 29  1  0  0  0  0
  8  9  1  0  0  0  0
  8 30  1  0  0  0  0
  8 31  1  0  0  0  0
  9 10  1  0  0  0  0
  9 21  1  0  0  0  0
  9 32  1  0  0  0  0
 10 11  1  0  0  0  0
 10 33  1  0  0  0  0
 11 12  2  0  0  0  0
 11 13  1  0  0  0  0
 13 14  1  0  0  0  0
 13 34  1  0  0  0  0
 13 35  1  0  0  0  0
 14 19  1  0  0  0  0
 14 15  1  0  0  0  0
 15 16  2  0  0  0  0
 15 36  1  0  0  0  0
 16 17  1  0  0  0  0
 16 37  1  0  0  0  0
 17 18  2  0  0  0  0
 17 38  1  0  0  0  0
 18 19  1  0  0  0  0
 18 39  1  0  0  0  0
 19 20  2  0  0  0  0
 21 22  1  0  0  0  0
 21 40  1  0  0  0  0
 21 41  1  0  0  0  0
 22 42  1  0  0  0  0
 22 43  1  0  0  0  0
M  CHG  1   2  -1
M  CHG  1   6   1
M  END
> <s_m_source_file>
AV-unprocessed.smi

> <i_m_source_file_index>
1202

> <i_lp_mmshare_version>
43012

> <i_f3d_flags>
0

> <s_epik_input>
W0NIM11bTkhdQyg9TylbQ0gyXU4xW0NIMl1bQ0gyXVtDSF0oW0NIMl1bQ0gyXTEpW05IXUMoPU8pW0NIMl1uMltjSF1bY0hdW2NIXVtjSF1jMj1P

> <s_epik_cmdline>
J2VwaWtfcHl0aG9uJywgJy1waCcsICc3LjAnLCAnLXRuJywgJzgnLCAnLW1hJywgJzIwMCcsICctbWV0YWxfYmluZGluZycsICctaW1hZScsICc8aW5maWxlLm1hZT4nLCAnLW9tYWUnLCAnPG91dGZpbGUubWFlPic=

> <r_lp_tautomer_probability>
1

> <r_epik_Ionization_Penalty>
6.12124

> <r_epik_Ionization_Penalty_Charging>
6.12124

> <r_epik_Ionization_Penalty_Neutral>
4.50226e-08

> <r_epik_State_Penalty>
7.08052

> <r_epik_Charging_Adjusted_Penalty>
13.2018

> <i_epik_Tot_Q>
0

> <i_epik_Tot_abs_Q>
2

> <r_epik_Metal_State_Penalty>
3.01282

> <b_epik_Metal_Only>
1

> <s_lp_Force_Field>
OPLS_2005

> <r_lp_Energy>
20.2211

> <b_lp_Chiralities_Consistent>
1

> <s_lp_Variant>
AV-unprocessed.smi:1202-5

> <Gold.Version>
5.8.1

> <Gold.Id.Protein>
6NUR|6NUR_protein|mol2

> <Gold.PLP.Fitness>
53.2085

> <Gold.PLP.PLP>
-42.6737

> <Gold.PLP.part.hbond>
-2.0000

> <Gold.PLP.part.metal>
0.0000

> <Gold.PLP.part.buried>
-3.5747

> <Gold.PLP.part.nonpolar>
-35.7269

> <Gold.PLP.part.repulsive>
0.2599

> <Gold.PLP.ligand.clash>
0.0000

> <Gold.PLP.ligand.torsion>
0.4337

> <Gold.PLP.Chemscore.Hbond>
3.0000

> <Gold.PLP.Chemscore.CHOScore>
0.7338

> <Gold.PLP.Chemscore.Metal>
0.0000

> <Gold.Chemscore.Hbonds>
donor molecule, donor type, donor heavy atom, donor atom, acceptor molecule, acceptor atom, score
      L1  H     6    44       P1  7948  2.00
      P1  H  7997  8009       L1    12  0.67
      L1  C    15    36       P1  8028  0.79

> <Gold.PLP.Chemscore.Internal.Correction>
0.2009

> <Gold.Rescore>
     Score         DG    S(hbond)    S(metal)    S(lipo)     H(rot)  DE(clash)    DE(int)     intcor
     16.11     -17.79       2.00        0.00      95.21       2.15       0.02       1.66       ----

> <Gold.Chemscore.Fitness>
16.1093

> <Gold.Chemscore.DG>
-17.7910

> <Gold.Chemscore.ZeroCoef>
-5.4800

> <Gold.Chemscore.Hbond>
1.9995

> <Gold.Chemscore.Metal>
0.0000

> <Gold.Chemscore.Lipo>
95.2060

> <Gold.Chemscore.Internal_Hbond>
0.0000

> <Gold.Chemscore.DEClash>
0.0233

> <Gold.Chemscore.DEInternal>
1.6585

> <Gold.Chemscore.Rot>
2.1510

> <Gold.Chemscore.Internal.Correction>
   9.000000E+99

> <Gold.Chemscore.Hbonds>
donor molecule, donor type, donor heavy atom, donor atom, acceptor molecule, acceptor atom, score
      L1  H     6    44       P1  7948  0.96
      P1  H  7997  8009       L1    12  0.64

> <Gold.Chemscore.Hbond.Weighted>
-6.6784

> <Gold.Chemscore.Metal.Weighted>
-0.0000

> <Gold.Chemscore.Lipo.Weighted>
-11.1391

> <Gold.Chemscore.Internal_Hbond.Weighted>
0.0000

> <Gold.Chemscore.DEClash.Weighted>
0.0233

> <Gold.Chemscore.DEInternal.Weighted>
1.6585

> <Gold.Chemscore.Rot.Weighted>
5.5065

> <Gold.Chemscore.Internal.Correction.Weighted>
   9.000000E+99

> <Gold.Protein.RotatedTorsions>
[ 6907 6896 6895 6894 ] final  -43.90 input  -60.11 | X-H torsion
[ 7974 7965 7964 7962 ] final -152.28 input  175.53 | X-H torsion
[ 8008 7997 7996 7995 ] final -149.83 input   59.86 | X-H torsion
[ 10167 10162 10161 10158 ] final  -83.59 input  -65.29 | X-H torsion
[ 10718 10713 10712 10709 ] final -135.53 input   66.30 | X-H torsion
[ 10763 10752 10751 10750 ] final -141.37 input  -60.55 | X-H torsion
[ 11005 11000 10999 10996 ] final -125.96 input  -57.11 | X-H torsion

> <Gold.Protein.ActiveResidues>
 VAL166  LYS551  ARG553  GLY616  TRP617  ASP618  TYR619  PRO620  LYS621  CYS622 
 ASP623  PHE694  ASN695  SER759  ASP760  ASP761  ALA762  ILE779  LEU786  VAL792 
 PHE793  MET794  SER795  GLU796  ALA797  LYS798  CYS799  TRP800  GLU811  SER814 

> <Gold.Protein.RotatedAtoms>
  150.9387  134.8798  159.7598 H   0  0  0  0  0  0  0  0  0  0  0  0  # atno 6907 bound_to 6896
  152.5071  134.3973  159.9414 H   0  0  0  0  0  0  0  0  0  0  0  0  # atno 6908 bound_to 6896
  151.3995  133.3722  159.2765 H   0  0  0  0  0  0  0  0  0  0  0  0  # atno 6909 bound_to 6896
  144.7803  140.4683  143.5844 H   0  0  0  0  0  0  0  0  0  0  0  0  # atno 7974 bound_to 7965
  155.6139  140.0674  157.2698 H   0  0  0  0  0  0  0  0  0  0  0  0  # atno 8008 bound_to 7997
  154.4246  140.1796  156.1349 H   0  0  0  0  0  0  0  0  0  0  0  0  # atno 8009 bound_to 7997
  156.0063  140.3331  155.6899 H   0  0  0  0  0  0  0  0  0  0  0  0  # atno 8010 bound_to 7997
  140.4212  143.2584  151.8887 H   0  0  0  0  0  0  0  0  0  0  0  0  # atno 10167 bound_to 10162
  156.2672  130.7244  151.1199 H   0  0  0  0  0  0  0  0  0  0  0  0  # atno 10718 bound_to 10713
  154.8547  135.3526  154.5857 H   0  0  0  0  0  0  0  0  0  0  0  0  # atno 10763 bound_to 10752
  153.6468  135.6996  153.5227 H   0  0  0  0  0  0  0  0  0  0  0  0  # atno 10764 bound_to 10752
  153.2926  135.4230  155.1139 H   0  0  0  0  0  0  0  0  0  0  0  0  # atno 10765 bound_to 10752
  140.9720  134.0792  157.3859 H   0  0  0  0  0  0  0  0  0  0  0  0  # atno 11005 bound_to 11000
  145.6070  139.1509  143.3097 LP  0  0  0  0  0  0  0  0  0  0  0  0  # atno 17320 bound_to 7965
  146.2007  140.6188  142.9104 LP  0  0  0  0  0  0  0  0  0  0  0  0  # atno 17321 bound_to 7965
  139.4782  144.5435  151.8493 LP  0  0  0  0  0  0  0  0  0  0  0  0  # atno 17342 bound_to 10162
  140.4531  144.1827  150.5899 LP  0  0  0  0  0  0  0  0  0  0  0  0  # atno 17343 bound_to 10162
  157.7271  131.0641  150.5879 LP  0  0  0  0  0  0  0  0  0  0  0  0  # atno 17370 bound_to 10713
  156.5972  130.4345  149.5912 LP  0  0  0  0  0  0  0  0  0  0  0  0  # atno 17371 bound_to 10713
  139.8916  135.0119  156.6799 LP  0  0  0  0  0  0  0  0  0  0  0  0  # atno 17394 bound_to 11000
  140.7315  133.9055  155.8214 LP  0  0  0  0  0  0  0  0  0  0  0  0  # atno 17395 bound_to 11000

$$$$
