AV-unprocessed.smi:3042|AV-procd|sdf|11601|dock2
  -GOLD-   2272016583D 1   1.00000     0.00000
 Structure written by MMmdl.
 32 33  0  0  0  0  0  0  0  0  1 V2000
  149.1909  143.4258  158.3086 N   0  0  0  0  0  0  0  0  0  0  0  0
  149.7441  142.0618  158.2734 C   0  0  0  0  0  0  0  0  0  0  0  0
  151.0026  141.9368  157.3774 C   0  0  2  0  0  0  0  0  0  0  0  0
  150.6655  141.0554  156.1756 C   0  0  0  0  0  0  0  0  0  0  0  0
  151.4187  139.8981  155.8790 C   0  0  0  0  0  0  0  0  0  0  0  0
  151.0584  139.1187  154.7632 C   0  0  0  0  0  0  0  0  0  0  0  0
  149.9558  139.5280  153.9875 C   0  0  0  0  0  0  0  0  0  0  0  0
  149.2266  140.6315  154.2597 N   0  0  0  0  0  0  0  0  0  0  0  0
  149.5783  141.3727  155.3324 C   0  0  0  0  0  0  0  0  0  0  0  0
  152.2075  141.4525  158.0831 N   0  0  0  0  0  0  0  0  0  0  0  0
  152.7187  142.4448  159.0359 C   0  0  0  0  0  0  0  0  0  0  0  0
  153.9700  141.9552  159.7843 C   0  0  0  0  0  0  0  0  0  0  0  0
  153.6761  140.7374  160.4566 O   0  0  0  0  0  0  0  0  0  0  0  0
  153.2341  139.7227  159.5643 C   0  0  0  0  0  0  0  0  0  0  0  0
  151.9804  140.2014  158.8114 C   0  0  0  0  0  0  0  0  0  0  0  0
  149.1656  143.8246  157.3713 H   0  0  0  0  0  0  0  0  0  0  0  0
  148.2324  143.4128  158.6537 H   0  0  0  0  0  0  0  0  0  0  0  0
  149.9778  141.7743  159.2969 H   0  0  0  0  0  0  0  0  0  0  0  0
  148.9776  141.3666  157.9296 H   0  0  0  0  0  0  0  0  0  0  0  0
  151.2199  142.9350  156.9931 H   0  0  0  0  0  0  0  0  0  0  0  0
  152.2580  139.6124  156.4959 H   0  0  0  0  0  0  0  0  0  0  0  0
  151.6129  138.2275  154.5091 H   0  0  0  0  0  0  0  0  0  0  0  0
  149.6507  138.9531  153.1257 H   0  0  0  0  0  0  0  0  0  0  0  0
  148.9725  142.2469  155.5218 H   0  0  0  0  0  0  0  0  0  0  0  0
  152.9739  143.3732  158.5255 H   0  0  0  0  0  0  0  0  0  0  0  0
  151.9421  142.6931  159.7609 H   0  0  0  0  0  0  0  0  0  0  0  0
  154.8025  141.8091  159.0942 H   0  0  0  0  0  0  0  0  0  0  0  0
  154.2873  142.6972  160.5172 H   0  0  0  0  0  0  0  0  0  0  0  0
  154.0319  139.4708  158.8640 H   0  0  0  0  0  0  0  0  0  0  0  0
  153.0121  138.8203  160.1339 H   0  0  0  0  0  0  0  0  0  0  0  0
  151.1593  140.3280  159.5185 H   0  0  0  0  0  0  0  0  0  0  0  0
  151.6906  139.4057  158.1274 H   0  0  0  0  0  0  0  0  0  0  0  0
  1  2  1  0  0  0  0
  1 16  1  0  0  0  0
  1 17  1  0  0  0  0
  2  3  1  0  0  0  0
  2 18  1  0  0  0  0
  2 19  1  0  0  0  0
  3  4  1  0  0  0  0
  3 10  1  0  0  0  0
  3 20  1  0  0  0  0
  4  9  1  0  0  0  0
  4  5  2  0  0  0  0
  5  6  1  0  0  0  0
  5 21  1  0  0  0  0
  6  7  2  0  0  0  0
  6 22  1  0  0  0  0
  7  8  1  0  0  0  0
  7 23  1  0  0  0  0
  8  9  2  0  0  0  0
  9 24  1  0  0  0  0
 10 15  1  0  0  0  0
 10 11  1  0  0  0  0
 11 12  1  0  0  0  0
 11 25  1  0  0  0  0
 11 26  1  0  0  0  0
 12 13  1  0  0  0  0
 12 27  1  0  0  0  0
 12 28  1  0  0  0  0
 13 14  1  0  0  0  0
 14 15  1  0  0  0  0
 14 29  1  0  0  0  0
 14 30  1  0  0  0  0
 15 31  1  0  0  0  0
 15 32  1  0  0  0  0
M  END
> <s_m_source_file>
AV-unprocessed.smi

> <i_m_source_file_index>
3042

> <i_lp_mmshare_version>
43012

> <i_f3d_flags>
0

> <s_epik_input>
W0NIMl0xW0NIMl1PW0NIMl1bQ0gyXU4xW0NASF0oW0NIMl1bTkgyXSljMltjSF1bY0hdW2NIXW5bY0hdMg==

> <s_epik_cmdline>
J2VwaWtfcHl0aG9uJywgJy1waCcsICc3LjAnLCAnLXRuJywgJzgnLCAnLW1hJywgJzIwMCcsICctbWV0YWxfYmluZGluZycsICctaW1hZScsICc8aW5maWxlLm1hZT4nLCAnLW9tYWUnLCAnPG91dGZpbGUubWFlPic=

> <r_epik_Ionization_Penalty>
2.62143

> <r_epik_Ionization_Penalty_Charging>
0

> <r_epik_Ionization_Penalty_Neutral>
2.62143

> <r_epik_State_Penalty>
2.72742

> <r_epik_Charging_Adjusted_Penalty>
2.72742

> <i_epik_Tot_Q>
0

> <i_epik_Tot_abs_Q>
0

> <r_epik_Metal_State_Penalty>
2.72081

> <b_epik_Metal_Only>
0

> <s_lp_Force_Field>
OPLS_2005

> <r_lp_Energy>
27.3222

> <b_lp_Chiralities_Consistent>
1

> <s_lp_Variant>
AV-unprocessed.smi:3042-3

> <Gold.Version>
5.8.1

> <Gold.Id.Protein>
6NUR|6NUR_protein|mol2

> <Gold.PLP.Fitness>
35.9538

> <Gold.PLP.PLP>
-29.4513

> <Gold.PLP.part.hbond>
-2.1322

> <Gold.PLP.part.metal>
0.0000

> <Gold.PLP.part.buried>
-1.3992

> <Gold.PLP.part.nonpolar>
-26.1412

> <Gold.PLP.part.repulsive>
0.1299

> <Gold.PLP.ligand.clash>
0.0000

> <Gold.PLP.ligand.torsion>
0.8728

> <Gold.PLP.Chemscore.Hbond>
1.0000

> <Gold.PLP.Chemscore.CHOScore>
1.7228

> <Gold.PLP.Chemscore.Metal>
0.0000

> <Gold.Chemscore.Hbonds>
donor molecule, donor type, donor heavy atom, donor atom, acceptor molecule, acceptor atom, score
      L1  H     1    16       P1  8028  1.00
      L1  C     7    23       P1  7957  0.74
      L1  C     9    24       P1  8028  1.00

> <Gold.PLP.Chemscore.Internal.Correction>
0.0798

> <Gold.Rescore>
     Score         DG    S(hbond)    S(metal)    S(lipo)     H(rot)  DE(clash)    DE(int)     intcor
     12.28     -14.09       0.80        0.00      82.24       1.44       0.01       1.80       ----

> <Gold.Chemscore.Fitness>
12.2771

> <Gold.Chemscore.DG>
-14.0882

> <Gold.Chemscore.ZeroCoef>
-5.4800

> <Gold.Chemscore.Hbond>
0.7970

> <Gold.Chemscore.Metal>
0.0000

> <Gold.Chemscore.Lipo>
82.2420

> <Gold.Chemscore.Internal_Hbond>
0.0000

> <Gold.Chemscore.DEClash>
0.0134

> <Gold.Chemscore.DEInternal>
1.7977

> <Gold.Chemscore.Rot>
1.4359

> <Gold.Chemscore.Internal.Correction>
   9.000000E+99

> <Gold.Chemscore.Hbonds>
donor molecule, donor type, donor heavy atom, donor atom, acceptor molecule, acceptor atom, score
      L1  H     1    16       P1  8028  0.25

> <Gold.Chemscore.Hbond.Weighted>
-2.6619

> <Gold.Chemscore.Metal.Weighted>
-0.0000

> <Gold.Chemscore.Lipo.Weighted>
-9.6223

> <Gold.Chemscore.Internal_Hbond.Weighted>
0.0000

> <Gold.Chemscore.DEClash.Weighted>
0.0134

> <Gold.Chemscore.DEInternal.Weighted>
1.7977

> <Gold.Chemscore.Rot.Weighted>
3.6759

> <Gold.Chemscore.Internal.Correction.Weighted>
   9.000000E+99

> <Gold.Protein.RotatedTorsions>
[ 6907 6896 6895 6894 ] final  -95.83 input  -60.11 | X-H torsion
[ 7974 7965 7964 7962 ] final  165.96 input  175.53 | X-H torsion
[ 8008 7997 7996 7995 ] final   74.93 input   59.86 | X-H torsion
[ 10167 10162 10161 10158 ] final -163.89 input  -65.29 | X-H torsion
[ 10718 10713 10712 10709 ] final  125.89 input   66.30 | X-H torsion
[ 10763 10752 10751 10750 ] final   27.55 input  -60.55 | X-H torsion
[ 11005 11000 10999 10996 ] final -143.20 input  -57.11 | X-H torsion

> <Gold.Protein.ActiveResidues>
 VAL166  LYS551  ARG553  GLY616  TRP617  ASP618  TYR619  PRO620  LYS621  CYS622 
 ASP623  PHE694  ASN695  SER759  ASP760  ASP761  ALA762  ILE779  LEU786  VAL792 
 PHE793  MET794  SER795  GLU796  ALA797  LYS798  CYS799  TRP800  GLU811  SER814 

> <Gold.Protein.RotatedAtoms>
  150.6973  134.1596  159.4170 H   0  0  0  0  0  0  0  0  0  0  0  0  # atno 6907 bound_to 6896
  151.9577  135.0136  160.0555 H   0  0  0  0  0  0  0  0  0  0  0  0  # atno 6908 bound_to 6896
  152.1954  133.4768  159.5067 H   0  0  0  0  0  0  0  0  0  0  0  0  # atno 6909 bound_to 6896
  144.7481  139.8546  143.6375 H   0  0  0  0  0  0  0  0  0  0  0  0  # atno 7974 bound_to 7965
  155.8055  140.3475  155.5427 H   0  0  0  0  0  0  0  0  0  0  0  0  # atno 8008 bound_to 7997
  155.8494  140.0954  157.1705 H   0  0  0  0  0  0  0  0  0  0  0  0  # atno 8009 bound_to 7997
  154.4007  140.1379  156.3813 H   0  0  0  0  0  0  0  0  0  0  0  0  # atno 8010 bound_to 7997
  139.6289  144.0478  152.1999 H   0  0  0  0  0  0  0  0  0  0  0  0  # atno 10167 bound_to 10162
  157.5465  131.1095  150.8773 H   0  0  0  0  0  0  0  0  0  0  0  0  # atno 10718 bound_to 10713
  153.0549  135.6534  154.0603 H   0  0  0  0  0  0  0  0  0  0  0  0  # atno 10763 bound_to 10752
  154.0283  135.2914  155.3373 H   0  0  0  0  0  0  0  0  0  0  0  0  # atno 10764 bound_to 10752
  154.6858  135.5302  153.8391 H   0  0  0  0  0  0  0  0  0  0  0  0  # atno 10765 bound_to 10752
  140.8149  134.2700  157.4925 H   0  0  0  0  0  0  0  0  0  0  0  0  # atno 11005 bound_to 11000
  146.1391  139.4444  143.0120 LP  0  0  0  0  0  0  0  0  0  0  0  0  # atno 17320 bound_to 7965
  145.7045  141.0125  143.1486 LP  0  0  0  0  0  0  0  0  0  0  0  0  # atno 17321 bound_to 7965
  140.0139  144.6204  150.7624 LP  0  0  0  0  0  0  0  0  0  0  0  0  # atno 17342 bound_to 10162
  140.7427  143.2836  151.3527 LP  0  0  0  0  0  0  0  0  0  0  0  0  # atno 17343 bound_to 10162
  156.9311  130.5350  149.5279 LP  0  0  0  0  0  0  0  0  0  0  0  0  # atno 17370 bound_to 10713
  156.0540  130.5605  150.9051 LP  0  0  0  0  0  0  0  0  0  0  0  0  # atno 17371 bound_to 10713
  139.8712  134.9503  156.4052 LP  0  0  0  0  0  0  0  0  0  0  0  0  # atno 17394 bound_to 11000
  140.9160  133.7678  155.9848 LP  0  0  0  0  0  0  0  0  0  0  0  0  # atno 17395 bound_to 11000

$$$$
