#       Name:                AV-unprocessed.smi:959
#       Creating user name   scv26
#       Creation time:       Fri Mar 27 02:17:56 2020


#       File generated by GOLD software.
#

@<TRIPOS>MOLECULE
AV-unprocessed.smi:959
    35    36     1
SMALL
NO_CHARGES


@<TRIPOS>ATOM
      1 ****        -1.9168  -2.6582   1.9359 C.3            1 S1                 0.0000
      2 ****        -1.3070  -1.8174   0.8006 C.3            1 S1                 0.0000
      3 ****        -1.6366  -2.4098  -0.5776 C.3            1 S1                 0.0000
      4 ****         0.1355  -1.6443   0.9518 N.pl3          1 S1                 0.0000
      5 ****         1.0324  -2.4879   1.4932 C.2            1 S1                 0.0000
      6 ****         2.2945  -2.0655   1.4756 N.2            1 S1                 0.0000
      7 ****         2.2388  -0.8395   0.8505 N.2            1 S1                 0.0000
      8 ****         0.9509  -0.6468   0.5355 C.2            1 S1                 0.0000
      9 ****         0.4660   0.5850  -0.1797 C.3            1 S1                 0.0000
     10 ****         0.5474   1.8356   0.7156 C.3            1 S1                 0.0000
     11 ****         0.0611   3.0776  -0.0468 C.3            1 S1                 0.0000
     12 ****         0.8279   3.2468  -1.3689 C.3            1 S1                 0.0000
     13 ****         0.7161   2.0267  -2.1976 N.4            1 S1                 1.0000
     14 ****         1.2137   0.8141  -1.5106 C.3            1 S1                 0.0000
     15 ****        -3.0043  -2.6820   1.8591 H              1 S1                 0.0000
     16 ****        -1.6680  -2.2432   2.9132 H              1 S1                 0.0000
     17 ****        -1.5677  -3.6908   1.9085 H              1 S1                 0.0000
     18 ****        -1.7660  -0.8316   0.8734 H              1 S1                 0.0000
     19 ****        -2.7141  -2.5043  -0.7159 H              1 S1                 0.0000
     20 ****        -1.1982  -3.4013  -0.6965 H              1 S1                 0.0000
     21 ****        -1.2559  -1.7801  -1.3820 H              1 S1                 0.0000
     22 ****         0.7602  -3.4420   1.9195 H              1 S1                 0.0000
     23 ****        -0.5812   0.4435  -0.4422 H              1 S1                 0.0000
     24 ****        -0.0513   1.6938   1.6163 H              1 S1                 0.0000
     25 ****         1.5753   1.9919   1.0464 H              1 S1                 0.0000
     26 ****        -1.0067   2.9877  -0.2508 H              1 S1                 0.0000
     27 ****         0.1840   3.9665   0.5726 H              1 S1                 0.0000
     28 ****         0.4344   4.0950  -1.9295 H              1 S1                 0.0000
     29 ****         1.8811   3.4539  -1.1739 H              1 S1                 0.0000
     30 ****        -0.2561   1.8870  -2.4334 H              1 S1                 0.0000
     31 ****         2.2857   0.9238  -1.3390 H              1 S1                 0.0000
     32 ****         1.0828  -0.0430  -2.1723 H              1 S1                 0.0000
     33 ****         1.2422   2.1600  -3.0496 H              1 S1                 0.0000
     34 ****         3.1018  -2.5333   1.8354 LP             1 S1                 0.0000
     35 ****         3.0028  -0.2203   0.6690 LP             1 S1                 0.0000
@<TRIPOS>BOND
    1    1    2 1     
    2    1   15 1     
    3    1   16 1     
    4    1   17 1     
    5    2    3 1     
    6    2    4 1     
    7    2   18 1     
    8    3   19 1     
    9    3   20 1     
   10    3   21 1     
   11    4    8 1     
   12    4    5 1     
   13    5    6 2     
   14    5   22 1     
   15    6    7 1     
   16    7    8 2     
   17    8    9 1     
   18    9   14 1     
   19    9   10 1     
   20    9   23 1     
   21   10   11 1     
   22   10   24 1     
   23   10   25 1     
   24   11   12 1     
   25   11   26 1     
   26   11   27 1     
   27   12   13 1     
   28   12   28 1     
   29   12   29 1     
   30   13   14 1     
   31   13   30 1     
   32   13   33 1     
   33   14   31 1     
   34   14   32 1     
   35    6   34 1     
   36    7   35 1     
@<TRIPOS>SUBSTRUCTURE
      1 S1             1
@<TRIPOS>SET
LONE_PAIRS      STATIC     ATOMS    <user>   **** ""
2 34 35
DONOR_HYDROGENS      STATIC     ATOMS    <user>   **** ""
2 30 33
ATOM$BLUE        STATIC     ATOMS    COLORGROUP SYSTEM
2 34 35
ATOM$RED        STATIC     ATOMS    COLORGROUP SYSTEM
2 30 33
