AV-unprocessed.smi:1560|AV-procd|sdf|6276|dock2
  -GOLD-   22720 6473D 1   1.00000     0.00000
 Structure written by MMmdl.
 47 48  0  0  0  0  0  0  0  0  1 V2000
  147.2670  142.0212  154.4109 C   0  0  0  0  0  0  0  0  0  0  0  0
  148.6408  141.4154  154.0714 C   0  0  0  0  0  0  0  0  0  0  0  0
  149.1726  140.3435  155.0763 C   0  0  2  0  0  0  0  0  0  0  0  0
  150.1669  139.4532  154.2802 C   0  0  0  0  0  0  0  0  0  0  0  0
  147.9683  139.4556  155.5220 C   0  0  0  0  0  0  0  0  0  0  0  0
  147.4241  138.6649  154.4235 N   0  0  0  0  0  0  0  0  0  0  0  0
  146.3541  137.8566  154.4810 C   0  0  0  0  0  0  0  0  0  0  0  0
  145.7168  137.6629  155.5154 O   0  0  0  0  0  0  0  0  0  0  0  0
  145.9179  137.1524  153.1839 C   0  0  0  0  0  0  0  0  0  0  0  0
  144.6318  136.4401  153.2790 N   0  0  0  0  0  0  0  0  0  0  0  0
  143.4820  137.0026  152.7427 C   0  0  0  0  0  0  0  0  0  0  0  0
  142.2614  136.4220  152.8208 C   0  0  0  0  0  0  0  0  0  0  0  0
  142.0954  135.1389  153.4948 C   0  0  0  0  0  0  0  0  0  0  0  0
  141.0320  134.5359  153.6203 O   0  0  0  0  0  0  0  0  0  0  0  0
  143.2749  134.6043  154.0200 N   0  0  0  0  0  0  0  0  0  0  0  0
  144.5361  135.1965  153.9421 C   0  0  0  0  0  0  0  0  0  0  0  0
  145.5109  134.6443  154.4503 O   0  0  0  0  0  0  0  0  0  0  0  0
  149.8558  140.9859  156.2348 N   0  0  0  0  0  0  0  0  0  0  0  0
  150.7334  140.1026  157.0117 C   0  0  0  0  0  0  0  0  0  0  0  0
  151.5084  140.8699  158.0963 C   0  0  0  0  0  0  0  0  0  0  0  0
  150.5950  141.5439  158.9534 O   0  0  0  0  0  0  0  0  0  0  0  0
  149.7585  142.4534  158.2485 C   0  0  0  0  0  0  0  0  0  0  0  0
  148.9704  141.6993  157.1639 C   0  0  0  0  0  0  0  0  0  0  0  0
  143.2082  133.7163  154.4964 H   0  0  0  0  0  0  0  0  0  0  0  0
  146.9768  142.7527  153.6567 H   0  0  0  0  0  0  0  0  0  0  0  0
  147.2772  142.5353  155.3714 H   0  0  0  0  0  0  0  0  0  0  0  0
  146.4855  141.2622  154.4443 H   0  0  0  0  0  0  0  0  0  0  0  0
  148.6033  141.0028  153.0632 H   0  0  0  0  0  0  0  0  0  0  0  0
  149.3484  142.2417  153.9971 H   0  0  0  0  0  0  0  0  0  0  0  0
  149.7726  139.1658  153.3045 H   0  0  0  0  0  0  0  0  0  0  0  0
  150.3928  138.5249  154.8052 H   0  0  0  0  0  0  0  0  0  0  0  0
  151.1133  139.9651  154.1037 H   0  0  0  0  0  0  0  0  0  0  0  0
  148.2623  138.7552  156.3033 H   0  0  0  0  0  0  0  0  0  0  0  0
  147.1752  140.0757  155.9407 H   0  0  0  0  0  0  0  0  0  0  0  0
  147.8851  138.7630  153.5305 H   0  0  0  0  0  0  0  0  0  0  0  0
  145.8689  137.9024  152.3931 H   0  0  0  0  0  0  0  0  0  0  0  0
  146.7093  136.4673  152.8746 H   0  0  0  0  0  0  0  0  0  0  0  0
  143.5567  137.9565  152.2398 H   0  0  0  0  0  0  0  0  0  0  0  0
  141.4023  136.9111  152.3848 H   0  0  0  0  0  0  0  0  0  0  0  0
  150.1516  139.3147  157.4897 H   0  0  0  0  0  0  0  0  0  0  0  0
  151.4620  139.6128  156.3679 H   0  0  0  0  0  0  0  0  0  0  0  0
  152.1109  140.1819  158.6897 H   0  0  0  0  0  0  0  0  0  0  0  0
  152.1938  141.5890  157.6448 H   0  0  0  0  0  0  0  0  0  0  0  0
  149.0746  142.9256  158.9537 H   0  0  0  0  0  0  0  0  0  0  0  0
  150.3615  143.2478  157.8061 H   0  0  0  0  0  0  0  0  0  0  0  0
  148.3520  142.4235  156.6370 H   0  0  0  0  0  0  0  0  0  0  0  0
  148.2919  140.9999  157.6522 H   0  0  0  0  0  0  0  0  0  0  0  0
  1  2  1  0  0  0  0
  1 25  1  0  0  0  0
  1 26  1  0  0  0  0
  1 27  1  0  0  0  0
  2  3  1  0  0  0  0
  2 28  1  0  0  0  0
  2 29  1  0  0  0  0
  3  4  1  0  0  0  0
  3  5  1  0  0  0  0
  3 18  1  0  0  0  0
  4 30  1  0  0  0  0
  4 31  1  0  0  0  0
  4 32  1  0  0  0  0
  5  6  1  0  0  0  0
  5 33  1  0  0  0  0
  5 34  1  0  0  0  0
  6  7  1  0  0  0  0
  6 35  1  0  0  0  0
  7  8  2  0  0  0  0
  7  9  1  0  0  0  0
  9 10  1  0  0  0  0
  9 36  1  0  0  0  0
  9 37  1  0  0  0  0
 10 16  1  0  0  0  0
 10 11  1  0  0  0  0
 11 12  2  0  0  0  0
 11 38  1  0  0  0  0
 12 13  1  0  0  0  0
 12 39  1  0  0  0  0
 13 14  2  0  0  0  0
 13 15  1  0  0  0  0
 15 24  1  0  0  0  0
 15 16  1  0  0  0  0
 16 17  2  0  0  0  0
 18 23  1  0  0  0  0
 18 19  1  0  0  0  0
 19 20  1  0  0  0  0
 19 40  1  0  0  0  0
 19 41  1  0  0  0  0
 20 21  1  0  0  0  0
 20 42  1  0  0  0  0
 20 43  1  0  0  0  0
 21 22  1  0  0  0  0
 22 23  1  0  0  0  0
 22 44  1  0  0  0  0
 22 45  1  0  0  0  0
 23 46  1  0  0  0  0
 23 47  1  0  0  0  0
M  END
> <s_m_source_file>
AV-unprocessed.smi

> <i_m_source_file_index>
1560

> <i_lp_mmshare_version>
43012

> <i_f3d_flags>
0

> <s_epik_input>
W0NIMl0xW0NIMl1PW0NIMl1bQ0gyXU4xW0NAQF0oW0NIM10pKFtDSDJdW0NIM10pW0NIMl1bTkhdQyg9TylbQ0gyXW4yW2NIXVtjSF1jKD1PKVtuSF1jMj1P

> <s_epik_cmdline>
J2VwaWtfcHl0aG9uJywgJy1waCcsICc3LjAnLCAnLXRuJywgJzgnLCAnLW1hJywgJzIwMCcsICctbWV0YWxfYmluZGluZycsICctaW1hZScsICc8aW5maWxlLm1hZT4nLCAnLW9tYWUnLCAnPG91dGZpbGUubWFlPic=

> <r_lp_tautomer_probability>
0.999537

> <r_epik_Ionization_Penalty>
0.321965

> <r_epik_Ionization_Penalty_Charging>
0.00329831

> <r_epik_Ionization_Penalty_Neutral>
0.318667

> <r_epik_State_Penalty>
0.288097

> <r_epik_Charging_Adjusted_Penalty>
0.291396

> <i_epik_Tot_Q>
0

> <i_epik_Tot_abs_Q>
0

> <r_epik_Metal_State_Penalty>
0.654595

> <b_epik_Metal_Only>
0

> <s_lp_Force_Field>
OPLS_2005

> <r_lp_Energy>
43.0709

> <b_lp_Chiralities_Consistent>
1

> <s_lp_Variant>
AV-unprocessed.smi:1560-2

> <Gold.Version>
5.8.1

> <Gold.Id.Protein>
6NUR|6NUR_protein|mol2

> <Gold.PLP.Fitness>
39.0180

> <Gold.PLP.PLP>
-29.4769

> <Gold.PLP.part.hbond>
-3.5635

> <Gold.PLP.part.metal>
0.0000

> <Gold.PLP.part.buried>
-5.6241

> <Gold.PLP.part.nonpolar>
-20.9325

> <Gold.PLP.part.repulsive>
0.3487

> <Gold.PLP.ligand.clash>
0.0000

> <Gold.PLP.ligand.torsion>
0.9826

> <Gold.PLP.Chemscore.Hbond>
1.9750

> <Gold.PLP.Chemscore.CHOScore>
1.8254

> <Gold.PLP.Chemscore.Metal>
0.0000

> <Gold.Chemscore.Hbonds>
donor molecule, donor type, donor heavy atom, donor atom, acceptor molecule, acceptor atom, score
      L1  H    15    24       P1 10957  0.96
      P1  H 11000 11005       L1    14  0.59
      L1  C    11    38       P1 10171  1.00
      L1  C    11    38       P1 10175  1.00

> <Gold.PLP.Chemscore.Internal.Correction>
0.1051

> <Gold.Rescore>
     Score         DG    S(hbond)    S(metal)    S(lipo)     H(rot)  DE(clash)    DE(int)     intcor
     11.80     -12.75       1.97        0.00      60.45       2.49       0.01       0.95       ----

> <Gold.Chemscore.Fitness>
11.8015

> <Gold.Chemscore.DG>
-12.7543

> <Gold.Chemscore.ZeroCoef>
-5.4800

> <Gold.Chemscore.Hbond>
1.9659

> <Gold.Chemscore.Metal>
0.0000

> <Gold.Chemscore.Lipo>
60.4507

> <Gold.Chemscore.Internal_Hbond>
0.0000

> <Gold.Chemscore.DEClash>
0.0058

> <Gold.Chemscore.DEInternal>
0.9471

> <Gold.Chemscore.Rot>
2.4862

> <Gold.Chemscore.Internal.Correction>
   9.000000E+99

> <Gold.Chemscore.Hbonds>
donor molecule, donor type, donor heavy atom, donor atom, acceptor molecule, acceptor atom, score
      L1  H    15    24       P1 10957  0.90
      P1  H 11000 11005       L1    14  0.51

> <Gold.Chemscore.Hbond.Weighted>
-6.5662

> <Gold.Chemscore.Metal.Weighted>
-0.0000

> <Gold.Chemscore.Lipo.Weighted>
-7.0727

> <Gold.Chemscore.Internal_Hbond.Weighted>
0.0000

> <Gold.Chemscore.DEClash.Weighted>
0.0058

> <Gold.Chemscore.DEInternal.Weighted>
0.9471

> <Gold.Chemscore.Rot.Weighted>
6.3646

> <Gold.Chemscore.Internal.Correction.Weighted>
   9.000000E+99

> <Gold.Protein.RotatedTorsions>
[ 6907 6896 6895 6894 ] final  118.25 input  -60.11 | X-H torsion
[ 7974 7965 7964 7962 ] final   -3.25 input  175.53 | X-H torsion
[ 8008 7997 7996 7995 ] final   75.34 input   59.86 | X-H torsion
[ 10167 10162 10161 10158 ] final  -15.74 input  -65.29 | X-H torsion
[ 10718 10713 10712 10709 ] final   82.64 input   66.30 | X-H torsion
[ 10763 10752 10751 10750 ] final -132.18 input  -60.55 | X-H torsion
[ 11005 11000 10999 10996 ] final   19.18 input  -57.11 | X-H torsion

> <Gold.Protein.ActiveResidues>
 VAL166  LYS551  ARG553  GLY616  TRP617  ASP618  TYR619  PRO620  LYS621  CYS622 
 ASP623  PHE694  ASN695  SER759  ASP760  ASP761  ALA762  ILE779  LEU786  VAL792 
 PHE793  MET794  SER795  GLU796  ALA797  LYS798  CYS799  TRP800  GLU811  SER814 

> <Gold.Protein.RotatedAtoms>
  152.4556  133.7716  159.6801 H   0  0  0  0  0  0  0  0  0  0  0  0  # atno 6907 bound_to 6896
  150.8481  133.7819  159.3042 H   0  0  0  0  0  0  0  0  0  0  0  0  # atno 6908 bound_to 6896
  151.5423  135.1071  159.9981 H   0  0  0  0  0  0  0  0  0  0  0  0  # atno 6909 bound_to 6896
  146.2392  140.1692  142.8332 H   0  0  0  0  0  0  0  0  0  0  0  0  # atno 7974 bound_to 7965
  155.8114  140.3473  155.5460 H   0  0  0  0  0  0  0  0  0  0  0  0  # atno 8008 bound_to 7997
  155.8436  140.0945  157.1739 H   0  0  0  0  0  0  0  0  0  0  0  0  # atno 8009 bound_to 7997
  154.4006  140.1389  156.3746 H   0  0  0  0  0  0  0  0  0  0  0  0  # atno 8010 bound_to 7997
  140.7223  143.5187  150.9660 H   0  0  0  0  0  0  0  0  0  0  0  0  # atno 10167 bound_to 10162
  157.6862  131.0056  150.2405 H   0  0  0  0  0  0  0  0  0  0  0  0  # atno 10718 bound_to 10713
  154.8745  135.3806  154.4368 H   0  0  0  0  0  0  0  0  0  0  0  0  # atno 10763 bound_to 10752
  153.5057  135.7030  153.5813 H   0  0  0  0  0  0  0  0  0  0  0  0  # atno 10764 bound_to 10752
  153.4125  135.3921  155.2026 H   0  0  0  0  0  0  0  0  0  0  0  0  # atno 10765 bound_to 10752
  140.4165  134.1563  155.7670 H   0  0  0  0  0  0  0  0  0  0  0  0  # atno 11005 bound_to 11000
  145.0025  140.8644  143.5273 LP  0  0  0  0  0  0  0  0  0  0  0  0  # atno 17320 bound_to 7965
  145.1714  139.2402  143.5340 LP  0  0  0  0  0  0  0  0  0  0  0  0  # atno 17321 bound_to 7965
  139.8903  143.6961  152.3146 LP  0  0  0  0  0  0  0  0  0  0  0  0  # atno 17342 bound_to 10162
  139.7274  144.7590  151.0856 LP  0  0  0  0  0  0  0  0  0  0  0  0  # atno 17343 bound_to 10162
  156.3020  130.3760  149.7741 LP  0  0  0  0  0  0  0  0  0  0  0  0  # atno 17370 bound_to 10713
  156.5368  130.8282  151.3256 LP  0  0  0  0  0  0  0  0  0  0  0  0  # atno 17371 bound_to 10713
  141.1801  133.8432  157.1288 LP  0  0  0  0  0  0  0  0  0  0  0  0  # atno 17394 bound_to 11000
  140.0230  134.9937  157.0630 LP  0  0  0  0  0  0  0  0  0  0  0  0  # atno 17395 bound_to 11000

$$$$
