AV-unprocessed.smi:3315|AV-procd|sdf|12752|dock9
  -GOLD-   2272019 93D 1   1.00000     0.00000
 Structure written by MMmdl.
 37 38  0  0  0  0  0  0  0  0  1 V2000
  143.7732  132.6884  151.0043 C   0  0  0  0  0  0  0  0  0  0  0  0
  144.0083  134.0815  150.8436 O   0  0  0  0  0  0  0  0  0  0  0  0
  144.0113  134.8656  152.0379 C   0  0  2  0  0  0  0  0  0  0  0  0
  142.6687  134.7117  152.7696 C   0  0  0  0  0  0  0  0  0  0  0  0
  144.5432  136.2904  151.7973 C   0  0  0  0  0  0  0  0  0  0  0  0
  145.3380  136.1175  153.0897 C   0  0  2  0  0  0  0  0  0  0  0  0
  146.6516  136.7502  153.0319 N   0  0  0  0  0  0  0  0  0  0  0  0
  147.0012  137.8343  153.7374 C   0  0  0  0  0  0  0  0  0  0  0  0
  146.2395  138.4164  154.5102 O   0  0  0  0  0  0  0  0  0  0  0  0
  148.2744  138.1872  153.4909 N   0  0  0  0  0  0  0  0  0  0  0  0
  148.9925  139.2773  154.0457 C   0  0  0  0  0  0  0  0  0  0  0  0
  148.4263  140.5795  154.0826 C   0  0  0  0  0  0  0  0  0  0  0  0
  149.4084  141.3201  154.6768 C   0  0  0  0  0  0  0  0  0  0  0  0
  150.4818  140.5418  154.9779 O   0  0  0  0  0  0  0  0  0  0  0  0
  150.2085  139.2307  154.5695 N   0  0  0  0  0  0  0  0  0  0  0  0
  145.3362  134.5907  152.8219 C   0  0  0  0  0  0  0  0  0  0  0  0
  145.2337  133.6973  154.0623 C   0  0  0  0  0  0  0  0  0  0  0  0
  146.5102  134.0284  151.9949 C   0  0  0  0  0  0  0  0  0  0  0  0
  143.6966  132.2250  150.0208 H   0  0  0  0  0  0  0  0  0  0  0  0
  142.8426  132.4887  151.5359 H   0  0  0  0  0  0  0  0  0  0  0  0
  144.5904  132.1954  151.5301 H   0  0  0  0  0  0  0  0  0  0  0  0
  142.6849  135.1833  153.7519 H   0  0  0  0  0  0  0  0  0  0  0  0
  142.4156  133.6614  152.9160 H   0  0  0  0  0  0  0  0  0  0  0  0
  141.8501  135.1769  152.2211 H   0  0  0  0  0  0  0  0  0  0  0  0
  145.1674  136.3812  150.9065 H   0  0  0  0  0  0  0  0  0  0  0  0
  143.7860  137.0740  151.8346 H   0  0  0  0  0  0  0  0  0  0  0  0
  144.7500  136.3987  153.9666 H   0  0  0  0  0  0  0  0  0  0  0  0
  147.3364  136.3312  152.4200 H   0  0  0  0  0  0  0  0  0  0  0  0
  148.7842  137.6160  152.8336 H   0  0  0  0  0  0  0  0  0  0  0  0
  147.4619  140.9173  153.7337 H   0  0  0  0  0  0  0  0  0  0  0  0
  149.4914  142.3636  154.9425 H   0  0  0  0  0  0  0  0  0  0  0  0
  146.1864  133.6329  154.5891 H   0  0  0  0  0  0  0  0  0  0  0  0
  144.9338  132.6828  153.7985 H   0  0  0  0  0  0  0  0  0  0  0  0
  144.5068  134.0758  154.7803 H   0  0  0  0  0  0  0  0  0  0  0  0
  147.4454  134.0509  152.5553 H   0  0  0  0  0  0  0  0  0  0  0  0
  146.6757  134.5901  151.0754 H   0  0  0  0  0  0  0  0  0  0  0  0
  146.3329  132.9917  151.7069 H   0  0  0  0  0  0  0  0  0  0  0  0
  1  2  1  0  0  0  0
  1 19  1  0  0  0  0
  1 20  1  0  0  0  0
  1 21  1  0  0  0  0
  2  3  1  0  0  0  0
  3 16  1  0  0  0  0
  3  4  1  0  0  0  0
  3  5  1  0  0  0  0
  4 22  1  0  0  0  0
  4 23  1  0  0  0  0
  4 24  1  0  0  0  0
  5  6  1  0  0  0  0
  5 25  1  0  0  0  0
  5 26  1  0  0  0  0
  6  7  1  0  0  0  0
  6 16  1  0  0  0  0
  6 27  1  0  0  0  0
  7  8  1  0  0  0  0
  7 28  1  0  0  0  0
  8  9  2  0  0  0  0
  8 10  1  0  0  0  0
 10 11  1  0  0  0  0
 10 29  1  0  0  0  0
 11 15  2  0  0  0  0
 11 12  1  0  0  0  0
 12 13  2  0  0  0  0
 12 30  1  0  0  0  0
 13 14  1  0  0  0  0
 13 31  1  0  0  0  0
 14 15  1  0  0  0  0
 16 17  1  0  0  0  0
 16 18  1  0  0  0  0
 17 32  1  0  0  0  0
 17 33  1  0  0  0  0
 17 34  1  0  0  0  0
 18 35  1  0  0  0  0
 18 36  1  0  0  0  0
 18 37  1  0  0  0  0
M  END
> <s_m_source_file>
AV-unprocessed.smi

> <i_m_source_file_index>
3315

> <i_lp_mmshare_version>
43012

> <i_f3d_flags>
0

> <s_epik_input>
W0NIM11PW0NAQF0xKFtDSDNdKVtDSDJdW0NASF0oQzEoW0NIM10pW0NIM10pW05IXUMoPU8pW05IXWMyW2NIXVtjSF1vbjI=

> <s_epik_cmdline>
J2VwaWtfcHl0aG9uJywgJy1waCcsICc3LjAnLCAnLXRuJywgJzgnLCAnLW1hJywgJzIwMCcsICctbWV0YWxfYmluZGluZycsICctaW1hZScsICc8aW5maWxlLm1hZT4nLCAnLW9tYWUnLCAnPG91dGZpbGUubWFlPic=

> <r_lp_tautomer_probability>
1

> <r_epik_Ionization_Penalty>
2.28875e-05

> <r_epik_Ionization_Penalty_Charging>
0

> <r_epik_Ionization_Penalty_Neutral>
2.28875e-05

> <r_epik_State_Penalty>
-0

> <r_epik_Charging_Adjusted_Penalty>
0

> <i_epik_Tot_Q>
0

> <i_epik_Tot_abs_Q>
0

> <r_epik_Metal_State_Penalty>
-0

> <b_epik_Metal_Only>
0

> <s_lp_Force_Field>
OPLS_2005

> <r_lp_Energy>
21.6117

> <b_lp_Chiralities_Consistent>
1

> <s_lp_Variant>
AV-unprocessed.smi:3315-4

> <Gold.Version>
5.8.1

> <Gold.Id.Protein>
6NUR|6NUR_protein|mol2

> <Gold.PLP.Fitness>
33.4950

> <Gold.PLP.PLP>
-23.4930

> <Gold.PLP.part.hbond>
-3.2270

> <Gold.PLP.part.metal>
0.0000

> <Gold.PLP.part.buried>
-1.1330

> <Gold.PLP.part.nonpolar>
-19.4738

> <Gold.PLP.part.repulsive>
0.5263

> <Gold.PLP.ligand.clash>
0.0000

> <Gold.PLP.ligand.torsion>
0.7250

> <Gold.PLP.Chemscore.Hbond>
2.6944

> <Gold.PLP.Chemscore.CHOScore>
1.0000

> <Gold.PLP.Chemscore.Metal>
0.0000

> <Gold.Chemscore.Hbonds>
donor molecule, donor type, donor heavy atom, donor atom, acceptor molecule, acceptor atom, score
      L1  H     7    28       P1  7948  1.00
      L1  H    10    29       P1  7948  1.00
      P1  H  7989  7998       L1    14  0.68
      L1  C    13    31       P1  8028  1.00

> <Gold.PLP.Chemscore.Internal.Correction>
0.3688

> <Gold.Rescore>
     Score         DG    S(hbond)    S(metal)    S(lipo)     H(rot)  DE(clash)    DE(int)     intcor
     13.86     -14.63       1.96        0.00      50.86       1.30       0.05       0.72       ----

> <Gold.Chemscore.Fitness>
13.8626

> <Gold.Chemscore.DG>
-14.6306

> <Gold.Chemscore.ZeroCoef>
-5.4800

> <Gold.Chemscore.Hbond>
1.9572

> <Gold.Chemscore.Metal>
0.0000

> <Gold.Chemscore.Lipo>
50.8641

> <Gold.Chemscore.Internal_Hbond>
0.0000

> <Gold.Chemscore.DEClash>
0.0480

> <Gold.Chemscore.DEInternal>
0.7200

> <Gold.Chemscore.Rot>
1.3038

> <Gold.Chemscore.Internal.Correction>
   9.000000E+99

> <Gold.Chemscore.Hbonds>
donor molecule, donor type, donor heavy atom, donor atom, acceptor molecule, acceptor atom, score
      L1  H     7    28       P1  7948  0.95
      L1  H    10    29       P1  7948  0.97
      P1  H  7989  7998       L1    14  0.02

> <Gold.Chemscore.Hbond.Weighted>
-6.5372

> <Gold.Chemscore.Metal.Weighted>
-0.0000

> <Gold.Chemscore.Lipo.Weighted>
-5.9511

> <Gold.Chemscore.Internal_Hbond.Weighted>
0.0000

> <Gold.Chemscore.DEClash.Weighted>
0.0480

> <Gold.Chemscore.DEInternal.Weighted>
0.7200

> <Gold.Chemscore.Rot.Weighted>
3.3377

> <Gold.Chemscore.Internal.Correction.Weighted>
   9.000000E+99

> <Gold.Protein.RotatedTorsions>
[ 6907 6896 6895 6894 ] final  -78.66 input  -60.11 | X-H torsion
[ 7974 7965 7964 7962 ] final  -83.53 input  175.53 | X-H torsion
[ 8008 7997 7996 7995 ] final  154.49 input   59.86 | X-H torsion
[ 10167 10162 10161 10158 ] final -109.07 input  -65.29 | X-H torsion
[ 10718 10713 10712 10709 ] final  138.66 input   66.30 | X-H torsion
[ 10763 10752 10751 10750 ] final   29.94 input  -60.55 | X-H torsion
[ 11005 11000 10999 10996 ] final -116.21 input  -57.11 | X-H torsion

> <Gold.Protein.ActiveResidues>
 VAL166  LYS551  ARG553  GLY616  TRP617  ASP618  TYR619  PRO620  LYS621  CYS622 
 ASP623  PHE694  ASN695  SER759  ASP760  ASP761  ALA762  ILE779  LEU786  VAL792 
 PHE793  MET794  SER795  GLU796  ALA797  LYS798  CYS799  TRP800  GLU811  SER814 

> <Gold.Protein.RotatedAtoms>
  150.6967  134.4238  159.5216 H   0  0  0  0  0  0  0  0  0  0  0  0  # atno 6907 bound_to 6896
  152.1976  134.8614  160.0520 H   0  0  0  0  0  0  0  0  0  0  0  0  # atno 6908 bound_to 6896
  151.9546  133.3641  159.4049 H   0  0  0  0  0  0  0  0  0  0  0  0  # atno 6909 bound_to 6896
  145.5187  140.9533  143.1667 H   0  0  0  0  0  0  0  0  0  0  0  0  # atno 7974 bound_to 7965
  156.2528  140.1965  156.6654 H   0  0  0  0  0  0  0  0  0  0  0  0  # atno 8008 bound_to 7997
  154.6433  140.0581  156.9897 H   0  0  0  0  0  0  0  0  0  0  0  0  # atno 8009 bound_to 7997
  155.1529  140.3253  155.4430 H   0  0  0  0  0  0  0  0  0  0  0  0  # atno 8010 bound_to 7997
  140.1593  143.4134  152.1437 H   0  0  0  0  0  0  0  0  0  0  0  0  # atno 10167 bound_to 10162
  157.4229  131.1040  151.0334 H   0  0  0  0  0  0  0  0  0  0  0  0  # atno 10718 bound_to 10713
  153.0401  135.6476  154.0967 H   0  0  0  0  0  0  0  0  0  0  0  0  # atno 10763 bound_to 10752
  154.0675  135.2883  155.3315 H   0  0  0  0  0  0  0  0  0  0  0  0  # atno 10764 bound_to 10752
  154.6616  135.5389  153.8090 H   0  0  0  0  0  0  0  0  0  0  0  0  # atno 10765 bound_to 10752
  141.0437  133.9796  157.2953 H   0  0  0  0  0  0  0  0  0  0  0  0  # atno 11005 bound_to 11000
  144.7688  139.6784  143.7204 LP  0  0  0  0  0  0  0  0  0  0  0  0  # atno 17320 bound_to 7965
  146.2120  139.5482  142.9675 LP  0  0  0  0  0  0  0  0  0  0  0  0  # atno 17321 bound_to 7965
  139.5389  144.7237  151.4801 LP  0  0  0  0  0  0  0  0  0  0  0  0  # atno 17342 bound_to 10162
  140.6653  143.8411  150.6935 LP  0  0  0  0  0  0  0  0  0  0  0  0  # atno 17343 bound_to 10162
  157.1258  130.6081  149.5517 LP  0  0  0  0  0  0  0  0  0  0  0  0  # atno 17370 bound_to 10713
  155.9886  130.4931  150.7179 LP  0  0  0  0  0  0  0  0  0  0  0  0  # atno 17371 bound_to 10713
  139.9295  135.0200  156.8352 LP  0  0  0  0  0  0  0  0  0  0  0  0  # atno 17394 bound_to 11000
  140.6187  134.0014  155.7608 LP  0  0  0  0  0  0  0  0  0  0  0  0  # atno 17395 bound_to 11000

$$$$
