AV-unprocessed.smi:2621|AV-procd|sdf|10226|dock1
  -GOLD-   2272014233D 1   1.00000     0.00000
 Structure written by MMmdl.
 24 25  0  0  0  0  0  0  0  0  1 V2000
  152.1763  145.2919  159.2841 C   0  0  0  0  0  0  0  0  0  0  0  0
  152.0274  143.8765  158.7653 C   0  0  0  0  0  0  0  0  0  0  0  0
  152.6619  142.8301  159.3383 C   0  0  0  0  0  0  0  0  0  0  0  0
  152.4967  141.4765  158.8116 C   0  0  0  0  0  0  0  0  0  0  0  0
  153.0425  140.5029  159.3325 O   0  0  0  0  0  0  0  0  0  0  0  0
  151.6987  141.3725  157.7044 N   0  0  0  0  0  0  0  0  0  0  0  0
  151.5212  140.0434  157.0736 C   0  0  0  0  0  0  0  0  0  0  0  0
  152.0201  139.8994  155.6428 C   0  0  1  0  0  0  0  0  0  0  0  0
  151.7134  138.7314  154.7336 C   0  0  0  0  0  0  0  0  0  0  0  0
  150.9901  139.9621  154.6439 O   0  0  0  0  0  0  0  0  0  0  0  0
  151.0236  142.5055  157.1664 C   0  0  0  0  0  0  0  0  0  0  0  0
  150.1748  142.2640  156.1001 N   0  0  0  0  0  0  0  0  0  0  0  0
  151.1890  143.6891  157.6656 N   0  0  0  0  0  0  0  0  0  0  0  0
  152.9033  145.3448  160.0950 H   0  0  0  0  0  0  0  0  0  0  0  0
  151.2203  145.6585  159.6588 H   0  0  0  0  0  0  0  0  0  0  0  0
  152.5097  145.9553  158.4857 H   0  0  0  0  0  0  0  0  0  0  0  0
  153.3031  142.9872  160.1936 H   0  0  0  0  0  0  0  0  0  0  0  0
  151.9410  139.2337  157.6713 H   0  0  0  0  0  0  0  0  0  0  0  0
  150.4586  139.7943  157.0659 H   0  0  0  0  0  0  0  0  0  0  0  0
  152.8826  140.5153  155.3964 H   0  0  0  0  0  0  0  0  0  0  0  0
  152.3758  138.5341  153.8935 H   0  0  0  0  0  0  0  0  0  0  0  0
  151.1303  137.8913  155.1045 H   0  0  0  0  0  0  0  0  0  0  0  0
  150.0248  141.3462  155.7069 H   0  0  0  0  0  0  0  0  0  0  0  0
  149.6651  142.9898  155.6168 H   0  0  0  0  0  0  0  0  0  0  0  0
  1  2  1  0  0  0  0
  1 14  1  0  0  0  0
  1 15  1  0  0  0  0
  1 16  1  0  0  0  0
  2 13  1  0  0  0  0
  2  3  2  0  0  0  0
  3  4  1  0  0  0  0
  3 17  1  0  0  0  0
  4  5  2  0  0  0  0
  4  6  1  0  0  0  0
  6  7  1  0  0  0  0
  6 11  1  0  0  0  0
  7  8  1  0  0  0  0
  7 18  1  0  0  0  0
  7 19  1  0  0  0  0
  8 10  1  0  0  0  0
  8  9  1  0  0  0  0
  8 20  1  0  0  0  0
  9 10  1  0  0  0  0
  9 21  1  0  0  0  0
  9 22  1  0  0  0  0
 11 12  1  0  0  0  0
 11 13  2  0  0  0  0
 12 23  1  0  0  0  0
 12 24  1  0  0  0  0
M  END
> <s_m_source_file>
AV-unprocessed.smi

> <i_m_source_file_index>
2621

> <i_lp_mmshare_version>
43012

> <i_f3d_flags>
0

> <s_epik_input>
W0NIM11jMVtjSF1jKD1PKW4oYyhuMSlbTkgyXSlbQ0gyXVtDQEBIXTJbQ0gyXU8y

> <s_epik_cmdline>
J2VwaWtfcHl0aG9uJywgJy1waCcsICc3LjAnLCAnLXRuJywgJzgnLCAnLW1hJywgJzIwMCcsICctbWV0YWxfYmluZGluZycsICctaW1hZScsICc8aW5maWxlLm1hZT4nLCAnLW9tYWUnLCAnPG91dGZpbGUubWFlPic=

> <r_lp_tautomer_probability>
1

> <r_epik_Ionization_Penalty>
0.000262373

> <r_epik_Ionization_Penalty_Charging>
1.89272e-07

> <r_epik_Ionization_Penalty_Neutral>
0.000262184

> <r_epik_State_Penalty>
-0

> <r_epik_Charging_Adjusted_Penalty>
1.89272e-07

> <i_epik_Tot_Q>
0

> <i_epik_Tot_abs_Q>
0

> <r_epik_Metal_State_Penalty>
-0

> <b_epik_Metal_Only>
0

> <s_epik_Chemistry_Notes>
This compound has an imine and may undergo hydrolysis.

> <s_lp_Force_Field>
OPLS_2005

> <r_lp_Energy>
23.2986

> <b_lp_Chiralities_Consistent>
1

> <s_lp_Variant>
AV-unprocessed.smi:2621-2

> <Gold.Version>
5.8.1

> <Gold.Id.Protein>
6NUR|6NUR_protein|mol2

> <Gold.PLP.Fitness>
37.3611

> <Gold.PLP.PLP>
-31.4413

> <Gold.PLP.part.hbond>
-2.0000

> <Gold.PLP.part.metal>
0.0000

> <Gold.PLP.part.buried>
-5.0372

> <Gold.PLP.part.nonpolar>
-24.4336

> <Gold.PLP.part.repulsive>
0.3414

> <Gold.PLP.ligand.clash>
0.0000

> <Gold.PLP.ligand.torsion>
0.3363

> <Gold.PLP.Chemscore.Hbond>
1.9920

> <Gold.PLP.Chemscore.CHOScore>
0.0000

> <Gold.PLP.Chemscore.Metal>
0.0000

> <Gold.Chemscore.Hbonds>
donor molecule, donor type, donor heavy atom, donor atom, acceptor molecule, acceptor atom, score
      L1  H    12    24       P1  8028  0.98
      P1  H  7989  7998       L1    10  1.00

> <Gold.PLP.Chemscore.Internal.Correction>
0.6164

> <Gold.Rescore>
     Score         DG    S(hbond)    S(metal)    S(lipo)     H(rot)  DE(clash)    DE(int)     intcor
     14.98     -15.42       1.94        0.00      58.35       1.31       0.02       0.42       ----

> <Gold.Chemscore.Fitness>
14.9822

> <Gold.Chemscore.DG>
-15.4187

> <Gold.Chemscore.ZeroCoef>
-5.4800

> <Gold.Chemscore.Hbond>
1.9387

> <Gold.Chemscore.Metal>
0.0000

> <Gold.Chemscore.Lipo>
58.3499

> <Gold.Chemscore.Internal_Hbond>
0.0000

> <Gold.Chemscore.DEClash>
0.0202

> <Gold.Chemscore.DEInternal>
0.4162

> <Gold.Chemscore.Rot>
1.3139

> <Gold.Chemscore.Internal.Correction>
   9.000000E+99

> <Gold.Chemscore.Hbonds>
donor molecule, donor type, donor heavy atom, donor atom, acceptor molecule, acceptor atom, score
      L1  H    12    24       P1  8028  0.93
      P1  H  7989  7998       L1    10  0.31

> <Gold.Chemscore.Hbond.Weighted>
-6.4753

> <Gold.Chemscore.Metal.Weighted>
-0.0000

> <Gold.Chemscore.Lipo.Weighted>
-6.8269

> <Gold.Chemscore.Internal_Hbond.Weighted>
0.0000

> <Gold.Chemscore.DEClash.Weighted>
0.0202

> <Gold.Chemscore.DEInternal.Weighted>
0.4162

> <Gold.Chemscore.Rot.Weighted>
3.3636

> <Gold.Chemscore.Internal.Correction.Weighted>
   9.000000E+99

> <Gold.Protein.RotatedTorsions>
[ 6907 6896 6895 6894 ] final   12.69 input  -60.11 | X-H torsion
[ 7974 7965 7964 7962 ] final   36.68 input  175.53 | X-H torsion
[ 8008 7997 7996 7995 ] final   78.70 input   59.86 | X-H torsion
[ 10167 10162 10161 10158 ] final  170.93 input  -65.29 | X-H torsion
[ 10718 10713 10712 10709 ] final  -93.01 input   66.30 | X-H torsion
[ 10763 10752 10751 10750 ] final  -23.50 input  -60.55 | X-H torsion
[ 11005 11000 10999 10996 ] final  161.91 input  -57.11 | X-H torsion

> <Gold.Protein.ActiveResidues>
 VAL166  LYS551  ARG553  GLY616  TRP617  ASP618  TYR619  PRO620  LYS621  CYS622 
 ASP623  PHE694  ASN695  SER759  ASP760  ASP761  ALA762  ILE779  LEU786  VAL792 
 PHE793  MET794  SER795  GLU796  ALA797  LYS798  CYS799  TRP800  GLU811  SER814 

> <Gold.Protein.RotatedAtoms>
  151.7743  135.0778  160.0364 H   0  0  0  0  0  0  0  0  0  0  0  0  # atno 6907 bound_to 6896
  152.3267  133.5908  159.5790 H   0  0  0  0  0  0  0  0  0  0  0  0  # atno 6908 bound_to 6896
  150.7399  133.9846  159.3629 H   0  0  0  0  0  0  0  0  0  0  0  0  # atno 6909 bound_to 6896
  146.1193  139.5987  142.9300 H   0  0  0  0  0  0  0  0  0  0  0  0  # atno 7974 bound_to 7965
  155.8594  140.3454  155.5746 H   0  0  0  0  0  0  0  0  0  0  0  0  # atno 8008 bound_to 7997
  155.7950  140.0877  157.2007 H   0  0  0  0  0  0  0  0  0  0  0  0  # atno 8009 bound_to 7997
  154.4011  140.1476  156.3195 H   0  0  0  0  0  0  0  0  0  0  0  0  # atno 8010 bound_to 7997
  139.5032  144.3542  151.9892 H   0  0  0  0  0  0  0  0  0  0  0  0  # atno 10167 bound_to 10162
  156.0008  130.5010  150.5711 H   0  0  0  0  0  0  0  0  0  0  0  0  # atno 10718 bound_to 10713
  153.6689  135.6973  153.5153 H   0  0  0  0  0  0  0  0  0  0  0  0  # atno 10763 bound_to 10752
  153.2573  135.4256  155.0858 H   0  0  0  0  0  0  0  0  0  0  0  0  # atno 10764 bound_to 10752
  154.8432  135.3546  154.6233 H   0  0  0  0  0  0  0  0  0  0  0  0  # atno 10765 bound_to 10752
  140.2205  134.8200  157.3215 H   0  0  0  0  0  0  0  0  0  0  0  0  # atno 11005 bound_to 11000
  145.5500  141.0414  143.2284 LP  0  0  0  0  0  0  0  0  0  0  0  0  # atno 17320 bound_to 7965
  144.7582  139.7021  143.7245 LP  0  0  0  0  0  0  0  0  0  0  0  0  # atno 17321 bound_to 7965
  140.2978  144.3681  150.6069 LP  0  0  0  0  0  0  0  0  0  0  0  0  # atno 17342 bound_to 10162
  140.5897  143.2168  151.7277 LP  0  0  0  0  0  0  0  0  0  0  0  0  # atno 17343 bound_to 10162
  157.3606  131.0749  151.1639 LP  0  0  0  0  0  0  0  0  0  0  0  0  # atno 17370 bound_to 10713
  157.2425  130.6576  149.5896 LP  0  0  0  0  0  0  0  0  0  0  0  0  # atno 17371 bound_to 10713
  140.1855  134.4437  155.7746 LP  0  0  0  0  0  0  0  0  0  0  0  0  # atno 17394 bound_to 11000
  141.2223  133.7003  156.7940 LP  0  0  0  0  0  0  0  0  0  0  0  0  # atno 17395 bound_to 11000

$$$$
