#       Name:                AV-unprocessed.smi:2024
#       Creating user name   scv26
#       Creation time:       Fri Mar 27 10:44:42 2020


#       File generated by GOLD software.
#

@<TRIPOS>MOLECULE
AV-unprocessed.smi:2024
    48    49     1
SMALL
NO_CHARGES


@<TRIPOS>ATOM
      1 ****        -2.7245   1.3469   3.7286 C.3            1 S1                 0.0000
      2 ****        -2.0667   0.1907   3.0771 N.4            1 S1                 1.0000
      3 ****        -0.5996   0.3334   2.9376 C.3            1 S1                 0.0000
      4 ****        -0.2323   1.2942   1.7890 C.3            1 S1                 0.0000
      5 ****        -0.7875   0.8101   0.5138 N.3            1 S1                 0.0000
      6 ****        -0.2891   1.5284  -0.6911 C.3            1 S1                 0.0000
      7 ****        -0.9225   0.9143  -1.9657 C.3            1 S1                 0.0000
      8 ****        -0.6412   3.0350  -0.6482 C.3            1 S1                 0.0000
      9 ****         1.2581   1.3831  -0.8106 C.3            1 S1                 0.0000
     10 ****         1.7164  -0.0049  -0.7346 N.am           1 S1                 0.0000
     11 ****         2.0896  -0.7645  -1.7748 C.2            1 S1                 0.0000
     12 ****         2.0988  -0.3665  -2.9398 O.2            1 S1                 0.0000
     13 ****         2.4354  -2.0002  -1.3734 N.am           1 S1                 0.0000
     14 ****         2.8783  -3.0897  -2.1686 C.2            1 S1                 0.0000
     15 ****         3.0532  -3.0354  -3.4941 N.2            1 S1                 0.0000
     16 ****         3.4970  -4.2535  -4.0148 C.2            1 S1                 0.0000
     17 ****         3.6547  -5.2318  -3.0648 C.2            1 S1                 0.0000
     18 ****         3.2523  -4.6579  -1.4685 S.3            1 S1                 0.0000
     19 ****        -2.2531   0.7813   0.6555 C.3            1 S1                 0.0000
     20 ****        -2.6682  -0.1901   1.7790 C.3            1 S1                 0.0000
     21 ****        -2.6230   2.2600   3.1420 H              1 S1                 0.0000
     22 ****        -2.2908   1.5264   4.7127 H              1 S1                 0.0000
     23 ****        -3.7880   1.1508   3.8681 H              1 S1                 0.0000
     24 ****        -0.1675   0.6787   3.8776 H              1 S1                 0.0000
     25 ****        -0.1685  -0.6499   2.7436 H              1 S1                 0.0000
     26 ****        -0.5875   2.3010   2.0088 H              1 S1                 0.0000
     27 ****         0.8532   1.3461   1.7513 H              1 S1                 0.0000
     28 ****        -0.4137   1.2651  -2.8644 H              1 S1                 0.0000
     29 ****        -1.9690   1.1922  -2.0889 H              1 S1                 0.0000
     30 ****        -0.8639  -0.1748  -1.9660 H              1 S1                 0.0000
     31 ****        -0.2853   3.5375  -1.5484 H              1 S1                 0.0000
     32 ****        -0.1788   3.5456   0.1962 H              1 S1                 0.0000
     33 ****        -1.7157   3.2094  -0.5979 H              1 S1                 0.0000
     34 ****         1.6003   1.8423  -1.7399 H              1 S1                 0.0000
     35 ****         1.7726   1.9495  -0.0353 H              1 S1                 0.0000
     36 ****         1.7375  -0.4212   0.1844 H              1 S1                 0.0000
     37 ****         2.3710  -2.1858  -0.3837 H              1 S1                 0.0000
     38 ****         3.6762  -4.3362  -5.0765 H              1 S1                 0.0000
     39 ****         3.9822  -6.2511  -3.2067 H              1 S1                 0.0000
     40 ****        -2.6433   1.7799   0.8517 H              1 S1                 0.0000
     41 ****        -2.7306   0.4305  -0.2568 H              1 S1                 0.0000
     42 ****        -2.3449  -1.2010   1.5266 H              1 S1                 0.0000
     43 ****        -3.7544  -0.2288   1.8694 H              1 S1                 0.0000
     44 ****        -2.2193  -0.5884   3.7014 H              1 S1                 0.0000
     45 ****        -0.4559  -0.1163   0.3350 LP             1 S1                 0.0000
     46 ****         1.8176   0.5697  -3.1506 LP             1 S1                 0.0000
     47 ****         2.3876  -0.9794  -3.6753 LP             1 S1                 0.0000
     48 ****         2.8860  -2.2191  -4.0469 LP             1 S1                 0.0000
@<TRIPOS>BOND
    1    1    2 1     
    2    1   21 1     
    3    1   22 1     
    4    1   23 1     
    5    2   20 1     
    6    2    3 1     
    7    2   44 1     
    8    3    4 1     
    9    3   24 1     
   10    3   25 1     
   11    4    5 1     
   12    4   26 1     
   13    4   27 1     
   14    5    6 1     
   15    5   19 1     
   16    6    7 1     
   17    6    8 1     
   18    6    9 1     
   19    7   28 1     
   20    7   29 1     
   21    7   30 1     
   22    8   31 1     
   23    8   32 1     
   24    8   33 1     
   25    9   10 1     
   26    9   34 1     
   27    9   35 1     
   28   10   11 am    
   29   10   36 1     
   30   11   12 2     
   31   11   13 am    
   32   13   14 1     
   33   13   37 1     
   34   14   18 1     
   35   14   15 2     
   36   15   16 1     
   37   16   17 2     
   38   16   38 1     
   39   17   18 1     
   40   17   39 1     
   41   19   20 1     
   42   19   40 1     
   43   19   41 1     
   44   20   42 1     
   45   20   43 1     
   46    5   45 1     
   47   12   46 1     
   48   12   47 1     
   49   15   48 1     
@<TRIPOS>SUBSTRUCTURE
      1 S1             1
@<TRIPOS>SET
LONE_PAIRS      STATIC     ATOMS    <user>   **** ""
4 45 46 47 48
DONOR_HYDROGENS      STATIC     ATOMS    <user>   **** ""
3 44 36 37
ATOM$BLUE        STATIC     ATOMS    COLORGROUP SYSTEM
4 45 46 47 48
ATOM$RED        STATIC     ATOMS    COLORGROUP SYSTEM
3 44 36 37
