AV-unprocessed.smi:3188|AV-procd|sdf|12186|dock7
  -GOLD-   2272018 33D 1   1.00000     0.00000
 Structure written by MMmdl.
 40 41  0  0  0  0  0  0  0  0  2 V2000
  153.2689  140.5268  159.7374 C   0  0  0  0  0  0  0  0  0  0  0  0
  152.7949  141.9338  160.0619 C   0  0  0  0  0  0  0  0  0  0  0  0
  152.8252  142.3951  161.3280 C   0  0  0  0  0  0  0  0  0  0  0  0
  152.4179  143.7957  161.7500 C   0  0  0  0  0  0  0  0  0  0  0  0
  151.7646  144.6008  160.6149 C   0  0  0  0  0  0  0  0  0  0  0  0
  152.4394  144.3125  159.2632 C   0  0  2  0  0  0  0  0  0  0  0  0
  151.9697  145.2815  158.1642 C   0  0  0  0  0  0  0  0  0  0  0  0
  152.3210  142.8069  158.8914 C   0  0  2  0  0  0  0  0  0  0  0  0
  150.9020  142.4095  158.4066 C   0  0  0  0  0  0  0  0  0  0  0  0
  150.7345  142.5662  156.9490 N   0  3  0  0  0  0  0  0  0  0  0  0
  150.6244  141.2936  156.2077 C   0  0  0  0  0  0  0  0  0  0  0  0
  149.9984  141.5000  154.8192 C   0  0  0  0  0  0  0  0  0  0  0  0
  148.5782  141.1989  154.8114 N   0  0  0  0  0  0  0  0  0  0  0  0
  147.8401  140.5627  153.8354 C   0  0  0  0  0  0  0  0  0  0  0  0
  146.5712  140.5736  154.3399 C   0  0  0  0  0  0  0  0  0  0  0  0
  146.5899  141.2058  155.5819 N   0  0  0  0  0  0  0  0  0  0  0  0
  147.8020  141.5711  155.8572 N   0  0  0  0  0  0  0  0  0  0  0  0
  153.9324  140.5325  158.8726 H   0  0  0  0  0  0  0  0  0  0  0  0
  152.4301  139.8642  159.5327 H   0  0  0  0  0  0  0  0  0  0  0  0
  153.8202  140.0969  160.5743 H   0  0  0  0  0  0  0  0  0  0  0  0
  153.1859  141.7556  162.1207 H   0  0  0  0  0  0  0  0  0  0  0  0
  151.7445  143.7375  162.6054 H   0  0  0  0  0  0  0  0  0  0  0  0
  153.3178  144.3079  162.0921 H   0  0  0  0  0  0  0  0  0  0  0  0
  150.7033  144.3588  160.5562 H   0  0  0  0  0  0  0  0  0  0  0  0
  151.8183  145.6642  160.8510 H   0  0  0  0  0  0  0  0  0  0  0  0
  153.5038  144.5156  159.3952 H   0  0  0  0  0  0  0  0  0  0  0  0
  150.8861  145.2761  158.0485 H   0  0  0  0  0  0  0  0  0  0  0  0
  152.4164  145.0345  157.2007 H   0  0  0  0  0  0  0  0  0  0  0  0
  152.2591  146.3047  158.4051 H   0  0  0  0  0  0  0  0  0  0  0  0
  153.0139  142.6386  158.0655 H   0  0  0  0  0  0  0  0  0  0  0  0
  150.6898  141.3757  158.6813 H   0  0  0  0  0  0  0  0  0  0  0  0
  150.1395  143.0275  158.8783 H   0  0  0  0  0  0  0  0  0  0  0  0
  149.9061  143.1179  156.7761 H   0  0  0  0  0  0  0  0  0  0  0  0
  151.6132  140.8438  156.1075 H   0  0  0  0  0  0  0  0  0  0  0  0
  150.0139  140.5984  156.7847 H   0  0  0  0  0  0  0  0  0  0  0  0
  150.1259  142.5365  154.5049 H   0  0  0  0  0  0  0  0  0  0  0  0
  150.5036  140.8838  154.0736 H   0  0  0  0  0  0  0  0  0  0  0  0
  148.2581  140.1804  152.9158 H   0  0  0  0  0  0  0  0  0  0  0  0
  145.6561  140.1854  153.9169 H   0  0  0  0  0  0  0  0  0  0  0  0
  151.5352  143.0693  156.5935 H   0  0  0  0  0  0  0  0  0  0  0  0
  1  2  1  0  0  0  0
  1 18  1  0  0  0  0
  1 19  1  0  0  0  0
  1 20  1  0  0  0  0
  2  8  1  0  0  0  0
  2  3  2  0  0  0  0
  3  4  1  0  0  0  0
  3 21  1  0  0  0  0
  4  5  1  0  0  0  0
  4 22  1  0  0  0  0
  4 23  1  0  0  0  0
  5  6  1  0  0  0  0
  5 24  1  0  0  0  0
  5 25  1  0  0  0  0
  6  7  1  0  0  0  0
  6  8  1  0  0  0  0
  6 26  1  0  0  0  0
  7 27  1  0  0  0  0
  7 28  1  0  0  0  0
  7 29  1  0  0  0  0
  8  9  1  0  0  0  0
  8 30  1  0  0  0  0
  9 10  1  0  0  0  0
  9 31  1  0  0  0  0
  9 32  1  0  0  0  0
 10 11  1  0  0  0  0
 10 33  1  0  0  0  0
 10 40  1  0  0  0  0
 11 12  1  0  0  0  0
 11 34  1  0  0  0  0
 11 35  1  0  0  0  0
 12 13  1  0  0  0  0
 12 36  1  0  0  0  0
 12 37  1  0  0  0  0
 13 17  1  0  0  0  0
 13 14  1  0  0  0  0
 14 15  2  0  0  0  0
 14 38  1  0  0  0  0
 15 16  1  0  0  0  0
 15 39  1  0  0  0  0
 16 17  2  0  0  0  0
M  CHG  1  10   1
M  END
> <s_m_source_file>
AV-unprocessed.smi

> <i_m_source_file_index>
3188

> <i_lp_mmshare_version>
43012

> <i_f3d_flags>
0

> <s_epik_input>
W0NIM11DMT1bQ0hdW0NIMl1bQ0gyXVtDQEBIXShbQ0gzXSlbQ0BIXTFbQ0gyXVtOSF1bQ0gyXVtDSDJdbjJbY0hdW2NIXW5uMg==

> <s_epik_cmdline>
J2VwaWtfcHl0aG9uJywgJy1waCcsICc3LjAnLCAnLXRuJywgJzgnLCAnLW1hJywgJzIwMCcsICctbWV0YWxfYmluZGluZycsICctaW1hZScsICc8aW5maWxlLm1hZT4nLCAnLW9tYWUnLCAnPG91dGZpbGUubWFlPic=

> <r_lp_tautomer_probability>
1

> <r_epik_Ionization_Penalty>
0.007268

> <r_epik_Ionization_Penalty_Charging>
0.00726786

> <r_epik_Ionization_Penalty_Neutral>
1.34882e-07

> <r_epik_State_Penalty>
0.00542069

> <r_epik_Charging_Adjusted_Penalty>
0.0126886

> <i_epik_Tot_Q>
1

> <i_epik_Tot_abs_Q>
1

> <r_epik_Metal_State_Penalty>
-0

> <b_epik_Metal_Only>
0

> <s_lp_Force_Field>
OPLS_2005

> <r_lp_Energy>
14.4229

> <b_lp_Chiralities_Consistent>
1

> <s_lp_Variant>
AV-unprocessed.smi:3188-4

> <Gold.Version>
5.8.1

> <Gold.Id.Protein>
6NUR|6NUR_protein|mol2

> <Gold.PLP.Fitness>
50.0334

> <Gold.PLP.PLP>
-40.7943

> <Gold.PLP.part.hbond>
-1.0000

> <Gold.PLP.part.metal>
0.0000

> <Gold.PLP.part.buried>
-3.4231

> <Gold.PLP.part.nonpolar>
-35.8503

> <Gold.PLP.part.repulsive>
1.1411

> <Gold.PLP.ligand.clash>
0.0000

> <Gold.PLP.ligand.torsion>
1.3980

> <Gold.PLP.Chemscore.Hbond>
2.0000

> <Gold.PLP.Chemscore.CHOScore>
2.0000

> <Gold.PLP.Chemscore.Metal>
0.0000

> <Gold.Chemscore.Hbonds>
donor molecule, donor type, donor heavy atom, donor atom, acceptor molecule, acceptor atom, score
      L1  H    10    33       P1  8028  1.16
      L1  C    14    38       P1  7957  1.00
      L1  C    15    39       P1 10175  1.00

> <Gold.PLP.Chemscore.Internal.Correction>
0.0350

> <Gold.Rescore>
     Score         DG    S(hbond)    S(metal)    S(lipo)     H(rot)  DE(clash)    DE(int)     intcor
     16.22     -18.95       0.95        0.00     126.99       1.78       1.47       1.26       ----

> <Gold.Chemscore.Fitness>
16.2184

> <Gold.Chemscore.DG>
-18.9464

> <Gold.Chemscore.ZeroCoef>
-5.4800

> <Gold.Chemscore.Hbond>
0.9483

> <Gold.Chemscore.Metal>
0.0000

> <Gold.Chemscore.Lipo>
126.9929

> <Gold.Chemscore.Internal_Hbond>
0.0000

> <Gold.Chemscore.DEClash>
1.4715

> <Gold.Chemscore.DEInternal>
1.2565

> <Gold.Chemscore.Rot>
1.7809

> <Gold.Chemscore.Internal.Correction>
   9.000000E+99

> <Gold.Chemscore.Hbonds>
donor molecule, donor type, donor heavy atom, donor atom, acceptor molecule, acceptor atom, score
      L1  H    10    33       P1  8028  0.55

> <Gold.Chemscore.Hbond.Weighted>
-3.1673

> <Gold.Chemscore.Metal.Weighted>
-0.0000

> <Gold.Chemscore.Lipo.Weighted>
-14.8582

> <Gold.Chemscore.Internal_Hbond.Weighted>
0.0000

> <Gold.Chemscore.DEClash.Weighted>
1.4715

> <Gold.Chemscore.DEInternal.Weighted>
1.2565

> <Gold.Chemscore.Rot.Weighted>
4.5590

> <Gold.Chemscore.Internal.Correction.Weighted>
   9.000000E+99

> <Gold.Protein.RotatedTorsions>
[ 6907 6896 6895 6894 ] final   31.26 input  -60.11 | X-H torsion
[ 7974 7965 7964 7962 ] final -152.53 input  175.53 | X-H torsion
[ 8008 7997 7996 7995 ] final  -40.59 input   59.86 | X-H torsion
[ 10167 10162 10161 10158 ] final  -39.79 input  -65.29 | X-H torsion
[ 10718 10713 10712 10709 ] final -173.63 input   66.30 | X-H torsion
[ 10763 10752 10751 10750 ] final  129.28 input  -60.55 | X-H torsion
[ 11005 11000 10999 10996 ] final   99.50 input  -57.11 | X-H torsion

> <Gold.Protein.ActiveResidues>
 VAL166  LYS551  ARG553  GLY616  TRP617  ASP618  TYR619  PRO620  LYS621  CYS622 
 ASP623  PHE694  ASN695  SER759  ASP760  ASP761  ALA762  ILE779  LEU786  VAL792 
 PHE793  MET794  SER795  GLU796  ALA797  LYS798  CYS799  TRP800  GLU811  SER814 

> <Gold.Protein.RotatedAtoms>
  152.0578  134.9613  160.0574 H   0  0  0  0  0  0  0  0  0  0  0  0  # atno 6907 bound_to 6896
  152.0989  133.4234  159.4586 H   0  0  0  0  0  0  0  0  0  0  0  0  # atno 6908 bound_to 6896
  150.6839  134.2703  159.4629 H   0  0  0  0  0  0  0  0  0  0  0  0  # atno 6909 bound_to 6896
  144.7789  140.4649  143.5853 H   0  0  0  0  0  0  0  0  0  0  0  0  # atno 7974 bound_to 7965
  154.4011  140.1521  156.3052 H   0  0  0  0  0  0  0  0  0  0  0  0  # atno 8008 bound_to 7997
  155.8665  140.3451  155.5770 H   0  0  0  0  0  0  0  0  0  0  0  0  # atno 8009 bound_to 7997
  155.7822  140.0845  157.2043 H   0  0  0  0  0  0  0  0  0  0  0  0  # atno 8010 bound_to 7997
  140.7053  143.3192  151.2833 H   0  0  0  0  0  0  0  0  0  0  0  0  # atno 10167 bound_to 10162
  156.7732  130.9456  151.3120 H   0  0  0  0  0  0  0  0  0  0  0  0  # atno 10718 bound_to 10713
  153.7393  135.3226  155.3301 H   0  0  0  0  0  0  0  0  0  0  0  0  # atno 10763 bound_to 10752
  154.8300  135.4541  154.1043 H   0  0  0  0  0  0  0  0  0  0  0  0  # atno 10764 bound_to 10752
  153.2213  135.6948  153.8078 H   0  0  0  0  0  0  0  0  0  0  0  0  # atno 10765 bound_to 10752
  139.8771  134.9098  156.4615 H   0  0  0  0  0  0  0  0  0  0  0  0  # atno 11005 bound_to 11000
  145.6106  139.1513  143.3078 LP  0  0  0  0  0  0  0  0  0  0  0  0  # atno 17320 bound_to 7965
  146.1985  140.6223  142.9113 LP  0  0  0  0  0  0  0  0  0  0  0  0  # atno 17321 bound_to 7965
  139.6641  144.0137  152.2711 LP  0  0  0  0  0  0  0  0  0  0  0  0  # atno 17342 bound_to 10162
  139.9714  144.6491  150.7986 LP  0  0  0  0  0  0  0  0  0  0  0  0  # atno 17343 bound_to 10162
  157.6681  130.9026  149.9978 LP  0  0  0  0  0  0  0  0  0  0  0  0  # atno 17370 bound_to 10713
  156.1265  130.3644  149.9802 LP  0  0  0  0  0  0  0  0  0  0  0  0  # atno 17371 bound_to 10713
  140.8860  133.7883  155.9519 LP  0  0  0  0  0  0  0  0  0  0  0  0  # atno 17394 bound_to 11000
  140.8804  134.2619  157.5147 LP  0  0  0  0  0  0  0  0  0  0  0  0  # atno 17395 bound_to 11000

$$$$
