AV-unprocessed.smi:72|AV-procd|sdf|700|dock5
  -GOLD-   2262017 13D 1   1.00000     0.00000
 Structure written by MMmdl.
 30 31  0  0  0  0  0  0  0  0  2 V2000
  147.0310  138.8253  153.9374 N   0  0  0  0  0  0  0  0  0  0  0  0
  146.1931  137.9503  153.2778 C   0  0  0  0  0  0  0  0  0  0  0  0
  146.7685  137.0420  152.4074 N   0  3  0  0  0  0  0  0  0  0  0  0
  146.0991  136.1258  151.6944 C   0  0  0  0  0  0  0  0  0  0  0  0
  144.7883  136.0524  151.8158 N   0  0  0  0  0  0  0  0  0  0  0  0
  143.9683  135.0435  151.0450 C   0  0  1  0  0  0  0  0  0  0  0  0
  144.8194  134.3475  150.1862 O   0  0  0  0  0  0  0  0  0  0  0  0
  145.0817  133.0494  150.7088 C   0  0  2  0  0  0  0  0  0  0  0  0
  145.5877  132.0980  149.6115 C   0  0  0  0  0  0  0  0  0  0  0  0
  146.3131  131.0374  150.1960 O   0  0  0  0  0  0  0  0  0  0  0  0
  143.7415  132.6733  151.3495 C   0  0  2  0  0  0  0  0  0  0  0  0
  142.8198  132.2202  150.3746 O   0  0  0  0  0  0  0  0  0  0  0  0
  143.2741  133.9933  151.9511 C   0  0  1  0  0  0  0  0  0  0  0  0
  143.6637  134.0541  153.3132 O   0  0  0  0  0  0  0  0  0  0  0  0
  144.1077  136.9524  152.6760 C   0  0  0  0  0  0  0  0  0  0  0  0
  142.8840  136.8945  152.7916 O   0  0  0  0  0  0  0  0  0  0  0  0
  144.8949  137.8767  153.3779 N   0  0  0  0  0  0  0  0  0  0  0  0
  143.2738  135.6289  150.4396 H   0  0  0  0  0  0  0  0  0  0  0  0
  145.8227  133.1229  151.5068 H   0  0  0  0  0  0  0  0  0  0  0  0
  143.8542  131.8856  152.0960 H   0  0  0  0  0  0  0  0  0  0  0  0
  142.1910  134.1119  151.8956 H   0  0  0  0  0  0  0  0  0  0  0  0
  146.6992  139.5221  154.5894 H   0  0  0  0  0  0  0  0  0  0  0  0
  148.0348  138.8389  153.8272 H   0  0  0  0  0  0  0  0  0  0  0  0
  146.6514  135.4720  151.0332 H   0  0  0  0  0  0  0  0  0  0  0  0
  144.7448  131.6613  149.0751 H   0  0  0  0  0  0  0  0  0  0  0  0
  146.2056  132.6212  148.8809 H   0  0  0  0  0  0  0  0  0  0  0  0
  147.2363  131.2229  150.1124 H   0  0  0  0  0  0  0  0  0  0  0  0
  142.3427  132.9650  150.0413 H   0  0  0  0  0  0  0  0  0  0  0  0
  143.2946  133.3098  153.7644 H   0  0  0  0  0  0  0  0  0  0  0  0
  147.7723  137.0752  152.3021 H   0  0  0  0  0  0  0  0  0  0  0  0
  1  2  1  0  0  0  0
  1 22  1  0  0  0  0
  1 23  1  0  0  0  0
  2 17  2  0  0  0  0
  2  3  1  0  0  0  0
  3  4  2  0  0  0  0
  3 30  1  0  0  0  0
  4  5  1  0  0  0  0
  4 24  1  0  0  0  0
  5  6  1  0  0  0  0
  5 15  1  0  0  0  0
  6 18  1  0  0  0  0
  6 13  1  0  0  0  0
  6  7  1  0  0  0  0
  7  8  1  0  0  0  0
  8 19  1  0  0  0  0
  8  9  1  0  0  0  0
  8 11  1  0  0  0  0
  9 10  1  0  0  0  0
  9 25  1  0  0  0  0
  9 26  1  0  0  0  0
 10 27  1  0  0  0  0
 11 20  1  0  0  0  0
 11 12  1  0  0  0  0
 11 13  1  0  0  0  0
 12 28  1  0  0  0  0
 13 21  1  0  0  0  0
 13 14  1  0  0  0  0
 14 29  1  0  0  0  0
 15 16  2  0  0  0  0
 15 17  1  0  0  0  0
M  CHG  1   3   1
M  END
> <s_m_source_file>
AV-unprocessed.smi

> <i_m_source_file_index>
72

> <i_lp_mmshare_version>
43012

> <i_f3d_flags>
0

> <s_epik_input>
W05IMl1jMW5bY0hdbihjKD1PKW4xKVtDQEBIXTJPW0NASF0oW0NIMl1bT0hdKVtDQEBIXShbT0hdKVtDQEhdMltPSF0=

> <s_epik_cmdline>
J2VwaWtfcHl0aG9uJywgJy1waCcsICc3LjAnLCAnLXRuJywgJzgnLCAnLW1hJywgJzIwMCcsICctbWV0YWxfYmluZGluZycsICctaW1hZScsICc8aW5maWxlLm1hZT4nLCAnLW9tYWUnLCAnPG91dGZpbGUubWFlPic=

> <r_lp_tautomer_probability>
4.77166e-05

> <r_epik_Ionization_Penalty>
0.104979

> <r_epik_Ionization_Penalty_Charging>
0.0999619

> <r_epik_Ionization_Penalty_Neutral>
0.00501745

> <r_epik_State_Penalty>
2.51541

> <r_epik_Charging_Adjusted_Penalty>
2.61537

> <i_epik_Tot_Q>
1

> <i_epik_Tot_abs_Q>
1

> <r_epik_Metal_State_Penalty>
3.53763

> <b_epik_Metal_Only>
0

> <s_epik_Chemistry_Notes>
This compound contains an acetal/aminal-like group ( X-CH(R)-Y where X, Y are N, S, or O) that may be acid/base labile, releasing an aldehyde.

> <s_lp_Force_Field>
OPLS_2005

> <r_lp_Energy>
34.8878

> <b_lp_Chiralities_Consistent>
1

> <s_lp_Variant>
AV-unprocessed.smi:72-38

> <Gold.Version>
5.8.1

> <Gold.Id.Protein>
6NUR|6NUR_protein|mol2

> <Gold.PLP.Fitness>
38.6010

> <Gold.PLP.PLP>
-24.2163

> <Gold.PLP.part.hbond>
-4.7757

> <Gold.PLP.part.metal>
0.0000

> <Gold.PLP.part.buried>
-4.8516

> <Gold.PLP.part.nonpolar>
-17.8089

> <Gold.PLP.part.repulsive>
2.5044

> <Gold.PLP.ligand.clash>
0.0000

> <Gold.PLP.ligand.torsion>
0.3218

> <Gold.PLP.Chemscore.Hbond>
4.6560

> <Gold.PLP.Chemscore.CHOScore>
0.3156

> <Gold.PLP.Chemscore.Metal>
0.0000

> <Gold.Chemscore.Hbonds>
donor molecule, donor type, donor heavy atom, donor atom, acceptor molecule, acceptor atom, score
      L1  H     3    30       P1  7948  1.57
      L1  H    10    27       P1 10747  1.00
      L1  H    12    28       P1 10186  0.99
      L1  H    14    29       P1 10957  1.00
      L1  C     4    24       P1  7948  0.32

> <Gold.PLP.Chemscore.Internal.Correction>
0.1136

> <Gold.Rescore>
     Score         DG    S(hbond)    S(metal)    S(lipo)     H(rot)  DE(clash)    DE(int)     intcor
     10.06     -11.70       3.83        0.00      33.00       4.08       1.05       0.58       ----

> <Gold.Chemscore.Fitness>
10.0632

> <Gold.Chemscore.DG>
-11.6951

> <Gold.Chemscore.ZeroCoef>
-5.4800

> <Gold.Chemscore.Hbond>
3.8307

> <Gold.Chemscore.Metal>
0.0000

> <Gold.Chemscore.Lipo>
33.0007

> <Gold.Chemscore.Internal_Hbond>
0.0000

> <Gold.Chemscore.DEClash>
1.0482

> <Gold.Chemscore.DEInternal>
0.5837

> <Gold.Chemscore.Rot>
4.0783

> <Gold.Chemscore.Internal.Correction>
   9.000000E+99

> <Gold.Chemscore.Hbonds>
donor molecule, donor type, donor heavy atom, donor atom, acceptor molecule, acceptor atom, score
      L1  H     3    30       P1  7948  0.75
      L1  H    10    27       P1 10747  0.98
      L1  H    12    28       P1 10186  0.92
      L1  H    14    29       P1 10957  0.99

> <Gold.Chemscore.Hbond.Weighted>
-12.7944

> <Gold.Chemscore.Metal.Weighted>
-0.0000

> <Gold.Chemscore.Lipo.Weighted>
-3.8611

> <Gold.Chemscore.Internal_Hbond.Weighted>
0.0000

> <Gold.Chemscore.DEClash.Weighted>
1.0482

> <Gold.Chemscore.DEInternal.Weighted>
0.5837

> <Gold.Chemscore.Rot.Weighted>
10.4404

> <Gold.Chemscore.Internal.Correction.Weighted>
   9.000000E+99

> <Gold.Protein.RotatedTorsions>
[ 6907 6896 6895 6894 ] final  124.26 input  -60.11 | X-H torsion
[ 7974 7965 7964 7962 ] final  148.10 input  175.53 | X-H torsion
[ 8008 7997 7996 7995 ] final  -67.91 input   59.86 | X-H torsion
[ 10167 10162 10161 10158 ] final  154.66 input  -65.29 | X-H torsion
[ 10718 10713 10712 10709 ] final  100.10 input   66.30 | X-H torsion
[ 10763 10752 10751 10750 ] final   62.64 input  -60.55 | X-H torsion
[ 11005 11000 10999 10996 ] final   41.78 input  -57.11 | X-H torsion

> <Gold.Protein.ActiveResidues>
 VAL166  LYS551  ARG553  GLY616  TRP617  ASP618  TYR619  PRO620  LYS621  CYS622 
 ASP623  PHE694  ASN695  SER759  ASP760  ASP761  ALA762  ILE779  LEU786  VAL792 
 PHE793  MET794  SER795  GLU796  ALA797  LYS798  CYS799  TRP800  GLU811  SER814 

> <Gold.Protein.RotatedAtoms>
  152.4093  133.6938  159.6383 H   0  0  0  0  0  0  0  0  0  0  0  0  # atno 6907 bound_to 6896
  150.7974  133.8653  159.3252 H   0  0  0  0  0  0  0  0  0  0  0  0  # atno 6908 bound_to 6896
  151.6400  135.1015  160.0191 H   0  0  0  0  0  0  0  0  0  0  0  0  # atno 6909 bound_to 6896
  144.8540  139.6112  143.5961 H   0  0  0  0  0  0  0  0  0  0  0  0  # atno 7974 bound_to 7965
  154.4832  140.0883  156.7425 H   0  0  0  0  0  0  0  0  0  0  0  0  # atno 8008 bound_to 7997
  155.4418  140.3454  155.4272 H   0  0  0  0  0  0  0  0  0  0  0  0  # atno 8009 bound_to 7997
  156.1222  140.1477  156.9176 H   0  0  0  0  0  0  0  0  0  0  0  0  # atno 8010 bound_to 7997
  139.4823  144.5167  151.7941 H   0  0  0  0  0  0  0  0  0  0  0  0  # atno 10167 bound_to 10162
  157.6861  131.0688  150.5049 H   0  0  0  0  0  0  0  0  0  0  0  0  # atno 10718 bound_to 10713
  152.9990  135.5457  154.6226 H   0  0  0  0  0  0  0  0  0  0  0  0  # atno 10763 bound_to 10752
  154.5522  135.2827  155.1000 H   0  0  0  0  0  0  0  0  0  0  0  0  # atno 10764 bound_to 10752
  154.2236  135.6446  153.5205 H   0  0  0  0  0  0  0  0  0  0  0  0  # atno 10765 bound_to 10752
  140.1802  134.4114  155.8205 H   0  0  0  0  0  0  0  0  0  0  0  0  # atno 11005 bound_to 11000
  146.2808  139.6872  142.9230 LP  0  0  0  0  0  0  0  0  0  0  0  0  # atno 17320 bound_to 7965
  145.4443  141.0424  143.2840 LP  0  0  0  0  0  0  0  0  0  0  0  0  # atno 17321 bound_to 7965
  140.4676  144.1633  150.5914 LP  0  0  0  0  0  0  0  0  0  0  0  0  # atno 17342 bound_to 10162
  140.4417  143.2523  151.9464 LP  0  0  0  0  0  0  0  0  0  0  0  0  # atno 17343 bound_to 10162
  156.5368  130.4198  149.6173 LP  0  0  0  0  0  0  0  0  0  0  0  0  # atno 17370 bound_to 10713
  156.3020  130.7182  151.2056 LP  0  0  0  0  0  0  0  0  0  0  0  0  # atno 17371 bound_to 10713
  141.2222  133.6996  156.7916 LP  0  0  0  0  0  0  0  0  0  0  0  0  # atno 17394 bound_to 11000
  140.2277  134.8710  157.3443 LP  0  0  0  0  0  0  0  0  0  0  0  0  # atno 17395 bound_to 11000

$$$$
