AV-unprocessed.smi:2095|AV-procd|sdf|8557|dock8
  -GOLD-   2272011283D 1   1.00000     0.00000
 Structure written by MMmdl.
 42 43  0  0  0  0  0  0  0  0  2 V2000
  144.9756  134.2936  150.1401 C   0  0  0  0  0  0  0  0  0  0  0  0
  145.8333  134.7212  151.3394 C   0  0  1  0  0  0  0  0  0  0  0  0
  144.9653  135.2807  152.4801 C   0  0  0  0  0  0  0  0  0  0  0  0
  145.8424  135.6762  153.6756 C   0  0  0  0  0  0  0  0  0  0  0  0
  146.7176  134.4979  154.1324 C   0  0  0  0  0  0  0  0  0  0  0  0
  147.5438  133.9872  153.0067 N   0  3  1  0  0  0  0  0  0  0  0  0
  148.5913  133.0140  153.4330 C   0  0  2  0  0  0  0  0  0  0  0  0
  147.9492  131.7101  153.9449 C   0  0  0  0  0  0  0  0  0  0  0  0
  149.6111  133.6113  154.4371 C   0  0  0  0  0  0  0  0  0  0  0  0
  149.6729  135.0656  154.3526 N   0  0  0  0  0  0  0  0  0  0  0  0
  150.2911  135.8605  155.2394 C   0  0  0  0  0  0  0  0  0  0  0  0
  150.9362  135.4347  156.1971 O   0  0  0  0  0  0  0  0  0  0  0  0
  150.1314  137.3656  155.0303 C   0  0  0  0  0  0  0  0  0  0  0  0
  151.3756  138.0520  155.3214 N   0  0  0  0  0  0  0  0  0  0  0  0
  151.6544  139.0333  156.1817 C   0  0  0  0  0  0  0  0  0  0  0  0
  152.9250  139.3990  156.1100 N   0  0  0  0  0  0  0  0  0  0  0  0
  153.4382  138.5661  155.1297 N   0  0  0  0  0  0  0  0  0  0  0  0
  152.5233  137.7647  154.6575 N   0  0  0  0  0  0  0  0  0  0  0  0
  146.7026  133.5574  151.8557 C   0  0  0  0  0  0  0  0  0  0  0  0
  144.2792  133.5001  150.4128 H   0  0  0  0  0  0  0  0  0  0  0  0
  145.5971  133.9247  149.3235 H   0  0  0  0  0  0  0  0  0  0  0  0
  144.3920  135.1310  149.7564 H   0  0  0  0  0  0  0  0  0  0  0  0
  146.4996  135.5157  150.9994 H   0  0  0  0  0  0  0  0  0  0  0  0
  144.3975  136.1454  152.1347 H   0  0  0  0  0  0  0  0  0  0  0  0
  144.2348  134.5335  152.7934 H   0  0  0  0  0  0  0  0  0  0  0  0
  146.4775  136.5194  153.4005 H   0  0  0  0  0  0  0  0  0  0  0  0
  145.2162  136.0173  154.5006 H   0  0  0  0  0  0  0  0  0  0  0  0
  147.3606  134.8290  154.9486 H   0  0  0  0  0  0  0  0  0  0  0  0
  146.0896  133.6983  154.5273 H   0  0  0  0  0  0  0  0  0  0  0  0
  149.1356  132.7345  152.5298 H   0  0  0  0  0  0  0  0  0  0  0  0
  148.6952  130.9247  154.0711 H   0  0  0  0  0  0  0  0  0  0  0  0
  147.2065  131.3348  153.2405 H   0  0  0  0  0  0  0  0  0  0  0  0
  147.4577  131.8475  154.9078 H   0  0  0  0  0  0  0  0  0  0  0  0
  149.3757  133.3191  155.4610 H   0  0  0  0  0  0  0  0  0  0  0  0
  150.6146  133.2385  154.2317 H   0  0  0  0  0  0  0  0  0  0  0  0
  149.1679  135.5026  153.5947 H   0  0  0  0  0  0  0  0  0  0  0  0
  149.8473  137.5731  153.9976 H   0  0  0  0  0  0  0  0  0  0  0  0
  149.3398  137.7585  155.6705 H   0  0  0  0  0  0  0  0  0  0  0  0
  150.9309  139.4815  156.8468 H   0  0  0  0  0  0  0  0  0  0  0  0
  146.0614  132.7268  152.1539 H   0  0  0  0  0  0  0  0  0  0  0  0
  147.3349  133.1967  151.0449 H   0  0  0  0  0  0  0  0  0  0  0  0
  148.0598  134.7918  152.6802 H   0  0  0  0  0  0  0  0  0  0  0  0
  1  2  1  0  0  0  0
  1 20  1  0  0  0  0
  1 21  1  0  0  0  0
  1 22  1  0  0  0  0
  2 19  1  0  0  0  0
  2  3  1  0  0  0  0
  2 23  1  0  0  0  0
  3  4  1  0  0  0  0
  3 24  1  0  0  0  0
  3 25  1  0  0  0  0
  4  5  1  0  0  0  0
  4 26  1  0  0  0  0
  4 27  1  0  0  0  0
  5  6  1  0  0  0  0
  5 28  1  0  0  0  0
  5 29  1  0  0  0  0
  6  7  1  0  0  0  0
  6 19  1  0  0  0  0
  6 42  1  0  0  0  0
  7  8  1  0  0  0  0
  7  9  1  0  0  0  0
  7 30  1  0  0  0  0
  8 31  1  0  0  0  0
  8 32  1  0  0  0  0
  8 33  1  0  0  0  0
  9 10  1  0  0  0  0
  9 34  1  0  0  0  0
  9 35  1  0  0  0  0
 10 11  1  0  0  0  0
 10 36  1  0  0  0  0
 11 12  2  0  0  0  0
 11 13  1  0  0  0  0
 13 14  1  0  0  0  0
 13 37  1  0  0  0  0
 13 38  1  0  0  0  0
 14 18  1  0  0  0  0
 14 15  1  0  0  0  0
 15 16  2  0  0  0  0
 15 39  1  0  0  0  0
 16 17  1  0  0  0  0
 17 18  2  0  0  0  0
 19 40  1  0  0  0  0
 19 41  1  0  0  0  0
M  CHG  1   6   1
M  END
> <s_m_source_file>
AV-unprocessed.smi

> <i_m_source_file_index>
2095

> <i_lp_mmshare_version>
43012

> <i_f3d_flags>
0

> <s_epik_input>
W0NIM11bQ0BASF0xW0NIMl1bQ0gyXVtDSDJdTihbQ0gyXTEpW0NASF0oW0NIM10pW0NIMl1bTkhdQyg9TylbQ0gyXW4yW2NIXW5ubjI=

> <s_epik_cmdline>
J2VwaWtfcHl0aG9uJywgJy1waCcsICc3LjAnLCAnLXRuJywgJzgnLCAnLW1hJywgJzIwMCcsICctbWV0YWxfYmluZGluZycsICctaW1hZScsICc8aW5maWxlLm1hZT4nLCAnLW9tYWUnLCAnPG91dGZpbGUubWFlPic=

> <r_lp_tautomer_probability>
1

> <r_epik_Ionization_Penalty>
0.00268321

> <r_epik_Ionization_Penalty_Charging>
0.00267875

> <r_epik_Ionization_Penalty_Neutral>
4.46125e-06

> <r_epik_State_Penalty>
0.00186642

> <r_epik_Charging_Adjusted_Penalty>
0.00454517

> <i_epik_Tot_Q>
1

> <i_epik_Tot_abs_Q>
1

> <r_epik_Metal_State_Penalty>
-0

> <b_epik_Metal_Only>
0

> <s_lp_Force_Field>
OPLS_2005

> <r_lp_Energy>
21.2581

> <b_lp_Chiralities_Consistent>
1

> <s_lp_Variant>
AV-unprocessed.smi:2095-4

> <Gold.Version>
5.8.1

> <Gold.Id.Protein>
6NUR|6NUR_protein|mol2

> <Gold.PLP.Fitness>
45.1291

> <Gold.PLP.PLP>
-31.7070

> <Gold.PLP.part.hbond>
-6.5291

> <Gold.PLP.part.metal>
0.0000

> <Gold.PLP.part.buried>
-2.9030

> <Gold.PLP.part.nonpolar>
-22.5297

> <Gold.PLP.part.repulsive>
0.2181

> <Gold.PLP.ligand.clash>
0.0000

> <Gold.PLP.ligand.torsion>
0.8537

> <Gold.PLP.Chemscore.Hbond>
5.0049

> <Gold.PLP.Chemscore.CHOScore>
0.0000

> <Gold.PLP.Chemscore.Metal>
0.0000

> <Gold.Chemscore.Hbonds>
donor molecule, donor type, donor heavy atom, donor atom, acceptor molecule, acceptor atom, score
      L1  H     6    42       P1  7948  2.00
      L1  H    10    36       P1  7948  1.00
      P1  H  7997  8008       L1    16  0.60
      P1  H 10752 10764       L1    18  0.07

> <Gold.PLP.Chemscore.Internal.Correction>
0.1147

> <Gold.Rescore>
     Score         DG    S(hbond)    S(metal)    S(lipo)     H(rot)  DE(clash)    DE(int)     intcor
     12.49     -14.69       3.27        0.00      43.13       2.64       0.05       2.15       ----

> <Gold.Chemscore.Fitness>
12.4891

> <Gold.Chemscore.DG>
-14.6900

> <Gold.Chemscore.ZeroCoef>
-5.4800

> <Gold.Chemscore.Hbond>
3.2733

> <Gold.Chemscore.Metal>
0.0000

> <Gold.Chemscore.Lipo>
43.1266

> <Gold.Chemscore.Internal_Hbond>
0.0000

> <Gold.Chemscore.DEClash>
0.0504

> <Gold.Chemscore.DEInternal>
2.1505

> <Gold.Chemscore.Rot>
2.6439

> <Gold.Chemscore.Internal.Correction>
   9.000000E+99

> <Gold.Chemscore.Hbonds>
donor molecule, donor type, donor heavy atom, donor atom, acceptor molecule, acceptor atom, score
      L1  H     6    42       P1  7948  0.74
      L1  H    10    36       P1  7948  0.54
      P1  H  7997  8008       L1    16  0.04
      P1  H 10752 10764       L1    18  0.04

> <Gold.Chemscore.Hbond.Weighted>
-10.9327

> <Gold.Chemscore.Metal.Weighted>
-0.0000

> <Gold.Chemscore.Lipo.Weighted>
-5.0458

> <Gold.Chemscore.Internal_Hbond.Weighted>
0.0000

> <Gold.Chemscore.DEClash.Weighted>
0.0504

> <Gold.Chemscore.DEInternal.Weighted>
2.1505

> <Gold.Chemscore.Rot.Weighted>
6.7685

> <Gold.Chemscore.Internal.Correction.Weighted>
   9.000000E+99

> <Gold.Protein.RotatedTorsions>
[ 6907 6896 6895 6894 ] final  -15.12 input  -60.11 | X-H torsion
[ 7974 7965 7964 7962 ] final  -75.78 input  175.53 | X-H torsion
[ 8008 7997 7996 7995 ] final  -40.77 input   59.86 | X-H torsion
[ 10167 10162 10161 10158 ] final  -88.59 input  -65.29 | X-H torsion
[ 10718 10713 10712 10709 ] final  -70.59 input   66.30 | X-H torsion
[ 10763 10752 10751 10750 ] final  -33.61 input  -60.55 | X-H torsion
[ 11005 11000 10999 10996 ] final  170.74 input  -57.11 | X-H torsion

> <Gold.Protein.ActiveResidues>
 VAL166  LYS551  ARG553  GLY616  TRP617  ASP618  TYR619  PRO620  LYS621  CYS622 
 ASP623  PHE694  ASN695  SER759  ASP760  ASP761  ALA762  ILE779  LEU786  VAL792 
 PHE793  MET794  SER795  GLU796  ALA797  LYS798  CYS799  TRP800  GLU811  SER814 

> <Gold.Protein.RotatedAtoms>
  151.3288  135.0836  159.9331 H   0  0  0  0  0  0  0  0  0  0  0  0  # atno 6907 bound_to 6896
  152.5239  133.9564  159.7706 H   0  0  0  0  0  0  0  0  0  0  0  0  # atno 6908 bound_to 6896
  150.9899  133.6108  159.2740 H   0  0  0  0  0  0  0  0  0  0  0  0  # atno 6909 bound_to 6896
  145.6215  140.9361  143.1135 H   0  0  0  0  0  0  0  0  0  0  0  0  # atno 7974 bound_to 7965
  154.4009  140.1516  156.3082 H   0  0  0  0  0  0  0  0  0  0  0  0  # atno 8008 bound_to 7997
  155.8639  140.3452  155.5753 H   0  0  0  0  0  0  0  0  0  0  0  0  # atno 8009 bound_to 7997
  155.7849  140.0848  157.2030 H   0  0  0  0  0  0  0  0  0  0  0  0  # atno 8010 bound_to 7997
  140.3732  143.2784  151.9475 H   0  0  0  0  0  0  0  0  0  0  0  0  # atno 10167 bound_to 10162
  156.0401  130.4334  150.2318 H   0  0  0  0  0  0  0  0  0  0  0  0  # atno 10718 bound_to 10713
  153.8331  135.6864  153.4812 H   0  0  0  0  0  0  0  0  0  0  0  0  # atno 10763 bound_to 10752
  153.1499  135.4622  154.9619 H   0  0  0  0  0  0  0  0  0  0  0  0  # atno 10764 bound_to 10752
  154.7878  135.3291  154.7793 H   0  0  0  0  0  0  0  0  0  0  0  0  # atno 10765 bound_to 10752
  140.3116  134.7512  157.3995 H   0  0  0  0  0  0  0  0  0  0  0  0  # atno 11005 bound_to 11000
  144.7229  139.7970  143.7375 LP  0  0  0  0  0  0  0  0  0  0  0  0  # atno 17320 bound_to 7965
  146.1427  139.4488  143.0098 LP  0  0  0  0  0  0  0  0  0  0  0  0  # atno 17321 bound_to 7965
  139.4802  144.5888  151.7808 LP  0  0  0  0  0  0  0  0  0  0  0  0  # atno 17342 bound_to 10162
  140.5013  144.1165  150.5972 LP  0  0  0  0  0  0  0  0  0  0  0  0  # atno 17343 bound_to 10162
  157.0413  131.0036  151.3282 LP  0  0  0  0  0  0  0  0  0  0  0  0  # atno 17370 bound_to 10713
  157.5207  130.7996  149.7806 LP  0  0  0  0  0  0  0  0  0  0  0  0  # atno 17371 bound_to 10713
  140.1020  134.5460  155.8344 LP  0  0  0  0  0  0  0  0  0  0  0  0  # atno 17394 bound_to 11000
  141.2107  133.6697  156.6527 LP  0  0  0  0  0  0  0  0  0  0  0  0  # atno 17395 bound_to 11000

$$$$
