AV-unprocessed.smi:2867|AV-procd|sdf|11026|dock3
  -GOLD-   2272015483D 1   1.00000     0.00000
 Structure written by MMmdl.
 40 42  0  0  0  0  0  0  0  0  3 V2000
  148.0384  126.7105  151.6372 C   0  0  0  0  0  0  0  0  0  0  0  0
  147.8390  127.1558  152.9666 O   0  0  0  0  0  0  0  0  0  0  0  0
  146.8170  128.1348  153.0684 C   0  0  0  0  0  0  0  0  0  0  0  0
  147.1323  129.3015  152.1225 C   0  0  0  0  0  0  0  0  0  0  0  0
  147.6166  130.4856  152.8500 N   0  0  0  0  0  0  0  0  0  0  0  0
  147.2442  131.7959  152.7887 C   0  0  0  0  0  0  0  0  0  0  0  0
  146.1952  132.3736  151.9353 C   0  0  0  0  0  0  0  0  0  0  0  0
  145.2890  131.5306  151.2555 C   0  0  0  0  0  0  0  0  0  0  0  0
  144.2772  132.0712  150.4385 C   0  0  0  0  0  0  0  0  0  0  0  0
  144.1647  133.4657  150.2884 C   0  0  0  0  0  0  0  0  0  0  0  0
  145.0660  134.3160  150.9552 C   0  0  0  0  0  0  0  0  0  0  0  0
  144.9635  135.6585  150.8117 F   0  0  0  0  0  0  0  0  0  0  0  0
  146.0760  133.7709  151.7710 C   0  0  0  0  0  0  0  0  0  0  0  0
  148.0383  132.5136  153.6270 N   0  3  0  0  0  0  0  0  0  0  0  0
  148.9390  131.6471  154.2486 C   0  0  0  0  0  0  0  0  0  0  0  0
  149.9408  131.8981  155.1793 C   0  0  0  0  0  0  0  0  0  0  0  0
  150.6953  130.7846  155.6042 C   0  0  0  0  0  0  0  0  0  0  0  0
  152.0062  131.0348  156.7970 S   0  0  0  0  0  0  0  0  0  0  0  0
  151.8435  129.6275  157.5671 N   0  5  0  0  0  0  0  0  0  0  0  0
  153.2585  131.1280  156.0310 O   0  0  0  0  0  0  0  0  0  0  0  0
  151.6054  132.1864  157.6200 O   0  0  0  0  0  0  0  0  0  0  0  0
  150.4472  129.4857  155.1112 C   0  0  0  0  0  0  0  0  0  0  0  0
  149.4265  129.2454  154.1679 C   0  0  0  0  0  0  0  0  0  0  0  0
  148.6797  130.3483  153.7523 C   0  0  0  0  0  0  0  0  0  0  0  0
  148.8318  125.9634  151.6180 H   0  0  0  0  0  0  0  0  0  0  0  0
  148.3343  127.5333  150.9852 H   0  0  0  0  0  0  0  0  0  0  0  0
  147.1336  126.2521  151.2358 H   0  0  0  0  0  0  0  0  0  0  0  0
  145.8523  127.6971  152.8071 H   0  0  0  0  0  0  0  0  0  0  0  0
  146.7454  128.4960  154.0958 H   0  0  0  0  0  0  0  0  0  0  0  0
  147.8969  129.0027  151.4076 H   0  0  0  0  0  0  0  0  0  0  0  0
  146.2577  129.5750  151.5322 H   0  0  0  0  0  0  0  0  0  0  0  0
  145.3635  130.4586  151.3674 H   0  0  0  0  0  0  0  0  0  0  0  0
  143.5870  131.4159  149.9279 H   0  0  0  0  0  0  0  0  0  0  0  0
  143.3896  133.8824  149.6619 H   0  0  0  0  0  0  0  0  0  0  0  0
  146.7666  134.4339  152.2713 H   0  0  0  0  0  0  0  0  0  0  0  0
  150.1374  132.8887  155.5617 H   0  0  0  0  0  0  0  0  0  0  0  0
  151.4165  128.9608  156.9132 H   0  0  0  0  0  0  0  0  0  0  0  0
  151.0457  128.6580  155.4627 H   0  0  0  0  0  0  0  0  0  0  0  0
  149.2451  128.2487  153.7949 H   0  0  0  0  0  0  0  0  0  0  0  0
  147.9701  133.5141  153.7607 H   0  0  0  0  0  0  0  0  0  0  0  0
  1  2  1  0  0  0  0
  1 25  1  0  0  0  0
  1 26  1  0  0  0  0
  1 27  1  0  0  0  0
  2  3  1  0  0  0  0
  3  4  1  0  0  0  0
  3 28  1  0  0  0  0
  3 29  1  0  0  0  0
  4  5  1  0  0  0  0
  4 30  1  0  0  0  0
  4 31  1  0  0  0  0
  5 24  1  0  0  0  0
  5  6  1  0  0  0  0
  6  7  1  0  0  0  0
  6 14  2  0  0  0  0
  7 13  1  0  0  0  0
  7  8  2  0  0  0  0
  8  9  1  0  0  0  0
  8 32  1  0  0  0  0
  9 10  2  0  0  0  0
  9 33  1  0  0  0  0
 10 11  1  0  0  0  0
 10 34  1  0  0  0  0
 11 12  1  0  0  0  0
 11 13  2  0  0  0  0
 13 35  1  0  0  0  0
 14 15  1  0  0  0  0
 14 40  1  0  0  0  0
 15 24  2  0  0  0  0
 15 16  1  0  0  0  0
 16 17  2  0  0  0  0
 16 36  1  0  0  0  0
 17 18  1  0  0  0  0
 17 22  1  0  0  0  0
 18 19  1  0  0  0  0
 18 20  2  0  0  0  0
 18 21  2  0  0  0  0
 19 37  1  0  0  0  0
 22 23  2  0  0  0  0
 22 38  1  0  0  0  0
 23 24  1  0  0  0  0
 23 39  1  0  0  0  0
M  CHG  1  14   1
M  CHG  1  19  -1
M  END
> <s_m_source_file>
AV-unprocessed.smi

> <i_m_source_file_index>
2867

> <i_lp_mmshare_version>
43012

> <i_f3d_flags>
0

> <s_epik_input>
W05IMl1TKD1PKSg9TyljKFtjSF0xKVtjSF1bY0hdYyhjMTIpbihbQ0gyXVtDSDJdT1tDSDNdKWMobjIpLWMzW2NIXVtjSF1bY0hdYyhGKVtjSF0z

> <s_epik_cmdline>
J2VwaWtfcHl0aG9uJywgJy1waCcsICc3LjAnLCAnLXRuJywgJzgnLCAnLW1hJywgJzIwMCcsICctbWV0YWxfYmluZGluZycsICctaW1hZScsICc8aW5maWxlLm1hZT4nLCAnLW9tYWUnLCAnPG91dGZpbGUubWFlPic=

> <r_epik_Ionization_Penalty>
2.60795

> <r_epik_Ionization_Penalty_Charging>
2.60795

> <r_epik_Ionization_Penalty_Neutral>
2.51e-12

> <r_epik_State_Penalty>
3.58678

> <r_epik_Charging_Adjusted_Penalty>
6.19473

> <i_epik_Tot_Q>
0

> <i_epik_Tot_abs_Q>
2

> <r_epik_Metal_State_Penalty>
1.73828

> <b_epik_Metal_Only>
1

> <s_lp_Force_Field>
OPLS_2005

> <r_lp_Energy>
13.6429

> <b_lp_Chiralities_Consistent>
1

> <s_lp_Variant>
AV-unprocessed.smi:2867-4

> <Gold.Version>
5.8.1

> <Gold.Id.Protein>
6NUR|6NUR_protein|mol2

> <Gold.PLP.Fitness>
42.7659

> <Gold.PLP.PLP>
-40.8936

> <Gold.PLP.part.hbond>
-1.0000

> <Gold.PLP.part.metal>
0.0000

> <Gold.PLP.part.buried>
-1.2796

> <Gold.PLP.part.nonpolar>
-38.3368

> <Gold.PLP.part.repulsive>
0.0422

> <Gold.PLP.ligand.clash>
0.0000

> <Gold.PLP.ligand.torsion>
1.6219

> <Gold.PLP.Chemscore.Hbond>
1.0000

> <Gold.PLP.Chemscore.CHOScore>
0.0000

> <Gold.PLP.Chemscore.Metal>
0.0000

> <Gold.Chemscore.Hbonds>
donor molecule, donor type, donor heavy atom, donor atom, acceptor molecule, acceptor atom, score
      P1  H  6896  6909       L1    21  1.00

> <Gold.PLP.Chemscore.Internal.Correction>
2.1160

> <Gold.Rescore>
     Score         DG    S(hbond)    S(metal)    S(lipo)     H(rot)  DE(clash)    DE(int)     intcor
     12.02     -15.76       1.00        0.00      91.17       1.45       0.01       3.73       ----

> <Gold.Chemscore.Fitness>
12.0155

> <Gold.Chemscore.DG>
-15.7594

> <Gold.Chemscore.ZeroCoef>
-5.4800

> <Gold.Chemscore.Hbond>
0.9978

> <Gold.Chemscore.Metal>
0.0000

> <Gold.Chemscore.Lipo>
91.1656

> <Gold.Chemscore.Internal_Hbond>
0.0000

> <Gold.Chemscore.DEClash>
0.0124

> <Gold.Chemscore.DEInternal>
3.7315

> <Gold.Chemscore.Rot>
1.4530

> <Gold.Chemscore.Internal.Correction>
   9.000000E+99

> <Gold.Chemscore.Hbonds>
donor molecule, donor type, donor heavy atom, donor atom, acceptor molecule, acceptor atom, score
      P1  H  6896  6909       L1    21  0.96

> <Gold.Chemscore.Hbond.Weighted>
-3.3327

> <Gold.Chemscore.Metal.Weighted>
-0.0000

> <Gold.Chemscore.Lipo.Weighted>
-10.6664

> <Gold.Chemscore.Internal_Hbond.Weighted>
0.0000

> <Gold.Chemscore.DEClash.Weighted>
0.0124

> <Gold.Chemscore.DEInternal.Weighted>
3.7315

> <Gold.Chemscore.Rot.Weighted>
3.7196

> <Gold.Chemscore.Internal.Correction.Weighted>
   9.000000E+99

> <Gold.Protein.RotatedTorsions>
[ 6907 6896 6895 6894 ] final  -63.84 input  -60.11 | X-H torsion
[ 7974 7965 7964 7962 ] final  -23.70 input  175.53 | X-H torsion
[ 8008 7997 7996 7995 ] final  -51.82 input   59.86 | X-H torsion
[ 10167 10162 10161 10158 ] final   15.27 input  -65.29 | X-H torsion
[ 10718 10713 10712 10709 ] final  -50.60 input   66.30 | X-H torsion
[ 10763 10752 10751 10750 ] final  -70.61 input  -60.55 | X-H torsion
[ 11005 11000 10999 10996 ] final   47.92 input  -57.11 | X-H torsion

> <Gold.Protein.ActiveResidues>
 VAL166  LYS551  ARG553  GLY616  TRP617  ASP618  TYR619  PRO620  LYS621  CYS622 
 ASP623  PHE694  ASN695  SER759  ASP760  ASP761  ALA762  ILE779  LEU786  VAL792 
 PHE793  MET794  SER795  GLU796  ALA797  LYS798  CYS799  TRP800  GLU811  SER814 

> <Gold.Protein.RotatedAtoms>
  150.7623  134.6381  159.6221 H   0  0  0  0  0  0  0  0  0  0  0  0  # atno 6907 bound_to 6896
  152.3638  134.6831  160.0207 H   0  0  0  0  0  0  0  0  0  0  0  0  # atno 6908 bound_to 6896
  151.7213  133.3278  159.3352 H   0  0  0  0  0  0  0  0  0  0  0  0  # atno 6909 bound_to 6896
  146.1600  140.4651  142.8575 H   0  0  0  0  0  0  0  0  0  0  0  0  # atno 7974 bound_to 7965
  154.4091  140.1239  156.4890 H   0  0  0  0  0  0  0  0  0  0  0  0  # atno 8008 bound_to 7997
  155.7009  140.3495  155.4913 H   0  0  0  0  0  0  0  0  0  0  0  0  # atno 8009 bound_to 7997
  155.9386  140.1083  157.1064 H   0  0  0  0  0  0  0  0  0  0  0  0  # atno 8010 bound_to 7997
  140.5879  143.8854  150.6847 H   0  0  0  0  0  0  0  0  0  0  0  0  # atno 10167 bound_to 10162
  156.1786  130.4150  149.9540 H   0  0  0  0  0  0  0  0  0  0  0  0  # atno 10718 bound_to 10713
  154.4201  135.5988  153.6005 H   0  0  0  0  0  0  0  0  0  0  0  0  # atno 10763 bound_to 10752
  152.9793  135.5950  154.3965 H   0  0  0  0  0  0  0  0  0  0  0  0  # atno 10764 bound_to 10752
  154.3789  135.2841  155.2201 H   0  0  0  0  0  0  0  0  0  0  0  0  # atno 10765 bound_to 10752
  140.1237  134.4796  155.8577 H   0  0  0  0  0  0  0  0  0  0  0  0  # atno 11005 bound_to 11000
  144.8014  140.6220  143.6475 LP  0  0  0  0  0  0  0  0  0  0  0  0  # atno 17320 bound_to 7965
  145.4612  139.1512  143.3865 LP  0  0  0  0  0  0  0  0  0  0  0  0  # atno 17321 bound_to 7965
  140.2369  143.3693  152.1519 LP  0  0  0  0  0  0  0  0  0  0  0  0  # atno 17342 bound_to 10162
  139.5209  144.7039  151.5413 LP  0  0  0  0  0  0  0  0  0  0  0  0  # atno 17343 bound_to 10162
  156.7318  130.9046  151.3626 LP  0  0  0  0  0  0  0  0  0  0  0  0  # atno 17370 bound_to 10713
  157.6853  130.9179  150.0370 LP  0  0  0  0  0  0  0  0  0  0  0  0  # atno 17371 bound_to 10713
  141.2157  133.6770  156.6937 LP  0  0  0  0  0  0  0  0  0  0  0  0  # atno 17394 bound_to 11000
  140.2932  134.8223  157.4035 LP  0  0  0  0  0  0  0  0  0  0  0  0  # atno 17395 bound_to 11000

$$$$
