#       Name:                AV-unprocessed.smi:2467
#       Creating user name   scv26
#       Creation time:       Fri Mar 27 13:36:40 2020


#       File generated by GOLD software.
#

@<TRIPOS>MOLECULE
AV-unprocessed.smi:2467
    51    52     1
SMALL
NO_CHARGES


@<TRIPOS>ATOM
      1 ****        -2.3983  -0.5194   1.8051 C.3            1 S1                 0.0000
      2 ****        -2.7264  -1.4276   0.6096 C.3            1 S1                 0.0000
      3 ****        -2.2256  -0.9059  -0.7608 C.3            1 S1                 0.0000
      4 ****        -2.8505  -1.7099  -1.9293 C.3            1 S1                 0.0000
      5 ****        -4.3559  -1.4769  -2.1296 C.3            1 S1                 0.0000
      6 ****        -0.6759  -0.8829  -0.8274 C.3            1 S1                 0.0000
      7 ****        -0.0945  -0.0691  -2.0079 C.3            1 S1                 0.0000
      8 ****         1.4424  -0.0936  -1.9935 C.3            1 S1                 0.0000
      9 ****         1.9433   0.7079  -0.8801 N.am           1 S1                 0.0000
     10 ****         3.1676   1.2461  -0.7710 C.2            1 S1                 0.0000
     11 ****         4.0260   1.1293  -1.6440 O.2            1 S1                 0.0000
     12 ****         3.4160   1.9287   0.3678 N.am           1 S1                 0.0000
     13 ****         4.5792   2.6202   0.8222 C.ar           1 S1                 0.0000
     14 ****         4.4314   3.2473   2.0802 C.ar           1 S1                 0.0000
     15 ****         5.5118   3.9603   2.6351 C.ar           1 S1                 0.0000
     16 ****         6.7188   4.0288   1.9173 C.ar           1 S1                 0.0000
     17 ****         6.7865   3.3782   0.6721 C.ar           1 S1                 0.0000
     18 ****         5.7511   2.6953   0.1395 N.ar           1 S1                 0.0000
     19 ****         1.9247  -1.5529  -1.9017 C.3            1 S1                 0.0000
     20 ****         1.2378  -2.2991  -0.7443 C.3            1 S1                 0.0000
     21 ****        -0.1780  -2.2185  -0.8763 O.3            1 S1                 0.0000
     22 ****        -2.9033  -0.8748   2.7034 H              1 S1                 0.0000
     23 ****        -2.7261   0.5049   1.6262 H              1 S1                 0.0000
     24 ****        -1.3320  -0.5009   2.0267 H              1 S1                 0.0000
     25 ****        -2.3338  -2.4283   0.7937 H              1 S1                 0.0000
     26 ****        -3.8096  -1.5352   0.5861 H              1 S1                 0.0000
     27 ****        -2.5652   0.1265  -0.8574 H              1 S1                 0.0000
     28 ****        -2.3664  -1.4462  -2.8673 H              1 S1                 0.0000
     29 ****        -2.6628  -2.7751  -1.7900 H              1 S1                 0.0000
     30 ****        -4.7057  -1.9892  -3.0261 H              1 S1                 0.0000
     31 ****        -4.5781  -0.4163  -2.2493 H              1 S1                 0.0000
     32 ****        -4.9457  -1.8541  -1.2951 H              1 S1                 0.0000
     33 ****        -0.3083  -0.4182   0.0862 H              1 S1                 0.0000
     34 ****        -0.4301  -0.4808  -2.9584 H              1 S1                 0.0000
     35 ****        -0.4558   0.9597  -1.9748 H              1 S1                 0.0000
     36 ****         1.8055   0.3478  -2.9232 H              1 S1                 0.0000
     37 ****         1.3045   0.8581  -0.1116 H              1 S1                 0.0000
     38 ****         2.6351   1.9675   1.0065 H              1 S1                 0.0000
     39 ****         3.4979   3.1855   2.6209 H              1 S1                 0.0000
     40 ****         5.4145   4.4450   3.5954 H              1 S1                 0.0000
     41 ****         7.5699   4.5653   2.3103 H              1 S1                 0.0000
     42 ****         7.6949   3.4051   0.0887 H              1 S1                 0.0000
     43 ****         1.6933  -2.0643  -2.8369 H              1 S1                 0.0000
     44 ****         3.0087  -1.5978  -1.7912 H              1 S1                 0.0000
     45 ****         1.5306  -3.3491  -0.7523 H              1 S1                 0.0000
     46 ****         1.5469  -1.8938   0.2204 H              1 S1                 0.0000
     47 ****         3.8242   0.6159  -2.4781 LP             1 S1                 0.0000
     48 ****         4.9257   1.5478  -1.5197 LP             1 S1                 0.0000
     49 ****         5.8460   2.2486  -0.7502 LP             1 S1                 0.0000
     50 ****        -0.4381  -2.6219  -1.7535 LP             1 S1                 0.0000
     51 ****        -0.5960  -2.7401  -0.1325 LP             1 S1                 0.0000
@<TRIPOS>BOND
    1    1    2 1     
    2    1   22 1     
    3    1   23 1     
    4    1   24 1     
    5    2    3 1     
    6    2   25 1     
    7    2   26 1     
    8    3    4 1     
    9    3    6 1     
   10    3   27 1     
   11    4    5 1     
   12    4   28 1     
   13    4   29 1     
   14    5   30 1     
   15    5   31 1     
   16    5   32 1     
   17    6   21 1     
   18    6    7 1     
   19    6   33 1     
   20    7    8 1     
   21    7   34 1     
   22    7   35 1     
   23    8    9 1     
   24    8   19 1     
   25    8   36 1     
   26    9   10 am    
   27    9   37 1     
   28   10   11 2     
   29   10   12 am    
   30   12   13 1     
   31   12   38 1     
   32   13   18 ar    
   33   13   14 ar    
   34   14   15 ar    
   35   14   39 1     
   36   15   16 ar    
   37   15   40 1     
   38   16   17 ar    
   39   16   41 1     
   40   17   18 ar    
   41   17   42 1     
   42   19   20 1     
   43   19   43 1     
   44   19   44 1     
   45   20   21 1     
   46   20   45 1     
   47   20   46 1     
   48   11   47 1     
   49   11   48 1     
   50   18   49 1     
   51   21   50 1     
   52   21   51 1     
@<TRIPOS>SUBSTRUCTURE
      1 S1             1
@<TRIPOS>SET
LONE_PAIRS      STATIC     ATOMS    <user>   **** ""
5 47 48 49 50 51
DONOR_HYDROGENS      STATIC     ATOMS    <user>   **** ""
2 37 38
ATOM$BLUE        STATIC     ATOMS    COLORGROUP SYSTEM
5 47 48 49 50 51
ATOM$RED        STATIC     ATOMS    COLORGROUP SYSTEM
2 37 38
