#       Name:                AV-unprocessed.smi:3085
#       Creating user name   scv26
#       Creation time:       Fri Mar 27 17:14:43 2020


#       File generated by GOLD software.
#

@<TRIPOS>MOLECULE
AV-unprocessed.smi:3085
    32    33     1
SMALL
NO_CHARGES


@<TRIPOS>ATOM
      1 ****        -4.4272   0.9454  -1.0695 C.3            1 S1                 0.0000
      2 ****        -3.8913  -0.4898  -1.0777 C.3            1 S1                 0.0000
      3 ****        -2.3790  -0.5326  -1.0964 C.2            1 S1                 0.0000
      4 ****        -1.5864  -0.5454  -0.0292 N.2            1 S1                 0.0000
      5 ****        -0.3335  -0.5527  -0.5056 C.2            1 S1                 0.0000
      6 ****         0.9092  -0.5330   0.3594 C.3            1 S1                 0.0000
      7 ****         1.3241   0.9119   0.6991 C.3            1 S1                 0.0000
      8 ****         2.5422   0.9118   1.5319 N.4            1 S1                 1.0000
      9 ****         3.6357   0.1534   0.8946 C.3            1 S1                 0.0000
     10 ****         3.1576  -1.2657   0.5439 C.3            1 S1                 0.0000
     11 ****         2.0012  -1.1896  -0.2821 O.3            1 S1                 0.0000
     12 ****        -0.3343  -0.5165  -1.8469 N.2            1 S1                 0.0000
     13 ****        -1.6045  -0.5056  -2.1954 N.pl3          1 S1                -1.0000
     14 ****        -5.5172   0.9543  -1.0583 H              1 S1                 0.0000
     15 ****        -4.0970   1.4909  -1.9540 H              1 S1                 0.0000
     16 ****        -4.0791   1.4893  -0.1910 H              1 S1                 0.0000
     17 ****        -4.2490  -1.0267  -0.1988 H              1 S1                 0.0000
     18 ****        -4.2702  -1.0250  -1.9490 H              1 S1                 0.0000
     19 ****         0.6705  -1.0717   1.2785 H              1 S1                 0.0000
     20 ****         1.5138   1.4778  -0.2142 H              1 S1                 0.0000
     21 ****         0.5252   1.4253   1.2350 H              1 S1                 0.0000
     22 ****         2.8391   1.8639   1.6916 H              1 S1                 0.0000
     23 ****         3.9567   0.6769  -0.0070 H              1 S1                 0.0000
     24 ****         4.4919   0.1160   1.5684 H              1 S1                 0.0000
     25 ****         3.9397  -1.8039   0.0081 H              1 S1                 0.0000
     26 ****         2.9374  -1.8383   1.4464 H              1 S1                 0.0000
     27 ****         2.3234   0.4808   2.4187 H              1 S1                 0.0000
     28 ****        -1.8669  -0.5489   0.9306 LP             1 S1                 0.0000
     29 ****         2.2344  -0.6850  -1.1134 LP             1 S1                 0.0000
     30 ****         1.7190  -2.1180  -0.5239 LP             1 S1                 0.0000
     31 ****         0.4608  -0.5011  -2.4533 LP             1 S1                 0.0000
     32 ****        -1.9423  -0.4810  -3.1363 LP             1 S1                 0.0000
@<TRIPOS>BOND
    1    1    2 1     
    2    1   14 1     
    3    1   15 1     
    4    1   16 1     
    5    2    3 1     
    6    2   17 1     
    7    2   18 1     
    8    3   13 1     
    9    3    4 2     
   10    4    5 1     
   11    5    6 1     
   12    5   12 2     
   13    6   11 1     
   14    6    7 1     
   15    6   19 1     
   16    7    8 1     
   17    7   20 1     
   18    7   21 1     
   19    8    9 1     
   20    8   22 1     
   21    8   27 1     
   22    9   10 1     
   23    9   23 1     
   24    9   24 1     
   25   10   11 1     
   26   10   25 1     
   27   10   26 1     
   28   12   13 1     
   29    4   28 1     
   30   11   29 1     
   31   11   30 1     
   32   12   31 1     
   33   13   32 1     
@<TRIPOS>SUBSTRUCTURE
      1 S1             1
@<TRIPOS>SET
LONE_PAIRS      STATIC     ATOMS    <user>   **** ""
5 28 29 30 31 32
DONOR_HYDROGENS      STATIC     ATOMS    <user>   **** ""
2 22 27
ATOM$BLUE        STATIC     ATOMS    COLORGROUP SYSTEM
5 28 29 30 31 32
ATOM$RED        STATIC     ATOMS    COLORGROUP SYSTEM
2 22 27
