AV-unprocessed.smi:2482|AV-procd|sdf|9776|dock10
  -GOLD-   2272013413D 1   1.00000     0.00000
 Structure written by MMmdl.
 35 36  0  0  0  0  0  0  0  0  2 V2000
  152.2118  143.3559  161.5608 C   0  0  0  0  0  0  0  0  0  0  0  0
  151.9301  143.0539  160.0985 C   0  0  0  0  0  0  0  0  0  0  0  0
  151.5068  144.1183  159.3819 N   0  0  0  0  0  0  0  0  0  0  0  0
  151.2292  143.9414  158.0743 C   0  0  0  0  0  0  0  0  0  0  0  0
  151.3661  142.7053  157.4160 C   0  0  0  0  0  0  0  0  0  0  0  0
  151.8229  141.5913  158.1576 C   0  0  0  0  0  0  0  0  0  0  0  0
  151.9661  140.2981  157.5875 N   0  0  0  0  0  0  0  0  0  0  0  0
  151.6609  139.9056  156.3373 C   0  0  0  0  0  0  0  0  0  0  0  0
  151.1749  140.6438  155.4799 O   0  0  0  0  0  0  0  0  0  0  0  0
  151.9757  138.4329  156.0057 C   0  0  1  0  0  0  0  0  0  0  0  0
  151.1489  137.4010  156.8095 C   0  0  0  0  0  0  0  0  0  0  0  0
  149.7318  137.3967  156.3754 N   0  3  2  0  0  0  0  0  0  0  0  0
  148.8950  136.4710  157.1680 C   0  0  0  0  0  0  0  0  0  0  0  0
  149.6313  137.1550  154.9184 C   0  0  0  0  0  0  0  0  0  0  0  0
  150.4619  138.1923  154.1453 C   0  0  0  0  0  0  0  0  0  0  0  0
  151.8135  138.1730  154.6066 O   0  0  0  0  0  0  0  0  0  0  0  0
  152.0980  141.7637  159.5345 C   0  0  0  0  0  0  0  0  0  0  0  0
  152.6396  140.4201  160.4859 Cl  0  0  0  0  0  0  0  0  0  0  0  0
  152.5767  142.4947  162.1172 H   0  0  0  0  0  0  0  0  0  0  0  0
  151.3034  143.7069  162.0513 H   0  0  0  0  0  0  0  0  0  0  0  0
  152.9634  144.1417  161.6406 H   0  0  0  0  0  0  0  0  0  0  0  0
  150.8807  144.8112  157.5371 H   0  0  0  0  0  0  0  0  0  0  0  0
  151.1083  142.6288  156.3705 H   0  0  0  0  0  0  0  0  0  0  0  0
  152.4545  139.6236  158.1592 H   0  0  0  0  0  0  0  0  0  0  0  0
  153.0300  138.2842  156.2413 H   0  0  0  0  0  0  0  0  0  0  0  0
  151.5710  136.4050  156.6666 H   0  0  0  0  0  0  0  0  0  0  0  0
  151.2093  137.6087  157.8790 H   0  0  0  0  0  0  0  0  0  0  0  0
  149.2273  135.4392  157.0460 H   0  0  0  0  0  0  0  0  0  0  0  0
  147.8514  136.5341  156.8576 H   0  0  0  0  0  0  0  0  0  0  0  0
  148.9425  136.7233  158.2278 H   0  0  0  0  0  0  0  0  0  0  0  0
  149.9841  136.1483  154.6891 H   0  0  0  0  0  0  0  0  0  0  0  0
  148.5883  137.2093  154.6050 H   0  0  0  0  0  0  0  0  0  0  0  0
  150.4549  137.9567  153.0810 H   0  0  0  0  0  0  0  0  0  0  0  0
  150.0274  139.1879  154.2433 H   0  0  0  0  0  0  0  0  0  0  0  0
  149.3734  138.3264  156.5440 H   0  0  0  0  0  0  0  0  0  0  0  0
  1  2  1  0  0  0  0
  1 19  1  0  0  0  0
  1 20  1  0  0  0  0
  1 21  1  0  0  0  0
  2 17  1  0  0  0  0
  2  3  2  0  0  0  0
  3  4  1  0  0  0  0
  4  5  2  0  0  0  0
  4 22  1  0  0  0  0
  5  6  1  0  0  0  0
  5 23  1  0  0  0  0
  6  7  1  0  0  0  0
  6 17  2  0  0  0  0
  7  8  1  0  0  0  0
  7 24  1  0  0  0  0
  8  9  2  0  0  0  0
  8 10  1  0  0  0  0
 10 16  1  0  0  0  0
 10 11  1  0  0  0  0
 10 25  1  0  0  0  0
 11 12  1  0  0  0  0
 11 26  1  0  0  0  0
 11 27  1  0  0  0  0
 12 13  1  0  0  0  0
 12 14  1  0  0  0  0
 12 35  1  0  0  0  0
 13 28  1  0  0  0  0
 13 29  1  0  0  0  0
 13 30  1  0  0  0  0
 14 15  1  0  0  0  0
 14 31  1  0  0  0  0
 14 32  1  0  0  0  0
 15 16  1  0  0  0  0
 15 33  1  0  0  0  0
 15 34  1  0  0  0  0
 17 18  1  0  0  0  0
M  CHG  1  12   1
M  END
> <s_m_source_file>
AV-unprocessed.smi

> <i_m_source_file_index>
2482

> <i_lp_mmshare_version>
43012

> <i_f3d_flags>
0

> <s_epik_input>
W0NIM11jMW5bY0hdW2NIXWMoYzFDbClbTkhdQyg9TylbQ0BASF0yW0NIMl1OKFtDSDNdKVtDSDJdW0NIMl1PMg==

> <s_epik_cmdline>
J2VwaWtfcHl0aG9uJywgJy1waCcsICc3LjAnLCAnLXRuJywgJzgnLCAnLW1hJywgJzIwMCcsICctbWV0YWxfYmluZGluZycsICctaW1hZScsICc8aW5maWxlLm1hZT4nLCAnLW9tYWUnLCAnPG91dGZpbGUubWFlPic=

> <r_epik_Ionization_Penalty>
0.314226

> <r_epik_Ionization_Penalty_Charging>
0.314023

> <r_epik_Ionization_Penalty_Neutral>
0.00020299

> <r_epik_State_Penalty>
0.308208

> <r_epik_Charging_Adjusted_Penalty>
0.62223

> <i_epik_Tot_Q>
1

> <i_epik_Tot_abs_Q>
1

> <r_epik_Metal_State_Penalty>
0.314444

> <b_epik_Metal_Only>
0

> <s_lp_Force_Field>
OPLS_2005

> <r_lp_Energy>
21.5381

> <b_lp_Chiralities_Consistent>
1

> <s_lp_Variant>
AV-unprocessed.smi:2482-2

> <Gold.Version>
5.8.1

> <Gold.Id.Protein>
6NUR|6NUR_protein|mol2

> <Gold.PLP.Fitness>
37.4734

> <Gold.PLP.PLP>
-31.9330

> <Gold.PLP.part.hbond>
-1.0000

> <Gold.PLP.part.metal>
0.0000

> <Gold.PLP.part.buried>
-4.6921

> <Gold.PLP.part.nonpolar>
-26.4893

> <Gold.PLP.part.repulsive>
0.4850

> <Gold.PLP.ligand.clash>
0.0000

> <Gold.PLP.ligand.torsion>
0.0989

> <Gold.PLP.Chemscore.Hbond>
0.8480

> <Gold.PLP.Chemscore.CHOScore>
1.0586

> <Gold.PLP.Chemscore.Metal>
0.0000

> <Gold.Chemscore.Hbonds>
donor molecule, donor type, donor heavy atom, donor atom, acceptor molecule, acceptor atom, score
      P1  H  7989  7998       L1     9  0.81
      L1  C     4    22       P1  8028  0.52

> <Gold.PLP.Chemscore.Internal.Correction>
0.0186

> <Gold.Rescore>
     Score         DG    S(hbond)    S(metal)    S(lipo)     H(rot)  DE(clash)    DE(int)     intcor
     14.27     -16.93       0.73        0.00      98.85       1.00       0.07       2.58       ----

> <Gold.Chemscore.Fitness>
14.2750

> <Gold.Chemscore.DG>
-16.9285

> <Gold.Chemscore.ZeroCoef>
-5.4800

> <Gold.Chemscore.Hbond>
0.7313

> <Gold.Chemscore.Metal>
0.0000

> <Gold.Chemscore.Lipo>
98.8541

> <Gold.Chemscore.Internal_Hbond>
0.0000

> <Gold.Chemscore.DEClash>
0.0734

> <Gold.Chemscore.DEInternal>
2.5801

> <Gold.Chemscore.Rot>
1.0000

> <Gold.Chemscore.Internal.Correction>
   9.000000E+99

> <Gold.Chemscore.Hbonds>
donor molecule, donor type, donor heavy atom, donor atom, acceptor molecule, acceptor atom, score
      P1  H  7989  7998       L1     9  0.77

> <Gold.Chemscore.Hbond.Weighted>
-2.4425

> <Gold.Chemscore.Metal.Weighted>
-0.0000

> <Gold.Chemscore.Lipo.Weighted>
-11.5659

> <Gold.Chemscore.Internal_Hbond.Weighted>
0.0000

> <Gold.Chemscore.DEClash.Weighted>
0.0734

> <Gold.Chemscore.DEInternal.Weighted>
2.5801

> <Gold.Chemscore.Rot.Weighted>
2.5600

> <Gold.Chemscore.Internal.Correction.Weighted>
   9.000000E+99

> <Gold.Protein.RotatedTorsions>
[ 6907 6896 6895 6894 ] final  104.89 input  -60.11 | X-H torsion
[ 7974 7965 7964 7962 ] final -108.60 input  175.53 | X-H torsion
[ 8008 7997 7996 7995 ] final   49.29 input   59.86 | X-H torsion
[ 10167 10162 10161 10158 ] final -158.91 input  -65.29 | X-H torsion
[ 10718 10713 10712 10709 ] final   12.67 input   66.30 | X-H torsion
[ 10763 10752 10751 10750 ] final  100.33 input  -60.55 | X-H torsion
[ 11005 11000 10999 10996 ] final    9.87 input  -57.11 | X-H torsion

> <Gold.Protein.ActiveResidues>
 VAL166  LYS551  ARG553  GLY616  TRP617  ASP618  TYR619  PRO620  LYS621  CYS622 
 ASP623  PHE694  ASN695  SER759  ASP760  ASP761  ALA762  ILE779  LEU786  VAL792 
 PHE793  MET794  SER795  GLU796  ALA797  LYS798  CYS799  TRP800  GLU811  SER814 

> <Gold.Protein.RotatedAtoms>
  152.5249  133.9609  159.7716 H   0  0  0  0  0  0  0  0  0  0  0  0  # atno 6907 bound_to 6896
  150.9900  133.6151  159.2717 H   0  0  0  0  0  0  0  0  0  0  0  0  # atno 6908 bound_to 6896
  151.3298  135.0845  159.9388 H   0  0  0  0  0  0  0  0  0  0  0  0  # atno 6909 bound_to 6896
  145.1909  140.9014  143.3425 H   0  0  0  0  0  0  0  0  0  0  0  0  # atno 7974 bound_to 7965
  155.3998  140.3437  155.4256 H   0  0  0  0  0  0  0  0  0  0  0  0  # atno 8008 bound_to 7997
  156.1510  140.1571  156.8802 H   0  0  0  0  0  0  0  0  0  0  0  0  # atno 8009 bound_to 7997
  154.5052  140.0804  156.7861 H   0  0  0  0  0  0  0  0  0  0  0  0  # atno 8010 bound_to 7997
  139.6656  143.9835  152.2252 H   0  0  0  0  0  0  0  0  0  0  0  0  # atno 10167 bound_to 10162
  157.0136  130.6127  149.5711 H   0  0  0  0  0  0  0  0  0  0  0  0  # atno 10718 bound_to 10713
  153.3126  135.4082  155.1349 H   0  0  0  0  0  0  0  0  0  0  0  0  # atno 10763 bound_to 10752
  154.8580  135.3568  154.5702 H   0  0  0  0  0  0  0  0  0  0  0  0  # atno 10764 bound_to 10752
  153.6132  135.7067  153.5397 H   0  0  0  0  0  0  0  0  0  0  0  0  # atno 10765 bound_to 10752
  140.5208  134.0560  155.7844 H   0  0  0  0  0  0  0  0  0  0  0  0  # atno 11005 bound_to 11000
  145.0042  139.3569  143.6152 LP  0  0  0  0  0  0  0  0  0  0  0  0  # atno 17320 bound_to 7965
  146.3436  139.9278  142.8757 LP  0  0  0  0  0  0  0  0  0  0  0  0  # atno 17321 bound_to 7965
  139.9586  144.6573  150.8101 LP  0  0  0  0  0  0  0  0  0  0  0  0  # atno 17342 bound_to 10162
  140.7598  143.3136  151.2785 LP  0  0  0  0  0  0  0  0  0  0  0  0  # atno 17343 bound_to 10162
  156.0127  130.5220  150.8040 LP  0  0  0  0  0  0  0  0  0  0  0  0  # atno 17370 bound_to 10713
  157.5302  131.0936  150.9965 LP  0  0  0  0  0  0  0  0  0  0  0  0  # atno 17371 bound_to 10713
  141.1335  133.9262  157.2485 LP  0  0  0  0  0  0  0  0  0  0  0  0  # atno 17394 bound_to 11000
  139.9607  135.0155  156.9252 LP  0  0  0  0  0  0  0  0  0  0  0  0  # atno 17395 bound_to 11000

$$$$
