AV-unprocessed.smi:2258|AV-procd|sdf|9129|dock9
  -GOLD-   2272012333D 1   1.00000     0.00000
 Structure written by MMmdl.
 40 42  0  0  0  0  0  0  0  0  1 V2000
  154.3328  140.1865  160.2686 C   0  0  0  0  0  0  0  0  0  0  0  0
  153.3701  141.2636  160.0356 N   0  0  0  0  0  0  0  0  0  0  0  0
  153.1833  142.2218  161.0416 C   0  0  0  0  0  0  0  0  0  0  0  0
  152.3123  143.2328  160.8733 C   0  0  0  0  0  0  0  0  0  0  0  0
  151.5741  143.3517  159.6960 N   0  0  0  0  0  0  0  0  0  0  0  0
  151.6879  142.4914  158.7223 C   0  0  0  0  0  0  0  0  0  0  0  0
  150.9717  142.5830  157.5163 N   0  0  0  0  0  0  0  0  0  0  0  0
  150.4207  141.6237  156.7357 C   0  0  0  0  0  0  0  0  0  0  0  0
  150.4612  140.4425  157.0750 O   0  0  0  0  0  0  0  0  0  0  0  0
  149.7870  142.0331  155.6215 N   0  0  0  0  0  0  0  0  0  0  0  0
  149.1321  141.1739  154.6387 C   0  0  0  0  0  0  0  0  0  0  0  0
  147.5981  141.3041  154.6516 C   0  0  0  0  0  0  0  0  0  0  0  0
  147.0075  139.9393  154.2680 C   0  0  0  0  0  0  0  0  0  0  0  0
  147.8688  138.7097  154.1196 C   0  0  0  0  0  0  0  0  0  0  0  0
  147.1609  139.2890  152.9111 C   0  0  0  0  0  0  0  0  0  0  0  0
  146.9822  141.9442  155.9165 C   0  0  0  0  0  0  0  0  0  0  0  0
  146.0536  142.7761  155.0362 C   0  0  0  0  0  0  0  0  0  0  0  0
  147.0569  142.5493  153.9070 C   0  0  0  0  0  0  0  0  0  0  0  0
  152.6778  141.3311  158.8660 C   0  0  0  0  0  0  0  0  0  0  0  0
  152.8150  140.5166  157.9511 O   0  0  0  0  0  0  0  0  0  0  0  0
  154.7711  140.2273  161.2663 H   0  0  0  0  0  0  0  0  0  0  0  0
  155.1497  140.2429  159.5480 H   0  0  0  0  0  0  0  0  0  0  0  0
  153.8529  139.2122  160.1637 H   0  0  0  0  0  0  0  0  0  0  0  0
  153.7768  142.0874  161.9342 H   0  0  0  0  0  0  0  0  0  0  0  0
  152.1471  143.9863  161.6295 H   0  0  0  0  0  0  0  0  0  0  0  0
  150.7925  143.5227  157.1926 H   0  0  0  0  0  0  0  0  0  0  0  0
  149.7836  143.0240  155.4260 H   0  0  0  0  0  0  0  0  0  0  0  0
  149.5315  141.3781  153.6438 H   0  0  0  0  0  0  0  0  0  0  0  0
  149.4213  140.1463  154.8601 H   0  0  0  0  0  0  0  0  0  0  0  0
  146.0337  139.7667  154.7230 H   0  0  0  0  0  0  0  0  0  0  0  0
  148.9479  138.8350  154.1776 H   0  0  0  0  0  0  0  0  0  0  0  0
  147.4855  137.7785  154.5316 H   0  0  0  0  0  0  0  0  0  0  0  0
  146.3068  138.7388  152.5217 H   0  0  0  0  0  0  0  0  0  0  0  0
  147.7833  139.7630  152.1564 H   0  0  0  0  0  0  0  0  0  0  0  0
  146.4709  141.2459  156.5798 H   0  0  0  0  0  0  0  0  0  0  0  0
  147.6871  142.5672  156.4695 H   0  0  0  0  0  0  0  0  0  0  0  0
  145.0883  142.2991  154.8644 H   0  0  0  0  0  0  0  0  0  0  0  0
  145.9426  143.8156  155.3453 H   0  0  0  0  0  0  0  0  0  0  0  0
  147.7883  143.3574  153.8468 H   0  0  0  0  0  0  0  0  0  0  0  0
  146.6121  142.3662  152.9294 H   0  0  0  0  0  0  0  0  0  0  0  0
  1  2  1  0  0  0  0
  1 21  1  0  0  0  0
  1 22  1  0  0  0  0
  1 23  1  0  0  0  0
  2 19  1  0  0  0  0
  2  3  1  0  0  0  0
  3  4  2  0  0  0  0
  3 24  1  0  0  0  0
  4  5  1  0  0  0  0
  4 25  1  0  0  0  0
  5  6  2  0  0  0  0
  6  7  1  0  0  0  0
  6 19  1  0  0  0  0
  7  8  1  0  0  0  0
  7 26  1  0  0  0  0
  8  9  2  0  0  0  0
  8 10  1  0  0  0  0
 10 11  1  0  0  0  0
 10 27  1  0  0  0  0
 11 12  1  0  0  0  0
 11 28  1  0  0  0  0
 11 29  1  0  0  0  0
 12 18  1  0  0  0  0
 12 13  1  0  0  0  0
 12 16  1  0  0  0  0
 13 15  1  0  0  0  0
 13 14  1  0  0  0  0
 13 30  1  0  0  0  0
 14 15  1  0  0  0  0
 14 31  1  0  0  0  0
 14 32  1  0  0  0  0
 15 33  1  0  0  0  0
 15 34  1  0  0  0  0
 16 17  1  0  0  0  0
 16 35  1  0  0  0  0
 16 36  1  0  0  0  0
 17 18  1  0  0  0  0
 17 37  1  0  0  0  0
 17 38  1  0  0  0  0
 18 39  1  0  0  0  0
 18 40  1  0  0  0  0
 19 20  2  0  0  0  0
M  END
> <s_m_source_file>
AV-unprocessed.smi

> <i_m_source_file_index>
2258

> <i_lp_mmshare_version>
43012

> <i_f3d_flags>
0

> <s_epik_input>
W0NIM11uMVtjSF1bY0hdbmMoYzE9TylbTkhdQyg9TylbTkhdW0NIMl1DMihbQ0hdM1tDSDJdW0NIMl0zKVtDSDJdW0NIMl1bQ0gyXTI=

> <s_epik_cmdline>
J2VwaWtfcHl0aG9uJywgJy1waCcsICc3LjAnLCAnLXRuJywgJzgnLCAnLW1hJywgJzIwMCcsICctbWV0YWxfYmluZGluZycsICctaW1hZScsICc8aW5maWxlLm1hZT4nLCAnLW9tYWUnLCAnPG91dGZpbGUubWFlPic=

> <r_lp_tautomer_probability>
1

> <r_epik_Ionization_Penalty>
0.000665538

> <r_epik_Ionization_Penalty_Charging>
1.64466e-07

> <r_epik_Ionization_Penalty_Neutral>
0.000665373

> <r_epik_State_Penalty>
-0

> <r_epik_Charging_Adjusted_Penalty>
1.64466e-07

> <i_epik_Tot_Q>
0

> <i_epik_Tot_abs_Q>
0

> <r_epik_Metal_State_Penalty>
-0

> <b_epik_Metal_Only>
0

> <s_lp_Force_Field>
OPLS_2005

> <r_lp_Energy>
52.1357

> <b_lp_Chiralities_Consistent>
1

> <s_lp_Variant>
AV-unprocessed.smi:2258-1

> <Gold.Version>
5.8.1

> <Gold.Id.Protein>
6NUR|6NUR_protein|mol2

> <Gold.PLP.Fitness>
41.7865

> <Gold.PLP.PLP>
-38.9778

> <Gold.PLP.part.hbond>
-2.0000

> <Gold.PLP.part.metal>
0.0000

> <Gold.PLP.part.buried>
-4.1874

> <Gold.PLP.part.nonpolar>
-32.0844

> <Gold.PLP.part.repulsive>
0.1929

> <Gold.PLP.ligand.clash>
0.0000

> <Gold.PLP.ligand.torsion>
2.0409

> <Gold.PLP.Chemscore.Hbond>
1.7367

> <Gold.PLP.Chemscore.CHOScore>
0.0000

> <Gold.PLP.Chemscore.Metal>
0.0000

> <Gold.Chemscore.Hbonds>
donor molecule, donor type, donor heavy atom, donor atom, acceptor molecule, acceptor atom, score
      L1  H    10    27       P1  8028  0.96
      P1  H  7997  8009       L1    20  0.82

> <Gold.PLP.Chemscore.Internal.Correction>
1.6803

> <Gold.Rescore>
     Score         DG    S(hbond)    S(metal)    S(lipo)     H(rot)  DE(clash)    DE(int)     intcor
      9.81     -15.87       1.63        0.00      74.51       1.47       0.14       5.92       ----

> <Gold.Chemscore.Fitness>
9.8124

> <Gold.Chemscore.DG>
-15.8727

> <Gold.Chemscore.ZeroCoef>
-5.4800

> <Gold.Chemscore.Hbond>
1.6316

> <Gold.Chemscore.Metal>
0.0000

> <Gold.Chemscore.Lipo>
74.5068

> <Gold.Chemscore.Internal_Hbond>
0.0000

> <Gold.Chemscore.DEClash>
0.1441

> <Gold.Chemscore.DEInternal>
5.9162

> <Gold.Chemscore.Rot>
1.4742

> <Gold.Chemscore.Internal.Correction>
   9.000000E+99

> <Gold.Chemscore.Hbonds>
donor molecule, donor type, donor heavy atom, donor atom, acceptor molecule, acceptor atom, score
      L1  H    10    27       P1  8028  0.92
      P1  H  7997  8009       L1    20  0.76

> <Gold.Chemscore.Hbond.Weighted>
-5.4494

> <Gold.Chemscore.Metal.Weighted>
-0.0000

> <Gold.Chemscore.Lipo.Weighted>
-8.7173

> <Gold.Chemscore.Internal_Hbond.Weighted>
0.0000

> <Gold.Chemscore.DEClash.Weighted>
0.1441

> <Gold.Chemscore.DEInternal.Weighted>
5.9162

> <Gold.Chemscore.Rot.Weighted>
3.7740

> <Gold.Chemscore.Internal.Correction.Weighted>
   9.000000E+99

> <Gold.Protein.RotatedTorsions>
[ 6907 6896 6895 6894 ] final  -53.95 input  -60.11 | X-H torsion
[ 7974 7965 7964 7962 ] final   97.28 input  175.53 | X-H torsion
[ 8008 7997 7996 7995 ] final  161.06 input   59.86 | X-H torsion
[ 10167 10162 10161 10158 ] final   56.17 input  -65.29 | X-H torsion
[ 10718 10713 10712 10709 ] final   31.19 input   66.30 | X-H torsion
[ 10763 10752 10751 10750 ] final  -11.34 input  -60.55 | X-H torsion
[ 11005 11000 10999 10996 ] final -176.23 input  -57.11 | X-H torsion

> <Gold.Protein.ActiveResidues>
 VAL166  LYS551  ARG553  GLY616  TRP617  ASP618  TYR619  PRO620  LYS621  CYS622 
 ASP623  PHE694  ASN695  SER759  ASP760  ASP761  ALA762  ILE779  LEU786  VAL792 
 PHE793  MET794  SER795  GLU796  ALA797  LYS798  CYS799  TRP800  GLU811  SER814 

> <Gold.Protein.RotatedAtoms>
  150.8381  134.7662  159.6909 H   0  0  0  0  0  0  0  0  0  0  0  0  # atno 6907 bound_to 6896
  152.4474  134.5463  159.9863 H   0  0  0  0  0  0  0  0  0  0  0  0  # atno 6908 bound_to 6896
  151.5609  133.3365  159.3007 H   0  0  0  0  0  0  0  0  0  0  0  0  # atno 6909 bound_to 6896
  145.4276  139.2314  143.3161 H   0  0  0  0  0  0  0  0  0  0  0  0  # atno 7974 bound_to 7965
  156.2129  140.1787  156.7654 H   0  0  0  0  0  0  0  0  0  0  0  0  # atno 8008 bound_to 7997
  154.5749  140.0676  156.9048 H   0  0  0  0  0  0  0  0  0  0  0  0  # atno 8009 bound_to 7997
  155.2606  140.3335  155.4276 H   0  0  0  0  0  0  0  0  0  0  0  0  # atno 8010 bound_to 7997
  140.2116  144.3883  150.6487 H   0  0  0  0  0  0  0  0  0  0  0  0  # atno 10167 bound_to 10162
  157.2693  130.7200  149.6495 H   0  0  0  0  0  0  0  0  0  0  0  0  # atno 10718 bound_to 10713
  153.4823  135.7017  153.5931 H   0  0  0  0  0  0  0  0  0  0  0  0  # atno 10763 bound_to 10752
  153.4139  135.3842  155.2068 H   0  0  0  0  0  0  0  0  0  0  0  0  # atno 10764 bound_to 10752
  154.8721  135.3911  154.4274 H   0  0  0  0  0  0  0  0  0  0  0  0  # atno 10765 bound_to 10752
  140.4544  134.6313  157.4815 H   0  0  0  0  0  0  0  0  0  0  0  0  # atno 11005 bound_to 11000
  146.2624  140.5009  142.8848 LP  0  0  0  0  0  0  0  0  0  0  0  0  # atno 17320 bound_to 7965
  144.8204  140.6539  143.6357 LP  0  0  0  0  0  0  0  0  0  0  0  0  # atno 17321 bound_to 7965
  140.6320  143.2189  151.6476 LP  0  0  0  0  0  0  0  0  0  0  0  0  # atno 17342 bound_to 10162
  139.5178  144.3304  152.0831 LP  0  0  0  0  0  0  0  0  0  0  0  0  # atno 17343 bound_to 10162
  155.9663  130.4373  150.5168 LP  0  0  0  0  0  0  0  0  0  0  0  0  # atno 17370 bound_to 10713
  157.3089  131.0660  151.2015 LP  0  0  0  0  0  0  0  0  0  0  0  0  # atno 17371 bound_to 10713
  139.9986  134.6872  155.9568 LP  0  0  0  0  0  0  0  0  0  0  0  0  # atno 17394 bound_to 11000
  141.1650  133.6537  156.4447 LP  0  0  0  0  0  0  0  0  0  0  0  0  # atno 17395 bound_to 11000

$$$$
