AV-unprocessed.smi:1362|AV-procd|sdf|5560|dock10
  -GOLD-   22720 5153D 1   1.00000     0.00000
 Structure written by MMmdl.
 39 39  0  0  0  0  0  0  0  0  1 V2000
  151.3180  143.1579  157.2609 C   0  0  0  0  0  0  0  0  0  0  0  0
  151.0577  141.8759  156.5004 C   0  0  0  0  0  0  0  0  0  0  0  0
  149.8966  141.9041  155.7461 N   0  0  0  0  0  0  0  0  0  0  0  0
  149.5722  140.7762  155.0133 C   0  0  0  0  0  0  0  0  0  0  0  0
  148.2845  140.8931  154.2166 C   0  0  0  0  0  0  0  0  0  0  0  0
  150.3653  139.6748  155.0318 C   0  0  0  0  0  0  0  0  0  0  0  0
  150.0428  138.4068  154.2435 C   0  0  0  0  0  0  0  0  0  0  0  0
  150.0153  137.1202  155.0683 C   0  0  0  0  0  0  0  0  0  0  0  0
  150.1627  137.1653  156.2892 O   0  0  0  0  0  0  0  0  0  0  0  0
  149.8302  135.9817  154.3823 N   0  0  0  0  0  0  0  0  0  0  0  0
  149.7903  134.6358  154.9509 C   0  0  2  0  0  0  0  0  0  0  0  0
  151.0750  134.4127  155.7705 C   0  0  0  0  0  0  0  0  0  0  0  0
  149.5881  133.5876  153.8249 C   0  0  0  0  0  0  0  0  0  0  0  0
  148.1261  133.5285  153.3406 C   0  0  0  0  0  0  0  0  0  0  0  0
  150.0454  132.1790  154.2446 C   0  0  0  0  0  0  0  0  0  0  0  0
  151.5921  139.7023  155.8633 C   0  0  0  0  0  0  0  0  0  0  0  0
  152.3430  138.7300  155.9346 O   0  0  0  0  0  0  0  0  0  0  0  0
  151.8776  140.8728  156.5846 N   0  0  0  0  0  0  0  0  0  0  0  0
  149.2782  142.7015  155.7041 H   0  0  0  0  0  0  0  0  0  0  0  0
  152.2709  143.1117  157.7898 H   0  0  0  0  0  0  0  0  0  0  0  0
  150.5290  143.3305  157.9933 H   0  0  0  0  0  0  0  0  0  0  0  0
  151.3489  144.0068  156.5771 H   0  0  0  0  0  0  0  0  0  0  0  0
  148.4840  140.7839  153.1504 H   0  0  0  0  0  0  0  0  0  0  0  0
  147.8045  141.8608  154.3681 H   0  0  0  0  0  0  0  0  0  0  0  0
  147.5777  140.1200  154.5176 H   0  0  0  0  0  0  0  0  0  0  0  0
  150.7414  138.2810  153.4151 H   0  0  0  0  0  0  0  0  0  0  0  0
  149.0710  138.5260  153.7639 H   0  0  0  0  0  0  0  0  0  0  0  0
  149.7151  136.0515  153.3814 H   0  0  0  0  0  0  0  0  0  0  0  0
  148.9382  134.5633  155.6295 H   0  0  0  0  0  0  0  0  0  0  0  0
  151.0462  133.4725  156.3200 H   0  0  0  0  0  0  0  0  0  0  0  0
  151.2121  135.2038  156.5086 H   0  0  0  0  0  0  0  0  0  0  0  0
  151.9575  134.4019  155.1300 H   0  0  0  0  0  0  0  0  0  0  0  0
  150.1986  133.8864  152.9713 H   0  0  0  0  0  0  0  0  0  0  0  0
  147.4505  133.2754  154.1582 H   0  0  0  0  0  0  0  0  0  0  0  0
  147.9999  132.7756  152.5621 H   0  0  0  0  0  0  0  0  0  0  0  0
  147.7971  134.4782  152.9185 H   0  0  0  0  0  0  0  0  0  0  0  0
  149.5239  131.8437  155.1416 H   0  0  0  0  0  0  0  0  0  0  0  0
  151.1158  132.1427  154.4441 H   0  0  0  0  0  0  0  0  0  0  0  0
  149.8482  131.4517  153.4565 H   0  0  0  0  0  0  0  0  0  0  0  0
  1 20  1  0  0  0  0
  1 21  1  0  0  0  0
  1 22  1  0  0  0  0
  1  2  1  0  0  0  0
  2  3  1  0  0  0  0
  2 18  2  0  0  0  0
  3  4  1  0  0  0  0
  3 19  1  0  0  0  0
  4  6  2  0  0  0  0
  4  5  1  0  0  0  0
  5 23  1  0  0  0  0
  5 24  1  0  0  0  0
  5 25  1  0  0  0  0
  6 16  1  0  0  0  0
  6  7  1  0  0  0  0
  7  8  1  0  0  0  0
  7 26  1  0  0  0  0
  7 27  1  0  0  0  0
  8  9  2  0  0  0  0
  8 10  1  0  0  0  0
 10 11  1  0  0  0  0
 10 28  1  0  0  0  0
 11 12  1  0  0  0  0
 11 13  1  0  0  0  0
 11 29  1  0  0  0  0
 12 30  1  0  0  0  0
 12 31  1  0  0  0  0
 12 32  1  0  0  0  0
 13 14  1  0  0  0  0
 13 15  1  0  0  0  0
 13 33  1  0  0  0  0
 14 34  1  0  0  0  0
 14 35  1  0  0  0  0
 14 36  1  0  0  0  0
 15 37  1  0  0  0  0
 15 38  1  0  0  0  0
 15 39  1  0  0  0  0
 16 17  2  0  0  0  0
 16 18  1  0  0  0  0
M  END
> <s_m_source_file>
AV-unprocessed.smi

> <i_m_source_file_index>
1362

> <i_lp_mmshare_version>
43012

> <i_f3d_flags>
0

> <s_epik_input>
W0NIM11jMW5jKFtDSDNdKWMoYyg9TylbbkhdMSlbQ0gyXUMoPU8pW05IXVtDQEhdKFtDSDNdKVtDSF0oW0NIM10pW0NIM10=

> <s_epik_cmdline>
J2VwaWtfcHl0aG9uJywgJy1waCcsICc3LjAnLCAnLXRuJywgJzgnLCAnLW1hJywgJzIwMCcsICctbWV0YWxfYmluZGluZycsICctaW1hZScsICc8aW5maWxlLm1hZT4nLCAnLW9tYWUnLCAnPG91dGZpbGUubWFlPic=

> <r_lp_tautomer_probability>
0.156392

> <r_epik_Ionization_Penalty>
0.0140737

> <r_epik_Ionization_Penalty_Charging>
0.0139511

> <r_epik_Ionization_Penalty_Neutral>
0.000122633

> <r_epik_State_Penalty>
1.53034

> <r_epik_Charging_Adjusted_Penalty>
1.54429

> <i_epik_Tot_Q>
0

> <i_epik_Tot_abs_Q>
0

> <r_epik_Metal_State_Penalty>
1.70655

> <b_epik_Metal_Only>
0

> <s_lp_Force_Field>
OPLS_2005

> <r_lp_Energy>
10.2097

> <b_lp_Chiralities_Consistent>
1

> <s_lp_Variant>
AV-unprocessed.smi:1362-3

> <Gold.Version>
5.8.1

> <Gold.Id.Protein>
6NUR|6NUR_protein|mol2

> <Gold.PLP.Fitness>
37.7044

> <Gold.PLP.PLP>
-32.6053

> <Gold.PLP.part.hbond>
-2.0558

> <Gold.PLP.part.metal>
0.0000

> <Gold.PLP.part.buried>
-2.4352

> <Gold.PLP.part.nonpolar>
-28.6503

> <Gold.PLP.part.repulsive>
0.1934

> <Gold.PLP.ligand.clash>
0.0000

> <Gold.PLP.ligand.torsion>
0.4640

> <Gold.PLP.Chemscore.Hbond>
2.0000

> <Gold.PLP.Chemscore.CHOScore>
0.0000

> <Gold.PLP.Chemscore.Metal>
0.0000

> <Gold.Chemscore.Hbonds>
donor molecule, donor type, donor heavy atom, donor atom, acceptor molecule, acceptor atom, score
      L1  H     3    19       P1  8028  0.94
      L1  H    10    28       P1  7948  0.85

> <Gold.PLP.Chemscore.Internal.Correction>
0.0271

> <Gold.Rescore>
     Score         DG    S(hbond)    S(metal)    S(lipo)     H(rot)  DE(clash)    DE(int)     intcor
     10.84     -14.65       1.89        0.00      61.41       1.69       0.30       3.51       ----

> <Gold.Chemscore.Fitness>
10.8357

> <Gold.Chemscore.DG>
-14.6462

> <Gold.Chemscore.ZeroCoef>
-5.4800

> <Gold.Chemscore.Hbond>
1.8898

> <Gold.Chemscore.Metal>
0.0000

> <Gold.Chemscore.Lipo>
61.4095

> <Gold.Chemscore.Internal_Hbond>
0.0000

> <Gold.Chemscore.DEClash>
0.2993

> <Gold.Chemscore.DEInternal>
3.5112

> <Gold.Chemscore.Rot>
1.6916

> <Gold.Chemscore.Internal.Correction>
   9.000000E+99

> <Gold.Chemscore.Hbonds>
donor molecule, donor type, donor heavy atom, donor atom, acceptor molecule, acceptor atom, score
      L1  H     3    19       P1  8028  0.87
      L1  H    10    28       P1  7948  0.15

> <Gold.Chemscore.Hbond.Weighted>
-6.3119

> <Gold.Chemscore.Metal.Weighted>
-0.0000

> <Gold.Chemscore.Lipo.Weighted>
-7.1849

> <Gold.Chemscore.Internal_Hbond.Weighted>
0.0000

> <Gold.Chemscore.DEClash.Weighted>
0.2993

> <Gold.Chemscore.DEInternal.Weighted>
3.5112

> <Gold.Chemscore.Rot.Weighted>
4.3305

> <Gold.Chemscore.Internal.Correction.Weighted>
   9.000000E+99

> <Gold.Protein.RotatedTorsions>
[ 6907 6896 6895 6894 ] final  -51.76 input  -60.11 | X-H torsion
[ 7974 7965 7964 7962 ] final   -3.82 input  175.53 | X-H torsion
[ 8008 7997 7996 7995 ] final  -22.79 input   59.86 | X-H torsion
[ 10167 10162 10161 10158 ] final  147.07 input  -65.29 | X-H torsion
[ 10718 10713 10712 10709 ] final   -7.64 input   66.30 | X-H torsion
[ 10763 10752 10751 10750 ] final  -30.44 input  -60.55 | X-H torsion
[ 11005 11000 10999 10996 ] final   -6.24 input  -57.11 | X-H torsion

> <Gold.Protein.ActiveResidues>
 VAL166  LYS551  ARG553  GLY616  TRP617  ASP618  TYR619  PRO620  LYS621  CYS622 
 ASP623  PHE694  ASN695  SER759  ASP760  ASP761  ALA762  ILE779  LEU786  VAL792 
 PHE793  MET794  SER795  GLU796  ALA797  LYS798  CYS799  TRP800  GLU811  SER814 

> <Gold.Protein.RotatedAtoms>
  150.8581  134.7925  159.7061 H   0  0  0  0  0  0  0  0  0  0  0  0  # atno 6907 bound_to 6896
  152.4626  134.5145  159.9774 H   0  0  0  0  0  0  0  0  0  0  0  0  # atno 6908 bound_to 6896
  151.5254  133.3420  159.2944 H   0  0  0  0  0  0  0  0  0  0  0  0  # atno 6909 bound_to 6896
  146.2383  140.1779  142.8332 H   0  0  0  0  0  0  0  0  0  0  0  0  # atno 7974 bound_to 7965
  154.4623  140.1998  156.0212 H   0  0  0  0  0  0  0  0  0  0  0  0  # atno 8008 bound_to 7997
  156.0863  140.3264  155.7729 H   0  0  0  0  0  0  0  0  0  0  0  0  # atno 8009 bound_to 7997
  155.5030  140.0555  157.2927 H   0  0  0  0  0  0  0  0  0  0  0  0  # atno 8010 bound_to 7997
  139.4896  144.5782  151.6923 H   0  0  0  0  0  0  0  0  0  0  0  0  # atno 10167 bound_to 10162
  156.7142  130.5131  149.5884 H   0  0  0  0  0  0  0  0  0  0  0  0  # atno 10718 bound_to 10713
  153.7809  135.6905  153.4888 H   0  0  0  0  0  0  0  0  0  0  0  0  # atno 10763 bound_to 10752
  153.1812  135.4506  155.0029 H   0  0  0  0  0  0  0  0  0  0  0  0  # atno 10764 bound_to 10752
  154.8082  135.3366  154.7312 H   0  0  0  0  0  0  0  0  0  0  0  0  # atno 10765 bound_to 10752
  140.6998  133.8999  155.8675 H   0  0  0  0  0  0  0  0  0  0  0  0  # atno 11005 bound_to 11000
  144.9958  140.8588  143.5311 LP  0  0  0  0  0  0  0  0  0  0  0  0  # atno 17320 bound_to 7965
  145.1791  139.2361  143.5302 LP  0  0  0  0  0  0  0  0  0  0  0  0  # atno 17321 bound_to 7965
  140.5383  144.0620  150.6079 LP  0  0  0  0  0  0  0  0  0  0  0  0  # atno 17342 bound_to 10162
  140.3633  143.2895  152.0359 LP  0  0  0  0  0  0  0  0  0  0  0  0  # atno 17343 bound_to 10162
  156.1639  130.6392  151.0754 LP  0  0  0  0  0  0  0  0  0  0  0  0  # atno 17370 bound_to 10713
  157.6924  131.0805  150.7069 LP  0  0  0  0  0  0  0  0  0  0  0  0  # atno 17371 bound_to 10713
  141.0173  134.0938  157.4159 LP  0  0  0  0  0  0  0  0  0  0  0  0  # atno 17394 bound_to 11000
  139.8900  135.0109  156.6710 LP  0  0  0  0  0  0  0  0  0  0  0  0  # atno 17395 bound_to 11000

$$$$
