AV-unprocessed.smi:2058|AV-procd|sdf|8345|dock1
  -GOLD-   2272011 13D 1   1.00000     0.00000
 Structure written by MMmdl.
 42 43  0  0  0  0  0  0  0  0  1 V2000
  145.9024  136.4593  150.7346 C   0  0  0  0  0  0  0  0  0  0  0  0
  145.7891  137.6108  151.7453 C   0  0  1  0  0  0  0  0  0  0  0  0
  144.7956  137.2959  152.8817 C   0  0  0  0  0  0  0  0  0  0  0  0
  143.4959  137.7251  152.5358 O   0  0  0  0  0  0  0  0  0  0  0  0
  147.1132  137.8964  152.2914 N   0  0  0  0  0  0  0  0  0  0  0  0
  147.3927  138.8419  153.2001 C   0  0  0  0  0  0  0  0  0  0  0  0
  146.5424  139.5824  153.6933 O   0  0  0  0  0  0  0  0  0  0  0  0
  148.7016  138.8484  153.5044 N   0  0  0  0  0  0  0  0  0  0  0  0
  149.3902  139.6826  154.4254 C   0  0  0  0  0  0  0  0  0  0  0  0
  150.6808  139.2941  154.8331 C   0  0  0  0  0  0  0  0  0  0  0  0
  151.3913  140.1066  155.7362 C   0  0  0  0  0  0  0  0  0  0  0  0
  150.7954  141.3004  156.2053 C   0  0  0  0  0  0  0  0  0  0  0  0
  151.4876  142.1247  157.1183 N   0  0  0  0  0  0  0  0  0  0  0  0
  151.7016  141.5403  158.4437 C   0  0  0  0  0  0  0  0  0  0  0  0
  152.7825  142.3094  159.2219 C   0  0  0  0  0  0  0  0  0  0  0  0
  152.4582  143.8092  159.2836 C   0  0  0  0  0  0  0  0  0  0  0  0
  152.2513  144.3610  157.8654 C   0  0  0  0  0  0  0  0  0  0  0  0
  151.1788  143.5570  157.1104 C   0  0  0  0  0  0  0  0  0  0  0  0
  149.5626  141.6865  155.7944 N   0  0  0  0  0  0  0  0  0  0  0  0
  148.8825  140.9028  154.9311 C   0  0  0  0  0  0  0  0  0  0  0  0
  144.9398  136.2467  150.2689 H   0  0  0  0  0  0  0  0  0  0  0  0
  146.2498  135.5431  151.2129 H   0  0  0  0  0  0  0  0  0  0  0  0
  146.6033  136.7053  149.9363 H   0  0  0  0  0  0  0  0  0  0  0  0
  145.4436  138.4971  151.2090 H   0  0  0  0  0  0  0  0  0  0  0  0
  144.7817  136.2292  153.1078 H   0  0  0  0  0  0  0  0  0  0  0  0
  145.0790  137.8143  153.7985 H   0  0  0  0  0  0  0  0  0  0  0  0
  143.5549  138.5922  152.1650 H   0  0  0  0  0  0  0  0  0  0  0  0
  147.8750  137.3313  151.9466 H   0  0  0  0  0  0  0  0  0  0  0  0
  149.2609  138.1279  153.0719 H   0  0  0  0  0  0  0  0  0  0  0  0
  151.1242  138.3811  154.4629 H   0  0  0  0  0  0  0  0  0  0  0  0
  152.3837  139.8159  156.0472 H   0  0  0  0  0  0  0  0  0  0  0  0
  150.7588  141.5695  158.9918 H   0  0  0  0  0  0  0  0  0  0  0  0
  151.9912  140.4922  158.3799 H   0  0  0  0  0  0  0  0  0  0  0  0
  152.8749  141.9046  160.2300 H   0  0  0  0  0  0  0  0  0  0  0  0
  153.7503  142.1647  158.7398 H   0  0  0  0  0  0  0  0  0  0  0  0
  151.5560  143.9672  159.8756 H   0  0  0  0  0  0  0  0  0  0  0  0
  153.2619  144.3488  159.7855 H   0  0  0  0  0  0  0  0  0  0  0  0
  151.9661  145.4123  157.9096 H   0  0  0  0  0  0  0  0  0  0  0  0
  153.1927  144.3181  157.3161 H   0  0  0  0  0  0  0  0  0  0  0  0
  151.1158  143.9225  156.0847 H   0  0  0  0  0  0  0  0  0  0  0  0
  150.2021  143.7150  157.5702 H   0  0  0  0  0  0  0  0  0  0  0  0
  147.9200  141.2896  154.6353 H   0  0  0  0  0  0  0  0  0  0  0  0
  1  2  1  0  0  0  0
  1 21  1  0  0  0  0
  1 22  1  0  0  0  0
  1 23  1  0  0  0  0
  2  3  1  0  0  0  0
  2  5  1  0  0  0  0
  2 24  1  0  0  0  0
  3  4  1  0  0  0  0
  3 25  1  0  0  0  0
  3 26  1  0  0  0  0
  4 27  1  0  0  0  0
  5  6  1  0  0  0  0
  5 28  1  0  0  0  0
  6  7  2  0  0  0  0
  6  8  1  0  0  0  0
  8  9  1  0  0  0  0
  8 29  1  0  0  0  0
  9 20  1  0  0  0  0
  9 10  2  0  0  0  0
 10 11  1  0  0  0  0
 10 30  1  0  0  0  0
 11 12  2  0  0  0  0
 11 31  1  0  0  0  0
 12 13  1  0  0  0  0
 12 19  1  0  0  0  0
 13 18  1  0  0  0  0
 13 14  1  0  0  0  0
 14 15  1  0  0  0  0
 14 32  1  0  0  0  0
 14 33  1  0  0  0  0
 15 16  1  0  0  0  0
 15 34  1  0  0  0  0
 15 35  1  0  0  0  0
 16 17  1  0  0  0  0
 16 36  1  0  0  0  0
 16 37  1  0  0  0  0
 17 18  1  0  0  0  0
 17 38  1  0  0  0  0
 17 39  1  0  0  0  0
 18 40  1  0  0  0  0
 18 41  1  0  0  0  0
 19 20  2  0  0  0  0
 20 42  1  0  0  0  0
M  END
> <s_m_source_file>
AV-unprocessed.smi

> <i_m_source_file_index>
2058

> <i_lp_mmshare_version>
43012

> <i_f3d_flags>
0

> <s_epik_input>
W09IXVtDSDJdW0NAQEhdKFtDSDNdKVtOSF1DKD1PKVtOSF1jMVtjSF1bY0hdYyhuW2NIXTEpTjJbQ0gyXVtDSDJdW0NIMl1bQ0gyXVtDSDJdMg==

> <s_epik_cmdline>
J2VwaWtfcHl0aG9uJywgJy1waCcsICc3LjAnLCAnLXRuJywgJzgnLCAnLW1hJywgJzIwMCcsICctbWV0YWxfYmluZGluZycsICctaW1hZScsICc8aW5maWxlLm1hZT4nLCAnLW9tYWUnLCAnPG91dGZpbGUubWFlPic=

> <r_lp_tautomer_probability>
1

> <r_epik_Ionization_Penalty>
0.104828

> <r_epik_Ionization_Penalty_Charging>
0

> <r_epik_Ionization_Penalty_Neutral>
0.104828

> <r_epik_State_Penalty>
0.0887547

> <r_epik_Charging_Adjusted_Penalty>
0.0887547

> <i_epik_Tot_Q>
0

> <i_epik_Tot_abs_Q>
0

> <r_epik_Metal_State_Penalty>
0.0759464

> <b_epik_Metal_Only>
0

> <s_lp_Force_Field>
OPLS_2005

> <r_lp_Energy>
18.2312

> <b_lp_Chiralities_Consistent>
1

> <s_lp_Variant>
AV-unprocessed.smi:2058-2

> <Gold.Version>
5.8.1

> <Gold.Id.Protein>
6NUR|6NUR_protein|mol2

> <Gold.PLP.Fitness>
46.3836

> <Gold.PLP.PLP>
-40.5628

> <Gold.PLP.part.hbond>
-4.7758

> <Gold.PLP.part.metal>
0.0000

> <Gold.PLP.part.buried>
2.8754

> <Gold.PLP.part.nonpolar>
-39.3595

> <Gold.PLP.part.repulsive>
0.5370

> <Gold.PLP.ligand.clash>
0.0000

> <Gold.PLP.ligand.torsion>
0.8792

> <Gold.PLP.Chemscore.Hbond>
2.3862

> <Gold.PLP.Chemscore.CHOScore>
0.0000

> <Gold.PLP.Chemscore.Metal>
0.0000

> <Gold.Chemscore.Hbonds>
donor molecule, donor type, donor heavy atom, donor atom, acceptor molecule, acceptor atom, score
      L1  H     4    27       P1 10175  0.98
      L1  H     5    28       P1  7948  0.98
      L1  H     8    29       P1  7948  0.39

> <Gold.PLP.Chemscore.Internal.Correction>
0.4208

> <Gold.Rescore>
     Score         DG    S(hbond)    S(metal)    S(lipo)     H(rot)  DE(clash)    DE(int)     intcor
     16.25     -19.25       2.11        0.00     102.33       2.05       0.85       2.15       ----

> <Gold.Chemscore.Fitness>
16.2477

> <Gold.Chemscore.DG>
-19.2505

> <Gold.Chemscore.ZeroCoef>
-5.4800

> <Gold.Chemscore.Hbond>
2.1061

> <Gold.Chemscore.Metal>
0.0000

> <Gold.Chemscore.Lipo>
102.3263

> <Gold.Chemscore.Internal_Hbond>
0.0000

> <Gold.Chemscore.DEClash>
0.8534

> <Gold.Chemscore.DEInternal>
2.1493

> <Gold.Chemscore.Rot>
2.0453

> <Gold.Chemscore.Internal.Correction>
   9.000000E+99

> <Gold.Chemscore.Hbonds>
donor molecule, donor type, donor heavy atom, donor atom, acceptor molecule, acceptor atom, score
      L1  H     4    27       P1 10175  0.93
      L1  H     5    28       P1  7948  0.91
      L1  H     8    29       P1  7948  0.37

> <Gold.Chemscore.Hbond.Weighted>
-7.0343

> <Gold.Chemscore.Metal.Weighted>
-0.0000

> <Gold.Chemscore.Lipo.Weighted>
-11.9722

> <Gold.Chemscore.Internal_Hbond.Weighted>
0.0000

> <Gold.Chemscore.DEClash.Weighted>
0.8534

> <Gold.Chemscore.DEInternal.Weighted>
2.1493

> <Gold.Chemscore.Rot.Weighted>
5.2360

> <Gold.Chemscore.Internal.Correction.Weighted>
   9.000000E+99

> <Gold.Protein.RotatedTorsions>
[ 6907 6896 6895 6894 ] final  164.58 input  -60.11 | X-H torsion
[ 7974 7965 7964 7962 ] final   79.03 input  175.53 | X-H torsion
[ 8008 7997 7996 7995 ] final  -34.57 input   59.86 | X-H torsion
[ 10167 10162 10161 10158 ] final -148.60 input  -65.29 | X-H torsion
[ 10718 10713 10712 10709 ] final  120.94 input   66.30 | X-H torsion
[ 10763 10752 10751 10750 ] final  129.14 input  -60.55 | X-H torsion
[ 11005 11000 10999 10996 ] final  162.41 input  -57.11 | X-H torsion

> <Gold.Protein.ActiveResidues>
 VAL166  LYS551  ARG553  GLY616  TRP617  ASP618  TYR619  PRO620  LYS621  CYS622 
 ASP623  PHE694  ASN695  SER759  ASP760  ASP761  ALA762  ILE779  LEU786  VAL792 
 PHE793  MET794  SER795  GLU796  ALA797  LYS798  CYS799  TRP800  GLU811  SER814 

> <Gold.Protein.RotatedAtoms>
  151.9076  133.3553  159.3852 H   0  0  0  0  0  0  0  0  0  0  0  0  # atno 6907 bound_to 6896
  150.7065  134.4765  159.5459 H   0  0  0  0  0  0  0  0  0  0  0  0  # atno 6908 bound_to 6896
  152.2365  134.8271  160.0517 H   0  0  0  0  0  0  0  0  0  0  0  0  # atno 6909 bound_to 6896
  145.6695  139.2493  143.1877 H   0  0  0  0  0  0  0  0  0  0  0  0  # atno 7974 bound_to 7965
  154.4117  140.1680  156.2071 H   0  0  0  0  0  0  0  0  0  0  0  0  # atno 8008 bound_to 7997
  155.9475  140.3403  155.6356 H   0  0  0  0  0  0  0  0  0  0  0  0  # atno 8009 bound_to 7997
  155.6911  140.0734  157.2438 H   0  0  0  0  0  0  0  0  0  0  0  0  # atno 8010 bound_to 7997
  139.7517  143.8508  152.2588 H   0  0  0  0  0  0  0  0  0  0  0  0  # atno 10167 bound_to 10162
  157.5854  131.1070  150.8104 H   0  0  0  0  0  0  0  0  0  0  0  0  # atno 10718 bound_to 10713
  153.7369  135.3230  155.3297 H   0  0  0  0  0  0  0  0  0  0  0  0  # atno 10763 bound_to 10752
  154.8308  135.4535  154.1065 H   0  0  0  0  0  0  0  0  0  0  0  0  # atno 10764 bound_to 10752
  153.2229  135.6950  153.8061 H   0  0  0  0  0  0  0  0  0  0  0  0  # atno 10765 bound_to 10752
  140.2255  134.8164  157.3264 H   0  0  0  0  0  0  0  0  0  0  0  0  # atno 11005 bound_to 11000
  146.1058  140.7489  142.9527 LP  0  0  0  0  0  0  0  0  0  0  0  0  # atno 17320 bound_to 7965
  144.7062  140.3859  143.7116 LP  0  0  0  0  0  0  0  0  0  0  0  0  # atno 17321 bound_to 7965
  139.8488  144.7174  150.9239 LP  0  0  0  0  0  0  0  0  0  0  0  0  # atno 17342 bound_to 10162
  140.7798  143.3917  151.1298 LP  0  0  0  0  0  0  0  0  0  0  0  0  # atno 17343 bound_to 10162
  156.8540  130.5090  149.5309 LP  0  0  0  0  0  0  0  0  0  0  0  0  # atno 17370 bound_to 10713
  156.0903  130.5890  150.9721 LP  0  0  0  0  0  0  0  0  0  0  0  0  # atno 17371 bound_to 10713
  140.1805  134.4496  155.7775 LP  0  0  0  0  0  0  0  0  0  0  0  0  # atno 17394 bound_to 11000
  141.2221  133.6981  156.7860 LP  0  0  0  0  0  0  0  0  0  0  0  0  # atno 17395 bound_to 11000

$$$$
