#       Name:                AV-unprocessed.smi:3031
#       Creating user name   scv26
#       Creation time:       Fri Mar 27 16:51:33 2020


#       File generated by GOLD software.
#

@<TRIPOS>MOLECULE
AV-unprocessed.smi:3031
    53    54     1
SMALL
NO_CHARGES


@<TRIPOS>ATOM
      1 ****         0.1136  -1.5751   5.6620 C.3            1 S1                 0.0000
      2 ****        -0.8893  -1.2678   4.5878 C.2            1 S1                 0.0000
      3 ****        -2.0659  -0.4733   4.6945 C.2            1 S1                 0.0000
      4 ****        -2.7395  -0.3959   3.5586 N.2            1 S1                 0.0000
      5 ****        -2.0179  -1.1331   2.6881 N.pl3          1 S1                 0.0000
      6 ****        -2.4646  -1.2705   1.3130 C.3            1 S1                 0.0000
      7 ****        -2.2578   0.0182   0.4925 C.3            1 S1                 0.0000
      8 ****        -2.8877  -0.1228  -0.9051 C.3            1 S1                 0.0000
      9 ****        -0.8285   0.3406   0.4151 N.3            1 S1                 0.0000
     10 ****        -0.5061   1.6362  -0.1823 C.3            1 S1                 0.0000
     11 ****         1.0016   1.9306  -0.1029 C.3            1 S1                 0.0000
     12 ****         1.2495   3.2179  -0.6276 O.3            1 S1                 0.0000
     13 ****         1.9673   0.9254  -0.7776 C.3            1 S1                 0.0000
     14 ****         1.8544   0.7636  -2.2326 N.3            1 S1                 0.0000
     15 ****         0.8412  -0.2204  -2.6174 C.3            1 S1                 0.0000
     16 ****         0.7570  -0.3962  -4.1433 C.3            1 S1                 0.0000
     17 ****         2.0316  -0.7734  -4.6517 O.3            1 S1                 0.0000
     18 ****         3.0478   0.1713  -4.3347 C.3            1 S1                 0.0000
     19 ****         3.1301   0.3455  -2.8082 C.3            1 S1                 0.0000
     20 ****        -0.8983  -1.6742   3.2834 C.2            1 S1                 0.0000
     21 ****         0.6514  -0.6805   5.9760 H              1 S1                 0.0000
     22 ****         0.8590  -2.2974   5.3281 H              1 S1                 0.0000
     23 ****        -0.3630  -1.9927   6.5490 H              1 S1                 0.0000
     24 ****        -2.4478   0.0475   5.5602 H              1 S1                 0.0000
     25 ****        -1.9343  -2.1063   0.8539 H              1 S1                 0.0000
     26 ****        -3.5207  -1.5438   1.3283 H              1 S1                 0.0000
     27 ****        -2.7754   0.8271   1.0100 H              1 S1                 0.0000
     28 ****        -3.9343  -0.4192  -0.8303 H              1 S1                 0.0000
     29 ****        -2.3728  -0.8793  -1.4982 H              1 S1                 0.0000
     30 ****        -2.8658   0.8141  -1.4609 H              1 S1                 0.0000
     31 ****        -0.4237   0.2902   1.3447 H              1 S1                 0.0000
     32 ****        -0.8476   1.6999  -1.2134 H              1 S1                 0.0000
     33 ****        -1.0410   2.4204   0.3551 H              1 S1                 0.0000
     34 ****         1.2699   1.9780   0.9533 H              1 S1                 0.0000
     35 ****         1.0792   3.1960  -1.5571 H              1 S1                 0.0000
     36 ****         2.9738   1.2743  -0.5408 H              1 S1                 0.0000
     37 ****         1.8895  -0.0483  -0.2918 H              1 S1                 0.0000
     38 ****         1.0687  -1.1843  -2.1596 H              1 S1                 0.0000
     39 ****        -0.1408   0.0648  -2.2544 H              1 S1                 0.0000
     40 ****         0.0301  -1.1681  -4.3960 H              1 S1                 0.0000
     41 ****         0.4244   0.5267  -4.6209 H              1 S1                 0.0000
     42 ****         4.0003  -0.1840  -4.7282 H              1 S1                 0.0000
     43 ****         2.8341   1.1241  -4.8215 H              1 S1                 0.0000
     44 ****         3.8996   1.0831  -2.5772 H              1 S1                 0.0000
     45 ****         3.4518  -0.5932  -2.3541 H              1 S1                 0.0000
     46 ****        -0.2052  -2.2939   2.7337 H              1 S1                 0.0000
     47 ****        -3.5915   0.0976   3.3841 LP             1 S1                 0.0000
     48 ****        -0.4364  -0.3403  -0.2035 LP             1 S1                 0.0000
     49 ****         2.2027   3.4722  -0.4640 LP             1 S1                 0.0000
     50 ****         0.6467   3.8841  -0.1886 LP             1 S1                 0.0000
     51 ****         1.5820   1.6588  -2.5851 LP             1 S1                 0.0000
     52 ****         1.9686  -0.8546  -5.6464 LP             1 S1                 0.0000
     53 ****         2.2836  -1.6585  -4.2603 LP             1 S1                 0.0000
@<TRIPOS>BOND
    1    1    2 1     
    2    1   21 1     
    3    1   22 1     
    4    1   23 1     
    5    2   20 2     
    6    2    3 1     
    7    3    4 2     
    8    3   24 1     
    9    4    5 1     
   10    5    6 1     
   11    5   20 1     
   12    6    7 1     
   13    6   25 1     
   14    6   26 1     
   15    7    8 1     
   16    7    9 1     
   17    7   27 1     
   18    8   28 1     
   19    8   29 1     
   20    8   30 1     
   21    9   10 1     
   22    9   31 1     
   23   10   11 1     
   24   10   32 1     
   25   10   33 1     
   26   11   12 1     
   27   11   13 1     
   28   11   34 1     
   29   12   35 1     
   30   13   14 1     
   31   13   36 1     
   32   13   37 1     
   33   14   19 1     
   34   14   15 1     
   35   15   16 1     
   36   15   38 1     
   37   15   39 1     
   38   16   17 1     
   39   16   40 1     
   40   16   41 1     
   41   17   18 1     
   42   18   19 1     
   43   18   42 1     
   44   18   43 1     
   45   19   44 1     
   46   19   45 1     
   47   20   46 1     
   48    4   47 1     
   49    9   48 1     
   50   12   49 1     
   51   12   50 1     
   52   14   51 1     
   53   17   52 1     
   54   17   53 1     
@<TRIPOS>SUBSTRUCTURE
      1 S1             1
@<TRIPOS>SET
LONE_PAIRS      STATIC     ATOMS    <user>   **** ""
7 47 48 49 50 51 52 53
DONOR_HYDROGENS      STATIC     ATOMS    <user>   **** ""
2 31 35
ATOM$BLUE        STATIC     ATOMS    COLORGROUP SYSTEM
7 47 48 49 50 51 52 53
ATOM$RED        STATIC     ATOMS    COLORGROUP SYSTEM
2 31 35
