AV-unprocessed.smi:258|AV-procd|sdf|1972|dock10
  -GOLD-   2262021133D 1   1.00000     0.00000
 Structure written by MMmdl.
 57 60  0  0  0  0  0  0  0  0  1 V2000
  147.7628  137.4717  162.7349 O   0  0  0  0  0  0  0  0  0  0  0  0
  146.5435  136.7883  162.5353 C   0  0  0  0  0  0  0  0  0  0  0  0
  146.7789  135.2724  162.5280 C   0  0  0  0  0  0  0  0  0  0  0  0
  146.3324  134.7388  161.2894 O   0  0  0  0  0  0  0  0  0  0  0  0
  147.3568  134.5574  160.3201 C   0  0  1  0  0  0  0  0  0  0  0  0
  146.9412  133.5080  159.2690 C   0  0  0  0  0  0  0  0  0  0  0  0
  147.9808  133.4408  158.1403 C   0  0  0  0  0  0  0  0  0  0  0  0
  148.2117  134.8278  157.5203 C   0  0  0  0  0  0  0  0  0  0  0  0
  148.5619  135.8061  158.5513 N   0  0  0  0  0  0  0  0  0  0  0  0
  149.0890  136.9879  158.1419 C   0  0  0  0  0  0  0  0  0  0  0  0
  148.4946  137.6863  157.1370 N   0  0  0  0  0  0  0  0  0  0  0  0
  148.9995  138.8572  156.7369 C   0  0  0  0  0  0  0  0  0  0  0  0
  150.0747  139.5020  157.1933 N   0  0  0  0  0  0  0  0  0  0  0  0
  150.6811  138.8015  158.1939 C   0  0  0  0  0  0  0  0  0  0  0  0
  150.2593  137.5503  158.7257 C   0  0  0  0  0  0  0  0  0  0  0  0
  151.1334  137.1450  159.7284 N   0  0  0  0  0  0  0  0  0  0  0  0
  152.0152  138.1056  159.7913 C   0  0  0  0  0  0  0  0  0  0  0  0
  151.8182  139.1391  158.9045 N   0  0  0  0  0  0  0  0  0  0  0  0
  152.6316  140.3311  158.7569 C   0  0  0  0  0  0  0  0  0  0  0  0
  152.6737  141.1690  160.0604 C   0  0  1  0  0  0  0  0  0  0  0  0
  153.7395  140.6325  161.0448 C   0  0  0  0  0  0  0  0  0  0  0  0
  155.0320  140.7515  160.4885 O   0  0  0  0  0  0  0  0  0  0  0  0
  152.8159  142.6804  159.7460 C   0  0  1  0  0  0  0  0  0  0  0  0
  152.1650  143.1513  158.4449 C   0  0  0  0  0  0  0  0  0  0  0  0
  151.4363  144.4394  158.8339 C   0  0  0  0  0  0  0  0  0  0  0  0
  152.0384  144.8341  160.0566 O   0  0  0  0  0  0  0  0  0  0  0  0
  152.2643  143.6483  160.7992 C   0  0  0  0  0  0  0  0  0  0  0  0
  147.6001  135.9207  159.6474 C   0  0  0  0  0  0  0  0  0  0  0  0
  147.7032  137.9643  163.5391 H   0  0  0  0  0  0  0  0  0  0  0  0
  145.8151  137.0741  163.2949 H   0  0  0  0  0  0  0  0  0  0  0  0
  146.1450  137.1035  161.5708 H   0  0  0  0  0  0  0  0  0  0  0  0
  147.8488  135.0806  162.6202 H   0  0  0  0  0  0  0  0  0  0  0  0
  146.2921  134.8003  163.3818 H   0  0  0  0  0  0  0  0  0  0  0  0
  148.2834  134.2477  160.8077 H   0  0  0  0  0  0  0  0  0  0  0  0
  146.8334  132.5228  159.7218 H   0  0  0  0  0  0  0  0  0  0  0  0
  145.9673  133.7694  158.8534 H   0  0  0  0  0  0  0  0  0  0  0  0
  148.9225  133.0572  158.5351 H   0  0  0  0  0  0  0  0  0  0  0  0
  147.6565  132.7382  157.3722 H   0  0  0  0  0  0  0  0  0  0  0  0
  149.0080  134.7646  156.7772 H   0  0  0  0  0  0  0  0  0  0  0  0
  147.3103  135.1572  157.0013 H   0  0  0  0  0  0  0  0  0  0  0  0
  148.4653  139.3474  155.9363 H   0  0  0  0  0  0  0  0  0  0  0  0
  152.8374  138.0876  160.4917 H   0  0  0  0  0  0  0  0  0  0  0  0
  153.6324  140.0296  158.4448 H   0  0  0  0  0  0  0  0  0  0  0  0
  152.2279  140.9081  157.9239 H   0  0  0  0  0  0  0  0  0  0  0  0
  151.7073  141.0720  160.5593 H   0  0  0  0  0  0  0  0  0  0  0  0
  153.7158  141.1752  161.9898 H   0  0  0  0  0  0  0  0  0  0  0  0
  153.5751  139.5814  161.2782 H   0  0  0  0  0  0  0  0  0  0  0  0
  154.9491  141.0544  159.5970 H   0  0  0  0  0  0  0  0  0  0  0  0
  153.8807  142.8978  159.6419 H   0  0  0  0  0  0  0  0  0  0  0  0
  152.9335  143.3541  157.6978 H   0  0  0  0  0  0  0  0  0  0  0  0
  151.4773  142.4274  158.0085 H   0  0  0  0  0  0  0  0  0  0  0  0
  151.5219  145.2178  158.0754 H   0  0  0  0  0  0  0  0  0  0  0  0
  150.3765  144.2437  159.0042 H   0  0  0  0  0  0  0  0  0  0  0  0
  151.3163  143.3124  161.2193 H   0  0  0  0  0  0  0  0  0  0  0  0
  152.9608  143.8187  161.6203 H   0  0  0  0  0  0  0  0  0  0  0  0
  146.6626  136.3086  159.2463 H   0  0  0  0  0  0  0  0  0  0  0  0
  147.9364  136.6364  160.3972 H   0  0  0  0  0  0  0  0  0  0  0  0
  1  2  1  0  0  0  0
  1 29  1  0  0  0  0
  2  3  1  0  0  0  0
  2 30  1  0  0  0  0
  2 31  1  0  0  0  0
  3  4  1  0  0  0  0
  3 32  1  0  0  0  0
  3 33  1  0  0  0  0
  4  5  1  0  0  0  0
  5 28  1  0  0  0  0
  5  6  1  0  0  0  0
  5 34  1  0  0  0  0
  6  7  1  0  0  0  0
  6 35  1  0  0  0  0
  6 36  1  0  0  0  0
  7  8  1  0  0  0  0
  7 37  1  0  0  0  0
  7 38  1  0  0  0  0
  8  9  1  0  0  0  0
  8 39  1  0  0  0  0
  8 40  1  0  0  0  0
  9 10  1  0  0  0  0
  9 28  1  0  0  0  0
 10 15  1  0  0  0  0
 10 11  2  0  0  0  0
 11 12  1  0  0  0  0
 12 13  2  0  0  0  0
 12 41  1  0  0  0  0
 13 14  1  0  0  0  0
 14 18  1  0  0  0  0
 14 15  2  0  0  0  0
 15 16  1  0  0  0  0
 16 17  2  0  0  0  0
 17 18  1  0  0  0  0
 17 42  1  0  0  0  0
 18 19  1  0  0  0  0
 19 20  1  0  0  0  0
 19 43  1  0  0  0  0
 19 44  1  0  0  0  0
 20 21  1  0  0  0  0
 20 23  1  0  0  0  0
 20 45  1  0  0  0  0
 21 22  1  0  0  0  0
 21 46  1  0  0  0  0
 21 47  1  0  0  0  0
 22 48  1  0  0  0  0
 23 27  1  0  0  0  0
 23 24  1  0  0  0  0
 23 49  1  0  0  0  0
 24 25  1  0  0  0  0
 24 50  1  0  0  0  0
 24 51  1  0  0  0  0
 25 26  1  0  0  0  0
 25 52  1  0  0  0  0
 25 53  1  0  0  0  0
 26 27  1  0  0  0  0
 27 54  1  0  0  0  0
 27 55  1  0  0  0  0
 28 56  1  0  0  0  0
 28 57  1  0  0  0  0
M  END
> <s_m_source_file>
AV-unprocessed.smi

> <i_m_source_file_index>
258

> <i_lp_mmshare_version>
43012

> <i_f3d_flags>
0

> <s_epik_input>
W09IXVtDSDJdW0NIMl1PW0NAQEhdMVtDSDJdW0NIMl1bQ0gyXU4oW0NIMl0xKWMobltjSF1uMiljKGMyMyluW2NIXW4zW0NIMl1bQ0BIXShbQ0gyXVtPSF0pW0NAQEhdNFtDSDJdW0NIMl1PW0NIMl00

> <s_epik_cmdline>
J2VwaWtfcHl0aG9uJywgJy1waCcsICc3LjAnLCAnLXRuJywgJzgnLCAnLW1hJywgJzIwMCcsICctbWV0YWxfYmluZGluZycsICctaW1hZScsICc8aW5maWxlLm1hZT4nLCAnLW9tYWUnLCAnPG91dGZpbGUubWFlPic=

> <r_lp_tautomer_probability>
1

> <r_epik_Ionization_Penalty>
0.00349036

> <r_epik_Ionization_Penalty_Charging>
0

> <r_epik_Ionization_Penalty_Neutral>
0.00349036

> <r_epik_State_Penalty>
0.00229798

> <r_epik_Charging_Adjusted_Penalty>
0.00229798

> <i_epik_Tot_Q>
0

> <i_epik_Tot_abs_Q>
0

> <r_epik_Metal_State_Penalty>
-0

> <b_epik_Metal_Only>
0

> <s_lp_Force_Field>
OPLS_2005

> <r_lp_Energy>
51.0481

> <b_lp_Chiralities_Consistent>
1

> <s_lp_Variant>
AV-unprocessed.smi:258-8

> <Gold.Version>
5.8.1

> <Gold.Id.Protein>
6NUR|6NUR_protein|mol2

> <Gold.PLP.Fitness>
51.0434

> <Gold.PLP.PLP>
-49.4508

> <Gold.PLP.part.hbond>
-3.3557

> <Gold.PLP.part.metal>
0.0000

> <Gold.PLP.part.buried>
-6.6800

> <Gold.PLP.part.nonpolar>
-38.5585

> <Gold.PLP.part.repulsive>
0.0974

> <Gold.PLP.ligand.clash>
0.0000

> <Gold.PLP.ligand.torsion>
2.2031

> <Gold.PLP.Chemscore.Hbond>
1.8000

> <Gold.PLP.Chemscore.CHOScore>
0.0000

> <Gold.PLP.Chemscore.Metal>
0.0000

> <Gold.Chemscore.Hbonds>
donor molecule, donor type, donor heavy atom, donor atom, acceptor molecule, acceptor atom, score
      P1  H  6896  6909       L1    16  1.00
      P1  H  6931  6943       L1     1  0.66

> <Gold.PLP.Chemscore.Internal.Correction>
0.5989

> <Gold.Rescore>
     Score         DG    S(hbond)    S(metal)    S(lipo)     H(rot)  DE(clash)    DE(int)     intcor
     10.89     -13.11       1.55        0.00     113.43       4.22       0.04       2.17       ----

> <Gold.Chemscore.Fitness>
10.8929

> <Gold.Chemscore.DG>
-13.1057

> <Gold.Chemscore.ZeroCoef>
-5.4800

> <Gold.Chemscore.Hbond>
1.5478

> <Gold.Chemscore.Metal>
0.0000

> <Gold.Chemscore.Lipo>
113.4264

> <Gold.Chemscore.Internal_Hbond>
0.0000

> <Gold.Chemscore.DEClash>
0.0402

> <Gold.Chemscore.DEInternal>
2.1725

> <Gold.Chemscore.Rot>
4.2246

> <Gold.Chemscore.Internal.Correction>
   9.000000E+99

> <Gold.Chemscore.Hbonds>
donor molecule, donor type, donor heavy atom, donor atom, acceptor molecule, acceptor atom, score
      P1  H  6896  6909       L1    16  0.88
      P1  H  6931  6943       L1     1  0.19

> <Gold.Chemscore.Hbond.Weighted>
-5.1697

> <Gold.Chemscore.Metal.Weighted>
-0.0000

> <Gold.Chemscore.Lipo.Weighted>
-13.2709

> <Gold.Chemscore.Internal_Hbond.Weighted>
0.0000

> <Gold.Chemscore.DEClash.Weighted>
0.0402

> <Gold.Chemscore.DEInternal.Weighted>
2.1725

> <Gold.Chemscore.Rot.Weighted>
10.8149

> <Gold.Chemscore.Internal.Correction.Weighted>
   9.000000E+99

> <Gold.Protein.RotatedTorsions>
[ 6907 6896 6895 6894 ] final  107.44 input  -60.11 | X-H torsion
[ 7974 7965 7964 7962 ] final   99.84 input  175.53 | X-H torsion
[ 8008 7997 7996 7995 ] final  -97.11 input   59.86 | X-H torsion
[ 10167 10162 10161 10158 ] final   82.55 input  -65.29 | X-H torsion
[ 10718 10713 10712 10709 ] final -153.20 input   66.30 | X-H torsion
[ 10763 10752 10751 10750 ] final   -7.95 input  -60.55 | X-H torsion
[ 11005 11000 10999 10996 ] final  -72.68 input  -57.11 | X-H torsion

> <Gold.Protein.ActiveResidues>
 VAL166  LYS551  ARG553  GLY616  TRP617  ASP618  TYR619  PRO620  LYS621  CYS622 
 ASP623  PHE694  ASN695  SER759  ASP760  ASP761  ALA762  ILE779  LEU786  VAL792 
 PHE793  MET794  SER795  GLU796  ALA797  LYS798  CYS799  TRP800  GLU811  SER814 

> <Gold.Protein.RotatedAtoms>
  152.5154  133.9234  159.7545 H   0  0  0  0  0  0  0  0  0  0  0  0  # atno 6907 bound_to 6896
  150.9601  133.6446  159.2763 H   0  0  0  0  0  0  0  0  0  0  0  0  # atno 6908 bound_to 6896
  151.3694  135.0925  159.9513 H   0  0  0  0  0  0  0  0  0  0  0  0  # atno 6909 bound_to 6896
  145.3936  139.2359  143.3338 H   0  0  0  0  0  0  0  0  0  0  0  0  # atno 7974 bound_to 7965
  154.7834  140.0465  157.1145 H   0  0  0  0  0  0  0  0  0  0  0  0  # atno 8008 bound_to 7997
  154.9677  140.3085  155.4982 H   0  0  0  0  0  0  0  0  0  0  0  0  # atno 8009 bound_to 7997
  156.2940  140.2259  156.4767 H   0  0  0  0  0  0  0  0  0  0  0  0  # atno 8010 bound_to 7997
  139.9277  144.6172  150.8376 H   0  0  0  0  0  0  0  0  0  0  0  0  # atno 10167 bound_to 10162
  156.4827  130.8310  151.2537 H   0  0  0  0  0  0  0  0  0  0  0  0  # atno 10718 bound_to 10713
  153.4336  135.7012  153.6215 H   0  0  0  0  0  0  0  0  0  0  0  0  # atno 10763 bound_to 10752
  153.4619  135.3734  155.2343 H   0  0  0  0  0  0  0  0  0  0  0  0  # atno 10764 bound_to 10752
  154.8726  135.4022  154.3723 H   0  0  0  0  0  0  0  0  0  0  0  0  # atno 10765 bound_to 10752
  141.1612  133.6854  156.7096 H   0  0  0  0  0  0  0  0  0  0  0  0  # atno 11005 bound_to 11000
  146.2786  140.4622  142.8785 LP  0  0  0  0  0  0  0  0  0  0  0  0  # atno 17320 bound_to 7965
  144.8423  140.6876  143.6221 LP  0  0  0  0  0  0  0  0  0  0  0  0  # atno 17321 bound_to 7965
  140.7646  143.3252  151.2531 LP  0  0  0  0  0  0  0  0  0  0  0  0  # atno 17342 bound_to 10162
  139.6808  143.9857  152.2807 LP  0  0  0  0  0  0  0  0  0  0  0  0  # atno 17343 bound_to 10162
  157.7482  131.0039  150.3057 LP  0  0  0  0  0  0  0  0  0  0  0  0  # atno 17370 bound_to 10713
  156.3505  130.3830  149.7333 LP  0  0  0  0  0  0  0  0  0  0  0  0  # atno 17371 bound_to 10713
  140.2897  134.8250  157.4006 LP  0  0  0  0  0  0  0  0  0  0  0  0  # atno 17394 bound_to 11000
  140.1358  134.5036  155.8070 LP  0  0  0  0  0  0  0  0  0  0  0  0  # atno 17395 bound_to 11000

$$$$
