AV-unprocessed.smi:1434|AV-procd|sdf|5852|dock5
  -GOLD-   22720 5523D 1   1.00000     0.00000
 Structure written by MMmdl.
 45 46  0  0  0  0  0  0  0  0  2 V2000
  148.5265  132.6812  153.4367 C   0  0  0  0  0  0  0  0  0  0  0  0
  148.4685  133.9540  154.7606 S   0  0  0  0  0  0  0  0  0  0  0  0
  147.1387  134.5817  154.7656 O   0  0  0  0  0  0  0  0  0  0  0  0
  149.0143  133.3682  155.9945 O   0  0  0  0  0  0  0  0  0  0  0  0
  149.5941  135.1313  154.1937 N   0  0  0  0  0  0  0  0  0  0  0  0
  149.9732  136.2232  155.0914 C   0  0  1  0  0  0  0  0  0  0  0  0
  150.4630  135.6619  156.4433 C   0  0  0  0  0  0  0  0  0  0  0  0
  151.0540  136.7681  157.3384 C   0  0  0  0  0  0  0  0  0  0  0  0
  152.0877  137.6105  156.5681 C   0  0  0  0  0  0  0  0  0  0  0  0
  151.4457  138.1574  155.3600 N   0  0  0  0  0  0  0  0  0  0  0  0
  151.0076  139.4311  155.1966 C   0  0  0  0  0  0  0  0  0  0  0  0
  150.3645  139.8044  154.2146 O   0  0  0  0  0  0  0  0  0  0  0  0
  151.3716  140.2800  156.1713 N   0  0  0  0  0  0  0  0  0  0  0  0
  151.0362  141.6967  156.1997 C   0  0  0  0  0  0  0  0  0  0  0  0
  150.1891  142.0299  157.4350 C   0  0  0  0  0  0  0  0  0  0  0  0
  150.8803  143.0219  158.3501 C   0  0  0  0  0  0  0  0  0  0  0  0
  151.6588  142.6096  159.4535 C   0  0  0  0  0  0  0  0  0  0  0  0
  152.2843  143.5849  160.2580 C   0  0  0  0  0  0  0  0  0  0  0  0
  152.1192  144.9496  159.9425 C   0  0  0  0  0  0  0  0  0  0  0  0
  151.3321  145.3050  158.8283 C   0  0  0  0  0  0  0  0  0  0  0  0
  150.7493  144.3413  158.0815 N   0  3  0  0  0  0  0  0  0  0  0  0
  151.0655  137.0863  154.4309 C   0  0  0  0  0  0  0  0  0  0  0  0
  147.8558  131.8614  153.6939 H   0  0  0  0  0  0  0  0  0  0  0  0
  149.5431  132.3003  153.3421 H   0  0  0  0  0  0  0  0  0  0  0  0
  148.2132  133.1223  152.4909 H   0  0  0  0  0  0  0  0  0  0  0  0
  149.3185  135.4899  153.2797 H   0  0  0  0  0  0  0  0  0  0  0  0
  149.0977  136.8523  155.2617 H   0  0  0  0  0  0  0  0  0  0  0  0
  149.6509  135.1548  156.9649 H   0  0  0  0  0  0  0  0  0  0  0  0
  151.2311  134.9082  156.2641 H   0  0  0  0  0  0  0  0  0  0  0  0
  150.2520  137.4153  157.6959 H   0  0  0  0  0  0  0  0  0  0  0  0
  151.5126  136.3258  158.2233 H   0  0  0  0  0  0  0  0  0  0  0  0
  152.5101  138.3691  157.2268 H   0  0  0  0  0  0  0  0  0  0  0  0
  152.9307  136.9839  156.2732 H   0  0  0  0  0  0  0  0  0  0  0  0
  151.9136  139.9156  156.9413 H   0  0  0  0  0  0  0  0  0  0  0  0
  151.9522  142.2901  156.2081 H   0  0  0  0  0  0  0  0  0  0  0  0
  150.4940  141.9514  155.2876 H   0  0  0  0  0  0  0  0  0  0  0  0
  149.2253  142.4408  157.1306 H   0  0  0  0  0  0  0  0  0  0  0  0
  149.9728  141.1192  157.9956 H   0  0  0  0  0  0  0  0  0  0  0  0
  151.7792  141.5602  159.6806 H   0  0  0  0  0  0  0  0  0  0  0  0
  152.8848  143.2894  161.1060 H   0  0  0  0  0  0  0  0  0  0  0  0
  152.5909  145.7117  160.5457 H   0  0  0  0  0  0  0  0  0  0  0  0
  151.1531  146.3226  158.5133 H   0  0  0  0  0  0  0  0  0  0  0  0
  151.9434  136.4798  154.2020 H   0  0  0  0  0  0  0  0  0  0  0  0
  150.7168  137.4725  153.4716 H   0  0  0  0  0  0  0  0  0  0  0  0
  150.1859  144.6218  157.2785 H   0  0  0  0  0  0  0  0  0  0  0  0
  1  2  1  0  0  0  0
  1 23  1  0  0  0  0
  1 24  1  0  0  0  0
  1 25  1  0  0  0  0
  2  3  2  0  0  0  0
  2  4  2  0  0  0  0
  2  5  1  0  0  0  0
  5  6  1  0  0  0  0
  5 26  1  0  0  0  0
  6 22  1  0  0  0  0
  6  7  1  0  0  0  0
  6 27  1  0  0  0  0
  7  8  1  0  0  0  0
  7 28  1  0  0  0  0
  7 29  1  0  0  0  0
  8  9  1  0  0  0  0
  8 30  1  0  0  0  0
  8 31  1  0  0  0  0
  9 10  1  0  0  0  0
  9 32  1  0  0  0  0
  9 33  1  0  0  0  0
 10 11  1  0  0  0  0
 10 22  1  0  0  0  0
 11 12  2  0  0  0  0
 11 13  1  0  0  0  0
 13 14  1  0  0  0  0
 13 34  1  0  0  0  0
 14 15  1  0  0  0  0
 14 35  1  0  0  0  0
 14 36  1  0  0  0  0
 15 16  1  0  0  0  0
 15 37  1  0  0  0  0
 15 38  1  0  0  0  0
 16 21  1  0  0  0  0
 16 17  2  0  0  0  0
 17 18  1  0  0  0  0
 17 39  1  0  0  0  0
 18 19  2  0  0  0  0
 18 40  1  0  0  0  0
 19 20  1  0  0  0  0
 19 41  1  0  0  0  0
 20 21  2  0  0  0  0
 20 42  1  0  0  0  0
 21 45  1  0  0  0  0
 22 43  1  0  0  0  0
 22 44  1  0  0  0  0
M  CHG  1  21   1
M  END
> <s_m_source_file>
AV-unprocessed.smi

> <i_m_source_file_index>
1434

> <i_lp_mmshare_version>
43012

> <i_f3d_flags>
0

> <s_epik_input>
W0NIM11TKD1PKSg9TylbTkhdW0NAQEhdMVtDSDJdW0NIMl1bQ0gyXU4oW0NIMl0xKUMoPU8pW05IXVtDSDJdW0NIMl1jMltjSF1bY0hdW2NIXVtjSF1uMg==

> <s_epik_cmdline>
J2VwaWtfcHl0aG9uJywgJy1waCcsICc3LjAnLCAnLXRuJywgJzgnLCAnLW1hJywgJzIwMCcsICctbWV0YWxfYmluZGluZycsICctaW1hZScsICc8aW5maWxlLm1hZT4nLCAnLW9tYWUnLCAnPG91dGZpbGUubWFlPic=

> <r_epik_Ionization_Penalty>
1.55113

> <r_epik_Ionization_Penalty_Charging>
1.55107

> <r_epik_Ionization_Penalty_Neutral>
6.01346e-05

> <r_epik_State_Penalty>
1.64529

> <r_epik_Charging_Adjusted_Penalty>
3.19637

> <i_epik_Tot_Q>
1

> <i_epik_Tot_abs_Q>
1

> <r_epik_Metal_State_Penalty>
1.69621

> <b_epik_Metal_Only>
0

> <s_lp_Force_Field>
OPLS_2005

> <r_lp_Energy>
28.1725

> <b_lp_Chiralities_Consistent>
1

> <s_lp_Variant>
AV-unprocessed.smi:1434-4

> <Gold.Version>
5.8.1

> <Gold.Id.Protein>
6NUR|6NUR_protein|mol2

> <Gold.PLP.Fitness>
48.4457

> <Gold.PLP.PLP>
-38.8245

> <Gold.PLP.part.hbond>
-3.4878

> <Gold.PLP.part.metal>
0.0000

> <Gold.PLP.part.buried>
-4.5697

> <Gold.PLP.part.nonpolar>
-31.7107

> <Gold.PLP.part.repulsive>
0.4122

> <Gold.PLP.ligand.clash>
0.0060

> <Gold.PLP.ligand.torsion>
0.8958

> <Gold.PLP.Chemscore.Hbond>
3.7500

> <Gold.PLP.Chemscore.CHOScore>
0.0000

> <Gold.PLP.Chemscore.Metal>
0.0000

> <Gold.Chemscore.Hbonds>
donor molecule, donor type, donor heavy atom, donor atom, acceptor molecule, acceptor atom, score
      L1  H     5    26       P1  7948  0.95
      L1  H    21    45       P1  8028  1.95
      P1  H  7989  7998       L1    12  0.90

> <Gold.PLP.Chemscore.Internal.Correction>
0.1687

> <Gold.Rescore>
     Score         DG    S(hbond)    S(metal)    S(lipo)     H(rot)  DE(clash)    DE(int)     intcor
     14.09     -16.44       1.60        0.00      94.56       2.13       0.09       2.27       ----

> <Gold.Chemscore.Fitness>
14.0930

> <Gold.Chemscore.DG>
-16.4442

> <Gold.Chemscore.ZeroCoef>
-5.4800

> <Gold.Chemscore.Hbond>
1.6047

> <Gold.Chemscore.Metal>
0.0000

> <Gold.Chemscore.Lipo>
94.5639

> <Gold.Chemscore.Internal_Hbond>
0.0000

> <Gold.Chemscore.DEClash>
0.0861

> <Gold.Chemscore.DEInternal>
2.2651

> <Gold.Chemscore.Rot>
2.1326

> <Gold.Chemscore.Internal.Correction>
   9.000000E+99

> <Gold.Chemscore.Hbonds>
donor molecule, donor type, donor heavy atom, donor atom, acceptor molecule, acceptor atom, score
      L1  H     5    26       P1  7948  0.21
      L1  H    21    45       P1  8028  0.32
      P1  H  7989  7998       L1    12  0.18

> <Gold.Chemscore.Hbond.Weighted>
-5.3598

> <Gold.Chemscore.Metal.Weighted>
-0.0000

> <Gold.Chemscore.Lipo.Weighted>
-11.0640

> <Gold.Chemscore.Internal_Hbond.Weighted>
0.0000

> <Gold.Chemscore.DEClash.Weighted>
0.0861

> <Gold.Chemscore.DEInternal.Weighted>
2.2651

> <Gold.Chemscore.Rot.Weighted>
5.4595

> <Gold.Chemscore.Internal.Correction.Weighted>
   9.000000E+99

> <Gold.Protein.RotatedTorsions>
[ 6907 6896 6895 6894 ] final -124.04 input  -60.11 | X-H torsion
[ 7974 7965 7964 7962 ] final   74.35 input  175.53 | X-H torsion
[ 8008 7997 7996 7995 ] final   -4.66 input   59.86 | X-H torsion
[ 10167 10162 10161 10158 ] final   29.05 input  -65.29 | X-H torsion
[ 10718 10713 10712 10709 ] final   85.82 input   66.30 | X-H torsion
[ 10763 10752 10751 10750 ] final  125.38 input  -60.55 | X-H torsion
[ 11005 11000 10999 10996 ] final  -87.59 input  -57.11 | X-H torsion

> <Gold.Protein.ActiveResidues>
 VAL166  LYS551  ARG553  GLY616  TRP617  ASP618  TYR619  PRO620  LYS621  CYS622 
 ASP623  PHE694  ASN695  SER759  ASP760  ASP761  ALA762  ILE779  LEU786  VAL792 
 PHE793  MET794  SER795  GLU796  ALA797  LYS798  CYS799  TRP800  GLU811  SER814 

> <Gold.Protein.RotatedAtoms>
  150.8729  133.7480  159.2955 H   0  0  0  0  0  0  0  0  0  0  0  0  # atno 6907 bound_to 6896
  151.5086  135.1063  159.9857 H   0  0  0  0  0  0  0  0  0  0  0  0  # atno 6908 bound_to 6896
  152.4707  133.7979  159.6993 H   0  0  0  0  0  0  0  0  0  0  0  0  # atno 6909 bound_to 6896
  145.7294  139.2678  143.1550 H   0  0  0  0  0  0  0  0  0  0  0  0  # atno 7974 bound_to 7965
  154.6119  140.2478  155.7658 H   0  0  0  0  0  0  0  0  0  0  0  0  # atno 8008 bound_to 7997
  156.2376  140.2944  156.0305 H   0  0  0  0  0  0  0  0  0  0  0  0  # atno 8009 bound_to 7997
  155.2038  140.0395  157.2912 H   0  0  0  0  0  0  0  0  0  0  0  0  # atno 8010 bound_to 7997
  140.4799  144.0632  150.6262 H   0  0  0  0  0  0  0  0  0  0  0  0  # atno 10167 bound_to 10162
  157.6920  131.0190  150.2880 H   0  0  0  0  0  0  0  0  0  0  0  0  # atno 10718 bound_to 10713
  153.6764  135.3322  155.3167 H   0  0  0  0  0  0  0  0  0  0  0  0  # atno 10763 bound_to 10752
  154.8477  135.4398  154.1652 H   0  0  0  0  0  0  0  0  0  0  0  0  # atno 10764 bound_to 10752
  153.2656  135.6995  153.7609 H   0  0  0  0  0  0  0  0  0  0  0  0  # atno 10765 bound_to 10752
  141.1614  133.7520  156.9329 H   0  0  0  0  0  0  0  0  0  0  0  0  # atno 11005 bound_to 11000
  146.0551  140.8029  142.9762 LP  0  0  0  0  0  0  0  0  0  0  0  0  # atno 17320 bound_to 7965
  144.6896  140.3112  143.7248 LP  0  0  0  0  0  0  0  0  0  0  0  0  # atno 17321 bound_to 7965
  140.3871  143.2772  152.0104 LP  0  0  0  0  0  0  0  0  0  0  0  0  # atno 17342 bound_to 10162
  139.4832  144.6108  151.7437 LP  0  0  0  0  0  0  0  0  0  0  0  0  # atno 17343 bound_to 10162
  156.3416  130.3816  149.7404 LP  0  0  0  0  0  0  0  0  0  0  0  0  # atno 17370 bound_to 10713
  156.4912  130.8086  151.3095 LP  0  0  0  0  0  0  0  0  0  0  0  0  # atno 17371 bound_to 10713
  140.1374  134.9316  157.2420 LP  0  0  0  0  0  0  0  0  0  0  0  0  # atno 17394 bound_to 11000
  140.2878  134.3275  155.7324 LP  0  0  0  0  0  0  0  0  0  0  0  0  # atno 17395 bound_to 11000

$$$$
