AV-unprocessed.smi:2141|AV-procd|sdf|8719|dock4
  -GOLD-   2272011483D 1   1.00000     0.00000
 Structure written by MMmdl.
 41 42  0  0  0  0  0  0  0  0  2 V2000
  146.5041  135.2132  160.8638 C   0  0  0  0  0  0  0  0  0  0  0  0
  147.3801  136.8233  160.6630 S   0  0  0  0  0  0  0  0  0  0  0  0
  146.4021  137.7075  160.0115 O   0  0  0  0  0  0  0  0  0  0  0  0
  147.8360  137.2144  162.0076 O   0  0  0  0  0  0  0  0  0  0  0  0
  148.5864  136.4335  159.6434 N   0  5  0  0  0  0  0  0  0  0  0  0
  148.6992  137.0594  158.3333 C   0  0  0  0  0  0  0  0  0  0  0  0
  149.9278  136.4928  157.5883 C   0  0  0  0  0  0  0  0  0  0  0  0
  149.7251  135.0617  157.0663 C   0  0  0  0  0  0  0  0  0  0  0  0
  149.9519  134.0999  157.8032 O   0  0  0  0  0  0  0  0  0  0  0  0
  149.3639  134.9574  155.7721 N   0  0  0  0  0  0  0  0  0  0  0  0
  149.0755  133.7884  155.0172 C   0  0  0  0  0  0  0  0  0  0  0  0
  148.5981  133.7924  153.6862 C   0  0  0  0  0  0  0  0  0  0  0  0
  148.3712  132.5627  153.0389 C   0  0  0  0  0  0  0  0  0  0  0  0
  148.6355  131.3561  153.7290 C   0  0  0  0  0  0  0  0  0  0  0  0
  148.4167  130.1115  153.0981 N   0  0  0  0  0  0  0  0  0  0  0  0
  148.9003  128.9371  153.8206 C   0  0  0  0  0  0  0  0  0  0  0  0
  148.8882  127.7011  152.9044 C   0  0  0  0  0  0  0  0  0  0  0  0
  147.5862  127.5168  152.3589 O   0  0  0  0  0  0  0  0  0  0  0  0
  147.1837  128.6276  151.5650 C   0  0  0  0  0  0  0  0  0  0  0  0
  147.1318  129.8945  152.4351 C   0  0  0  0  0  0  0  0  0  0  0  0
  149.0989  131.3572  155.0030 N   0  0  0  0  0  0  0  0  0  0  0  0
  149.3158  132.5377  155.6193 C   0  0  0  0  0  0  0  0  0  0  0  0
  145.6066  135.3680  161.4615 H   0  0  0  0  0  0  0  0  0  0  0  0
  147.1492  134.4958  161.3696 H   0  0  0  0  0  0  0  0  0  0  0  0
  146.2229  134.8275  159.8843 H   0  0  0  0  0  0  0  0  0  0  0  0
  147.8033  136.8945  157.7338 H   0  0  0  0  0  0  0  0  0  0  0  0
  148.8075  138.1416  158.4153 H   0  0  0  0  0  0  0  0  0  0  0  0
  150.1889  137.1462  156.7538 H   0  0  0  0  0  0  0  0  0  0  0  0
  150.7929  136.4902  158.2530 H   0  0  0  0  0  0  0  0  0  0  0  0
  149.3175  135.8255  155.2583 H   0  0  0  0  0  0  0  0  0  0  0  0
  148.4115  134.7066  153.1449 H   0  0  0  0  0  0  0  0  0  0  0  0
  147.9891  132.5627  152.0292 H   0  0  0  0  0  0  0  0  0  0  0  0
  149.9096  129.0827  154.2023 H   0  0  0  0  0  0  0  0  0  0  0  0
  148.2563  128.7668  154.6844 H   0  0  0  0  0  0  0  0  0  0  0  0
  149.6197  127.8055  152.1013 H   0  0  0  0  0  0  0  0  0  0  0  0
  149.1642  126.8118  153.4712 H   0  0  0  0  0  0  0  0  0  0  0  0
  147.8710  128.7588  150.7276 H   0  0  0  0  0  0  0  0  0  0  0  0
  146.2006  128.4235  151.1404 H   0  0  0  0  0  0  0  0  0  0  0  0
  146.3484  129.7979  153.1882 H   0  0  0  0  0  0  0  0  0  0  0  0
  146.8796  130.7510  151.8085 H   0  0  0  0  0  0  0  0  0  0  0  0
  149.6908  132.4789  156.6306 H   0  0  0  0  0  0  0  0  0  0  0  0
  1  2  1  0  0  0  0
  1 23  1  0  0  0  0
  1 24  1  0  0  0  0
  1 25  1  0  0  0  0
  2  3  2  0  0  0  0
  2  4  2  0  0  0  0
  2  5  1  0  0  0  0
  5  6  1  0  0  0  0
  6  7  1  0  0  0  0
  6 26  1  0  0  0  0
  6 27  1  0  0  0  0
  7  8  1  0  0  0  0
  7 28  1  0  0  0  0
  7 29  1  0  0  0  0
  8  9  2  0  0  0  0
  8 10  1  0  0  0  0
 10 11  1  0  0  0  0
 10 30  1  0  0  0  0
 11 22  1  0  0  0  0
 11 12  2  0  0  0  0
 12 13  1  0  0  0  0
 12 31  1  0  0  0  0
 13 14  2  0  0  0  0
 13 32  1  0  0  0  0
 14 15  1  0  0  0  0
 14 21  1  0  0  0  0
 15 20  1  0  0  0  0
 15 16  1  0  0  0  0
 16 17  1  0  0  0  0
 16 33  1  0  0  0  0
 16 34  1  0  0  0  0
 17 18  1  0  0  0  0
 17 35  1  0  0  0  0
 17 36  1  0  0  0  0
 18 19  1  0  0  0  0
 19 20  1  0  0  0  0
 19 37  1  0  0  0  0
 19 38  1  0  0  0  0
 20 39  1  0  0  0  0
 20 40  1  0  0  0  0
 21 22  2  0  0  0  0
 22 41  1  0  0  0  0
M  CHG  1   5  -1
M  END
> <s_m_source_file>
AV-unprocessed.smi

> <i_m_source_file_index>
2141

> <i_lp_mmshare_version>
43012

> <i_f3d_flags>
0

> <s_epik_input>
W0NIM11TKD1PKSg9TylbTkhdW0NIMl1bQ0gyXUMoPU8pW05IXWMxW2NIXVtjSF1jKG5bY0hdMSlOMltDSDJdW0NIMl1PW0NIMl1bQ0gyXTI=

> <s_epik_cmdline>
J2VwaWtfcHl0aG9uJywgJy1waCcsICc3LjAnLCAnLXRuJywgJzgnLCAnLW1hJywgJzIwMCcsICctbWV0YWxfYmluZGluZycsICctaW1hZScsICc8aW5maWxlLm1hZT4nLCAnLW9tYWUnLCAnPG91dGZpbGUubWFlPic=

> <r_lp_tautomer_probability>
1

> <r_epik_Ionization_Penalty>
6.16997

> <r_epik_Ionization_Penalty_Charging>
6.16921

> <r_epik_Ionization_Penalty_Neutral>
0.000766965

> <r_epik_State_Penalty>
6.16956

> <r_epik_Charging_Adjusted_Penalty>
12.3388

> <i_epik_Tot_Q>
-1

> <i_epik_Tot_abs_Q>
1

> <r_epik_Metal_State_Penalty>
2.11159

> <b_epik_Metal_Only>
1

> <s_lp_Force_Field>
OPLS_2005

> <r_lp_Energy>
18.4771

> <b_lp_Chiralities_Consistent>
1

> <s_lp_Variant>
AV-unprocessed.smi:2141-2

> <Gold.Version>
5.8.1

> <Gold.Id.Protein>
6NUR|6NUR_protein|mol2

> <Gold.PLP.Fitness>
38.9656

> <Gold.PLP.PLP>
-30.8663

> <Gold.PLP.part.hbond>
-3.1123

> <Gold.PLP.part.metal>
0.0000

> <Gold.PLP.part.buried>
-5.1636

> <Gold.PLP.part.nonpolar>
-24.1112

> <Gold.PLP.part.repulsive>
0.7487

> <Gold.PLP.ligand.clash>
0.0000

> <Gold.PLP.ligand.torsion>
1.1037

> <Gold.PLP.Chemscore.Hbond>
2.9760

> <Gold.PLP.Chemscore.CHOScore>
0.0000

> <Gold.PLP.Chemscore.Metal>
0.0000

> <Gold.Chemscore.Hbonds>
donor molecule, donor type, donor heavy atom, donor atom, acceptor molecule, acceptor atom, score
      P1  H  6896  6907       L1     9  0.91
      P1  H  6931  6943       L1     4  1.00
      P1  H  6934  6947       L1     3  0.35

> <Gold.PLP.Chemscore.Internal.Correction>
1.3788

> <Gold.Rescore>
     Score         DG    S(hbond)    S(metal)    S(lipo)     H(rot)  DE(clash)    DE(int)     intcor
     12.71     -15.53       2.44        0.00      58.47       1.93       0.03       2.79       ----

> <Gold.Chemscore.Fitness>
12.7118

> <Gold.Chemscore.DG>
-15.5343

> <Gold.Chemscore.ZeroCoef>
-5.4800

> <Gold.Chemscore.Hbond>
2.4380

> <Gold.Chemscore.Metal>
0.0000

> <Gold.Chemscore.Lipo>
58.4662

> <Gold.Chemscore.Internal_Hbond>
0.0000

> <Gold.Chemscore.DEClash>
0.0330

> <Gold.Chemscore.DEInternal>
2.7894

> <Gold.Chemscore.Rot>
1.9255

> <Gold.Chemscore.Internal.Correction>
   9.000000E+99

> <Gold.Chemscore.Hbonds>
donor molecule, donor type, donor heavy atom, donor atom, acceptor molecule, acceptor atom, score
      P1  H  6896  6907       L1     9  0.90
      P1  H  6931  6943       L1     4  0.73
      P1  H  6934  6947       L1     3  0.01

> <Gold.Chemscore.Hbond.Weighted>
-8.1430

> <Gold.Chemscore.Metal.Weighted>
-0.0000

> <Gold.Chemscore.Lipo.Weighted>
-6.8405

> <Gold.Chemscore.Internal_Hbond.Weighted>
0.0000

> <Gold.Chemscore.DEClash.Weighted>
0.0330

> <Gold.Chemscore.DEInternal.Weighted>
2.7894

> <Gold.Chemscore.Rot.Weighted>
4.9292

> <Gold.Chemscore.Internal.Correction.Weighted>
   9.000000E+99

> <Gold.Protein.RotatedTorsions>
[ 6907 6896 6895 6894 ] final -124.41 input  -60.11 | X-H torsion
[ 7974 7965 7964 7962 ] final  -37.89 input  175.53 | X-H torsion
[ 8008 7997 7996 7995 ] final   37.06 input   59.86 | X-H torsion
[ 10167 10162 10161 10158 ] final  -49.04 input  -65.29 | X-H torsion
[ 10718 10713 10712 10709 ] final -174.93 input   66.30 | X-H torsion
[ 10763 10752 10751 10750 ] final    9.89 input  -60.55 | X-H torsion
[ 11005 11000 10999 10996 ] final  109.97 input  -57.11 | X-H torsion

> <Gold.Protein.ActiveResidues>
 VAL166  LYS551  ARG553  GLY616  TRP617  ASP618  TYR619  PRO620  LYS621  CYS622 
 ASP623  PHE694  ASN695  SER759  ASP760  ASP761  ALA762  ILE779  LEU786  VAL792 
 PHE793  MET794  SER795  GLU796  ALA797  LYS798  CYS799  TRP800  GLU811  SER814 

> <Gold.Protein.RotatedAtoms>
  150.8766  133.7431  159.2944 H   0  0  0  0  0  0  0  0  0  0  0  0  # atno 6907 bound_to 6896
  151.5025  135.1061  159.9842 H   0  0  0  0  0  0  0  0  0  0  0  0  # atno 6908 bound_to 6896
  152.4731  133.8031  159.7019 H   0  0  0  0  0  0  0  0  0  0  0  0  # atno 6909 bound_to 6896
  146.0535  140.6449  142.9031 H   0  0  0  0  0  0  0  0  0  0  0  0  # atno 7974 bound_to 7965
  155.1975  140.3313  155.4348 H   0  0  0  0  0  0  0  0  0  0  0  0  # atno 8008 bound_to 7997
  156.2419  140.1899  156.7014 H   0  0  0  0  0  0  0  0  0  0  0  0  # atno 8009 bound_to 7997
  154.6164  140.0601  156.9545 H   0  0  0  0  0  0  0  0  0  0  0  0  # atno 8010 bound_to 7997
  140.6703  143.2714  151.4158 H   0  0  0  0  0  0  0  0  0  0  0  0  # atno 10167 bound_to 10162
  156.7923  130.9522  151.3120 H   0  0  0  0  0  0  0  0  0  0  0  0  # atno 10718 bound_to 10713
  153.2091  135.6866  153.8135 H   0  0  0  0  0  0  0  0  0  0  0  0  # atno 10763 bound_to 10752
  153.7374  135.3243  155.3298 H   0  0  0  0  0  0  0  0  0  0  0  0  # atno 10764 bound_to 10752
  154.8213  135.4650  154.0891 H   0  0  0  0  0  0  0  0  0  0  0  0  # atno 10765 bound_to 10752
  139.8872  134.9472  156.6207 H   0  0  0  0  0  0  0  0  0  0  0  0  # atno 11005 bound_to 11000
  144.7135  140.4126  143.7062 LP  0  0  0  0  0  0  0  0  0  0  0  0  # atno 17320 bound_to 7965
  145.6684  139.1594  143.2768 LP  0  0  0  0  0  0  0  0  0  0  0  0  # atno 17321 bound_to 7965
  139.5969  144.1379  152.2154 LP  0  0  0  0  0  0  0  0  0  0  0  0  # atno 17342 bound_to 10162
  140.0750  144.5747  150.7163 LP  0  0  0  0  0  0  0  0  0  0  0  0  # atno 17343 bound_to 10162
  157.6594  130.8953  149.9798 LP  0  0  0  0  0  0  0  0  0  0  0  0  # atno 17370 bound_to 10713
  156.1151  130.3648  149.9981 LP  0  0  0  0  0  0  0  0  0  0  0  0  # atno 17371 bound_to 10713
  140.7741  133.8714  155.8515 LP  0  0  0  0  0  0  0  0  0  0  0  0  # atno 17394 bound_to 11000
  140.9816  134.1397  157.4489 LP  0  0  0  0  0  0  0  0  0  0  0  0  # atno 17395 bound_to 11000

$$$$
