AV-unprocessed.smi:2153|AV-procd|sdf|8767|dock6
  -GOLD-   2272011543D 1   1.00000     0.00000
 Structure written by MMmdl.
 48 49  0  0  0  0  0  0  0  0  1 V2000
  148.1017  141.4085  154.4961 C   0  0  0  0  0  0  0  0  0  0  0  0
  149.5149  140.8114  154.5873 C   0  0  1  0  0  0  0  0  0  0  0  0
  150.2451  141.2644  155.8695 C   0  0  0  0  0  0  0  0  0  0  0  0
  151.6721  140.6963  155.9368 C   0  0  0  0  0  0  0  0  0  0  0  0
  151.6756  139.1658  155.8030 C   0  0  0  0  0  0  0  0  0  0  0  0
  150.9473  138.7196  154.5260 C   0  0  0  0  0  0  0  0  0  0  0  0
  149.5048  139.2700  154.4741 C   0  0  1  0  0  0  0  0  0  0  0  0
  148.7023  138.7762  155.5401 O   0  0  0  0  0  0  0  0  0  0  0  0
  148.1155  137.4982  155.3511 C   0  0  0  0  0  0  0  0  0  0  0  0
  146.7350  137.6791  154.7017 C   0  0  0  0  0  0  0  0  0  0  0  0
  146.7524  137.3147  153.2879 N   0  0  0  0  0  0  0  0  0  0  0  0
  145.6832  136.9048  152.5872 C   0  0  0  0  0  0  0  0  0  0  0  0
  144.5505  136.8298  153.0659 O   0  0  0  0  0  0  0  0  0  0  0  0
  145.9279  136.5442  151.1164 C   0  0  0  0  0  0  0  0  0  0  0  0
  145.4597  135.1911  150.7896 N   0  0  0  0  0  0  0  0  0  0  0  0
  144.4821  135.0201  149.8263 C   0  0  0  0  0  0  0  0  0  0  0  0
  143.9668  133.8167  149.4930 C   0  0  0  0  0  0  0  0  0  0  0  0
  144.4288  132.5996  150.1483 C   0  0  0  0  0  0  0  0  0  0  0  0
  143.9779  131.4816  149.8945 O   0  0  0  0  0  0  0  0  0  0  0  0
  145.4392  132.7992  151.1168 N   0  0  0  0  0  0  0  0  0  0  0  0
  145.9210  131.6222  151.8094 C   0  0  0  0  0  0  0  0  0  0  0  0
  145.9666  134.0630  151.4705 C   0  0  0  0  0  0  0  0  0  0  0  0
  146.8293  134.1971  152.3408 O   0  0  0  0  0  0  0  0  0  0  0  0
  147.4793  141.0922  155.3337 H   0  0  0  0  0  0  0  0  0  0  0  0
  147.6038  141.1005  153.5765 H   0  0  0  0  0  0  0  0  0  0  0  0
  148.1360  142.4979  154.5040 H   0  0  0  0  0  0  0  0  0  0  0  0
  150.0772  141.1982  153.7359 H   0  0  0  0  0  0  0  0  0  0  0  0
  150.2858  142.3533  155.9118 H   0  0  0  0  0  0  0  0  0  0  0  0
  149.6838  140.9458  156.7491 H   0  0  0  0  0  0  0  0  0  0  0  0
  152.2748  141.1328  155.1397 H   0  0  0  0  0  0  0  0  0  0  0  0
  152.1455  140.9869  156.8741 H   0  0  0  0  0  0  0  0  0  0  0  0
  152.7011  138.7964  155.7961 H   0  0  0  0  0  0  0  0  0  0  0  0
  151.1921  138.7172  156.6710 H   0  0  0  0  0  0  0  0  0  0  0  0
  151.4981  139.0834  153.6577 H   0  0  0  0  0  0  0  0  0  0  0  0
  150.9596  137.6334  154.4448 H   0  0  0  0  0  0  0  0  0  0  0  0
  149.0442  138.9872  153.5261 H   0  0  0  0  0  0  0  0  0  0  0  0
  148.7465  136.8875  154.7042 H   0  0  0  0  0  0  0  0  0  0  0  0
  148.0110  136.9753  156.3017 H   0  0  0  0  0  0  0  0  0  0  0  0
  145.9819  137.1024  155.2415 H   0  0  0  0  0  0  0  0  0  0  0  0
  146.4321  138.7235  154.7762 H   0  0  0  0  0  0  0  0  0  0  0  0
  147.6442  137.3527  152.8161 H   0  0  0  0  0  0  0  0  0  0  0  0
  145.4073  137.2754  150.4967 H   0  0  0  0  0  0  0  0  0  0  0  0
  146.9865  136.6525  150.8726 H   0  0  0  0  0  0  0  0  0  0  0  0
  144.1016  135.8945  149.3184 H   0  0  0  0  0  0  0  0  0  0  0  0
  143.1995  133.7543  148.7355 H   0  0  0  0  0  0  0  0  0  0  0  0
  146.8671  131.8270  152.3105 H   0  0  0  0  0  0  0  0  0  0  0  0
  146.0870  130.8353  151.0714 H   0  0  0  0  0  0  0  0  0  0  0  0
  145.1500  131.3400  152.5280 H   0  0  0  0  0  0  0  0  0  0  0  0
  1  2  1  0  0  0  0
  1 24  1  0  0  0  0
  1 25  1  0  0  0  0
  1 26  1  0  0  0  0
  2  7  1  0  0  0  0
  2  3  1  0  0  0  0
  2 27  1  0  0  0  0
  3  4  1  0  0  0  0
  3 28  1  0  0  0  0
  3 29  1  0  0  0  0
  4  5  1  0  0  0  0
  4 30  1  0  0  0  0
  4 31  1  0  0  0  0
  5  6  1  0  0  0  0
  5 32  1  0  0  0  0
  5 33  1  0  0  0  0
  6  7  1  0  0  0  0
  6 34  1  0  0  0  0
  6 35  1  0  0  0  0
  7  8  1  0  0  0  0
  7 36  1  0  0  0  0
  8  9  1  0  0  0  0
  9 10  1  0  0  0  0
  9 37  1  0  0  0  0
  9 38  1  0  0  0  0
 10 11  1  0  0  0  0
 10 39  1  0  0  0  0
 10 40  1  0  0  0  0
 11 12  1  0  0  0  0
 11 41  1  0  0  0  0
 12 13  2  0  0  0  0
 12 14  1  0  0  0  0
 14 15  1  0  0  0  0
 14 42  1  0  0  0  0
 14 43  1  0  0  0  0
 15 22  1  0  0  0  0
 15 16  1  0  0  0  0
 16 17  2  0  0  0  0
 16 44  1  0  0  0  0
 17 18  1  0  0  0  0
 17 45  1  0  0  0  0
 18 19  2  0  0  0  0
 18 20  1  0  0  0  0
 20 21  1  0  0  0  0
 20 22  1  0  0  0  0
 21 46  1  0  0  0  0
 21 47  1  0  0  0  0
 21 48  1  0  0  0  0
 22 23  2  0  0  0  0
M  END
> <s_m_source_file>
AV-unprocessed.smi

> <i_m_source_file_index>
2153

> <i_lp_mmshare_version>
43012

> <i_f3d_flags>
0

> <s_epik_input>
W0NIM11bQ0BASF0xW0NIMl1bQ0gyXVtDSDJdW0NIMl1bQ0BIXTFPW0NIMl1bQ0gyXVtOSF1DKD1PKVtDSDJdbjJbY0hdW2NIXWMoPU8pbihbQ0gzXSljMj1P

> <s_epik_cmdline>
J2VwaWtfcHl0aG9uJywgJy1waCcsICc3LjAnLCAnLXRuJywgJzgnLCAnLW1hJywgJzIwMCcsICctbWV0YWxfYmluZGluZycsICctaW1hZScsICc8aW5maWxlLm1hZT4nLCAnLW9tYWUnLCAnPG91dGZpbGUubWFlPic=

> <r_lp_tautomer_probability>
1

> <r_epik_Ionization_Penalty>
4.02205e-08

> <r_epik_Ionization_Penalty_Charging>
1.23606e-08

> <r_epik_Ionization_Penalty_Neutral>
2.78599e-08

> <r_epik_State_Penalty>
-0

> <r_epik_Charging_Adjusted_Penalty>
1.23606e-08

> <i_epik_Tot_Q>
0

> <i_epik_Tot_abs_Q>
0

> <r_epik_Metal_State_Penalty>
-0

> <b_epik_Metal_Only>
0

> <s_lp_Force_Field>
OPLS_2005

> <r_lp_Energy>
16.8304

> <b_lp_Chiralities_Consistent>
1

> <s_lp_Variant>
AV-unprocessed.smi:2153-2

> <Gold.Version>
5.8.1

> <Gold.Id.Protein>
6NUR|6NUR_protein|mol2

> <Gold.PLP.Fitness>
43.4952

> <Gold.PLP.PLP>
-37.1744

> <Gold.PLP.part.hbond>
-2.0000

> <Gold.PLP.part.metal>
0.0000

> <Gold.PLP.part.buried>
2.0711

> <Gold.PLP.part.nonpolar>
-37.4051

> <Gold.PLP.part.repulsive>
1.6252

> <Gold.PLP.ligand.clash>
0.0000

> <Gold.PLP.ligand.torsion>
0.9695

> <Gold.PLP.Chemscore.Hbond>
1.6960

> <Gold.PLP.Chemscore.CHOScore>
1.0000

> <Gold.PLP.Chemscore.Metal>
0.0000

> <Gold.Chemscore.Hbonds>
donor molecule, donor type, donor heavy atom, donor atom, acceptor molecule, acceptor atom, score
      L1  H    11    41       P1  7948  0.86
      P1  H 10785 10796       L1    19  0.70
      L1  C    16    44       P1 10171  0.56

> <Gold.PLP.Chemscore.Internal.Correction>
0.1717

> <Gold.Rescore>
     Score         DG    S(hbond)    S(metal)    S(lipo)     H(rot)  DE(clash)    DE(int)     intcor
     11.95     -15.53       1.85        0.00      81.03       2.20       2.12       1.46       ----

> <Gold.Chemscore.Fitness>
11.9474

> <Gold.Chemscore.DG>
-15.5294

> <Gold.Chemscore.ZeroCoef>
-5.4800

> <Gold.Chemscore.Hbond>
1.8542

> <Gold.Chemscore.Metal>
0.0000

> <Gold.Chemscore.Lipo>
81.0252

> <Gold.Chemscore.Internal_Hbond>
0.0000

> <Gold.Chemscore.DEClash>
2.1198

> <Gold.Chemscore.DEInternal>
1.4621

> <Gold.Chemscore.Rot>
2.1968

> <Gold.Chemscore.Internal.Correction>
   9.000000E+99

> <Gold.Chemscore.Hbonds>
donor molecule, donor type, donor heavy atom, donor atom, acceptor molecule, acceptor atom, score
      L1  H    11    41       P1  7948  0.83
      P1  H 10785 10796       L1    19  0.70

> <Gold.Chemscore.Hbond.Weighted>
-6.1932

> <Gold.Chemscore.Metal.Weighted>
-0.0000

> <Gold.Chemscore.Lipo.Weighted>
-9.4799

> <Gold.Chemscore.Internal_Hbond.Weighted>
0.0000

> <Gold.Chemscore.DEClash.Weighted>
2.1198

> <Gold.Chemscore.DEInternal.Weighted>
1.4621

> <Gold.Chemscore.Rot.Weighted>
5.6238

> <Gold.Chemscore.Internal.Correction.Weighted>
   9.000000E+99

> <Gold.Protein.RotatedTorsions>
[ 6907 6896 6895 6894 ] final -159.17 input  -60.11 | X-H torsion
[ 7974 7965 7964 7962 ] final  176.51 input  175.53 | X-H torsion
[ 8008 7997 7996 7995 ] final -168.87 input   59.86 | X-H torsion
[ 10167 10162 10161 10158 ] final  -94.50 input  -65.29 | X-H torsion
[ 10718 10713 10712 10709 ] final -100.05 input   66.30 | X-H torsion
[ 10763 10752 10751 10750 ] final  174.28 input  -60.55 | X-H torsion
[ 11005 11000 10999 10996 ] final  172.88 input  -57.11 | X-H torsion

> <Gold.Protein.ActiveResidues>
 VAL166  LYS551  ARG553  GLY616  TRP617  ASP618  TYR619  PRO620  LYS621  CYS622 
 ASP623  PHE694  ASN695  SER759  ASP760  ASP761  ALA762  ILE779  LEU786  VAL792 
 PHE793  MET794  SER795  GLU796  ALA797  LYS798  CYS799  TRP800  GLU811  SER814 

> <Gold.Protein.RotatedAtoms>
  151.3295  133.4006  159.2661 H   0  0  0  0  0  0  0  0  0  0  0  0  # atno 6907 bound_to 6896
  150.9968  134.9290  159.7941 H   0  0  0  0  0  0  0  0  0  0  0  0  # atno 6908 bound_to 6896
  152.5263  134.3260  159.9218 H   0  0  0  0  0  0  0  0  0  0  0  0  # atno 6909 bound_to 6896
  144.7183  140.0108  143.6440 H   0  0  0  0  0  0  0  0  0  0  0  0  # atno 7974 bound_to 7965
  155.8973  140.1035  157.1375 H   0  0  0  0  0  0  0  0  0  0  0  0  # atno 8008 bound_to 7997
  154.4022  140.1299  156.4455 H   0  0  0  0  0  0  0  0  0  0  0  0  # atno 8009 bound_to 7997
  155.7464  140.3466  155.5131 H   0  0  0  0  0  0  0  0  0  0  0  0  # atno 8010 bound_to 7997
  140.3138  143.3089  152.0119 H   0  0  0  0  0  0  0  0  0  0  0  0  # atno 10167 bound_to 10162
  156.0151  130.5310  150.6760 H   0  0  0  0  0  0  0  0  0  0  0  0  # atno 10718 bound_to 10713
  154.4518  135.2765  155.1776 H   0  0  0  0  0  0  0  0  0  0  0  0  # atno 10763 bound_to 10752
  154.3600  135.6131  153.5689 H   0  0  0  0  0  0  0  0  0  0  0  0  # atno 10764 bound_to 10752
  152.9847  135.5832  154.4864 H   0  0  0  0  0  0  0  0  0  0  0  0  # atno 10765 bound_to 10752
  140.3345  134.7329  157.4158 H   0  0  0  0  0  0  0  0  0  0  0  0  # atno 11005 bound_to 11000
  146.0260  139.3293  143.0784 LP  0  0  0  0  0  0  0  0  0  0  0  0  # atno 17320 bound_to 7965
  145.8510  140.9528  143.0749 LP  0  0  0  0  0  0  0  0  0  0  0  0  # atno 17321 bound_to 7965
  139.4888  144.6364  151.6967 LP  0  0  0  0  0  0  0  0  0  0  0  0  # atno 17342 bound_to 10162
  140.5544  144.0372  150.6141 LP  0  0  0  0  0  0  0  0  0  0  0  0  # atno 17343 bound_to 10162
  157.4473  131.0868  151.0883 LP  0  0  0  0  0  0  0  0  0  0  0  0  # atno 17370 bound_to 10713
  157.1409  130.6142  149.5555 LP  0  0  0  0  0  0  0  0  0  0  0  0  # atno 17371 bound_to 10713
  140.0832  134.5702  155.8519 LP  0  0  0  0  0  0  0  0  0  0  0  0  # atno 17394 bound_to 11000
  141.2055  133.6647  156.6183 LP  0  0  0  0  0  0  0  0  0  0  0  0  # atno 17395 bound_to 11000

$$$$
