AV-unprocessed.smi:33|AV-procd|sdf|210|dock6
  -GOLD-   2262015503D 1   1.00000     0.00000
 Structure written by MMmdl.
 67 72  0  0  0  0  0  0  0  0  1 V2000
  153.8680  139.6986  158.6390 O   0  0  0  0  0  0  0  0  0  0  0  0
  152.7789  140.2208  158.8848 C   0  0  0  0  0  0  0  0  0  0  0  0
  151.6061  139.7551  158.4155 O   0  0  0  0  0  0  0  0  0  0  0  0
  151.5770  138.9315  157.2618 C   0  0  0  0  0  0  0  0  0  0  0  0
  150.4011  137.9560  157.3827 C   0  0  1  0  0  0  0  0  0  0  0  0
  149.1711  138.5983  157.0483 O   0  0  0  0  0  0  0  0  0  0  0  0
  148.2699  137.6679  156.5200 C   0  0  2  0  0  0  0  0  0  0  0  0
  147.0828  137.5887  157.4284 N   0  0  0  0  0  0  0  0  0  0  0  0
  146.3345  138.6434  157.9035 C   0  0  0  0  0  0  0  0  0  0  0  0
  145.3406  138.3214  158.6859 N   0  0  0  0  0  0  0  0  0  0  0  0
  145.4164  136.9380  158.7696 C   0  0  0  0  0  0  0  0  0  0  0  0
  144.6525  135.9477  159.4439 C   0  0  0  0  0  0  0  0  0  0  0  0
  143.5812  136.2463  160.2156 N   0  0  0  0  0  0  0  0  0  0  0  0
  143.8426  136.9608  161.4728 C   0  0  0  0  0  0  0  0  0  0  0  0
  142.9614  137.6672  161.9660 O   0  0  0  0  0  0  0  0  0  0  0  0
  145.1893  136.8690  162.1325 C   0  0  0  0  0  0  0  0  0  0  0  0
  145.8750  135.6354  162.1739 C   0  0  0  0  0  0  0  0  0  0  0  0
  147.1449  135.5492  162.7770 C   0  0  0  0  0  0  0  0  0  0  0  0
  147.7451  136.6989  163.3248 C   0  0  0  0  0  0  0  0  0  0  0  0
  147.0788  137.9375  163.2622 C   0  0  0  0  0  0  0  0  0  0  0  0
  145.8086  138.0244  162.6607 C   0  0  0  0  0  0  0  0  0  0  0  0
  142.2579  135.8341  159.7242 C   0  0  0  0  0  0  0  0  0  0  0  0
  142.0841  135.6670  158.5154 O   0  0  0  0  0  0  0  0  0  0  0  0
  141.1063  135.6723  160.6761 C   0  0  0  0  0  0  0  0  0  0  0  0
  139.7797  135.7183  160.1939 C   0  0  0  0  0  0  0  0  0  0  0  0
  138.6964  135.5531  161.0785 C   0  0  0  0  0  0  0  0  0  0  0  0
  138.9324  135.3227  162.4471 C   0  0  0  0  0  0  0  0  0  0  0  0
  140.2527  135.2475  162.9299 C   0  0  0  0  0  0  0  0  0  0  0  0
  141.3366  135.4128  162.0462 C   0  0  0  0  0  0  0  0  0  0  0  0
  145.0200  134.6487  159.2979 N   0  0  0  0  0  0  0  0  0  0  0  0
  146.0729  134.3402  158.5359 C   0  0  0  0  0  0  0  0  0  0  0  0
  146.8716  135.1575  157.8460 N   0  0  0  0  0  0  0  0  0  0  0  0
  146.5075  136.4646  157.9896 C   0  0  0  0  0  0  0  0  0  0  0  0
  149.0004  136.3206  156.4286 C   0  0  1  0  0  0  0  0  0  0  0  0
  148.6964  135.5863  155.2598 O   0  0  0  0  0  0  0  0  0  0  0  0
  150.4515  136.7739  156.4175 C   0  0  1  0  0  0  0  0  0  0  0  0
  150.8040  137.2176  155.2070 F   0  0  0  0  0  0  0  0  0  0  0  0
  152.6208  141.4366  159.7341 C   0  0  0  0  0  0  0  0  0  0  0  0
  153.2697  141.4941  160.9897 C   0  0  0  0  0  0  0  0  0  0  0  0
  153.1403  142.6300  161.8124 C   0  0  0  0  0  0  0  0  0  0  0  0
  152.3608  143.7223  161.3892 C   0  0  0  0  0  0  0  0  0  0  0  0
  151.7101  143.6774  160.1424 C   0  0  0  0  0  0  0  0  0  0  0  0
  151.8380  142.5424  159.3183 C   0  0  0  0  0  0  0  0  0  0  0  0
  151.4864  139.5372  156.3590 H   0  0  0  0  0  0  0  0  0  0  0  0
  152.5143  138.3769  157.1974 H   0  0  0  0  0  0  0  0  0  0  0  0
  150.3524  137.5721  158.4011 H   0  0  0  0  0  0  0  0  0  0  0  0
  147.8851  138.0288  155.5651 H   0  0  0  0  0  0  0  0  0  0  0  0
  146.5466  139.6703  157.6438 H   0  0  0  0  0  0  0  0  0  0  0  0
  145.4242  134.7465  161.7563 H   0  0  0  0  0  0  0  0  0  0  0  0
  147.6591  134.6005  162.8178 H   0  0  0  0  0  0  0  0  0  0  0  0
  148.7191  136.6323  163.7866 H   0  0  0  0  0  0  0  0  0  0  0  0
  147.5424  138.8219  163.6737 H   0  0  0  0  0  0  0  0  0  0  0  0
  145.3091  138.9814  162.6126 H   0  0  0  0  0  0  0  0  0  0  0  0
  139.5861  135.8948  159.1458 H   0  0  0  0  0  0  0  0  0  0  0  0
  137.6838  135.6025  160.7064 H   0  0  0  0  0  0  0  0  0  0  0  0
  138.1010  135.1971  163.1250 H   0  0  0  0  0  0  0  0  0  0  0  0
  140.4349  135.0616  163.9781 H   0  0  0  0  0  0  0  0  0  0  0  0
  142.3455  135.3478  162.4275 H   0  0  0  0  0  0  0  0  0  0  0  0
  146.3075  133.2884  158.4663 H   0  0  0  0  0  0  0  0  0  0  0  0
  148.8025  135.7188  157.3164 H   0  0  0  0  0  0  0  0  0  0  0  0
  149.5043  135.3924  154.8093 H   0  0  0  0  0  0  0  0  0  0  0  0
  151.1559  135.9960  156.7136 H   0  0  0  0  0  0  0  0  0  0  0  0
  153.8738  140.6677  161.3357 H   0  0  0  0  0  0  0  0  0  0  0  0
  153.6407  142.6626  162.7690 H   0  0  0  0  0  0  0  0  0  0  0  0
  152.2620  144.5937  162.0199 H   0  0  0  0  0  0  0  0  0  0  0  0
  151.1119  144.5156  159.8162 H   0  0  0  0  0  0  0  0  0  0  0  0
  151.3263  142.5416  158.3669 H   0  0  0  0  0  0  0  0  0  0  0  0
  1  2  2  0  0  0  0
  2  3  1  0  0  0  0
  2 38  1  0  0  0  0
  3  4  1  0  0  0  0
  4  5  1  0  0  0  0
  4 44  1  0  0  0  0
  4 45  1  0  0  0  0
  5 36  1  0  0  0  0
  5  6  1  0  0  0  0
  5 46  1  0  0  0  0
  6  7  1  0  0  0  0
  7  8  1  0  0  0  0
  7 34  1  0  0  0  0
  7 47  1  0  0  0  0
  8 33  1  0  0  0  0
  8  9  1  0  0  0  0
  9 10  2  0  0  0  0
  9 48  1  0  0  0  0
 10 11  1  0  0  0  0
 11 33  2  0  0  0  0
 11 12  1  0  0  0  0
 12 13  1  0  0  0  0
 12 30  2  0  0  0  0
 13 14  1  0  0  0  0
 13 22  1  0  0  0  0
 14 15  2  0  0  0  0
 14 16  1  0  0  0  0
 16 21  1  0  0  0  0
 16 17  2  0  0  0  0
 17 18  1  0  0  0  0
 17 49  1  0  0  0  0
 18 19  2  0  0  0  0
 18 50  1  0  0  0  0
 19 20  1  0  0  0  0
 19 51  1  0  0  0  0
 20 21  2  0  0  0  0
 20 52  1  0  0  0  0
 21 53  1  0  0  0  0
 22 23  2  0  0  0  0
 22 24  1  0  0  0  0
 24 29  1  0  0  0  0
 24 25  2  0  0  0  0
 25 26  1  0  0  0  0
 25 54  1  0  0  0  0
 26 27  2  0  0  0  0
 26 55  1  0  0  0  0
 27 28  1  0  0  0  0
 27 56  1  0  0  0  0
 28 29  2  0  0  0  0
 28 57  1  0  0  0  0
 29 58  1  0  0  0  0
 30 31  1  0  0  0  0
 31 32  2  0  0  0  0
 31 59  1  0  0  0  0
 32 33  1  0  0  0  0
 34 35  1  0  0  0  0
 34 36  1  0  0  0  0
 34 60  1  0  0  0  0
 35 61  1  0  0  0  0
 36 37  1  0  0  0  0
 36 62  1  0  0  0  0
 38 43  1  0  0  0  0
 38 39  2  0  0  0  0
 39 40  1  0  0  0  0
 39 63  1  0  0  0  0
 40 41  2  0  0  0  0
 40 64  1  0  0  0  0
 41 42  1  0  0  0  0
 41 65  1  0  0  0  0
 42 43  2  0  0  0  0
 42 66  1  0  0  0  0
 43 67  1  0  0  0  0
M  END
> <s_m_source_file>
AV-unprocessed.smi

> <i_m_source_file_index>
33

> <i_lp_mmshare_version>
43012

> <i_f3d_flags>
0

> <s_epik_input>
W2NIXTFbY0hdW2NIXVtjSF1bY0hdYzFDKD1PKU9bQ0gyXVtDQEBIXTJPW0NASF0oW0NAQEhdKFtPSF0pW0NAQEhdMkYpbihbY0hdbjMpYyhjMzQpbltjSF1uYzROKEMoPU8pYzVbY0hdW2NIXVtjSF1bY0hdW2NIXTUpQyg9TyljNltjSF1bY0hdW2NIXVtjSF1bY0hdNg==

> <s_epik_cmdline>
J2VwaWtfcHl0aG9uJywgJy1waCcsICc3LjAnLCAnLXRuJywgJzgnLCAnLW1hJywgJzIwMCcsICctbWV0YWxfYmluZGluZycsICctaW1hZScsICc8aW5maWxlLm1hZT4nLCAnLW9tYWUnLCAnPG91dGZpbGUubWFlPic=

> <r_lp_tautomer_probability>
1

> <r_epik_Ionization_Penalty>
0.00067664

> <r_epik_Ionization_Penalty_Charging>
0

> <r_epik_Ionization_Penalty_Neutral>
0.00067664

> <r_epik_State_Penalty>
0.000428095

> <r_epik_Charging_Adjusted_Penalty>
0.000428095

> <i_epik_Tot_Q>
0

> <i_epik_Tot_abs_Q>
0

> <r_epik_Metal_State_Penalty>
-0

> <b_epik_Metal_Only>
0

> <s_epik_Chemistry_Notes>
This compound has an ester and may undergo hydrolysis at high or low pH. This compound contains an acetal/aminal-like group ( X-CH(R)-Y where X, Y are N, S, or O) that may be acid/base labile, releasing an aldehyde.

> <s_lp_Force_Field>
OPLS_2005

> <r_lp_Energy>
69.9903

> <b_lp_Chiralities_Consistent>
1

> <s_lp_Variant>
AV-unprocessed.smi:33-12

> <Gold.Version>
5.8.1

> <Gold.Id.Protein>
6NUR|6NUR_protein|mol2

> <Gold.PLP.Fitness>
56.1252

> <Gold.PLP.PLP>
-54.1780

> <Gold.PLP.part.hbond>
-3.0000

> <Gold.PLP.part.metal>
0.0000

> <Gold.PLP.part.buried>
-6.0142

> <Gold.PLP.part.nonpolar>
-45.7529

> <Gold.PLP.part.repulsive>
0.0315

> <Gold.PLP.ligand.clash>
0.0000

> <Gold.PLP.ligand.torsion>
4.3175

> <Gold.PLP.Chemscore.Hbond>
1.9048

> <Gold.PLP.Chemscore.CHOScore>
0.0000

> <Gold.PLP.Chemscore.Metal>
0.0000

> <Gold.Chemscore.Hbonds>
donor molecule, donor type, donor heavy atom, donor atom, acceptor molecule, acceptor atom, score
      P1  H  7997  8010       L1     1  1.00
      P1  H 11000 11005       L1    23  0.89

> <Gold.PLP.Chemscore.Internal.Correction>
4.8678

> <Gold.Rescore>
     Score         DG    S(hbond)    S(metal)    S(lipo)     H(rot)  DE(clash)    DE(int)     intcor
     12.80     -23.54       1.93        0.00     154.51       2.52       0.66      10.08       ----

> <Gold.Chemscore.Fitness>
12.7961

> <Gold.Chemscore.DG>
-23.5350

> <Gold.Chemscore.ZeroCoef>
-5.4800

> <Gold.Chemscore.Hbond>
1.9282

> <Gold.Chemscore.Metal>
0.0000

> <Gold.Chemscore.Lipo>
154.5126

> <Gold.Chemscore.Internal_Hbond>
0.0000

> <Gold.Chemscore.DEClash>
0.6554

> <Gold.Chemscore.DEInternal>
10.0836

> <Gold.Chemscore.Rot>
2.5247

> <Gold.Chemscore.Internal.Correction>
   9.000000E+99

> <Gold.Chemscore.Hbonds>
donor molecule, donor type, donor heavy atom, donor atom, acceptor molecule, acceptor atom, score
      P1  H  7997  8010       L1     1  0.99
      P1  H 11000 11005       L1    23  0.82

> <Gold.Chemscore.Hbond.Weighted>
-6.4403

> <Gold.Chemscore.Metal.Weighted>
-0.0000

> <Gold.Chemscore.Lipo.Weighted>
-18.0780

> <Gold.Chemscore.Internal_Hbond.Weighted>
0.0000

> <Gold.Chemscore.DEClash.Weighted>
0.6554

> <Gold.Chemscore.DEInternal.Weighted>
10.0836

> <Gold.Chemscore.Rot.Weighted>
6.4633

> <Gold.Chemscore.Internal.Correction.Weighted>
   9.000000E+99

> <Gold.Protein.RotatedTorsions>
[ 6907 6896 6895 6894 ] final   49.17 input  -60.11 | X-H torsion
[ 7974 7965 7964 7962 ] final  -27.32 input  175.53 | X-H torsion
[ 8008 7997 7996 7995 ] final   19.14 input   59.86 | X-H torsion
[ 10167 10162 10161 10158 ] final -123.74 input  -65.29 | X-H torsion
[ 10718 10713 10712 10709 ] final -145.30 input   66.30 | X-H torsion
[ 10763 10752 10751 10750 ] final   50.67 input  -60.55 | X-H torsion
[ 11005 11000 10999 10996 ] final -152.09 input  -57.11 | X-H torsion

> <Gold.Protein.ActiveResidues>
 VAL166  LYS551  ARG553  GLY616  TRP617  ASP618  TYR619  PRO620  LYS621  CYS622 
 ASP623  PHE694  ASN695  SER759  ASP760  ASP761  ALA762  ILE779  LEU786  VAL792 
 PHE793  MET794  SER795  GLU796  ALA797  LYS798  CYS799  TRP800  GLU811  SER814 

> <Gold.Protein.RotatedAtoms>
  152.2878  134.7756  160.0383 H   0  0  0  0  0  0  0  0  0  0  0  0  # atno 6907 bound_to 6896
  151.8313  133.3404  159.3622 H   0  0  0  0  0  0  0  0  0  0  0  0  # atno 6908 bound_to 6896
  150.7217  134.5409  159.5791 H   0  0  0  0  0  0  0  0  0  0  0  0  # atno 6909 bound_to 6896
  146.1365  140.5137  142.8670 H   0  0  0  0  0  0  0  0  0  0  0  0  # atno 7974 bound_to 7965
  154.9163  140.3021  155.5239 H   0  0  0  0  0  0  0  0  0  0  0  0  # atno 8008 bound_to 7997
  156.3012  140.2380  156.4144 H   0  0  0  0  0  0  0  0  0  0  0  0  # atno 8009 bound_to 7997
  154.8375  140.0415  157.1507 H   0  0  0  0  0  0  0  0  0  0  0  0  # atno 8010 bound_to 7997
  140.0003  143.5548  152.2306 H   0  0  0  0  0  0  0  0  0  0  0  0  # atno 10167 bound_to 10162
  156.3808  130.7836  151.2028 H   0  0  0  0  0  0  0  0  0  0  0  0  # atno 10718 bound_to 10713
  152.9784  135.5871  154.4290 H   0  0  0  0  0  0  0  0  0  0  0  0  # atno 10763 bound_to 10752
  154.3905  135.2768  155.2159 H   0  0  0  0  0  0  0  0  0  0  0  0  # atno 10764 bound_to 10752
  154.4034  135.6098  153.5964 H   0  0  0  0  0  0  0  0  0  0  0  0  # atno 10765 bound_to 10752
  140.7226  134.3710  157.5181 H   0  0  0  0  0  0  0  0  0  0  0  0  # atno 11005 bound_to 11000
  144.7746  140.5711  143.6647 LP  0  0  0  0  0  0  0  0  0  0  0  0  # atno 17320 bound_to 7965
  145.5143  139.1478  143.3587 LP  0  0  0  0  0  0  0  0  0  0  0  0  # atno 17321 bound_to 7965
  139.6277  144.7639  151.2604 LP  0  0  0  0  0  0  0  0  0  0  0  0  # atno 17342 bound_to 10162
  140.7421  143.6535  150.8227 LP  0  0  0  0  0  0  0  0  0  0  0  0  # atno 17343 bound_to 10162
  157.7492  131.0344  150.4318 LP  0  0  0  0  0  0  0  0  0  0  0  0  # atno 17370 bound_to 10713
  156.4562  130.4022  149.6605 LP  0  0  0  0  0  0  0  0  0  0  0  0  # atno 17371 bound_to 10713
  139.8844  134.8965  156.2703 LP  0  0  0  0  0  0  0  0  0  0  0  0  # atno 17394 bound_to 11000
  140.9990  133.7163  156.0931 LP  0  0  0  0  0  0  0  0  0  0  0  0  # atno 17395 bound_to 11000

$$$$
