AV-unprocessed.smi:972|AV-procd|sdf|4298|dock4
  -GOLD-   22720 2203D 1   1.00000     0.00000
 Structure written by MMmdl.
 50 52  0  0  0  0  0  0  0  0  1 V2000
  143.4676  132.1141  149.4975 C   0  0  0  0  0  0  0  0  0  0  0  0
  144.8109  132.2647  150.2498 C   0  0  0  0  0  0  0  0  0  0  0  0
  144.7943  131.1981  151.3700 C   0  0  0  0  0  0  0  0  0  0  0  0
  145.9754  131.9822  149.2829 C   0  0  0  0  0  0  0  0  0  0  0  0
  144.9640  133.6789  150.8363 C   0  0  0  0  0  0  0  0  0  0  0  0
  144.0940  134.6094  150.4219 N   0  0  0  0  0  0  0  0  0  0  0  0
  144.2971  135.8806  150.8258 C   0  0  0  0  0  0  0  0  0  0  0  0
  145.4031  136.2450  151.6192 C   0  0  0  0  0  0  0  0  0  0  0  0
  145.5460  137.6025  152.0136 N   0  0  0  0  0  0  0  0  0  0  0  0
  146.2601  138.1094  153.0330 C   0  0  0  0  0  0  0  0  0  0  0  0
  146.9467  137.4542  153.8163 O   0  0  0  0  0  0  0  0  0  0  0  0
  146.1437  139.4440  153.0820 N   0  0  0  0  0  0  0  0  0  0  0  0
  146.7958  140.3255  154.0465 C   0  0  0  0  0  0  0  0  0  0  0  0
  148.2535  140.5780  153.6299 C   0  0  0  0  0  0  0  0  0  0  0  0
  149.0096  141.3662  154.7141 C   0  0  0  0  0  0  0  0  0  0  0  0
  148.9720  140.6414  155.9846 N   0  0  0  0  0  0  0  0  0  0  0  0
  149.7306  141.3877  156.9749 C   0  0  0  0  0  0  0  0  0  0  0  0
  150.9883  142.0870  156.5116 C   0  0  0  0  0  0  0  0  0  0  0  0
  151.0867  140.8478  157.3685 C   0  0  0  0  0  0  0  0  0  0  0  0
  147.5890  140.5170  156.4454 C   0  0  0  0  0  0  0  0  0  0  0  0
  146.7691  139.6860  155.4435 C   0  0  0  0  0  0  0  0  0  0  0  0
  146.2777  135.1905  151.9750 C   0  0  0  0  0  0  0  0  0  0  0  0
  146.0607  133.9224  151.5658 N   0  0  0  0  0  0  0  0  0  0  0  0
  143.3347  131.0990  149.1218 H   0  0  0  0  0  0  0  0  0  0  0  0
  143.4052  132.7785  148.6347 H   0  0  0  0  0  0  0  0  0  0  0  0
  142.6206  132.3359  150.1480 H   0  0  0  0  0  0  0  0  0  0  0  0
  143.9953  131.3888  152.0877 H   0  0  0  0  0  0  0  0  0  0  0  0
  145.7344  131.1691  151.9221 H   0  0  0  0  0  0  0  0  0  0  0  0
  144.6377  130.1979  150.9644 H   0  0  0  0  0  0  0  0  0  0  0  0
  145.9001  130.9845  148.8494 H   0  0  0  0  0  0  0  0  0  0  0  0
  146.9378  132.0484  149.7917 H   0  0  0  0  0  0  0  0  0  0  0  0
  145.9889  132.6984  148.4604 H   0  0  0  0  0  0  0  0  0  0  0  0
  143.5734  136.6142  150.5022 H   0  0  0  0  0  0  0  0  0  0  0  0
  145.0820  138.2749  151.4205 H   0  0  0  0  0  0  0  0  0  0  0  0
  145.5579  139.8903  152.3915 H   0  0  0  0  0  0  0  0  0  0  0  0
  146.2829  141.2875  154.1018 H   0  0  0  0  0  0  0  0  0  0  0  0
  148.7624  139.6290  153.4531 H   0  0  0  0  0  0  0  0  0  0  0  0
  148.2830  141.1253  152.6871 H   0  0  0  0  0  0  0  0  0  0  0  0
  150.0461  141.5055  154.4050 H   0  0  0  0  0  0  0  0  0  0  0  0
  148.5746  142.3601  154.8333 H   0  0  0  0  0  0  0  0  0  0  0  0
  149.1862  141.8935  157.7709 H   0  0  0  0  0  0  0  0  0  0  0  0
  151.2678  141.9949  155.4636 H   0  0  0  0  0  0  0  0  0  0  0  0
  151.2313  143.0403  156.9763 H   0  0  0  0  0  0  0  0  0  0  0  0
  151.3944  140.9747  158.4044 H   0  0  0  0  0  0  0  0  0  0  0  0
  151.4313  139.9334  156.8890 H   0  0  0  0  0  0  0  0  0  0  0  0
  147.5725  140.0291  157.4207 H   0  0  0  0  0  0  0  0  0  0  0  0
  147.1433  141.5049  156.5740 H   0  0  0  0  0  0  0  0  0  0  0  0
  145.7402  139.5958  155.7936 H   0  0  0  0  0  0  0  0  0  0  0  0
  147.1716  138.6725  155.4003 H   0  0  0  0  0  0  0  0  0  0  0  0
  147.1494  135.3339  152.5938 H   0  0  0  0  0  0  0  0  0  0  0  0
  1  2  1  0  0  0  0
  1 24  1  0  0  0  0
  1 25  1  0  0  0  0
  1 26  1  0  0  0  0
  2  3  1  0  0  0  0
  2  4  1  0  0  0  0
  2  5  1  0  0  0  0
  3 27  1  0  0  0  0
  3 28  1  0  0  0  0
  3 29  1  0  0  0  0
  4 30  1  0  0  0  0
  4 31  1  0  0  0  0
  4 32  1  0  0  0  0
  5 23  1  0  0  0  0
  5  6  2  0  0  0  0
  6  7  1  0  0  0  0
  7  8  2  0  0  0  0
  7 33  1  0  0  0  0
  8  9  1  0  0  0  0
  8 22  1  0  0  0  0
  9 10  1  0  0  0  0
  9 34  1  0  0  0  0
 10 11  2  0  0  0  0
 10 12  1  0  0  0  0
 12 13  1  0  0  0  0
 12 35  1  0  0  0  0
 13 21  1  0  0  0  0
 13 14  1  0  0  0  0
 13 36  1  0  0  0  0
 14 15  1  0  0  0  0
 14 37  1  0  0  0  0
 14 38  1  0  0  0  0
 15 16  1  0  0  0  0
 15 39  1  0  0  0  0
 15 40  1  0  0  0  0
 16 17  1  0  0  0  0
 16 20  1  0  0  0  0
 17 19  1  0  0  0  0
 17 18  1  0  0  0  0
 17 41  1  0  0  0  0
 18 19  1  0  0  0  0
 18 42  1  0  0  0  0
 18 43  1  0  0  0  0
 19 44  1  0  0  0  0
 19 45  1  0  0  0  0
 20 21  1  0  0  0  0
 20 46  1  0  0  0  0
 20 47  1  0  0  0  0
 21 48  1  0  0  0  0
 21 49  1  0  0  0  0
 22 23  2  0  0  0  0
 22 50  1  0  0  0  0
M  END
> <s_m_source_file>
AV-unprocessed.smi

> <i_m_source_file_index>
972

> <i_lp_mmshare_version>
43012

> <i_f3d_flags>
0

> <s_epik_input>
W0NIM11DKFtDSDNdKShbQ0gzXSljMW5bY0hdYyhbY0hdbjEpW05IXUMoPU8pW05IXVtDSF0yW0NIMl1bQ0gyXU4oW0NIMl1bQ0gyXTIpW0NIXTNbQ0gyXVtDSDJdMw==

> <s_epik_cmdline>
J2VwaWtfcHl0aG9uJywgJy1waCcsICc3LjAnLCAnLXRuJywgJzgnLCAnLW1hJywgJzIwMCcsICctbWV0YWxfYmluZGluZycsICctaW1hZScsICc8aW5maWxlLm1hZT4nLCAnLW9tYWUnLCAnPG91dGZpbGUubWFlPic=

> <r_lp_tautomer_probability>
1

> <r_epik_Ionization_Penalty>
0.990889

> <r_epik_Ionization_Penalty_Charging>
0

> <r_epik_Ionization_Penalty_Neutral>
0.990889

> <r_epik_State_Penalty>
1.03856

> <r_epik_Charging_Adjusted_Penalty>
1.03856

> <i_epik_Tot_Q>
0

> <i_epik_Tot_abs_Q>
0

> <r_epik_Metal_State_Penalty>
1.03856

> <b_epik_Metal_Only>
0

> <s_lp_Force_Field>
OPLS_2005

> <r_lp_Energy>
19.7386

> <b_lp_Chiralities_Consistent>
1

> <s_lp_Variant>
AV-unprocessed.smi:972-3

> <Gold.Version>
5.8.1

> <Gold.Id.Protein>
6NUR|6NUR_protein|mol2

> <Gold.PLP.Fitness>
42.1766

> <Gold.PLP.PLP>
-33.4033

> <Gold.PLP.part.hbond>
-2.0000

> <Gold.PLP.part.metal>
0.0000

> <Gold.PLP.part.buried>
1.4975

> <Gold.PLP.part.nonpolar>
-34.4115

> <Gold.PLP.part.repulsive>
1.1105

> <Gold.PLP.ligand.clash>
0.0000

> <Gold.PLP.ligand.torsion>
1.4262

> <Gold.PLP.Chemscore.Hbond>
1.6000

> <Gold.PLP.Chemscore.CHOScore>
1.8390

> <Gold.PLP.Chemscore.Metal>
0.0000

> <Gold.Chemscore.Hbonds>
donor molecule, donor type, donor heavy atom, donor atom, acceptor molecule, acceptor atom, score
      L1  H     9    34       P1 10171  0.95
      L1  H    12    35       P1 10175  0.64
      L1  C     7    33       P1 10171  1.00
      L1  C    22    50       P1  7948  0.84

> <Gold.PLP.Chemscore.Internal.Correction>
1.3085

> <Gold.Rescore>
     Score         DG    S(hbond)    S(metal)    S(lipo)     H(rot)  DE(clash)    DE(int)     intcor
     12.03     -18.31       1.36        0.00      99.19       1.30       2.36       3.93       ----

> <Gold.Chemscore.Fitness>
12.0279

> <Gold.Chemscore.DG>
-18.3139

> <Gold.Chemscore.ZeroCoef>
-5.4800

> <Gold.Chemscore.Hbond>
1.3605

> <Gold.Chemscore.Metal>
0.0000

> <Gold.Chemscore.Lipo>
99.1897

> <Gold.Chemscore.Internal_Hbond>
0.0000

> <Gold.Chemscore.DEClash>
2.3582

> <Gold.Chemscore.DEInternal>
3.9278

> <Gold.Chemscore.Rot>
1.2951

> <Gold.Chemscore.Internal.Correction>
   9.000000E+99

> <Gold.Chemscore.Hbonds>
donor molecule, donor type, donor heavy atom, donor atom, acceptor molecule, acceptor atom, score
      L1  H     9    34       P1 10171  0.85
      L1  H    12    35       P1 10175  0.60

> <Gold.Chemscore.Hbond.Weighted>
-4.5440

> <Gold.Chemscore.Metal.Weighted>
-0.0000

> <Gold.Chemscore.Lipo.Weighted>
-11.6052

> <Gold.Chemscore.Internal_Hbond.Weighted>
0.0000

> <Gold.Chemscore.DEClash.Weighted>
2.3582

> <Gold.Chemscore.DEInternal.Weighted>
3.9278

> <Gold.Chemscore.Rot.Weighted>
3.3154

> <Gold.Chemscore.Internal.Correction.Weighted>
   9.000000E+99

> <Gold.Protein.RotatedTorsions>
[ 6907 6896 6895 6894 ] final  -87.95 input  -60.11 | X-H torsion
[ 7974 7965 7964 7962 ] final  -88.51 input  175.53 | X-H torsion
[ 8008 7997 7996 7995 ] final -158.26 input   59.86 | X-H torsion
[ 10167 10162 10161 10158 ] final   20.53 input  -65.29 | X-H torsion
[ 10718 10713 10712 10709 ] final  -77.17 input   66.30 | X-H torsion
[ 10763 10752 10751 10750 ] final  124.65 input  -60.55 | X-H torsion
[ 11005 11000 10999 10996 ] final -120.55 input  -57.11 | X-H torsion

> <Gold.Protein.ActiveResidues>
 VAL166  LYS551  ARG553  GLY616  TRP617  ASP618  TYR619  PRO620  LYS621  CYS622 
 ASP623  PHE694  ASN695  SER759  ASP760  ASP761  ALA762  ILE779  LEU786  VAL792 
 PHE793  MET794  SER795  GLU796  ALA797  LYS798  CYS799  TRP800  GLU811  SER814 

> <Gold.Protein.RotatedAtoms>
  150.6867  134.2817  159.4629 H   0  0  0  0  0  0  0  0  0  0  0  0  # atno 6907 bound_to 6896
  152.0730  134.9518  160.0583 H   0  0  0  0  0  0  0  0  0  0  0  0  # atno 6908 bound_to 6896
  152.0901  133.4161  159.4577 H   0  0  0  0  0  0  0  0  0  0  0  0  # atno 6909 bound_to 6896
  145.4522  140.9561  143.2016 H   0  0  0  0  0  0  0  0  0  0  0  0  # atno 7974 bound_to 7965
  155.7449  140.0819  157.2228 H   0  0  0  0  0  0  0  0  0  0  0  0  # atno 8008 bound_to 7997
  154.4018  140.1571  156.2713 H   0  0  0  0  0  0  0  0  0  0  0  0  # atno 8009 bound_to 7997
  155.8985  140.3411  155.6012 H   0  0  0  0  0  0  0  0  0  0  0  0  # atno 8010 bound_to 7997
  140.5497  143.9532  150.6570 H   0  0  0  0  0  0  0  0  0  0  0  0  # atno 10167 bound_to 10162
  156.0153  130.4484  150.3304 H   0  0  0  0  0  0  0  0  0  0  0  0  # atno 10718 bound_to 10713
  153.6648  135.3340  155.3137 H   0  0  0  0  0  0  0  0  0  0  0  0  # atno 10763 bound_to 10752
  154.8506  135.4372  154.1767 H   0  0  0  0  0  0  0  0  0  0  0  0  # atno 10764 bound_to 10752
  153.2743  135.7003  153.7525 H   0  0  0  0  0  0  0  0  0  0  0  0  # atno 10765 bound_to 10752
  141.0135  134.0230  157.3382 H   0  0  0  0  0  0  0  0  0  0  0  0  # atno 11005 bound_to 11000
  144.8055  139.6060  143.7053 LP  0  0  0  0  0  0  0  0  0  0  0  0  # atno 17320 bound_to 7965
  146.2498  139.6175  142.9435 LP  0  0  0  0  0  0  0  0  0  0  0  0  # atno 17321 bound_to 7965
  140.2954  143.3296  152.1022 LP  0  0  0  0  0  0  0  0  0  0  0  0  # atno 17342 bound_to 10162
  139.5022  144.6729  151.6198 LP  0  0  0  0  0  0  0  0  0  0  0  0  # atno 17343 bound_to 10162
  157.1402  131.0294  151.2931 LP  0  0  0  0  0  0  0  0  0  0  0  0  # atno 17370 bound_to 10713
  157.4478  130.7581  149.7125 LP  0  0  0  0  0  0  0  0  0  0  0  0  # atno 17371 bound_to 10713
  139.9103  135.0189  156.7664 LP  0  0  0  0  0  0  0  0  0  0  0  0  # atno 17394 bound_to 11000
  140.6694  133.9573  155.7848 LP  0  0  0  0  0  0  0  0  0  0  0  0  # atno 17395 bound_to 11000

$$$$
