AV-unprocessed.smi:1108|AV-procd|sdf|4788|dock8
  -GOLD-   22720 3333D 1   1.00000     0.00000
 Structure written by MMmdl.
 31 32  0  0  0  0  0  0  0  0  1 V2000
  147.3945  141.3199  156.4839 C   0  0  0  0  0  0  0  0  0  0  0  0
  148.8844  141.0727  156.2105 C   0  0  1  0  0  0  0  0  0  0  0  0
  149.1083  140.5168  154.7873 C   0  0  0  0  0  0  0  0  0  0  0  0
  150.2822  139.6670  154.6929 N   0  0  0  0  0  0  0  0  0  0  0  0
  150.5861  138.7300  153.7276 C   0  0  0  0  0  0  0  0  0  0  0  0
  151.8007  138.1957  154.0487 C   0  0  0  0  0  0  0  0  0  0  0  0
  152.1622  138.8742  155.2461 C   0  0  0  0  0  0  0  0  0  0  0  0
  151.2489  139.7504  155.6322 N   0  0  0  0  0  0  0  0  0  0  0  0
  149.6166  142.3246  156.4017 N   0  0  0  0  0  0  0  0  0  0  0  0
  150.7001  142.4860  157.1758 C   0  0  0  0  0  0  0  0  0  0  0  0
  151.2091  141.5897  157.8490 O   0  0  0  0  0  0  0  0  0  0  0  0
  151.1707  143.7385  157.1139 N   0  0  0  0  0  0  0  0  0  0  0  0
  152.3244  144.2209  157.8016 C   0  0  0  0  0  0  0  0  0  0  0  0
  152.5870  143.6880  159.1935 C   0  0  0  0  0  0  0  0  0  0  0  0
  152.1044  145.1008  159.0128 C   0  0  0  0  0  0  0  0  0  0  0  0
  146.8199  140.3985  156.3835 H   0  0  0  0  0  0  0  0  0  0  0  0
  146.9772  142.0492  155.7887 H   0  0  0  0  0  0  0  0  0  0  0  0
  147.2377  141.6951  157.4957 H   0  0  0  0  0  0  0  0  0  0  0  0
  149.2244  140.3303  156.9351 H   0  0  0  0  0  0  0  0  0  0  0  0
  148.2437  139.9306  154.4726 H   0  0  0  0  0  0  0  0  0  0  0  0
  149.2082  141.3320  154.0693 H   0  0  0  0  0  0  0  0  0  0  0  0
  149.9236  138.5300  152.8984 H   0  0  0  0  0  0  0  0  0  0  0  0
  152.3482  137.4370  153.5096 H   0  0  0  0  0  0  0  0  0  0  0  0
  153.0546  138.7565  155.8429 H   0  0  0  0  0  0  0  0  0  0  0  0
  149.2783  143.1269  155.8912 H   0  0  0  0  0  0  0  0  0  0  0  0
  150.6802  144.4009  156.5312 H   0  0  0  0  0  0  0  0  0  0  0  0
  153.2063  144.4435  157.2027 H   0  0  0  0  0  0  0  0  0  0  0  0
  151.8836  142.9661  159.6044 H   0  0  0  0  0  0  0  0  0  0  0  0
  153.6250  143.5451  159.4873 H   0  0  0  0  0  0  0  0  0  0  0  0
  152.8198  145.9025  159.1852 H   0  0  0  0  0  0  0  0  0  0  0  0
  151.0787  145.3229  159.3014 H   0  0  0  0  0  0  0  0  0  0  0  0
  1  2  1  0  0  0  0
  1 16  1  0  0  0  0
  1 17  1  0  0  0  0
  1 18  1  0  0  0  0
  2  3  1  0  0  0  0
  2  9  1  0  0  0  0
  2 19  1  0  0  0  0
  3  4  1  0  0  0  0
  3 20  1  0  0  0  0
  3 21  1  0  0  0  0
  4  8  1  0  0  0  0
  4  5  1  0  0  0  0
  5  6  2  0  0  0  0
  5 22  1  0  0  0  0
  6  7  1  0  0  0  0
  6 23  1  0  0  0  0
  7  8  2  0  0  0  0
  7 24  1  0  0  0  0
  9 10  1  0  0  0  0
  9 25  1  0  0  0  0
 10 11  2  0  0  0  0
 10 12  1  0  0  0  0
 12 13  1  0  0  0  0
 12 26  1  0  0  0  0
 13 15  1  0  0  0  0
 13 14  1  0  0  0  0
 13 27  1  0  0  0  0
 14 15  1  0  0  0  0
 14 28  1  0  0  0  0
 14 29  1  0  0  0  0
 15 30  1  0  0  0  0
 15 31  1  0  0  0  0
M  END
> <s_m_source_file>
AV-unprocessed.smi

> <i_m_source_file_index>
1108

> <i_lp_mmshare_version>
43012

> <i_f3d_flags>
0

> <s_epik_input>
W0NIMl0xW0NIMl1bQ0hdMVtOSF1DKD1PKVtOSF1bQ0BIXShbQ0gzXSlbQ0gyXW4yW2NIXVtjSF1bY0hdbjI=

> <s_epik_cmdline>
J2VwaWtfcHl0aG9uJywgJy1waCcsICc3LjAnLCAnLXRuJywgJzgnLCAnLW1hJywgJzIwMCcsICctbWV0YWxfYmluZGluZycsICctaW1hZScsICc8aW5maWxlLm1hZT4nLCAnLW9tYWUnLCAnPG91dGZpbGUubWFlPic=

> <r_lp_tautomer_probability>
1

> <r_epik_Ionization_Penalty>
7.55353e-05

> <r_epik_Ionization_Penalty_Charging>
0

> <r_epik_Ionization_Penalty_Neutral>
7.55353e-05

> <r_epik_State_Penalty>
-0

> <r_epik_Charging_Adjusted_Penalty>
0

> <i_epik_Tot_Q>
0

> <i_epik_Tot_abs_Q>
0

> <r_epik_Metal_State_Penalty>
-0

> <b_epik_Metal_Only>
0

> <s_lp_Force_Field>
OPLS_2005

> <r_lp_Energy>
13.7301

> <b_lp_Chiralities_Consistent>
1

> <s_lp_Variant>
AV-unprocessed.smi:1108-2

> <Gold.Version>
5.8.1

> <Gold.Id.Protein>
6NUR|6NUR_protein|mol2

> <Gold.PLP.Fitness>
42.6813

> <Gold.PLP.PLP>
-34.4712

> <Gold.PLP.part.hbond>
-2.0000

> <Gold.PLP.part.metal>
0.0000

> <Gold.PLP.part.buried>
-5.0880

> <Gold.PLP.part.nonpolar>
-27.8789

> <Gold.PLP.part.repulsive>
0.0958

> <Gold.PLP.ligand.clash>
0.0000

> <Gold.PLP.ligand.torsion>
0.9615

> <Gold.PLP.Chemscore.Hbond>
1.8320

> <Gold.PLP.Chemscore.CHOScore>
1.5308

> <Gold.PLP.Chemscore.Metal>
0.0000

> <Gold.Chemscore.Hbonds>
donor molecule, donor type, donor heavy atom, donor atom, acceptor molecule, acceptor atom, score
      L1  H     9    25       P1  8028  1.00
      L1  H    12    26       P1  8028  0.86
      L1  C     5    22       P1  7948  0.70
      L1  C     5    22       P1  7957  0.86

> <Gold.PLP.Chemscore.Internal.Correction>
0.0449

> <Gold.Rescore>
     Score         DG    S(hbond)    S(metal)    S(lipo)     H(rot)  DE(clash)    DE(int)     intcor
     13.53     -16.59       1.88        0.00      78.52       1.71       0.02       3.03       ----

> <Gold.Chemscore.Fitness>
13.5313

> <Gold.Chemscore.DG>
-16.5870

> <Gold.Chemscore.ZeroCoef>
-5.4800

> <Gold.Chemscore.Hbond>
1.8838

> <Gold.Chemscore.Metal>
0.0000

> <Gold.Chemscore.Lipo>
78.5160

> <Gold.Chemscore.Internal_Hbond>
0.0000

> <Gold.Chemscore.DEClash>
0.0247

> <Gold.Chemscore.DEInternal>
3.0310

> <Gold.Chemscore.Rot>
1.7075

> <Gold.Chemscore.Internal.Correction>
   9.000000E+99

> <Gold.Chemscore.Hbonds>
donor molecule, donor type, donor heavy atom, donor atom, acceptor molecule, acceptor atom, score
      L1  H     9    25       P1  8028  0.98
      L1  H    12    26       P1  8028  0.82

> <Gold.Chemscore.Hbond.Weighted>
-6.2919

> <Gold.Chemscore.Metal.Weighted>
-0.0000

> <Gold.Chemscore.Lipo.Weighted>
-9.1864

> <Gold.Chemscore.Internal_Hbond.Weighted>
0.0000

> <Gold.Chemscore.DEClash.Weighted>
0.0247

> <Gold.Chemscore.DEInternal.Weighted>
3.0310

> <Gold.Chemscore.Rot.Weighted>
4.3713

> <Gold.Chemscore.Internal.Correction.Weighted>
   9.000000E+99

> <Gold.Protein.RotatedTorsions>
[ 6907 6896 6895 6894 ] final -106.46 input  -60.11 | X-H torsion
[ 7974 7965 7964 7962 ] final  113.09 input  175.53 | X-H torsion
[ 8008 7997 7996 7995 ] final    2.59 input   59.86 | X-H torsion
[ 10167 10162 10161 10158 ] final  144.98 input  -65.29 | X-H torsion
[ 10718 10713 10712 10709 ] final   27.44 input   66.30 | X-H torsion
[ 10763 10752 10751 10750 ] final  -19.09 input  -60.55 | X-H torsion
[ 11005 11000 10999 10996 ] final  128.37 input  -57.11 | X-H torsion

> <Gold.Protein.ActiveResidues>
 VAL166  LYS551  ARG553  GLY616  TRP617  ASP618  TYR619  PRO620  LYS621  CYS622 
 ASP623  PHE694  ASN695  SER759  ASP760  ASP761  ALA762  ILE779  LEU786  VAL792 
 PHE793  MET794  SER795  GLU796  ALA797  LYS798  CYS799  TRP800  GLU811  SER814 

> <Gold.Protein.RotatedAtoms>
  150.7390  133.9973  159.3626 H   0  0  0  0  0  0  0  0  0  0  0  0  # atno 6907 bound_to 6896
  151.7925  135.0729  160.0398 H   0  0  0  0  0  0  0  0  0  0  0  0  # atno 6908 bound_to 6896
  152.3198  133.5804  159.5773 H   0  0  0  0  0  0  0  0  0  0  0  0  # atno 6909 bound_to 6896
  145.2213  139.2860  143.4216 H   0  0  0  0  0  0  0  0  0  0  0  0  # atno 7974 bound_to 7965
  154.6934  140.2658  155.6790 H   0  0  0  0  0  0  0  0  0  0  0  0  # atno 8008 bound_to 7997
  156.2740  140.2786  156.1444 H   0  0  0  0  0  0  0  0  0  0  0  0  # atno 8009 bound_to 7997
  155.0864  140.0373  157.2645 H   0  0  0  0  0  0  0  0  0  0  0  0  # atno 8010 bound_to 7997
  139.4935  144.5934  151.6633 H   0  0  0  0  0  0  0  0  0  0  0  0  # atno 10167 bound_to 10162
  157.2203  130.6975  149.6267 H   0  0  0  0  0  0  0  0  0  0  0  0  # atno 10718 bound_to 10713
  153.5994  135.7000  153.5390 H   0  0  0  0  0  0  0  0  0  0  0  0  # atno 10763 bound_to 10752
  153.3110  135.4101  155.1335 H   0  0  0  0  0  0  0  0  0  0  0  0  # atno 10764 bound_to 10752
  154.8585  135.3672  154.5529 H   0  0  0  0  0  0  0  0  0  0  0  0  # atno 10765 bound_to 10752
  139.9557  134.9613  156.8991 H   0  0  0  0  0  0  0  0  0  0  0  0  # atno 11005 bound_to 11000
  146.3375  140.2520  142.8599 LP  0  0  0  0  0  0  0  0  0  0  0  0  # atno 17320 bound_to 7965
  144.9762  140.8416  143.5425 LP  0  0  0  0  0  0  0  0  0  0  0  0  # atno 17321 bound_to 7965
  140.5566  144.0337  150.6150 LP  0  0  0  0  0  0  0  0  0  0  0  0  # atno 17342 bound_to 10162
  140.3409  143.3020  152.0589 LP  0  0  0  0  0  0  0  0  0  0  0  0  # atno 17343 bound_to 10162
  155.9683  130.4522  150.5765 LP  0  0  0  0  0  0  0  0  0  0  0  0  # atno 17370 bound_to 10713
  157.3583  131.0745  151.1657 LP  0  0  0  0  0  0  0  0  0  0  0  0  # atno 17371 bound_to 10713
  140.5615  134.0530  155.7400 LP  0  0  0  0  0  0  0  0  0  0  0  0  # atno 17394 bound_to 11000
  141.1228  133.9434  157.2696 LP  0  0  0  0  0  0  0  0  0  0  0  0  # atno 17395 bound_to 11000

$$$$
