AV-unprocessed.smi:242|AV-procd|sdf|1844|dock9
  -GOLD-   2262020463D 1   1.00000     0.00000
 Structure written by MMmdl.
 58 61  0  0  0  0  0  0  0  0  2 V2000
  145.6234  132.5812  150.4073 C   0  0  0  0  0  0  0  0  0  0  0  0
  144.1088  132.7108  150.1525 C   0  0  0  0  0  0  0  0  0  0  0  0
  143.8463  132.7049  148.6340 C   0  0  0  0  0  0  0  0  0  0  0  0
  143.5420  133.9333  150.7898 N   0  3  2  0  0  0  0  0  0  0  0  0
  144.3190  135.1826  150.5930 C   0  0  0  0  0  0  0  0  0  0  0  0
  143.9909  136.0696  151.7916 C   0  0  0  0  0  0  0  0  0  0  0  0
  143.9141  135.0362  152.9104 C   0  0  1  0  0  0  0  0  0  0  0  0
  143.2593  135.4861  154.1440 N   0  0  0  0  0  0  0  0  0  0  0  0
  141.8321  135.7979  154.1525 C   0  0  0  0  0  0  0  0  0  0  0  0
  144.0051  136.0686  155.1214 C   0  0  0  0  0  0  0  0  0  0  0  0
  145.1055  136.7931  154.7834 N   0  0  0  0  0  0  0  0  0  0  0  0
  145.8500  137.3776  155.7261 C   0  0  0  0  0  0  0  0  0  0  0  0
  145.6821  137.3623  157.0489 N   0  0  0  0  0  0  0  0  0  0  0  0
  144.5839  136.6344  157.3997 C   0  0  0  0  0  0  0  0  0  0  0  0
  143.6992  135.9606  156.5098 C   0  0  0  0  0  0  0  0  0  0  0  0
  142.7094  135.3089  157.2371 N   0  0  0  0  0  0  0  0  0  0  0  0
  142.9910  135.5830  158.4810 C   0  0  0  0  0  0  0  0  0  0  0  0
  144.0956  136.3817  158.6699 N   0  0  0  0  0  0  0  0  0  0  0  0
  144.6380  136.8314  159.9428 C   0  0  0  0  0  0  0  0  0  0  0  0
  145.5158  135.7780  160.6730 C   0  0  0  0  0  0  0  0  0  0  0  0
  144.8455  134.5342  160.5958 O   0  0  0  0  0  0  0  0  0  0  0  0
  146.9195  135.5862  160.0603 C   0  0  0  0  0  0  0  0  0  0  0  0
  147.8256  136.7941  160.3541 C   0  0  0  0  0  0  0  0  0  0  0  0
  147.9181  136.9963  161.7602 O   0  0  0  0  0  0  0  0  0  0  0  0
  146.6657  137.2922  162.3695 C   0  0  0  0  0  0  0  0  0  0  0  0
  145.6860  136.1213  162.1660 C   0  0  0  0  0  0  0  0  0  0  0  0
  143.2590  133.8181  152.2446 C   0  0  0  0  0  0  0  0  0  0  0  0
  146.0300  131.7064  149.8988 H   0  0  0  0  0  0  0  0  0  0  0  0
  145.8548  132.4623  151.4658 H   0  0  0  0  0  0  0  0  0  0  0  0
  146.1643  133.4551  150.0422 H   0  0  0  0  0  0  0  0  0  0  0  0
  143.6169  131.8416  150.5918 H   0  0  0  0  0  0  0  0  0  0  0  0
  144.2790  131.8195  148.1670 H   0  0  0  0  0  0  0  0  0  0  0  0
  144.2880  133.5783  148.1531 H   0  0  0  0  0  0  0  0  0  0  0  0
  142.7833  132.6982  148.3952 H   0  0  0  0  0  0  0  0  0  0  0  0
  145.3873  134.9580  150.5982 H   0  0  0  0  0  0  0  0  0  0  0  0
  144.0783  135.6635  149.6444 H   0  0  0  0  0  0  0  0  0  0  0  0
  144.7455  136.8362  151.9694 H   0  0  0  0  0  0  0  0  0  0  0  0
  143.0312  136.5644  151.6397 H   0  0  0  0  0  0  0  0  0  0  0  0
  144.9348  134.7309  153.1473 H   0  0  0  0  0  0  0  0  0  0  0  0
  141.6431  136.7856  154.5757 H   0  0  0  0  0  0  0  0  0  0  0  0
  141.2902  135.0606  154.7450 H   0  0  0  0  0  0  0  0  0  0  0  0
  141.4123  135.7902  153.1470 H   0  0  0  0  0  0  0  0  0  0  0  0
  146.7027  137.9367  155.3702 H   0  0  0  0  0  0  0  0  0  0  0  0
  142.3942  135.2099  159.3006 H   0  0  0  0  0  0  0  0  0  0  0  0
  145.2033  137.7434  159.7532 H   0  0  0  0  0  0  0  0  0  0  0  0
  143.8039  137.1290  160.5801 H   0  0  0  0  0  0  0  0  0  0  0  0
  145.3864  133.9299  160.1110 H   0  0  0  0  0  0  0  0  0  0  0  0
  147.3870  134.7002  160.4925 H   0  0  0  0  0  0  0  0  0  0  0  0
  146.8671  135.3974  158.9885 H   0  0  0  0  0  0  0  0  0  0  0  0
  148.8262  136.6125  159.9621 H   0  0  0  0  0  0  0  0  0  0  0  0
  147.4564  137.6970  159.8665 H   0  0  0  0  0  0  0  0  0  0  0  0
  146.8277  137.4584  163.4344 H   0  0  0  0  0  0  0  0  0  0  0  0
  146.2647  138.2230  161.9672 H   0  0  0  0  0  0  0  0  0  0  0  0
  144.7220  136.3518  162.6212 H   0  0  0  0  0  0  0  0  0  0  0  0
  146.0762  135.2537  162.7006 H   0  0  0  0  0  0  0  0  0  0  0  0
  142.1767  133.8041  152.3711 H   0  0  0  0  0  0  0  0  0  0  0  0
  143.6516  132.9011  152.6854 H   0  0  0  0  0  0  0  0  0  0  0  0
  142.6471  134.0975  150.3512 H   0  0  0  0  0  0  0  0  0  0  0  0
  1  2  1  0  0  0  0
  1 28  1  0  0  0  0
  1 29  1  0  0  0  0
  1 30  1  0  0  0  0
  2  3  1  0  0  0  0
  2  4  1  0  0  0  0
  2 31  1  0  0  0  0
  3 32  1  0  0  0  0
  3 33  1  0  0  0  0
  3 34  1  0  0  0  0
  4 27  1  0  0  0  0
  4  5  1  0  0  0  0
  4 58  1  0  0  0  0
  5  6  1  0  0  0  0
  5 35  1  0  0  0  0
  5 36  1  0  0  0  0
  6  7  1  0  0  0  0
  6 37  1  0  0  0  0
  6 38  1  0  0  0  0
  7  8  1  0  0  0  0
  7 27  1  0  0  0  0
  7 39  1  0  0  0  0
  8  9  1  0  0  0  0
  8 10  1  0  0  0  0
  9 40  1  0  0  0  0
  9 41  1  0  0  0  0
  9 42  1  0  0  0  0
 10 15  1  0  0  0  0
 10 11  2  0  0  0  0
 11 12  1  0  0  0  0
 12 13  2  0  0  0  0
 12 43  1  0  0  0  0
 13 14  1  0  0  0  0
 14 18  1  0  0  0  0
 14 15  2  0  0  0  0
 15 16  1  0  0  0  0
 16 17  2  0  0  0  0
 17 18  1  0  0  0  0
 17 44  1  0  0  0  0
 18 19  1  0  0  0  0
 19 20  1  0  0  0  0
 19 45  1  0  0  0  0
 19 46  1  0  0  0  0
 20 26  1  0  0  0  0
 20 21  1  0  0  0  0
 20 22  1  0  0  0  0
 21 47  1  0  0  0  0
 22 23  1  0  0  0  0
 22 48  1  0  0  0  0
 22 49  1  0  0  0  0
 23 24  1  0  0  0  0
 23 50  1  0  0  0  0
 23 51  1  0  0  0  0
 24 25  1  0  0  0  0
 25 26  1  0  0  0  0
 25 52  1  0  0  0  0
 25 53  1  0  0  0  0
 26 54  1  0  0  0  0
 26 55  1  0  0  0  0
 27 56  1  0  0  0  0
 27 57  1  0  0  0  0
M  CHG  1   4   1
M  END
> <s_m_source_file>
AV-unprocessed.smi

> <i_m_source_file_index>
242

> <i_lp_mmshare_version>
43012

> <i_f3d_flags>
0

> <s_epik_input>
W0NIM11bQ0hdKFtDSDNdKU4xW0NIMl1bQ0gyXVtDQEhdKFtDSDJdMSlOKFtDSDNdKWMobltjSF1uMiljKGMyMyluW2NIXW4zW0NIMl1DNChbT0hdKVtDSDJdW0NIMl1PW0NIMl1bQ0gyXTQ=

> <s_epik_cmdline>
J2VwaWtfcHl0aG9uJywgJy1waCcsICc3LjAnLCAnLXRuJywgJzgnLCAnLW1hJywgJzIwMCcsICctbWV0YWxfYmluZGluZycsICctaW1hZScsICc8aW5maWxlLm1hZT4nLCAnLW9tYWUnLCAnPG91dGZpbGUubWFlPic=

> <r_lp_tautomer_probability>
1

> <r_epik_Ionization_Penalty>
0.000825961

> <r_epik_Ionization_Penalty_Charging>
0.00034898

> <r_epik_Ionization_Penalty_Neutral>
0.000476981

> <r_epik_State_Penalty>
-0

> <r_epik_Charging_Adjusted_Penalty>
0.00034898

> <i_epik_Tot_Q>
1

> <i_epik_Tot_abs_Q>
1

> <r_epik_Metal_State_Penalty>
-0

> <b_epik_Metal_Only>
0

> <s_lp_Force_Field>
OPLS_2005

> <r_lp_Energy>
46.8911

> <b_lp_Chiralities_Consistent>
1

> <s_lp_Variant>
AV-unprocessed.smi:242-1

> <Gold.Version>
5.8.1

> <Gold.Id.Protein>
6NUR|6NUR_protein|mol2

> <Gold.PLP.Fitness>
41.5857

> <Gold.PLP.PLP>
-34.9223

> <Gold.PLP.part.hbond>
-3.1800

> <Gold.PLP.part.metal>
0.0000

> <Gold.PLP.part.buried>
-5.7302

> <Gold.PLP.part.nonpolar>
-25.5653

> <Gold.PLP.part.repulsive>
0.0559

> <Gold.PLP.ligand.clash>
0.0000

> <Gold.PLP.ligand.torsion>
1.9207

> <Gold.PLP.Chemscore.Hbond>
3.2574

> <Gold.PLP.Chemscore.CHOScore>
0.0000

> <Gold.PLP.Chemscore.Metal>
0.0000

> <Gold.Chemscore.Hbonds>
donor molecule, donor type, donor heavy atom, donor atom, acceptor molecule, acceptor atom, score
      L1  H     4    58       P1 10186  2.00
      P1  H  6931  6943       L1    24  1.00
      P1  H 11000 11005       L1    16  0.37

> <Gold.PLP.Chemscore.Internal.Correction>
0.7326

> <Gold.Rescore>
     Score         DG    S(hbond)    S(metal)    S(lipo)     H(rot)  DE(clash)    DE(int)     intcor
     13.44     -16.03       1.83        0.00      86.70       2.22       0.10       2.50       ----

> <Gold.Chemscore.Fitness>
13.4376

> <Gold.Chemscore.DG>
-16.0327

> <Gold.Chemscore.ZeroCoef>
-5.4800

> <Gold.Chemscore.Hbond>
1.8265

> <Gold.Chemscore.Metal>
0.0000

> <Gold.Chemscore.Lipo>
86.7007

> <Gold.Chemscore.Internal_Hbond>
0.0000

> <Gold.Chemscore.DEClash>
0.0974

> <Gold.Chemscore.DEInternal>
2.4977

> <Gold.Chemscore.Rot>
2.2234

> <Gold.Chemscore.Internal.Correction>
   9.000000E+99

> <Gold.Chemscore.Hbonds>
donor molecule, donor type, donor heavy atom, donor atom, acceptor molecule, acceptor atom, score
      L1  H     4    58       P1 10186  0.91
      P1  H  6931  6943       L1    24  0.38
      P1  H 11000 11005       L1    16  0.20

> <Gold.Chemscore.Hbond.Weighted>
-6.1007

> <Gold.Chemscore.Metal.Weighted>
-0.0000

> <Gold.Chemscore.Lipo.Weighted>
-10.1440

> <Gold.Chemscore.Internal_Hbond.Weighted>
0.0000

> <Gold.Chemscore.DEClash.Weighted>
0.0974

> <Gold.Chemscore.DEInternal.Weighted>
2.4977

> <Gold.Chemscore.Rot.Weighted>
5.6919

> <Gold.Chemscore.Internal.Correction.Weighted>
   9.000000E+99

> <Gold.Protein.RotatedTorsions>
[ 6907 6896 6895 6894 ] final  -38.06 input  -60.11 | X-H torsion
[ 7974 7965 7964 7962 ] final   80.24 input  175.53 | X-H torsion
[ 8008 7997 7996 7995 ] final -106.06 input   59.86 | X-H torsion
[ 10167 10162 10161 10158 ] final -122.75 input  -65.29 | X-H torsion
[ 10718 10713 10712 10709 ] final  154.14 input   66.30 | X-H torsion
[ 10763 10752 10751 10750 ] final   97.49 input  -60.55 | X-H torsion
[ 11005 11000 10999 10996 ] final -116.27 input  -57.11 | X-H torsion

> <Gold.Protein.ActiveResidues>
 VAL166  LYS551  ARG553  GLY616  TRP617  ASP618  TYR619  PRO620  LYS621  CYS622 
 ASP623  PHE694  ASN695  SER759  ASP760  ASP761  ALA762  ILE779  LEU786  VAL792 
 PHE793  MET794  SER795  GLU796  ALA797  LYS798  CYS799  TRP800  GLU811  SER814 

> <Gold.Protein.RotatedAtoms>
  151.0070  134.9367  159.7985 H   0  0  0  0  0  0  0  0  0  0  0  0  # atno 6907 bound_to 6896
  152.5293  134.3078  159.9112 H   0  0  0  0  0  0  0  0  0  0  0  0  # atno 6908 bound_to 6896
  151.3084  133.4049  159.2679 H   0  0  0  0  0  0  0  0  0  0  0  0  # atno 6909 bound_to 6896
  145.6538  139.2454  143.1961 H   0  0  0  0  0  0  0  0  0  0  0  0  # atno 7974 bound_to 7965
  154.9090  140.0410  157.1935 H   0  0  0  0  0  0  0  0  0  0  0  0  # atno 8008 bound_to 7997
  154.8367  140.2908  155.5665 H   0  0  0  0  0  0  0  0  0  0  0  0  # atno 8009 bound_to 7997
  156.2990  140.2490  156.3302 H   0  0  0  0  0  0  0  0  0  0  0  0  # atno 8010 bound_to 7997
  140.0109  143.5442  152.2263 H   0  0  0  0  0  0  0  0  0  0  0  0  # atno 10167 bound_to 10162
  157.2355  131.0748  151.1826 H   0  0  0  0  0  0  0  0  0  0  0  0  # atno 10718 bound_to 10713
  153.2776  135.4181  155.1047 H   0  0  0  0  0  0  0  0  0  0  0  0  # atno 10763 bound_to 10752
  154.8478  135.3487  154.6157 H   0  0  0  0  0  0  0  0  0  0  0  0  # atno 10764 bound_to 10752
  153.6578  135.7050  153.5245 H   0  0  0  0  0  0  0  0  0  0  0  0  # atno 10765 bound_to 10752
  141.0433  133.9801  157.2959 H   0  0  0  0  0  0  0  0  0  0  0  0  # atno 11005 bound_to 11000
  146.1182  140.7343  142.9470 LP  0  0  0  0  0  0  0  0  0  0  0  0  # atno 17320 bound_to 7965
  144.7113  140.4049  143.7078 LP  0  0  0  0  0  0  0  0  0  0  0  0  # atno 17321 bound_to 7965
  139.6205  144.7628  151.2750 LP  0  0  0  0  0  0  0  0  0  0  0  0  # atno 17342 bound_to 10162
  140.7381  143.6657  150.8125 LP  0  0  0  0  0  0  0  0  0  0  0  0  # atno 17343 bound_to 10162
  157.3433  130.7044  149.6395 LP  0  0  0  0  0  0  0  0  0  0  0  0  # atno 17370 bound_to 10713
  155.9673  130.4273  150.4740 LP  0  0  0  0  0  0  0  0  0  0  0  0  # atno 17371 bound_to 10713
  139.9292  135.0200  156.8343 LP  0  0  0  0  0  0  0  0  0  0  0  0  # atno 17394 bound_to 11000
  140.6193  134.0008  155.7611 LP  0  0  0  0  0  0  0  0  0  0  0  0  # atno 17395 bound_to 11000

$$$$
