AV-unprocessed.smi:1961|AV-procd|sdf|7918|dock5
  -GOLD-   2272010 83D 1   1.00000     0.00000
 Structure written by MMmdl.
 36 37  0  0  0  0  0  0  0  0  1 V2000
  148.1604  128.5926  152.7634 C   0  0  0  0  0  0  0  0  0  0  0  0
  147.2279  129.7572  153.1273 C   0  0  0  0  0  0  0  0  0  0  0  0
  146.1992  130.0709  152.0306 C   0  0  0  0  0  0  0  0  0  0  0  0
  147.9857  130.9756  153.5556 C   0  0  0  0  0  0  0  0  0  0  0  0
  148.8779  130.9662  154.5553 N   0  0  0  0  0  0  0  0  0  0  0  0
  149.4516  132.2125  154.7636 N   0  0  0  0  0  0  0  0  0  0  0  0
  148.9752  133.1306  153.9118 C   0  0  0  0  0  0  0  0  0  0  0  0
  149.3918  134.4882  153.9001 N   0  0  0  0  0  0  0  0  0  0  0  0
  150.2757  135.0959  154.7110 C   0  0  0  0  0  0  0  0  0  0  0  0
  150.8798  134.5568  155.6387 O   0  0  0  0  0  0  0  0  0  0  0  0
  150.4257  136.3873  154.3836 N   0  0  0  0  0  0  0  0  0  0  0  0
  151.3153  137.3243  155.0620 C   0  0  0  0  0  0  0  0  0  0  0  0
  150.9830  138.7879  154.7230 C   0  0  2  0  0  0  0  0  0  0  0  0
  151.5846  139.8214  155.6782 C   0  0  0  0  0  0  0  0  0  0  0  0
  150.5931  140.9763  155.6415 C   0  0  0  0  0  0  0  0  0  0  0  0
  149.4068  140.4298  154.8438 C   0  0  0  0  0  0  0  0  0  0  0  0
  149.5898  139.0222  154.8469 O   0  0  0  0  0  0  0  0  0  0  0  0
  147.7721  132.5409  152.7781 S   0  0  0  0  0  0  0  0  0  0  0  0
  148.8202  128.3436  153.5951 H   0  0  0  0  0  0  0  0  0  0  0  0
  148.7852  128.8378  151.9038 H   0  0  0  0  0  0  0  0  0  0  0  0
  147.5906  127.6970  152.5144 H   0  0  0  0  0  0  0  0  0  0  0  0
  146.6567  129.4299  153.9970 H   0  0  0  0  0  0  0  0  0  0  0  0
  145.5010  130.8424  152.3569 H   0  0  0  0  0  0  0  0  0  0  0  0
  145.6163  129.1861  151.7734 H   0  0  0  0  0  0  0  0  0  0  0  0
  146.6851  130.4240  151.1203 H   0  0  0  0  0  0  0  0  0  0  0  0
  148.9750  135.0622  153.1822 H   0  0  0  0  0  0  0  0  0  0  0  0
  149.8903  136.7494  153.6084 H   0  0  0  0  0  0  0  0  0  0  0  0
  151.2700  137.1677  156.1410 H   0  0  0  0  0  0  0  0  0  0  0  0
  152.3384  137.0963  154.7617 H   0  0  0  0  0  0  0  0  0  0  0  0
  151.2787  139.0162  153.6971 H   0  0  0  0  0  0  0  0  0  0  0  0
  151.6376  139.4198  156.6912 H   0  0  0  0  0  0  0  0  0  0  0  0
  152.5914  140.1185  155.3831 H   0  0  0  0  0  0  0  0  0  0  0  0
  150.2928  141.2506  156.6533 H   0  0  0  0  0  0  0  0  0  0  0  0
  151.0128  141.8624  155.1641 H   0  0  0  0  0  0  0  0  0  0  0  0
  148.4451  140.7084  155.2750 H   0  0  0  0  0  0  0  0  0  0  0  0
  149.4368  140.7918  153.8147 H   0  0  0  0  0  0  0  0  0  0  0  0
  1  2  1  0  0  0  0
  1 19  1  0  0  0  0
  1 20  1  0  0  0  0
  1 21  1  0  0  0  0
  2  3  1  0  0  0  0
  2  4  1  0  0  0  0
  2 22  1  0  0  0  0
  3 23  1  0  0  0  0
  3 24  1  0  0  0  0
  3 25  1  0  0  0  0
  4 18  1  0  0  0  0
  4  5  2  0  0  0  0
  5  6  1  0  0  0  0
  6  7  2  0  0  0  0
  7  8  1  0  0  0  0
  7 18  1  0  0  0  0
  8  9  1  0  0  0  0
  8 26  1  0  0  0  0
  9 10  2  0  0  0  0
  9 11  1  0  0  0  0
 11 12  1  0  0  0  0
 11 27  1  0  0  0  0
 12 13  1  0  0  0  0
 12 28  1  0  0  0  0
 12 29  1  0  0  0  0
 13 17  1  0  0  0  0
 13 14  1  0  0  0  0
 13 30  1  0  0  0  0
 14 15  1  0  0  0  0
 14 31  1  0  0  0  0
 14 32  1  0  0  0  0
 15 16  1  0  0  0  0
 15 33  1  0  0  0  0
 15 34  1  0  0  0  0
 16 17  1  0  0  0  0
 16 35  1  0  0  0  0
 16 36  1  0  0  0  0
M  END
> <s_m_source_file>
AV-unprocessed.smi

> <i_m_source_file_index>
1961

> <i_lp_mmshare_version>
43012

> <i_f3d_flags>
0

> <s_epik_input>
W0NIM11bQ0hdKFtDSDNdKWMxbm5jKHMxKVtOSF1DKD1PKVtOSF1bQ0gyXVtDQEBIXTJbQ0gyXVtDSDJdW0NIMl1PMg==

> <s_epik_cmdline>
J2VwaWtfcHl0aG9uJywgJy1waCcsICc3LjAnLCAnLXRuJywgJzgnLCAnLW1hJywgJzIwMCcsICctbWV0YWxfYmluZGluZycsICctaW1hZScsICc8aW5maWxlLm1hZT4nLCAnLW9tYWUnLCAnPG91dGZpbGUubWFlPic=

> <r_lp_tautomer_probability>
1

> <r_epik_Ionization_Penalty>
0.000505257

> <r_epik_Ionization_Penalty_Charging>
0

> <r_epik_Ionization_Penalty_Neutral>
0.000505257

> <r_epik_State_Penalty>
-0

> <r_epik_Charging_Adjusted_Penalty>
0

> <i_epik_Tot_Q>
0

> <i_epik_Tot_abs_Q>
0

> <r_epik_Metal_State_Penalty>
0.219912

> <b_epik_Metal_Only>
0

> <s_lp_Force_Field>
OPLS_2005

> <r_lp_Energy>
10.186

> <b_lp_Chiralities_Consistent>
1

> <s_lp_Variant>
AV-unprocessed.smi:1961-1

> <Gold.Version>
5.8.1

> <Gold.Id.Protein>
6NUR|6NUR_protein|mol2

> <Gold.PLP.Fitness>
37.2920

> <Gold.PLP.PLP>
-32.0138

> <Gold.PLP.part.hbond>
-3.1388

> <Gold.PLP.part.metal>
0.0000

> <Gold.PLP.part.buried>
-2.5320

> <Gold.PLP.part.nonpolar>
-26.7327

> <Gold.PLP.part.repulsive>
0.3029

> <Gold.PLP.ligand.clash>
0.0000

> <Gold.PLP.ligand.torsion>
0.2454

> <Gold.PLP.Chemscore.Hbond>
1.8960

> <Gold.PLP.Chemscore.CHOScore>
0.0000

> <Gold.PLP.Chemscore.Metal>
0.0000

> <Gold.Chemscore.Hbonds>
donor molecule, donor type, donor heavy atom, donor atom, acceptor molecule, acceptor atom, score
      L1  H     8    26       P1  7948  1.00
      L1  H    11    27       P1  7948  0.86

> <Gold.PLP.Chemscore.Internal.Correction>
0.0810

> <Gold.Rescore>
     Score         DG    S(hbond)    S(metal)    S(lipo)     H(rot)  DE(clash)    DE(int)     intcor
     12.49     -14.04       1.38        0.00      65.40       1.45       0.06       1.50       ----

> <Gold.Chemscore.Fitness>
12.4879

> <Gold.Chemscore.DG>
-14.0419

> <Gold.Chemscore.ZeroCoef>
-5.4800

> <Gold.Chemscore.Hbond>
1.3810

> <Gold.Chemscore.Metal>
0.0000

> <Gold.Chemscore.Lipo>
65.3954

> <Gold.Chemscore.Internal_Hbond>
0.0000

> <Gold.Chemscore.DEClash>
0.0554

> <Gold.Chemscore.DEInternal>
1.4986

> <Gold.Chemscore.Rot>
1.4461

> <Gold.Chemscore.Internal.Correction>
   9.000000E+99

> <Gold.Chemscore.Hbonds>
donor molecule, donor type, donor heavy atom, donor atom, acceptor molecule, acceptor atom, score
      L1  H     8    26       P1  7948  0.25
      L1  H    11    27       P1  7948  0.28

> <Gold.Chemscore.Hbond.Weighted>
-4.6126

> <Gold.Chemscore.Metal.Weighted>
-0.0000

> <Gold.Chemscore.Lipo.Weighted>
-7.6513

> <Gold.Chemscore.Internal_Hbond.Weighted>
0.0000

> <Gold.Chemscore.DEClash.Weighted>
0.0554

> <Gold.Chemscore.DEInternal.Weighted>
1.4986

> <Gold.Chemscore.Rot.Weighted>
3.7019

> <Gold.Chemscore.Internal.Correction.Weighted>
   9.000000E+99

> <Gold.Protein.RotatedTorsions>
[ 6907 6896 6895 6894 ] final -146.23 input  -60.11 | X-H torsion
[ 7974 7965 7964 7962 ] final  -71.60 input  175.53 | X-H torsion
[ 8008 7997 7996 7995 ] final -105.24 input   59.86 | X-H torsion
[ 10167 10162 10161 10158 ] final   44.46 input  -65.29 | X-H torsion
[ 10718 10713 10712 10709 ] final   76.88 input   66.30 | X-H torsion
[ 10763 10752 10751 10750 ] final -125.44 input  -60.55 | X-H torsion
[ 11005 11000 10999 10996 ] final    0.31 input  -57.11 | X-H torsion

> <Gold.Protein.ActiveResidues>
 VAL166  LYS551  ARG553  GLY616  TRP617  ASP618  TYR619  PRO620  LYS621  CYS622 
 ASP623  PHE694  ASN695  SER759  ASP760  ASP761  ALA762  ILE779  LEU786  VAL792 
 PHE793  MET794  SER795  GLU796  ALA797  LYS798  CYS799  TRP800  GLU811  SER814 

> <Gold.Protein.RotatedAtoms>
  151.1388  133.4986  159.2597 H   0  0  0  0  0  0  0  0  0  0  0  0  # atno 6907 bound_to 6896
  151.1678  135.0303  159.8748 H   0  0  0  0  0  0  0  0  0  0  0  0  # atno 6908 bound_to 6896
  152.5462  134.1254  159.8470 H   0  0  0  0  0  0  0  0  0  0  0  0  # atno 6909 bound_to 6896
  145.6760  140.9204  143.0857 H   0  0  0  0  0  0  0  0  0  0  0  0  # atno 7974 bound_to 7965
  154.8970  140.0414  157.1871 H   0  0  0  0  0  0  0  0  0  0  0  0  # atno 8008 bound_to 7997
  154.8483  140.2925  155.5594 H   0  0  0  0  0  0  0  0  0  0  0  0  # atno 8009 bound_to 7997
  156.2995  140.2469  156.3437 H   0  0  0  0  0  0  0  0  0  0  0  0  # atno 8010 bound_to 7997
  140.3341  144.2552  150.6164 H   0  0  0  0  0  0  0  0  0  0  0  0  # atno 10167 bound_to 10162
  157.6690  130.9795  150.1561 H   0  0  0  0  0  0  0  0  0  0  0  0  # atno 10718 bound_to 10713
  154.8736  135.4029  154.3268 H   0  0  0  0  0  0  0  0  0  0  0  0  # atno 10763 bound_to 10752
  153.4088  135.7020  153.6379 H   0  0  0  0  0  0  0  0  0  0  0  0  # atno 10764 bound_to 10752
  153.5090  135.3711  155.2548 H   0  0  0  0  0  0  0  0  0  0  0  0  # atno 10765 bound_to 10752
  140.6280  133.9601  155.8259 H   0  0  0  0  0  0  0  0  0  0  0  0  # atno 11005 bound_to 11000
  144.7041  139.8635  143.7435 LP  0  0  0  0  0  0  0  0  0  0  0  0  # atno 17320 bound_to 7965
  146.1005  139.4000  143.0350 LP  0  0  0  0  0  0  0  0  0  0  0  0  # atno 17321 bound_to 7965
  140.5370  143.2231  151.8146 LP  0  0  0  0  0  0  0  0  0  0  0  0  # atno 17342 bound_to 10162
  139.4851  144.4648  151.9497 LP  0  0  0  0  0  0  0  0  0  0  0  0  # atno 17343 bound_to 10162
  156.2348  130.3685  149.8403 LP  0  0  0  0  0  0  0  0  0  0  0  0  # atno 17370 bound_to 10713
  156.6220  130.8630  151.3477 LP  0  0  0  0  0  0  0  0  0  0  0  0  # atno 17371 bound_to 10713
  141.0696  134.0226  157.3545 LP  0  0  0  0  0  0  0  0  0  0  0  0  # atno 17394 bound_to 11000
  139.9127  135.0192  156.7758 LP  0  0  0  0  0  0  0  0  0  0  0  0  # atno 17395 bound_to 11000

$$$$
