AV-unprocessed.smi:524|AV-procd|sdf|2806|dock5
  -GOLD-   2262023283D 1   1.00000     0.00000
 Structure written by MMmdl.
 42 44  0  0  0  0  0  0  0  0  2 V2000
  155.8982  139.8742  163.0294 C   0  0  0  0  0  0  0  0  0  0  0  0
  154.6735  139.3656  162.5336 O   0  0  0  0  0  0  0  0  0  0  0  0
  154.4176  139.7636  161.1965 C   0  0  0  0  0  0  0  0  0  0  0  0
  152.9294  139.5656  160.8778 C   0  0  0  0  0  0  0  0  0  0  0  0
  152.6426  139.7636  159.4574 N   0  0  0  0  0  0  0  0  0  0  0  0
  152.4620  140.9297  158.7752 C   0  0  0  0  0  0  0  0  0  0  0  0
  152.5725  142.1858  159.3775 N   0  0  0  0  0  0  0  0  0  0  0  0
  152.1436  143.4263  158.7313 C   0  0  0  0  0  0  0  0  0  0  0  0
  151.2757  144.2845  159.6696 C   0  0  0  0  0  0  0  0  0  0  0  0
  152.0291  144.6063  160.9673 C   0  0  0  0  0  0  0  0  0  0  0  0
  152.5693  143.3130  161.5921 C   0  0  0  0  0  0  0  0  0  0  0  0
  153.3784  142.5135  160.5546 C   0  0  0  0  0  0  0  0  0  0  0  0
  152.1322  140.7742  157.4910 N   0  0  0  0  0  0  0  0  0  0  0  0
  152.1276  139.3980  157.3315 C   0  0  0  0  0  0  0  0  0  0  0  0
  152.4220  138.7672  158.4994 C   0  0  0  0  0  0  0  0  0  0  0  0
  152.4544  137.2947  158.6512 C   0  0  0  0  0  0  0  0  0  0  0  0
  152.6981  136.7718  159.7367 O   0  0  0  0  0  0  0  0  0  0  0  0
  152.1836  136.6467  157.4742 N   0  5  0  0  0  0  0  0  0  0  0  0
  151.8899  137.2460  156.2683 C   0  0  0  0  0  0  0  0  0  0  0  0
  151.6555  136.5867  155.2547 O   0  0  0  0  0  0  0  0  0  0  0  0
  151.8524  138.6126  156.1789 N   0  0  0  0  0  0  0  0  0  0  0  0
  151.5326  139.2772  154.9123 C   0  0  0  0  0  0  0  0  0  0  0  0
  156.0476  139.5322  164.0535 H   0  0  0  0  0  0  0  0  0  0  0  0
  155.8978  140.9649  163.0351 H   0  0  0  0  0  0  0  0  0  0  0  0
  156.7410  139.5258  162.4315 H   0  0  0  0  0  0  0  0  0  0  0  0
  154.6861  140.8124  161.0624 H   0  0  0  0  0  0  0  0  0  0  0  0
  155.0309  139.1794  160.5087 H   0  0  0  0  0  0  0  0  0  0  0  0
  152.6224  138.5758  161.1964 H   0  0  0  0  0  0  0  0  0  0  0  0
  152.3166  140.2457  161.4672 H   0  0  0  0  0  0  0  0  0  0  0  0
  153.0216  143.9865  158.4073 H   0  0  0  0  0  0  0  0  0  0  0  0
  151.5760  143.1910  157.8304 H   0  0  0  0  0  0  0  0  0  0  0  0
  150.9828  145.2074  159.1686 H   0  0  0  0  0  0  0  0  0  0  0  0
  150.3530  143.7520  159.9026 H   0  0  0  0  0  0  0  0  0  0  0  0
  152.8581  145.2813  160.7508 H   0  0  0  0  0  0  0  0  0  0  0  0
  151.3757  145.1255  161.6689 H   0  0  0  0  0  0  0  0  0  0  0  0
  153.1939  143.5468  162.4545 H   0  0  0  0  0  0  0  0  0  0  0  0
  151.7389  142.7112  161.9624 H   0  0  0  0  0  0  0  0  0  0  0  0
  153.7932  141.6090  160.9981 H   0  0  0  0  0  0  0  0  0  0  0  0
  154.2403  143.0996  160.2332 H   0  0  0  0  0  0  0  0  0  0  0  0
  152.2288  138.9704  154.1303 H   0  0  0  0  0  0  0  0  0  0  0  0
  151.5834  140.3635  154.9821 H   0  0  0  0  0  0  0  0  0  0  0  0
  150.5231  139.0172  154.5916 H   0  0  0  0  0  0  0  0  0  0  0  0
  1  2  1  0  0  0  0
  1 23  1  0  0  0  0
  1 24  1  0  0  0  0
  1 25  1  0  0  0  0
  2  3  1  0  0  0  0
  3  4  1  0  0  0  0
  3 26  1  0  0  0  0
  3 27  1  0  0  0  0
  4  5  1  0  0  0  0
  4 28  1  0  0  0  0
  4 29  1  0  0  0  0
  5 15  1  0  0  0  0
  5  6  1  0  0  0  0
  6  7  1  0  0  0  0
  6 13  2  0  0  0  0
  7 12  1  0  0  0  0
  7  8  1  0  0  0  0
  8  9  1  0  0  0  0
  8 30  1  0  0  0  0
  8 31  1  0  0  0  0
  9 10  1  0  0  0  0
  9 32  1  0  0  0  0
  9 33  1  0  0  0  0
 10 11  1  0  0  0  0
 10 34  1  0  0  0  0
 10 35  1  0  0  0  0
 11 12  1  0  0  0  0
 11 36  1  0  0  0  0
 11 37  1  0  0  0  0
 12 38  1  0  0  0  0
 12 39  1  0  0  0  0
 13 14  1  0  0  0  0
 14 21  1  0  0  0  0
 14 15  2  0  0  0  0
 15 16  1  0  0  0  0
 16 17  2  0  0  0  0
 16 18  1  0  0  0  0
 18 19  1  0  0  0  0
 19 20  2  0  0  0  0
 19 21  1  0  0  0  0
 21 22  1  0  0  0  0
 22 40  1  0  0  0  0
 22 41  1  0  0  0  0
 22 42  1  0  0  0  0
M  CHG  1  18  -1
M  END
> <s_m_source_file>
AV-unprocessed.smi

> <i_m_source_file_index>
524

> <i_lp_mmshare_version>
43012

> <i_f3d_flags>
0

> <s_epik_input>
W0NIM11uMWMoPU8pW25IXWMoPU8pYyhjMTIpbihbQ0gyXVtDSDJdT1tDSDNdKWMobjIpTjNbQ0gyXVtDSDJdW0NIMl1bQ0gyXVtDSDJdMw==

> <s_epik_cmdline>
J2VwaWtfcHl0aG9uJywgJy1waCcsICc3LjAnLCAnLXRuJywgJzgnLCAnLW1hJywgJzIwMCcsICctbWV0YWxfYmluZGluZycsICctaW1hZScsICc8aW5maWxlLm1hZT4nLCAnLW9tYWUnLCAnPG91dGZpbGUubWFlPic=

> <r_lp_tautomer_probability>
1

> <r_epik_Ionization_Penalty>
5.09461

> <r_epik_Ionization_Penalty_Charging>
0.078064

> <r_epik_Ionization_Penalty_Neutral>
5.01654

> <r_epik_State_Penalty>
5.01281

> <r_epik_Charging_Adjusted_Penalty>
5.09087

> <i_epik_Tot_Q>
-1

> <i_epik_Tot_abs_Q>
1

> <r_epik_Metal_State_Penalty>
1.12909

> <b_epik_Metal_Only>
1

> <s_lp_Force_Field>
OPLS_2005

> <r_lp_Energy>
41.0117

> <b_lp_Chiralities_Consistent>
1

> <s_lp_Variant>
AV-unprocessed.smi:524-2

> <Gold.Version>
5.8.1

> <Gold.Id.Protein>
6NUR|6NUR_protein|mol2

> <Gold.PLP.Fitness>
42.8232

> <Gold.PLP.PLP>
-37.5106

> <Gold.PLP.part.hbond>
-2.0000

> <Gold.PLP.part.metal>
0.0000

> <Gold.PLP.part.buried>
-3.7954

> <Gold.PLP.part.nonpolar>
-31.6595

> <Gold.PLP.part.repulsive>
0.1124

> <Gold.PLP.ligand.clash>
0.0218

> <Gold.PLP.ligand.torsion>
0.5246

> <Gold.PLP.Chemscore.Hbond>
2.0000

> <Gold.PLP.Chemscore.CHOScore>
0.0000

> <Gold.PLP.Chemscore.Metal>
0.0000

> <Gold.Chemscore.Hbonds>
donor molecule, donor type, donor heavy atom, donor atom, acceptor molecule, acceptor atom, score
      P1  H  6896  6908       L1    17  1.00
      P1  H 10752 10765       L1    20  1.00

> <Gold.PLP.Chemscore.Internal.Correction>
0.3836

> <Gold.Rescore>
     Score         DG    S(hbond)    S(metal)    S(lipo)     H(rot)  DE(clash)    DE(int)     intcor
     15.63     -17.51       1.72        0.00      85.73       1.46       0.00       1.87       ----

> <Gold.Chemscore.Fitness>
15.6346

> <Gold.Chemscore.DG>
-17.5066

> <Gold.Chemscore.ZeroCoef>
-5.4800

> <Gold.Chemscore.Hbond>
1.7196

> <Gold.Chemscore.Metal>
0.0000

> <Gold.Chemscore.Lipo>
85.7326

> <Gold.Chemscore.Internal_Hbond>
0.0000

> <Gold.Chemscore.DEClash>
0.0038

> <Gold.Chemscore.DEInternal>
1.8682

> <Gold.Chemscore.Rot>
1.4639

> <Gold.Chemscore.Internal.Correction>
   9.000000E+99

> <Gold.Chemscore.Hbonds>
donor molecule, donor type, donor heavy atom, donor atom, acceptor molecule, acceptor atom, score
      P1  H  6896  6908       L1    17  0.96
      P1  H 10752 10765       L1    20  0.74

> <Gold.Chemscore.Hbond.Weighted>
-5.7433

> <Gold.Chemscore.Metal.Weighted>
-0.0000

> <Gold.Chemscore.Lipo.Weighted>
-10.0307

> <Gold.Chemscore.Internal_Hbond.Weighted>
0.0000

> <Gold.Chemscore.DEClash.Weighted>
0.0038

> <Gold.Chemscore.DEInternal.Weighted>
1.8682

> <Gold.Chemscore.Rot.Weighted>
3.7475

> <Gold.Chemscore.Internal.Correction.Weighted>
   9.000000E+99

> <Gold.Protein.RotatedTorsions>
[ 6907 6896 6895 6894 ] final  -93.47 input  -60.11 | X-H torsion
[ 7974 7965 7964 7962 ] final  -13.21 input  175.53 | X-H torsion
[ 8008 7997 7996 7995 ] final -140.39 input   59.86 | X-H torsion
[ 10167 10162 10161 10158 ] final   -4.03 input  -65.29 | X-H torsion
[ 10718 10713 10712 10709 ] final -154.19 input   66.30 | X-H torsion
[ 10763 10752 10751 10750 ] final -162.18 input  -60.55 | X-H torsion
[ 11005 11000 10999 10996 ] final   92.84 input  -57.11 | X-H torsion

> <Gold.Protein.ActiveResidues>
 VAL166  LYS551  ARG553  GLY616  TRP617  ASP618  TYR619  PRO620  LYS621  CYS622 
 ASP623  PHE694  ASN695  SER759  ASP760  ASP761  ALA762  ILE779  LEU786  VAL792 
 PHE793  MET794  SER795  GLU796  ALA797  LYS798  CYS799  TRP800  GLU811  SER814 

> <Gold.Protein.RotatedAtoms>
  150.6923  134.1962  159.4303 H   0  0  0  0  0  0  0  0  0  0  0  0  # atno 6907 bound_to 6896
  151.9930  134.9966  160.0571 H   0  0  0  0  0  0  0  0  0  0  0  0  # atno 6908 bound_to 6896
  152.1649  133.4571  159.4917 H   0  0  0  0  0  0  0  0  0  0  0  0  # atno 6909 bound_to 6896
  146.2123  140.3170  142.8387 H   0  0  0  0  0  0  0  0  0  0  0  0  # atno 7974 bound_to 7965
  155.4605  140.0545  157.2991 H   0  0  0  0  0  0  0  0  0  0  0  0  # atno 8008 bound_to 7997
  154.4739  140.2052  155.9881 H   0  0  0  0  0  0  0  0  0  0  0  0  # atno 8009 bound_to 7997
  156.1101  140.3205  155.8065 H   0  0  0  0  0  0  0  0  0  0  0  0  # atno 8010 bound_to 7997
  140.6912  143.6471  150.8383 H   0  0  0  0  0  0  0  0  0  0  0  0  # atno 10167 bound_to 10162
  156.4960  130.8369  151.2590 H   0  0  0  0  0  0  0  0  0  0  0  0  # atno 10718 bound_to 10713
  154.7237  135.3031  154.9006 H   0  0  0  0  0  0  0  0  0  0  0  0  # atno 10763 bound_to 10752
  153.9870  135.6723  153.4756 H   0  0  0  0  0  0  0  0  0  0  0  0  # atno 10764 bound_to 10752
  153.0856  135.4986  154.8508 H   0  0  0  0  0  0  0  0  0  0  0  0  # atno 10765 bound_to 10752
  139.8818  134.8756  156.3631 H   0  0  0  0  0  0  0  0  0  0  0  0  # atno 11005 bound_to 11000
  144.8947  140.7568  143.5904 LP  0  0  0  0  0  0  0  0  0  0  0  0  # atno 17320 bound_to 7965
  145.3094  139.1823  143.4647 LP  0  0  0  0  0  0  0  0  0  0  0  0  # atno 17321 bound_to 7965
  140.0184  143.5569  152.2811 LP  0  0  0  0  0  0  0  0  0  0  0  0  # atno 17342 bound_to 10162
  139.6318  144.7645  151.2521 LP  0  0  0  0  0  0  0  0  0  0  0  0  # atno 17343 bound_to 10162
  157.7468  130.9998  150.2901 LP  0  0  0  0  0  0  0  0  0  0  0  0  # atno 17370 bound_to 10713
  156.3380  130.3811  149.7433 LP  0  0  0  0  0  0  0  0  0  0  0  0  # atno 17371 bound_to 10713
  140.9516  133.7447  156.0279 LP  0  0  0  0  0  0  0  0  0  0  0  0  # atno 17394 bound_to 11000
  140.8099  134.3412  157.5415 LP  0  0  0  0  0  0  0  0  0  0  0  0  # atno 17395 bound_to 11000

$$$$
