#       Name:                AV-unprocessed.smi:2133
#       Creating user name   scv26
#       Creation time:       Fri Mar 27 11:44:56 2020


#       File generated by GOLD software.
#

@<TRIPOS>MOLECULE
AV-unprocessed.smi:2133
    54    56     1
SMALL
NO_CHARGES


@<TRIPOS>ATOM
      1 ****        -1.2480   2.9694  -5.0078 C.3            1 S1                 0.0000
      2 ****        -1.2571   3.0968  -3.5381 N.am           1 S1                 0.0000
      3 ****        -0.8548   2.0203  -2.7916 C.2            1 S1                 0.0000
      4 ****        -0.4728   0.9458  -3.2559 O.2            1 S1                 0.0000
      5 ****        -0.9111   2.2477  -1.3438 C.2            1 S1                 0.0000
      6 ****        -1.3124   3.4217  -0.7986 C.2            1 S1                 0.0000
      7 ****        -1.2684   3.3783   0.5901 N.2            1 S1                 0.0000
      8 ****        -0.8313   2.1390   0.8147 C.2            1 S1                 0.0000
      9 ****        -0.5931   1.3964  -0.2856 N.pl3          1 S1                 0.0000
     10 ****        -0.1144   0.0223  -0.2977 C.3            1 S1                 0.0000
     11 ****         1.4167  -0.0716  -0.1458 C.3            1 S1                 0.0000
     12 ****         2.0563   0.5864  -1.2214 O.3            1 S1                 0.0000
     13 ****         1.9105  -1.5246  -0.0980 C.3            1 S1                 0.0000
     14 ****         1.4135  -2.1391   1.0793 O.3            1 S1                 0.0000
     15 ****         1.8350  -3.4857   1.2230 C.3            1 S1                 0.0000
     16 ****         1.2651  -4.1320   2.4722 C.ar           1 S1                 0.0000
     17 ****         1.0706  -3.3730   3.6465 C.ar           1 S1                 0.0000
     18 ****         0.5561  -3.9827   4.8075 C.ar           1 S1                 0.0000
     19 ****         0.2405  -5.3551   4.8022 C.ar           1 S1                 0.0000
     20 ****         0.4417  -6.1183   3.6361 C.ar           1 S1                 0.0000
     21 ****         0.9557  -5.5088   2.4747 C.ar           1 S1                 0.0000
     22 ****        -1.7007   4.4759  -1.6615 N.am           1 S1                 0.0000
     23 ****        -2.1267   5.7306  -1.0344 C.3            1 S1                 0.0000
     24 ****        -1.6769   4.3131  -3.0257 C.2            1 S1                 0.0000
     25 ****        -2.0220   5.2306  -3.7753 O.2            1 S1                 0.0000
     26 ****        -0.9113   2.0028  -5.3837 H              1 S1                 0.0000
     27 ****        -0.5900   3.7189  -5.4503 H              1 S1                 0.0000
     28 ****        -2.2508   3.1247  -5.4093 H              1 S1                 0.0000
     29 ****        -0.6764   1.7579   1.8136 H              1 S1                 0.0000
     30 ****        -0.5985  -0.5030   0.5266 H              1 S1                 0.0000
     31 ****        -0.4504  -0.4792  -1.2038 H              1 S1                 0.0000
     32 ****         1.7215   0.4335   0.7717 H              1 S1                 0.0000
     33 ****         1.7888   1.4927  -1.2204 H              1 S1                 0.0000
     34 ****         1.5801  -2.0710  -0.9831 H              1 S1                 0.0000
     35 ****         3.0016  -1.5478  -0.0848 H              1 S1                 0.0000
     36 ****         1.5276  -4.0608   0.3479 H              1 S1                 0.0000
     37 ****         2.9236  -3.5304   1.2776 H              1 S1                 0.0000
     38 ****         1.3145  -2.3208   3.6626 H              1 S1                 0.0000
     39 ****         0.4055  -3.3974   5.7027 H              1 S1                 0.0000
     40 ****        -0.1526  -5.8225   5.6931 H              1 S1                 0.0000
     41 ****         0.2034  -7.1717   3.6326 H              1 S1                 0.0000
     42 ****         1.1102  -6.1020   1.5853 H              1 S1                 0.0000
     43 ****        -2.4182   6.5110  -1.7379 H              1 S1                 0.0000
     44 ****        -1.3182   6.1321  -0.4226 H              1 S1                 0.0000
     45 ****        -2.9808   5.5483  -0.3812 H              1 S1                 0.0000
     46 ****        -0.4405   0.8124  -4.2465 LP             1 S1                 0.0000
     47 ****        -0.1949   0.2066  -2.6425 LP             1 S1                 0.0000
     48 ****        -1.5037   4.0920   1.2498 LP             1 S1                 0.0000
     49 ****         1.7910   0.1574  -2.0849 LP             1 S1                 0.0000
     50 ****         3.0484   0.5275  -1.1109 LP             1 S1                 0.0000
     51 ****         0.4141  -2.1194   1.0512 LP             1 S1                 0.0000
     52 ****         1.7350  -1.6186   1.8703 LP             1 S1                 0.0000
     53 ****        -2.0008   5.1012  -4.7667 LP             1 S1                 0.0000
     54 ****        -2.3229   6.1036  -3.3914 LP             1 S1                 0.0000
@<TRIPOS>BOND
    1    1    2 1     
    2    1   26 1     
    3    1   27 1     
    4    1   28 1     
    5    2   24 am    
    6    2    3 am    
    7    3    4 2     
    8    3    5 1     
    9    5    9 1     
   10    5    6 2     
   11    6    7 1     
   12    6   22 1     
   13    7    8 2     
   14    8    9 1     
   15    8   29 1     
   16    9   10 1     
   17   10   11 1     
   18   10   30 1     
   19   10   31 1     
   20   11   12 1     
   21   11   13 1     
   22   11   32 1     
   23   12   33 1     
   24   13   14 1     
   25   13   34 1     
   26   13   35 1     
   27   14   15 1     
   28   15   16 1     
   29   15   36 1     
   30   15   37 1     
   31   16   21 ar    
   32   16   17 ar    
   33   17   18 ar    
   34   17   38 1     
   35   18   19 ar    
   36   18   39 1     
   37   19   20 ar    
   38   19   40 1     
   39   20   21 ar    
   40   20   41 1     
   41   21   42 1     
   42   22   23 1     
   43   22   24 am    
   44   23   43 1     
   45   23   44 1     
   46   23   45 1     
   47   24   25 2     
   48    4   46 1     
   49    4   47 1     
   50    7   48 1     
   51   12   49 1     
   52   12   50 1     
   53   14   51 1     
   54   14   52 1     
   55   25   53 1     
   56   25   54 1     
@<TRIPOS>SUBSTRUCTURE
      1 S1             1
@<TRIPOS>SET
LONE_PAIRS      STATIC     ATOMS    <user>   **** ""
9 46 47 48 49 50 51 52 53 54
DONOR_HYDROGENS      STATIC     ATOMS    <user>   **** ""
1 33
ATOM$BLUE        STATIC     ATOMS    COLORGROUP SYSTEM
9 46 47 48 49 50 51 52 53 54
ATOM$RED        STATIC     ATOMS    COLORGROUP SYSTEM
1 33
