AV-unprocessed.smi:861|AV-procd|sdf|3968|dock9
  -GOLD-   22720 1443D 1   1.00000     0.00000
 Structure written by MMmdl.
 44 45  0  0  0  0  0  0  0  0  2 V2000
  143.5508  132.4010  149.9812 C   0  0  0  0  0  0  0  0  0  0  0  0
  144.7097  133.3986  150.1463 C   0  0  0  0  0  0  0  0  0  0  0  0
  145.7899  132.8145  151.0695 C   0  0  0  0  0  0  0  0  0  0  0  0
  144.2358  134.7713  150.6655 C   0  0  0  0  0  0  0  0  0  0  0  0
  145.3840  135.7405  151.0111 C   0  0  0  0  0  0  0  0  0  0  0  0
  144.9031  136.9947  151.6504 N   0  3  1  0  0  0  0  0  0  0  0  0
  143.8349  136.7731  152.6551 C   0  0  0  0  0  0  0  0  0  0  0  0
  144.4192  136.2623  153.9844 C   0  0  0  0  0  0  0  0  0  0  0  0
  145.3978  137.1805  154.4563 O   0  0  0  0  0  0  0  0  0  0  0  0
  146.4982  137.3192  153.5634 C   0  0  2  0  0  0  0  0  0  0  0  0
  147.5180  138.2546  154.2375 C   0  0  0  0  0  0  0  0  0  0  0  0
  148.8992  137.9062  153.9207 N   0  0  0  0  0  0  0  0  0  0  0  0
  149.9914  138.4998  154.5702 C   0  0  0  0  0  0  0  0  0  0  0  0
  151.2741  137.9492  154.3792 C   0  0  0  0  0  0  0  0  0  0  0  0
  152.3545  138.5673  155.0322 C   0  0  0  0  0  0  0  0  0  0  0  0
  152.0697  139.6919  155.8278 C   0  0  0  0  0  0  0  0  0  0  0  0
  150.8172  140.1786  155.9775 N   0  0  0  0  0  0  0  0  0  0  0  0
  149.7904  139.5863  155.3577 N   0  0  0  0  0  0  0  0  0  0  0  0
  145.9697  137.8607  152.2147 C   0  0  0  0  0  0  0  0  0  0  0  0
  143.0200  132.2496  150.9216 H   0  0  0  0  0  0  0  0  0  0  0  0
  143.9168  131.4295  149.6477 H   0  0  0  0  0  0  0  0  0  0  0  0
  142.8280  132.7404  149.2396 H   0  0  0  0  0  0  0  0  0  0  0  0
  145.1673  133.5444  149.1668 H   0  0  0  0  0  0  0  0  0  0  0  0
  145.4022  132.6431  152.0743 H   0  0  0  0  0  0  0  0  0  0  0  0
  146.6445  133.4864  151.1531 H   0  0  0  0  0  0  0  0  0  0  0  0
  146.1599  131.8615  150.6898 H   0  0  0  0  0  0  0  0  0  0  0  0
  143.5706  135.2135  149.9242 H   0  0  0  0  0  0  0  0  0  0  0  0
  143.6326  134.6184  151.5617 H   0  0  0  0  0  0  0  0  0  0  0  0
  146.0536  135.2329  151.7065 H   0  0  0  0  0  0  0  0  0  0  0  0
  145.9775  135.9710  150.1273 H   0  0  0  0  0  0  0  0  0  0  0  0
  143.3251  137.7215  152.8284 H   0  0  0  0  0  0  0  0  0  0  0  0
  143.0795  136.0857  152.2723 H   0  0  0  0  0  0  0  0  0  0  0  0
  143.6293  136.1788  154.7309 H   0  0  0  0  0  0  0  0  0  0  0  0
  144.8543  135.2681  153.8728 H   0  0  0  0  0  0  0  0  0  0  0  0
  146.9629  136.3410  153.4299 H   0  0  0  0  0  0  0  0  0  0  0  0
  147.3003  139.2982  154.0087 H   0  0  0  0  0  0  0  0  0  0  0  0
  147.4165  138.1628  155.3191 H   0  0  0  0  0  0  0  0  0  0  0  0
  149.0684  137.2275  153.1923 H   0  0  0  0  0  0  0  0  0  0  0  0
  151.4285  137.0827  153.7529 H   0  0  0  0  0  0  0  0  0  0  0  0
  153.3624  138.1943  154.9273 H   0  0  0  0  0  0  0  0  0  0  0  0
  152.8583  140.2104  156.3526 H   0  0  0  0  0  0  0  0  0  0  0  0
  146.7797  137.9870  151.4996 H   0  0  0  0  0  0  0  0  0  0  0  0
  145.5486  138.8554  152.3676 H   0  0  0  0  0  0  0  0  0  0  0  0
  144.4734  137.5213  150.9030 H   0  0  0  0  0  0  0  0  0  0  0  0
  1  2  1  0  0  0  0
  1 20  1  0  0  0  0
  1 21  1  0  0  0  0
  1 22  1  0  0  0  0
  2  3  1  0  0  0  0
  2  4  1  0  0  0  0
  2 23  1  0  0  0  0
  3 24  1  0  0  0  0
  3 25  1  0  0  0  0
  3 26  1  0  0  0  0
  4  5  1  0  0  0  0
  4 27  1  0  0  0  0
  4 28  1  0  0  0  0
  5  6  1  0  0  0  0
  5 29  1  0  0  0  0
  5 30  1  0  0  0  0
  6 19  1  0  0  0  0
  6  7  1  0  0  0  0
  6 44  1  0  0  0  0
  7  8  1  0  0  0  0
  7 31  1  0  0  0  0
  7 32  1  0  0  0  0
  8  9  1  0  0  0  0
  8 33  1  0  0  0  0
  8 34  1  0  0  0  0
  9 10  1  0  0  0  0
 10 11  1  0  0  0  0
 10 19  1  0  0  0  0
 10 35  1  0  0  0  0
 11 12  1  0  0  0  0
 11 36  1  0  0  0  0
 11 37  1  0  0  0  0
 12 13  1  0  0  0  0
 12 38  1  0  0  0  0
 13 18  1  0  0  0  0
 13 14  2  0  0  0  0
 14 15  1  0  0  0  0
 14 39  1  0  0  0  0
 15 16  2  0  0  0  0
 15 40  1  0  0  0  0
 16 17  1  0  0  0  0
 16 41  1  0  0  0  0
 17 18  2  0  0  0  0
 19 42  1  0  0  0  0
 19 43  1  0  0  0  0
M  CHG  1   6   1
M  END
> <s_m_source_file>
AV-unprocessed.smi

> <i_m_source_file_index>
861

> <i_lp_mmshare_version>
43012

> <i_f3d_flags>
0

> <s_epik_input>
W0NIM11bQ0hdKFtDSDNdKVtDSDJdW0NIMl1OMVtDSDJdW0NIMl1PW0NASF0oW0NIMl0xKVtDSDJdW05IXWMyW2NIXVtjSF1bY0hdbm4y

> <s_epik_cmdline>
J2VwaWtfcHl0aG9uJywgJy1waCcsICc3LjAnLCAnLXRuJywgJzgnLCAnLW1hJywgJzIwMCcsICctbWV0YWxfYmluZGluZycsICctaW1hZScsICc8aW5maWxlLm1hZT4nLCAnLW9tYWUnLCAnPG91dGZpbGUubWFlPic=

> <r_lp_tautomer_probability>
0.999978

> <r_epik_Ionization_Penalty>
0.114704

> <r_epik_Ionization_Penalty_Charging>
0.0953451

> <r_epik_Ionization_Penalty_Neutral>
0.0193593

> <r_epik_State_Penalty>
0.104983

> <r_epik_Charging_Adjusted_Penalty>
0.200328

> <i_epik_Tot_Q>
1

> <i_epik_Tot_abs_Q>
1

> <r_epik_Metal_State_Penalty>
0.100113

> <b_epik_Metal_Only>
0

> <s_lp_Force_Field>
OPLS_2005

> <r_lp_Energy>
26.2812

> <b_lp_Chiralities_Consistent>
1

> <s_lp_Variant>
AV-unprocessed.smi:861-3

> <Gold.Version>
5.8.1

> <Gold.Id.Protein>
6NUR|6NUR_protein|mol2

> <Gold.PLP.Fitness>
40.1250

> <Gold.PLP.PLP>
-35.4142

> <Gold.PLP.part.hbond>
-2.0000

> <Gold.PLP.part.metal>
0.0000

> <Gold.PLP.part.buried>
-4.4885

> <Gold.PLP.part.nonpolar>
-29.3412

> <Gold.PLP.part.repulsive>
0.1883

> <Gold.PLP.ligand.clash>
0.0000

> <Gold.PLP.ligand.torsion>
0.6844

> <Gold.PLP.Chemscore.Hbond>
2.0000

> <Gold.PLP.Chemscore.CHOScore>
0.0000

> <Gold.PLP.Chemscore.Metal>
0.0000

> <Gold.Chemscore.Hbonds>
donor molecule, donor type, donor heavy atom, donor atom, acceptor molecule, acceptor atom, score
      L1  H     6    44       P1 10171  1.00
      L1  H    12    38       P1  7948  1.00

> <Gold.PLP.Chemscore.Internal.Correction>
0.0797

> <Gold.Rescore>
     Score         DG    S(hbond)    S(metal)    S(lipo)     H(rot)  DE(clash)    DE(int)     intcor
     16.92     -17.66       1.99        0.00      84.90       1.71       0.09       0.65       ----

> <Gold.Chemscore.Fitness>
16.9154

> <Gold.Chemscore.DG>
-17.6606

> <Gold.Chemscore.ZeroCoef>
-5.4800

> <Gold.Chemscore.Hbond>
1.9856

> <Gold.Chemscore.Metal>
0.0000

> <Gold.Chemscore.Lipo>
84.8986

> <Gold.Chemscore.Internal_Hbond>
0.0000

> <Gold.Chemscore.DEClash>
0.0936

> <Gold.Chemscore.DEInternal>
0.6516

> <Gold.Chemscore.Rot>
1.7127

> <Gold.Chemscore.Internal.Correction>
   9.000000E+99

> <Gold.Chemscore.Hbonds>
donor molecule, donor type, donor heavy atom, donor atom, acceptor molecule, acceptor atom, score
      L1  H     6    44       P1 10171  1.00
      L1  H    12    38       P1  7948  1.00

> <Gold.Chemscore.Hbond.Weighted>
-6.6319

> <Gold.Chemscore.Metal.Weighted>
-0.0000

> <Gold.Chemscore.Lipo.Weighted>
-9.9331

> <Gold.Chemscore.Internal_Hbond.Weighted>
0.0000

> <Gold.Chemscore.DEClash.Weighted>
0.0936

> <Gold.Chemscore.DEInternal.Weighted>
0.6516

> <Gold.Chemscore.Rot.Weighted>
4.3844

> <Gold.Chemscore.Internal.Correction.Weighted>
   9.000000E+99

> <Gold.Protein.RotatedTorsions>
[ 6907 6896 6895 6894 ] final  -81.35 input  -60.11 | X-H torsion
[ 7974 7965 7964 7962 ] final  147.87 input  175.53 | X-H torsion
[ 8008 7997 7996 7995 ] final  -46.73 input   59.86 | X-H torsion
[ 10167 10162 10161 10158 ] final  -15.68 input  -65.29 | X-H torsion
[ 10718 10713 10712 10709 ] final   89.87 input   66.30 | X-H torsion
[ 10763 10752 10751 10750 ] final   80.97 input  -60.55 | X-H torsion
[ 11005 11000 10999 10996 ] final  112.11 input  -57.11 | X-H torsion

> <Gold.Protein.ActiveResidues>
 VAL166  LYS551  ARG553  GLY616  TRP617  ASP618  TYR619  PRO620  LYS621  CYS622 
 ASP623  PHE694  ASN695  SER759  ASP760  ASP761  ALA762  ILE779  LEU786  VAL792 
 PHE793  MET794  SER795  GLU796  ALA797  LYS798  CYS799  TRP800  GLU811  SER814 

> <Gold.Protein.RotatedAtoms>
  150.6913  134.3831  159.5042 H   0  0  0  0  0  0  0  0  0  0  0  0  # atno 6907 bound_to 6896
  152.1630  134.8894  160.0549 H   0  0  0  0  0  0  0  0  0  0  0  0  # atno 6908 bound_to 6896
  151.9948  133.3769  159.4195 H   0  0  0  0  0  0  0  0  0  0  0  0  # atno 6909 bound_to 6896
  144.8557  139.6083  143.5953 H   0  0  0  0  0  0  0  0  0  0  0  0  # atno 7974 bound_to 7965
  154.4010  140.1364  156.4058 H   0  0  0  0  0  0  0  0  0  0  0  0  # atno 8008 bound_to 7997
  155.7780  140.3482  155.5262 H   0  0  0  0  0  0  0  0  0  0  0  0  # atno 8009 bound_to 7997
  155.8701  140.0970  157.1546 H   0  0  0  0  0  0  0  0  0  0  0  0  # atno 8010 bound_to 7997
  140.7222  143.5194  150.9652 H   0  0  0  0  0  0  0  0  0  0  0  0  # atno 10167 bound_to 10162
  157.6957  131.0349  150.3491 H   0  0  0  0  0  0  0  0  0  0  0  0  # atno 10718 bound_to 10713
  153.1078  135.4783  154.8981 H   0  0  0  0  0  0  0  0  0  0  0  0  # atno 10763 bound_to 10752
  154.7448  135.3091  154.8666 H   0  0  0  0  0  0  0  0  0  0  0  0  # atno 10764 bound_to 10752
  153.9264  135.6849  153.4800 H   0  0  0  0  0  0  0  0  0  0  0  0  # atno 10765 bound_to 10752
  139.8919  134.9523  156.6535 H   0  0  0  0  0  0  0  0  0  0  0  0  # atno 11005 bound_to 11000
  146.2821  139.6905  142.9221 LP  0  0  0  0  0  0  0  0  0  0  0  0  # atno 17320 bound_to 7965
  145.4410  141.0422  143.2857 LP  0  0  0  0  0  0  0  0  0  0  0  0  # atno 17321 bound_to 7965
  139.8910  143.6953  152.3145 LP  0  0  0  0  0  0  0  0  0  0  0  0  # atno 17342 bound_to 10162
  139.7268  144.7591  151.0865 LP  0  0  0  0  0  0  0  0  0  0  0  0  # atno 17343 bound_to 10162
  156.3942  130.3903  149.7007 LP  0  0  0  0  0  0  0  0  0  0  0  0  # atno 17370 bound_to 10713
  156.4347  130.7832  151.2852 LP  0  0  0  0  0  0  0  0  0  0  0  0  # atno 17371 bound_to 10713
  140.7502  133.8903  155.8341 LP  0  0  0  0  0  0  0  0  0  0  0  0  # atno 17394 bound_to 11000
  141.0006  134.1155  157.4320 LP  0  0  0  0  0  0  0  0  0  0  0  0  # atno 17395 bound_to 11000

$$$$
