AV-unprocessed.smi:153|AV-procd|sdf|1260|dock5
  -GOLD-   2262018503D 1   1.00000     0.00000
 Structure written by MMmdl.
 59 62  0  0  0  0  0  0  0  0  1 V2000
  152.6133  144.8919  158.4466 C   0  0  0  0  0  0  0  0  0  0  0  0
  151.6864  143.7788  158.9732 C   0  0  2  0  0  0  0  0  0  0  0  0
  150.8880  144.3407  160.0093 O   0  0  0  0  0  0  0  0  0  0  0  0
  151.4955  144.1222  161.2798 C   0  0  0  0  0  0  0  0  0  0  0  0
  152.6308  143.1200  161.0549 C   0  0  0  0  0  0  0  0  0  0  0  0
  152.3939  142.5835  159.6460 C   0  0  2  0  0  0  0  0  0  0  0  0
  153.6381  142.2972  159.0343 O   0  0  0  0  0  0  0  0  0  0  0  0
  151.5755  141.2634  159.5998 C   0  0  0  0  0  0  0  0  0  0  0  0
  151.1492  140.8516  158.2710 N   0  0  0  0  0  0  0  0  0  0  0  0
  151.9405  140.3196  157.2812 C   0  0  0  0  0  0  0  0  0  0  0  0
  151.3213  140.0442  156.1685 N   0  0  0  0  0  0  0  0  0  0  0  0
  149.9948  140.3956  156.4013 C   0  0  0  0  0  0  0  0  0  0  0  0
  148.7904  140.3672  155.6277 C   0  0  0  0  0  0  0  0  0  0  0  0
  148.6945  139.9617  154.3248 N   0  0  0  0  0  0  0  0  0  0  0  0
  149.7366  139.0907  153.7836 C   0  0  0  0  0  0  0  0  0  0  0  0
  147.3962  139.9308  153.6527 C   0  0  0  0  0  0  0  0  0  0  0  0
  147.1706  138.6373  152.8354 C   0  0  2  0  0  0  0  0  0  0  0  0
  147.3471  138.8918  151.4567 O   0  0  0  0  0  0  0  0  0  0  0  0
  145.7890  137.9832  153.0611 C   0  0  0  0  0  0  0  0  0  0  0  0
  145.5576  136.6850  152.4218 N   0  0  0  0  0  0  0  0  0  0  0  0
  144.1293  136.4042  152.3213 C   0  0  0  0  0  0  0  0  0  0  0  0
  143.8532  135.0503  151.6452 C   0  0  0  0  0  0  0  0  0  0  0  0
  144.5202  134.0165  152.3615 O   0  0  0  0  0  0  0  0  0  0  0  0
  145.9258  134.2266  152.4446 C   0  0  0  0  0  0  0  0  0  0  0  0
  146.2088  135.5794  153.1210 C   0  0  0  0  0  0  0  0  0  0  0  0
  147.6577  140.7883  156.2554 N   0  0  0  0  0  0  0  0  0  0  0  0
  147.6863  141.2184  157.5183 C   0  0  0  0  0  0  0  0  0  0  0  0
  148.7295  141.3141  158.3406 N   0  0  0  0  0  0  0  0  0  0  0  0
  149.8732  140.8879  157.7352 C   0  0  0  0  0  0  0  0  0  0  0  0
  153.2278  144.5388  157.6183 H   0  0  0  0  0  0  0  0  0  0  0  0
  153.2811  145.2670  159.2224 H   0  0  0  0  0  0  0  0  0  0  0  0
  152.0292  145.7358  158.0795 H   0  0  0  0  0  0  0  0  0  0  0  0
  151.0494  143.4494  158.1523 H   0  0  0  0  0  0  0  0  0  0  0  0
  151.8737  145.0607  161.6856 H   0  0  0  0  0  0  0  0  0  0  0  0
  150.7483  143.7350  161.9727 H   0  0  0  0  0  0  0  0  0  0  0  0
  153.5803  143.6557  161.1025 H   0  0  0  0  0  0  0  0  0  0  0  0
  152.6688  142.3401  161.8150 H   0  0  0  0  0  0  0  0  0  0  0  0
  153.5462  142.4099  158.1004 H   0  0  0  0  0  0  0  0  0  0  0  0
  152.1616  140.4490  160.0285 H   0  0  0  0  0  0  0  0  0  0  0  0
  150.6866  141.3537  160.2255 H   0  0  0  0  0  0  0  0  0  0  0  0
  153.0001  140.1506  157.4051 H   0  0  0  0  0  0  0  0  0  0  0  0
  150.7162  139.5643  153.8578 H   0  0  0  0  0  0  0  0  0  0  0  0
  149.5590  138.8707  152.7310 H   0  0  0  0  0  0  0  0  0  0  0  0
  149.7641  138.1425  154.3218 H   0  0  0  0  0  0  0  0  0  0  0  0
  146.6088  140.0752  154.3885 H   0  0  0  0  0  0  0  0  0  0  0  0
  147.3035  140.7994  152.9996 H   0  0  0  0  0  0  0  0  0  0  0  0
  147.9175  137.8905  153.1070 H   0  0  0  0  0  0  0  0  0  0  0  0
  148.1828  139.3157  151.3368 H   0  0  0  0  0  0  0  0  0  0  0  0
  145.5723  137.9231  154.1288 H   0  0  0  0  0  0  0  0  0  0  0  0
  145.0541  138.6831  152.6603 H   0  0  0  0  0  0  0  0  0  0  0  0
  143.6809  136.4072  153.3161 H   0  0  0  0  0  0  0  0  0  0  0  0
  143.6355  137.1946  151.7548 H   0  0  0  0  0  0  0  0  0  0  0  0
  142.7831  134.8431  151.6341 H   0  0  0  0  0  0  0  0  0  0  0  0
  144.1895  135.0604  150.6073 H   0  0  0  0  0  0  0  0  0  0  0  0
  146.3749  133.4150  153.0172 H   0  0  0  0  0  0  0  0  0  0  0  0
  146.3642  134.1957  151.4458 H   0  0  0  0  0  0  0  0  0  0  0  0
  147.2870  135.7309  153.1478 H   0  0  0  0  0  0  0  0  0  0  0  0
  145.8697  135.5447  154.1575 H   0  0  0  0  0  0  0  0  0  0  0  0
  146.7376  141.5350  157.9259 H   0  0  0  0  0  0  0  0  0  0  0  0
  1  2  1  0  0  0  0
  1 30  1  0  0  0  0
  1 31  1  0  0  0  0
  1 32  1  0  0  0  0
  2  6  1  0  0  0  0
  2  3  1  0  0  0  0
  2 33  1  0  0  0  0
  3  4  1  0  0  0  0
  4  5  1  0  0  0  0
  4 34  1  0  0  0  0
  4 35  1  0  0  0  0
  5  6  1  0  0  0  0
  5 36  1  0  0  0  0
  5 37  1  0  0  0  0
  6  7  1  0  0  0  0
  6  8  1  0  0  0  0
  7 38  1  0  0  0  0
  8  9  1  0  0  0  0
  8 39  1  0  0  0  0
  8 40  1  0  0  0  0
  9 29  1  0  0  0  0
  9 10  1  0  0  0  0
 10 11  2  0  0  0  0
 10 41  1  0  0  0  0
 11 12  1  0  0  0  0
 12 29  2  0  0  0  0
 12 13  1  0  0  0  0
 13 14  1  0  0  0  0
 13 26  2  0  0  0  0
 14 15  1  0  0  0  0
 14 16  1  0  0  0  0
 15 42  1  0  0  0  0
 15 43  1  0  0  0  0
 15 44  1  0  0  0  0
 16 17  1  0  0  0  0
 16 45  1  0  0  0  0
 16 46  1  0  0  0  0
 17 18  1  0  0  0  0
 17 19  1  0  0  0  0
 17 47  1  0  0  0  0
 18 48  1  0  0  0  0
 19 20  1  0  0  0  0
 19 49  1  0  0  0  0
 19 50  1  0  0  0  0
 20 25  1  0  0  0  0
 20 21  1  0  0  0  0
 21 22  1  0  0  0  0
 21 51  1  0  0  0  0
 21 52  1  0  0  0  0
 22 23  1  0  0  0  0
 22 53  1  0  0  0  0
 22 54  1  0  0  0  0
 23 24  1  0  0  0  0
 24 25  1  0  0  0  0
 24 55  1  0  0  0  0
 24 56  1  0  0  0  0
 25 57  1  0  0  0  0
 25 58  1  0  0  0  0
 26 27  1  0  0  0  0
 27 28  2  0  0  0  0
 27 59  1  0  0  0  0
 28 29  1  0  0  0  0
M  END
> <s_m_source_file>
AV-unprocessed.smi

> <i_m_source_file_index>
153

> <i_lp_mmshare_version>
43012

> <i_f3d_flags>
0

> <s_epik_input>
W0NIMl0xW0NIMl1PW0NAQEhdKFtDSDNdKVtDQEBdMShbT0hdKVtDSDJdbihbY0hdbjIpYyhjMjMpbltjSF1uYzNOKFtDSDNdKVtDSDJdW0NASF0oW09IXSlbQ0gyXU40W0NIMl1bQ0gyXU9bQ0gyXVtDSDJdNA==

> <s_epik_cmdline>
J2VwaWtfcHl0aG9uJywgJy1waCcsICc3LjAnLCAnLXRuJywgJzgnLCAnLW1hJywgJzIwMCcsICctbWV0YWxfYmluZGluZycsICctaW1hZScsICc8aW5maWxlLm1hZT4nLCAnLW9tYWUnLCAnPG91dGZpbGUubWFlPic=

> <r_lp_tautomer_probability>
1

> <r_epik_Ionization_Penalty>
0.424123

> <r_epik_Ionization_Penalty_Charging>
0

> <r_epik_Ionization_Penalty_Neutral>
0.424123

> <r_epik_State_Penalty>
0.421495

> <r_epik_Charging_Adjusted_Penalty>
0.421495

> <i_epik_Tot_Q>
0

> <i_epik_Tot_abs_Q>
0

> <r_epik_Metal_State_Penalty>
0.421223

> <b_epik_Metal_Only>
0

> <s_lp_Force_Field>
OPLS_2005

> <r_lp_Energy>
59.2369

> <b_lp_Chiralities_Consistent>
1

> <s_lp_Variant>
AV-unprocessed.smi:153-11

> <Gold.Version>
5.8.1

> <Gold.Id.Protein>
6NUR|6NUR_protein|mol2

> <Gold.PLP.Fitness>
42.9968

> <Gold.PLP.PLP>
-42.1994

> <Gold.PLP.part.hbond>
-3.0394

> <Gold.PLP.part.metal>
0.0000

> <Gold.PLP.part.buried>
1.1306

> <Gold.PLP.part.nonpolar>
-40.2593

> <Gold.PLP.part.repulsive>
0.4907

> <Gold.PLP.ligand.clash>
0.0000

> <Gold.PLP.ligand.torsion>
1.3576

> <Gold.PLP.Chemscore.Hbond>
1.0000

> <Gold.PLP.Chemscore.CHOScore>
0.0000

> <Gold.PLP.Chemscore.Metal>
0.0000

> <Gold.Chemscore.Hbonds>
donor molecule, donor type, donor heavy atom, donor atom, acceptor molecule, acceptor atom, score
      L1  H    18    48       P1  7957  1.00

> <Gold.PLP.Chemscore.Internal.Correction>
0.5125

> <Gold.Rescore>
     Score         DG    S(hbond)    S(metal)    S(lipo)     H(rot)  DE(clash)    DE(int)     intcor
      9.00     -12.20       0.96        0.00     106.90       3.52       0.89       2.32       ----

> <Gold.Chemscore.Fitness>
8.9983

> <Gold.Chemscore.DG>
-12.2047

> <Gold.Chemscore.ZeroCoef>
-5.4800

> <Gold.Chemscore.Hbond>
0.9645

> <Gold.Chemscore.Metal>
0.0000

> <Gold.Chemscore.Lipo>
106.8977

> <Gold.Chemscore.Internal_Hbond>
0.0000

> <Gold.Chemscore.DEClash>
0.8890

> <Gold.Chemscore.DEInternal>
2.3175

> <Gold.Chemscore.Rot>
3.5170

> <Gold.Chemscore.Internal.Correction>
   9.000000E+99

> <Gold.Chemscore.Hbonds>
donor molecule, donor type, donor heavy atom, donor atom, acceptor molecule, acceptor atom, score
      L1  H    18    48       P1  7957  0.79

> <Gold.Chemscore.Hbond.Weighted>
-3.2213

> <Gold.Chemscore.Metal.Weighted>
-0.0000

> <Gold.Chemscore.Lipo.Weighted>
-12.5070

> <Gold.Chemscore.Internal_Hbond.Weighted>
0.0000

> <Gold.Chemscore.DEClash.Weighted>
0.8890

> <Gold.Chemscore.DEInternal.Weighted>
2.3175

> <Gold.Chemscore.Rot.Weighted>
9.0036

> <Gold.Chemscore.Internal.Correction.Weighted>
   9.000000E+99

> <Gold.Protein.RotatedTorsions>
[ 6907 6896 6895 6894 ] final  -72.26 input  -60.11 | X-H torsion
[ 7974 7965 7964 7962 ] final  -82.43 input  175.53 | X-H torsion
[ 8008 7997 7996 7995 ] final  111.42 input   59.86 | X-H torsion
[ 10167 10162 10161 10158 ] final   53.42 input  -65.29 | X-H torsion
[ 10718 10713 10712 10709 ] final  148.84 input   66.30 | X-H torsion
[ 10763 10752 10751 10750 ] final  -25.77 input  -60.55 | X-H torsion
[ 11005 11000 10999 10996 ] final  146.03 input  -57.11 | X-H torsion

> <Gold.Protein.ActiveResidues>
 VAL166  LYS551  ARG553  GLY616  TRP617  ASP618  TYR619  PRO620  LYS621  CYS622 
 ASP623  PHE694  ASN695  SER759  ASP760  ASP761  ALA762  ILE779  LEU786  VAL792 
 PHE793  MET794  SER795  GLU796  ALA797  LYS798  CYS799  TRP800  GLU811  SER814 

> <Gold.Protein.RotatedAtoms>
  150.7177  134.5189  159.5643 H   0  0  0  0  0  0  0  0  0  0  0  0  # atno 6907 bound_to 6896
  152.2749  134.7890  160.0416 H   0  0  0  0  0  0  0  0  0  0  0  0  # atno 6908 bound_to 6896
  151.8556  133.3412  159.3724 H   0  0  0  0  0  0  0  0  0  0  0  0  # atno 6909 bound_to 6896
  145.5334  140.9518  143.1590 H   0  0  0  0  0  0  0  0  0  0  0  0  # atno 7974 bound_to 7965
  156.2122  140.3019  155.9759 H   0  0  0  0  0  0  0  0  0  0  0  0  # atno 8008 bound_to 7997
  155.2694  140.0433  157.3022 H   0  0  0  0  0  0  0  0  0  0  0  0  # atno 8009 bound_to 7997
  154.5716  140.2350  155.8191 H   0  0  0  0  0  0  0  0  0  0  0  0  # atno 8010 bound_to 7997
  140.2409  144.3585  150.6380 H   0  0  0  0  0  0  0  0  0  0  0  0  # atno 10167 bound_to 10162
  157.3035  131.0875  151.1371 H   0  0  0  0  0  0  0  0  0  0  0  0  # atno 10718 bound_to 10713
  153.7052  135.6954  153.5052 H   0  0  0  0  0  0  0  0  0  0  0  0  # atno 10763 bound_to 10752
  153.2313  135.4336  155.0597 H   0  0  0  0  0  0  0  0  0  0  0  0  # atno 10764 bound_to 10752
  154.8332  135.3485  154.6590 H   0  0  0  0  0  0  0  0  0  0  0  0  # atno 10765 bound_to 10752
  140.0760  134.9125  157.1423 H   0  0  0  0  0  0  0  0  0  0  0  0  # atno 11005 bound_to 11000
  144.7614  139.6948  143.7233 LP  0  0  0  0  0  0  0  0  0  0  0  0  # atno 17320 bound_to 7965
  146.2029  139.5335  142.9731 LP  0  0  0  0  0  0  0  0  0  0  0  0  # atno 17321 bound_to 7965
  140.6114  143.2170  151.6878 LP  0  0  0  0  0  0  0  0  0  0  0  0  # atno 17342 bound_to 10162
  139.5078  144.3635  152.0539 LP  0  0  0  0  0  0  0  0  0  0  0  0  # atno 17343 bound_to 10162
  157.2721  130.6709  149.6024 LP  0  0  0  0  0  0  0  0  0  0  0  0  # atno 17370 bound_to 10713
  155.9673  130.4476  150.5586 LP  0  0  0  0  0  0  0  0  0  0  0  0  # atno 17371 bound_to 10713
  140.3558  134.2549  155.7193 LP  0  0  0  0  0  0  0  0  0  0  0  0  # atno 17394 bound_to 11000
  141.2029  133.7925  157.0365 LP  0  0  0  0  0  0  0  0  0  0  0  0  # atno 17395 bound_to 11000

$$$$
