AV-unprocessed.smi:2061|AV-procd|sdf|8365|dock6
  -GOLD-   2272011 43D 1   1.00000     0.00000
 Structure written by MMmdl.
 45 46  0  0  0  0  0  0  0  0  1 V2000
  138.3756  136.7152  153.4464 C   0  0  0  0  0  0  0  0  0  0  0  0
  139.8307  136.8934  153.7140 C   0  0  0  0  0  0  0  0  0  0  0  0
  140.7177  137.8871  153.4086 C   0  0  0  0  0  0  0  0  0  0  0  0
  141.9354  137.4103  153.9634 C   0  0  0  0  0  0  0  0  0  0  0  0
  143.1295  138.1683  153.8576 N   0  0  0  0  0  0  0  0  0  0  0  0
  144.2794  137.9824  154.5279 C   0  0  0  0  0  0  0  0  0  0  0  0
  144.4731  137.1078  155.3725 O   0  0  0  0  0  0  0  0  0  0  0  0
  145.2038  138.8842  154.1652 N   0  0  0  0  0  0  0  0  0  0  0  0
  146.5628  138.9714  154.6963 C   0  0  0  0  0  0  0  0  0  0  0  0
  147.5820  139.5417  153.6691 C   0  0  1  0  0  0  0  0  0  0  0  0
  147.0860  140.9276  153.1817 C   0  0  0  0  0  0  0  0  0  0  0  0
  148.9729  139.5822  154.1818 N   0  0  0  0  0  0  0  0  0  0  0  0
  149.3693  138.3231  154.8236 C   0  0  0  0  0  0  0  0  0  0  0  0
  150.8024  138.3379  155.3914 C   0  0  1  0  0  0  0  0  0  0  0  0
  151.8898  138.2541  154.3065 C   0  0  0  0  0  0  0  0  0  0  0  0
  150.9869  139.4638  156.2457 O   0  0  0  0  0  0  0  0  0  0  0  0
  150.6476  140.7160  155.6607 C   0  0  2  0  0  0  0  0  0  0  0  0
  150.8438  141.8022  156.7236 C   0  0  0  0  0  0  0  0  0  0  0  0
  149.1988  140.6671  155.1420 C   0  0  0  0  0  0  0  0  0  0  0  0
  141.8035  136.2321  154.5530 N   0  0  0  0  0  0  0  0  0  0  0  0
  140.4543  135.8943  154.3957 O   0  0  0  0  0  0  0  0  0  0  0  0
  137.9259  137.6477  153.1049 H   0  0  0  0  0  0  0  0  0  0  0  0
  137.8514  136.3977  154.3480 H   0  0  0  0  0  0  0  0  0  0  0  0
  138.2146  135.9599  152.6770 H   0  0  0  0  0  0  0  0  0  0  0  0
  140.5235  138.8053  152.8746 H   0  0  0  0  0  0  0  0  0  0  0  0
  143.1063  138.9318  153.1982 H   0  0  0  0  0  0  0  0  0  0  0  0
  144.9501  139.5658  153.4651 H   0  0  0  0  0  0  0  0  0  0  0  0
  146.5975  139.5531  155.6190 H   0  0  0  0  0  0  0  0  0  0  0  0
  146.8103  137.9476  154.9701 H   0  0  0  0  0  0  0  0  0  0  0  0
  147.5639  138.8766  152.8042 H   0  0  0  0  0  0  0  0  0  0  0  0
  146.0571  140.9009  152.8259 H   0  0  0  0  0  0  0  0  0  0  0  0
  147.6602  141.3050  152.3373 H   0  0  0  0  0  0  0  0  0  0  0  0
  147.1359  141.6670  153.9818 H   0  0  0  0  0  0  0  0  0  0  0  0
  148.6725  138.0974  155.6323 H   0  0  0  0  0  0  0  0  0  0  0  0
  149.3116  137.4927  154.1228 H   0  0  0  0  0  0  0  0  0  0  0  0
  150.9185  137.4562  156.0224 H   0  0  0  0  0  0  0  0  0  0  0  0
  151.8026  137.3253  153.7424 H   0  0  0  0  0  0  0  0  0  0  0  0
  152.8849  138.2774  154.7512 H   0  0  0  0  0  0  0  0  0  0  0  0
  151.8224  139.0744  153.5924 H   0  0  0  0  0  0  0  0  0  0  0  0
  151.3238  140.9259  154.8314 H   0  0  0  0  0  0  0  0  0  0  0  0
  150.6115  142.7897  156.3242 H   0  0  0  0  0  0  0  0  0  0  0  0
  151.8758  141.8210  157.0746 H   0  0  0  0  0  0  0  0  0  0  0  0
  150.2014  141.6296  157.5876 H   0  0  0  0  0  0  0  0  0  0  0  0
  149.0007  141.6337  154.6835 H   0  0  0  0  0  0  0  0  0  0  0  0
  148.5097  140.5660  155.9819 H   0  0  0  0  0  0  0  0  0  0  0  0
  1  2  1  0  0  0  0
  1 22  1  0  0  0  0
  1 23  1  0  0  0  0
  1 24  1  0  0  0  0
  2 21  1  0  0  0  0
  2  3  2  0  0  0  0
  3  4  1  0  0  0  0
  3 25  1  0  0  0  0
  4  5  1  0  0  0  0
  4 20  2  0  0  0  0
  5  6  1  0  0  0  0
  5 26  1  0  0  0  0
  6  7  2  0  0  0  0
  6  8  1  0  0  0  0
  8  9  1  0  0  0  0
  8 27  1  0  0  0  0
  9 10  1  0  0  0  0
  9 28  1  0  0  0  0
  9 29  1  0  0  0  0
 10 11  1  0  0  0  0
 10 12  1  0  0  0  0
 10 30  1  0  0  0  0
 11 31  1  0  0  0  0
 11 32  1  0  0  0  0
 11 33  1  0  0  0  0
 12 19  1  0  0  0  0
 12 13  1  0  0  0  0
 13 14  1  0  0  0  0
 13 34  1  0  0  0  0
 13 35  1  0  0  0  0
 14 15  1  0  0  0  0
 14 16  1  0  0  0  0
 14 36  1  0  0  0  0
 15 37  1  0  0  0  0
 15 38  1  0  0  0  0
 15 39  1  0  0  0  0
 16 17  1  0  0  0  0
 17 18  1  0  0  0  0
 17 19  1  0  0  0  0
 17 40  1  0  0  0  0
 18 41  1  0  0  0  0
 18 42  1  0  0  0  0
 18 43  1  0  0  0  0
 19 44  1  0  0  0  0
 19 45  1  0  0  0  0
 20 21  1  0  0  0  0
M  END
> <s_m_source_file>
AV-unprocessed.smi

> <i_m_source_file_index>
2061

> <i_lp_mmshare_version>
43012

> <i_f3d_flags>
0

> <s_epik_input>
W0NIM11jMVtjSF1jKG5vMSlbTkhdQyg9TylbTkhdW0NIMl1bQ0BIXShbQ0gzXSlOMltDSDJdW0NAQEhdKFtDSDNdKU9bQ0BASF0oW0NIM10pW0NIMl0y

> <s_epik_cmdline>
J2VwaWtfcHl0aG9uJywgJy1waCcsICc3LjAnLCAnLXRuJywgJzgnLCAnLW1hJywgJzIwMCcsICctbWV0YWxfYmluZGluZycsICctaW1hZScsICc8aW5maWxlLm1hZT4nLCAnLW9tYWUnLCAnPG91dGZpbGUubWFlPic=

> <r_epik_Ionization_Penalty>
0.214073

> <r_epik_Ionization_Penalty_Charging>
0

> <r_epik_Ionization_Penalty_Neutral>
0.214073

> <r_epik_State_Penalty>
0.204211

> <r_epik_Charging_Adjusted_Penalty>
0.204211

> <i_epik_Tot_Q>
0

> <i_epik_Tot_abs_Q>
0

> <r_epik_Metal_State_Penalty>
0.217067

> <b_epik_Metal_Only>
0

> <s_lp_Force_Field>
OPLS_2005

> <r_lp_Energy>
29.5026

> <b_lp_Chiralities_Consistent>
1

> <s_lp_Variant>
AV-unprocessed.smi:2061-6

> <Gold.Version>
5.8.1

> <Gold.Id.Protein>
6NUR|6NUR_protein|mol2

> <Gold.PLP.Fitness>
40.2688

> <Gold.PLP.PLP>
-32.0434

> <Gold.PLP.part.hbond>
-3.0490

> <Gold.PLP.part.metal>
0.0000

> <Gold.PLP.part.buried>
-5.6833

> <Gold.PLP.part.nonpolar>
-23.5342

> <Gold.PLP.part.repulsive>
0.4736

> <Gold.PLP.ligand.clash>
0.0000

> <Gold.PLP.ligand.torsion>
0.3812

> <Gold.PLP.Chemscore.Hbond>
2.9840

> <Gold.PLP.Chemscore.CHOScore>
0.0000

> <Gold.PLP.Chemscore.Metal>
0.0000

> <Gold.Chemscore.Hbonds>
donor molecule, donor type, donor heavy atom, donor atom, acceptor molecule, acceptor atom, score
      L1  H     5    26       P1 10175  1.00
      L1  H     8    27       P1 10175  1.00
      P1  H 11000 11005       L1    21  1.00

> <Gold.PLP.Chemscore.Internal.Correction>
0.0358

> <Gold.Rescore>
     Score         DG    S(hbond)    S(metal)    S(lipo)     H(rot)  DE(clash)    DE(int)     intcor
     17.98     -19.76       2.70        0.00      78.80       1.55       0.21       1.56       ----

> <Gold.Chemscore.Fitness>
17.9833

> <Gold.Chemscore.DG>
-19.7621

> <Gold.Chemscore.ZeroCoef>
-5.4800

> <Gold.Chemscore.Hbond>
2.7019

> <Gold.Chemscore.Metal>
0.0000

> <Gold.Chemscore.Lipo>
78.7958

> <Gold.Chemscore.Internal_Hbond>
0.0000

> <Gold.Chemscore.DEClash>
0.2139

> <Gold.Chemscore.DEInternal>
1.5649

> <Gold.Chemscore.Rot>
1.5474

> <Gold.Chemscore.Internal.Correction>
   9.000000E+99

> <Gold.Chemscore.Hbonds>
donor molecule, donor type, donor heavy atom, donor atom, acceptor molecule, acceptor atom, score
      L1  H     5    26       P1 10175  0.99
      L1  H     8    27       P1 10175  0.95
      P1  H 11000 11005       L1    21  0.46

> <Gold.Chemscore.Hbond.Weighted>
-9.0242

> <Gold.Chemscore.Metal.Weighted>
-0.0000

> <Gold.Chemscore.Lipo.Weighted>
-9.2191

> <Gold.Chemscore.Internal_Hbond.Weighted>
0.0000

> <Gold.Chemscore.DEClash.Weighted>
0.2139

> <Gold.Chemscore.DEInternal.Weighted>
1.5649

> <Gold.Chemscore.Rot.Weighted>
3.9612

> <Gold.Chemscore.Internal.Correction.Weighted>
   9.000000E+99

> <Gold.Protein.RotatedTorsions>
[ 6907 6896 6895 6894 ] final  -84.90 input  -60.11 | X-H torsion
[ 7974 7965 7964 7962 ] final  -58.04 input  175.53 | X-H torsion
[ 8008 7997 7996 7995 ] final  -79.96 input   59.86 | X-H torsion
[ 10167 10162 10161 10158 ] final -161.41 input  -65.29 | X-H torsion
[ 10718 10713 10712 10709 ] final  140.65 input   66.30 | X-H torsion
[ 10763 10752 10751 10750 ] final   78.77 input  -60.55 | X-H torsion
[ 11005 11000 10999 10996 ] final   54.25 input  -57.11 | X-H torsion

> <Gold.Protein.ActiveResidues>
 VAL166  LYS551  ARG553  GLY616  TRP617  ASP618  TYR619  PRO620  LYS621  CYS622 
 ASP623  PHE694  ASN695  SER759  ASP760  ASP761  ALA762  ILE779  LEU786  VAL792 
 PHE793  MET794  SER795  GLU796  ALA797  LYS798  CYS799  TRP800  GLU811  SER814 

> <Gold.Protein.RotatedAtoms>
  150.6873  134.3287  159.4817 H   0  0  0  0  0  0  0  0  0  0  0  0  # atno 6907 bound_to 6896
  152.1154  134.9241  160.0574 H   0  0  0  0  0  0  0  0  0  0  0  0  # atno 6908 bound_to 6896
  152.0468  133.3966  159.4397 H   0  0  0  0  0  0  0  0  0  0  0  0  # atno 6909 bound_to 6896
  145.8440  140.8398  143.0020 H   0  0  0  0  0  0  0  0  0  0  0  0  # atno 7974 bound_to 7965
  154.5836  140.0670  156.9139 H   0  0  0  0  0  0  0  0  0  0  0  0  # atno 8008 bound_to 7997
  155.2419  140.3345  155.4273 H   0  0  0  0  0  0  0  0  0  0  0  0  # atno 8009 bound_to 7997
  156.2206  140.1797  156.7469 H   0  0  0  0  0  0  0  0  0  0  0  0  # atno 8010 bound_to 7997
  139.6467  144.0159  152.2132 H   0  0  0  0  0  0  0  0  0  0  0  0  # atno 10167 bound_to 10162
  157.4009  131.1016  151.0552 H   0  0  0  0  0  0  0  0  0  0  0  0  # atno 10718 bound_to 10713
  153.0900  135.4864  154.8672 H   0  0  0  0  0  0  0  0  0  0  0  0  # atno 10763 bound_to 10752
  154.7258  135.3049  154.8976 H   0  0  0  0  0  0  0  0  0  0  0  0  # atno 10764 bound_to 10752
  153.9627  135.6810  153.4798 H   0  0  0  0  0  0  0  0  0  0  0  0  # atno 10765 bound_to 10752
  140.0702  134.5481  155.9055 H   0  0  0  0  0  0  0  0  0  0  0  0  # atno 11005 bound_to 11000
  144.6732  140.0854  143.7467 LP  0  0  0  0  0  0  0  0  0  0  0  0  # atno 17320 bound_to 7965
  145.9433  139.2684  143.1256 LP  0  0  0  0  0  0  0  0  0  0  0  0  # atno 17321 bound_to 7965
  139.9862  144.6393  150.7855 LP  0  0  0  0  0  0  0  0  0  0  0  0  # atno 17342 bound_to 10162
  140.7518  143.2979  151.3157 LP  0  0  0  0  0  0  0  0  0  0  0  0  # atno 17343 bound_to 10162
  157.1552  130.6201  149.5594 LP  0  0  0  0  0  0  0  0  0  0  0  0  # atno 17370 bound_to 10713
  155.9823  130.4836  150.6874 LP  0  0  0  0  0  0  0  0  0  0  0  0  # atno 17371 bound_to 10713
  141.2008  133.6615  156.5919 LP  0  0  0  0  0  0  0  0  0  0  0  0  # atno 17394 bound_to 11000
  140.3639  134.7664  157.4553 LP  0  0  0  0  0  0  0  0  0  0  0  0  # atno 17395 bound_to 11000

$$$$
