AV-unprocessed.smi:2468|AV-procd|sdf|9729|dock9
  -GOLD-   2272013373D 1   1.00000     0.00000
 Structure written by MMmdl.
 32 33  0  0  0  0  0  0  0  0  1 V2000
  153.1739  142.9195  162.6030 C   0  0  0  0  0  0  0  0  0  0  0  0
  152.5508  143.1939  161.2471 C   0  0  0  0  0  0  0  0  0  0  0  0
  151.8996  144.3719  161.1307 N   0  0  0  0  0  0  0  0  0  0  0  0
  151.3196  144.6621  159.9482 C   0  0  0  0  0  0  0  0  0  0  0  0
  151.3640  143.8048  158.8323 C   0  0  0  0  0  0  0  0  0  0  0  0
  152.0598  142.5772  158.9454 C   0  0  0  0  0  0  0  0  0  0  0  0
  152.1476  141.6285  157.8895 N   0  0  0  0  0  0  0  0  0  0  0  0
  151.3042  141.4271  156.8601 C   0  0  0  0  0  0  0  0  0  0  0  0
  150.2729  142.0719  156.6696 O   0  0  0  0  0  0  0  0  0  0  0  0
  151.7075  140.3101  155.8854 C   0  0  2  0  0  0  0  0  0  0  0  0
  150.8062  140.2864  154.7780 O   0  0  0  0  0  0  0  0  0  0  0  0
  150.5245  138.9433  154.3951 C   0  0  0  0  0  0  0  0  0  0  0  0
  151.4819  138.0684  155.1977 C   0  0  0  0  0  0  0  0  0  0  0  0
  151.6779  138.8844  156.4595 C   0  0  1  0  0  0  0  0  0  0  0  0
  152.9266  138.4858  157.2622 C   0  0  0  0  0  0  0  0  0  0  0  0
  152.6556  142.2606  160.1889 C   0  0  0  0  0  0  0  0  0  0  0  0
  153.5017  140.7655  160.4104 Cl  0  0  0  0  0  0  0  0  0  0  0  0
  154.2518  142.7882  162.5050 H   0  0  0  0  0  0  0  0  0  0  0  0
  152.7532  142.0122  163.0370 H   0  0  0  0  0  0  0  0  0  0  0  0
  152.9961  143.7397  163.2997 H   0  0  0  0  0  0  0  0  0  0  0  0
  150.7963  145.6050  159.8913 H   0  0  0  0  0  0  0  0  0  0  0  0
  150.8566  144.0972  157.9260 H   0  0  0  0  0  0  0  0  0  0  0  0
  152.9993  141.0858  157.8675 H   0  0  0  0  0  0  0  0  0  0  0  0
  152.7022  140.5298  155.4942 H   0  0  0  0  0  0  0  0  0  0  0  0
  149.4907  138.7195  154.6610 H   0  0  0  0  0  0  0  0  0  0  0  0
  150.6350  138.8029  153.3197 H   0  0  0  0  0  0  0  0  0  0  0  0
  151.0853  137.0707  155.3887 H   0  0  0  0  0  0  0  0  0  0  0  0
  152.4266  137.9630  154.6620 H   0  0  0  0  0  0  0  0  0  0  0  0
  150.7946  138.7605  157.0892 H   0  0  0  0  0  0  0  0  0  0  0  0
  153.8341  138.5993  156.6686 H   0  0  0  0  0  0  0  0  0  0  0  0
  152.8669  137.4452  157.5823 H   0  0  0  0  0  0  0  0  0  0  0  0
  153.0368  139.0982  158.1569 H   0  0  0  0  0  0  0  0  0  0  0  0
  1  2  1  0  0  0  0
  1 18  1  0  0  0  0
  1 19  1  0  0  0  0
  1 20  1  0  0  0  0
  2 16  1  0  0  0  0
  2  3  2  0  0  0  0
  3  4  1  0  0  0  0
  4  5  2  0  0  0  0
  4 21  1  0  0  0  0
  5  6  1  0  0  0  0
  5 22  1  0  0  0  0
  6  7  1  0  0  0  0
  6 16  2  0  0  0  0
  7  8  1  0  0  0  0
  7 23  1  0  0  0  0
  8  9  2  0  0  0  0
  8 10  1  0  0  0  0
 10 14  1  0  0  0  0
 10 11  1  0  0  0  0
 10 24  1  0  0  0  0
 11 12  1  0  0  0  0
 12 13  1  0  0  0  0
 12 25  1  0  0  0  0
 12 26  1  0  0  0  0
 13 14  1  0  0  0  0
 13 27  1  0  0  0  0
 13 28  1  0  0  0  0
 14 15  1  0  0  0  0
 14 29  1  0  0  0  0
 15 30  1  0  0  0  0
 15 31  1  0  0  0  0
 15 32  1  0  0  0  0
 16 17  1  0  0  0  0
M  END
> <s_m_source_file>
AV-unprocessed.smi

> <i_m_source_file_index>
2468

> <i_lp_mmshare_version>
43012

> <i_f3d_flags>
0

> <s_epik_input>
W0NIM11jMW5bY0hdW2NIXWMoYzFDbClbTkhdQyg9TylbQ0BASF0yT1tDSDJdW0NIMl1bQ0BIXTJbQ0gzXQ==

> <s_epik_cmdline>
J2VwaWtfcHl0aG9uJywgJy1waCcsICc3LjAnLCAnLXRuJywgJzgnLCAnLW1hJywgJzIwMCcsICctbWV0YWxfYmluZGluZycsICctaW1hZScsICc8aW5maWxlLm1hZT4nLCAnLW9tYWUnLCAnPG91dGZpbGUubWFlPic=

> <r_epik_Ionization_Penalty>
0.000361027

> <r_epik_Ionization_Penalty_Charging>
0

> <r_epik_Ionization_Penalty_Neutral>
0.000361027

> <r_epik_State_Penalty>
0.000217849

> <r_epik_Charging_Adjusted_Penalty>
0.000217849

> <i_epik_Tot_Q>
0

> <i_epik_Tot_abs_Q>
0

> <r_epik_Metal_State_Penalty>
-0

> <b_epik_Metal_Only>
0

> <s_lp_Force_Field>
OPLS_2005

> <r_lp_Energy>
24.8892

> <b_lp_Chiralities_Consistent>
1

> <s_lp_Variant>
AV-unprocessed.smi:2468-1

> <Gold.Version>
5.8.1

> <Gold.Id.Protein>
6NUR|6NUR_protein|mol2

> <Gold.PLP.Fitness>
41.2735

> <Gold.PLP.PLP>
-38.7224

> <Gold.PLP.part.hbond>
-1.0000

> <Gold.PLP.part.metal>
0.0000

> <Gold.PLP.part.buried>
-5.2856

> <Gold.PLP.part.nonpolar>
-32.6858

> <Gold.PLP.part.repulsive>
0.4338

> <Gold.PLP.ligand.clash>
0.0000

> <Gold.PLP.ligand.torsion>
0.2257

> <Gold.PLP.Chemscore.Hbond>
1.0000

> <Gold.PLP.Chemscore.CHOScore>
0.0000

> <Gold.PLP.Chemscore.Metal>
0.0000

> <Gold.Chemscore.Hbonds>
donor molecule, donor type, donor heavy atom, donor atom, acceptor molecule, acceptor atom, score
      P1  H  7989  7998       L1    11  1.00

> <Gold.PLP.Chemscore.Internal.Correction>
0.0025

> <Gold.Rescore>
     Score         DG    S(hbond)    S(metal)    S(lipo)     H(rot)  DE(clash)    DE(int)     intcor
     16.94     -18.47       0.91        0.00     107.07       1.00       0.13       1.40       ----

> <Gold.Chemscore.Fitness>
16.9386

> <Gold.Chemscore.DG>
-18.4716

> <Gold.Chemscore.ZeroCoef>
-5.4800

> <Gold.Chemscore.Hbond>
0.9056

> <Gold.Chemscore.Metal>
0.0000

> <Gold.Chemscore.Lipo>
107.0674

> <Gold.Chemscore.Internal_Hbond>
0.0000

> <Gold.Chemscore.DEClash>
0.1341

> <Gold.Chemscore.DEInternal>
1.3989

> <Gold.Chemscore.Rot>
1.0000

> <Gold.Chemscore.Internal.Correction>
   9.000000E+99

> <Gold.Chemscore.Hbonds>
donor molecule, donor type, donor heavy atom, donor atom, acceptor molecule, acceptor atom, score
      P1  H  7989  7998       L1    11  0.22

> <Gold.Chemscore.Hbond.Weighted>
-3.0247

> <Gold.Chemscore.Metal.Weighted>
-0.0000

> <Gold.Chemscore.Lipo.Weighted>
-12.5269

> <Gold.Chemscore.Internal_Hbond.Weighted>
0.0000

> <Gold.Chemscore.DEClash.Weighted>
0.1341

> <Gold.Chemscore.DEInternal.Weighted>
1.3989

> <Gold.Chemscore.Rot.Weighted>
2.5600

> <Gold.Chemscore.Internal.Correction.Weighted>
   9.000000E+99

> <Gold.Protein.RotatedTorsions>
[ 6907 6896 6895 6894 ] final   17.16 input  -60.11 | X-H torsion
[ 7974 7965 7964 7962 ] final -102.10 input  175.53 | X-H torsion
[ 8008 7997 7996 7995 ] final   77.56 input   59.86 | X-H torsion
[ 10167 10162 10161 10158 ] final   -8.02 input  -65.29 | X-H torsion
[ 10718 10713 10712 10709 ] final  167.06 input   66.30 | X-H torsion
[ 10763 10752 10751 10750 ] final   44.34 input  -60.55 | X-H torsion
[ 11005 11000 10999 10996 ] final    1.26 input  -57.11 | X-H torsion

> <Gold.Protein.ActiveResidues>
 VAL166  LYS551  ARG553  GLY616  TRP617  ASP618  TYR619  PRO620  LYS621  CYS622 
 ASP623  PHE694  ASN695  SER759  ASP760  ASP761  ALA762  ILE779  LEU786  VAL792 
 PHE793  MET794  SER795  GLU796  ALA797  LYS798  CYS799  TRP800  GLU811  SER814 

> <Gold.Protein.RotatedAtoms>
  151.8453  135.0576  160.0452 H   0  0  0  0  0  0  0  0  0  0  0  0  # atno 6907 bound_to 6896
  152.2778  133.5437  159.5487 H   0  0  0  0  0  0  0  0  0  0  0  0  # atno 6908 bound_to 6896
  150.7177  134.0523  159.3845 H   0  0  0  0  0  0  0  0  0  0  0  0  # atno 6909 bound_to 6896
  145.2730  140.9304  143.2975 H   0  0  0  0  0  0  0  0  0  0  0  0  # atno 7974 bound_to 7965
  155.8434  140.3461  155.5646 H   0  0  0  0  0  0  0  0  0  0  0  0  # atno 8008 bound_to 7997
  155.8116  140.0900  157.1920 H   0  0  0  0  0  0  0  0  0  0  0  0  # atno 8009 bound_to 7997
  154.4005  140.1446  156.3381 H   0  0  0  0  0  0  0  0  0  0  0  0  # atno 8010 bound_to 7997
  140.7046  143.6015  150.8793 H   0  0  0  0  0  0  0  0  0  0  0  0  # atno 10167 bound_to 10162
  157.0569  131.0329  151.2661 H   0  0  0  0  0  0  0  0  0  0  0  0  # atno 10718 bound_to 10713
  152.9843  135.6073  154.3258 H   0  0  0  0  0  0  0  0  0  0  0  0  # atno 10763 bound_to 10752
  154.2965  135.2773  155.2633 H   0  0  0  0  0  0  0  0  0  0  0  0  # atno 10764 bound_to 10752
  154.4905  135.5893  153.6512 H   0  0  0  0  0  0  0  0  0  0  0  0  # atno 10765 bound_to 10752
  140.6174  133.9692  155.8207 H   0  0  0  0  0  0  0  0  0  0  0  0  # atno 11005 bound_to 11000
  144.9318  139.4289  143.6491 LP  0  0  0  0  0  0  0  0  0  0  0  0  # atno 17320 bound_to 7965
  146.3240  139.8233  142.8922 LP  0  0  0  0  0  0  0  0  0  0  0  0  # atno 17321 bound_to 7965
  139.9740  143.6025  152.2964 LP  0  0  0  0  0  0  0  0  0  0  0  0  # atno 17342 bound_to 10162
  139.6622  144.7662  151.1941 LP  0  0  0  0  0  0  0  0  0  0  0  0  # atno 17343 bound_to 10162
  157.4985  130.7865  149.7580 LP  0  0  0  0  0  0  0  0  0  0  0  0  # atno 17370 bound_to 10713
  155.9990  130.3891  150.2680 LP  0  0  0  0  0  0  0  0  0  0  0  0  # atno 17371 bound_to 10713
  141.0766  134.0126  157.3448 LP  0  0  0  0  0  0  0  0  0  0  0  0  # atno 17394 bound_to 11000
  139.9167  135.0197  156.7909 LP  0  0  0  0  0  0  0  0  0  0  0  0  # atno 17395 bound_to 11000

$$$$
