AV-unprocessed.smi:1081|AV-procd|sdf|4710|dock8
  -GOLD-   22720 3233D 1   1.00000     0.00000
 Structure written by MMmdl.
 52 54  0  0  0  0  0  0  0  0  1 V2000
  147.3094  136.3667  155.9486 O   0  0  0  0  0  0  0  0  0  0  0  0
  147.9161  136.3701  154.8780 C   0  0  0  0  0  0  0  0  0  0  0  0
  147.6402  135.5246  153.8737 N   0  0  0  0  0  0  0  0  0  0  0  0
  146.6057  134.4913  153.9044 C   0  0  0  0  0  0  0  0  0  0  0  0
  146.8114  133.3769  152.8594 C   0  0  0  0  0  0  0  0  0  0  0  0
  147.7234  132.5640  153.0241 O   0  0  0  0  0  0  0  0  0  0  0  0
  145.9888  133.3266  151.7830 N   0  0  0  0  0  0  0  0  0  0  0  0
  145.9979  132.2833  150.7469 C   0  0  0  0  0  0  0  0  0  0  0  0
  144.7076  131.4511  150.8641 C   0  0  0  0  0  0  0  0  0  0  0  0
  143.4605  132.3496  150.7691 C   0  0  0  0  0  0  0  0  0  0  0  0
  143.5481  133.5430  151.7379 C   0  0  0  0  0  0  0  0  0  0  0  0
  144.8899  134.2811  151.5809 C   0  0  0  0  0  0  0  0  0  0  0  0
  148.9325  137.1888  154.5562 N   0  0  0  0  0  0  0  0  0  0  0  0
  149.5413  138.2150  155.3302 C   0  0  0  0  0  0  0  0  0  0  0  0
  149.5968  138.2381  156.7438 C   0  0  0  0  0  0  0  0  0  0  0  0
  150.2248  139.3235  157.3841 C   0  0  0  0  0  0  0  0  0  0  0  0
  150.7785  140.3635  156.6022 C   0  0  0  0  0  0  0  0  0  0  0  0
  151.4151  141.4557  157.2292 N   0  0  0  0  0  0  0  0  0  0  0  0
  150.8859  142.7728  156.8702 C   0  0  0  0  0  0  0  0  0  0  0  0
  151.8661  143.8915  157.2635 C   0  0  0  0  0  0  0  0  0  0  0  0
  152.2535  143.7928  158.7465 C   0  0  0  0  0  0  0  0  0  0  0  0
  152.8052  142.3928  159.0533 C   0  0  0  0  0  0  0  0  0  0  0  0
  151.8065  141.3012  158.6324 C   0  0  0  0  0  0  0  0  0  0  0  0
  150.7111  140.3463  155.2487 N   0  0  0  0  0  0  0  0  0  0  0  0
  150.1103  139.3032  154.6392 C   0  0  0  0  0  0  0  0  0  0  0  0
  148.1938  135.5879  153.0321 H   0  0  0  0  0  0  0  0  0  0  0  0
  146.5652  134.0580  154.9052 H   0  0  0  0  0  0  0  0  0  0  0  0
  145.6447  134.9736  153.7229 H   0  0  0  0  0  0  0  0  0  0  0  0
  146.0476  132.7572  149.7655 H   0  0  0  0  0  0  0  0  0  0  0  0
  146.8604  131.6207  150.7924 H   0  0  0  0  0  0  0  0  0  0  0  0
  144.6790  130.6907  150.0833 H   0  0  0  0  0  0  0  0  0  0  0  0
  144.7035  130.9184  151.8159 H   0  0  0  0  0  0  0  0  0  0  0  0
  143.3685  132.7247  149.7490 H   0  0  0  0  0  0  0  0  0  0  0  0
  142.5594  131.7684  150.9662 H   0  0  0  0  0  0  0  0  0  0  0  0
  142.7189  134.2289  151.5621 H   0  0  0  0  0  0  0  0  0  0  0  0
  143.4459  133.1896  152.7650 H   0  0  0  0  0  0  0  0  0  0  0  0
  144.9279  135.1267  152.2686 H   0  0  0  0  0  0  0  0  0  0  0  0
  144.9668  134.7106  150.5810 H   0  0  0  0  0  0  0  0  0  0  0  0
  149.3522  137.0310  153.6519 H   0  0  0  0  0  0  0  0  0  0  0  0
  149.1655  137.4618  157.3547 H   0  0  0  0  0  0  0  0  0  0  0  0
  150.2606  139.3553  158.4629 H   0  0  0  0  0  0  0  0  0  0  0  0
  150.6768  142.8456  155.8037 H   0  0  0  0  0  0  0  0  0  0  0  0
  149.9343  142.9155  157.3840 H   0  0  0  0  0  0  0  0  0  0  0  0
  152.7630  143.8224  156.6465 H   0  0  0  0  0  0  0  0  0  0  0  0
  151.4216  144.8655  157.0565 H   0  0  0  0  0  0  0  0  0  0  0  0
  152.9949  144.5531  158.9940 H   0  0  0  0  0  0  0  0  0  0  0  0
  151.3805  143.9897  159.3700 H   0  0  0  0  0  0  0  0  0  0  0  0
  153.7477  142.2482  158.5233 H   0  0  0  0  0  0  0  0  0  0  0  0
  153.0309  142.3026  160.1162 H   0  0  0  0  0  0  0  0  0  0  0  0
  150.9154  141.3486  159.2599 H   0  0  0  0  0  0  0  0  0  0  0  0
  152.2615  140.3224  158.7903 H   0  0  0  0  0  0  0  0  0  0  0  0
  150.0860  139.3404  153.5598 H   0  0  0  0  0  0  0  0  0  0  0  0
  1  2  2  0  0  0  0
  2  3  1  0  0  0  0
  2 13  1  0  0  0  0
  3  4  1  0  0  0  0
  3 26  1  0  0  0  0
  4  5  1  0  0  0  0
  4 27  1  0  0  0  0
  4 28  1  0  0  0  0
  5  6  2  0  0  0  0
  5  7  1  0  0  0  0
  7 12  1  0  0  0  0
  7  8  1  0  0  0  0
  8  9  1  0  0  0  0
  8 29  1  0  0  0  0
  8 30  1  0  0  0  0
  9 10  1  0  0  0  0
  9 31  1  0  0  0  0
  9 32  1  0  0  0  0
 10 11  1  0  0  0  0
 10 33  1  0  0  0  0
 10 34  1  0  0  0  0
 11 12  1  0  0  0  0
 11 35  1  0  0  0  0
 11 36  1  0  0  0  0
 12 37  1  0  0  0  0
 12 38  1  0  0  0  0
 13 14  1  0  0  0  0
 13 39  1  0  0  0  0
 14 25  1  0  0  0  0
 14 15  2  0  0  0  0
 15 16  1  0  0  0  0
 15 40  1  0  0  0  0
 16 17  2  0  0  0  0
 16 41  1  0  0  0  0
 17 18  1  0  0  0  0
 17 24  1  0  0  0  0
 18 23  1  0  0  0  0
 18 19  1  0  0  0  0
 19 20  1  0  0  0  0
 19 42  1  0  0  0  0
 19 43  1  0  0  0  0
 20 21  1  0  0  0  0
 20 44  1  0  0  0  0
 20 45  1  0  0  0  0
 21 22  1  0  0  0  0
 21 46  1  0  0  0  0
 21 47  1  0  0  0  0
 22 23  1  0  0  0  0
 22 48  1  0  0  0  0
 22 49  1  0  0  0  0
 23 50  1  0  0  0  0
 23 51  1  0  0  0  0
 24 25  2  0  0  0  0
 25 52  1  0  0  0  0
M  END
> <s_m_source_file>
AV-unprocessed.smi

> <i_m_source_file_index>
1081

> <i_lp_mmshare_version>
43012

> <i_f3d_flags>
0

> <s_epik_input>
W0NIMl0xW0NIMl1bQ0gyXVtDSDJdW0NIMl1OMUMoPU8pW0NIMl1bTkhdQyg9TylbTkhdYzJbY0hdW2NIXWMobltjSF0yKU4zW0NIMl1bQ0gyXVtDSDJdW0NIMl1bQ0gyXTM=

> <s_epik_cmdline>
J2VwaWtfcHl0aG9uJywgJy1waCcsICc3LjAnLCAnLXRuJywgJzgnLCAnLW1hJywgJzIwMCcsICctbWV0YWxfYmluZGluZycsICctaW1hZScsICc8aW5maWxlLm1hZT4nLCAnLW9tYWUnLCAnPG91dGZpbGUubWFlPic=

> <r_lp_tautomer_probability>
1

> <r_epik_Ionization_Penalty>
0.2566

> <r_epik_Ionization_Penalty_Charging>
0

> <r_epik_Ionization_Penalty_Neutral>
0.2566

> <r_epik_State_Penalty>
0.242651

> <r_epik_Charging_Adjusted_Penalty>
0.242651

> <i_epik_Tot_Q>
0

> <i_epik_Tot_abs_Q>
0

> <r_epik_Metal_State_Penalty>
0.169478

> <b_epik_Metal_Only>
0

> <s_lp_Force_Field>
OPLS_2005

> <r_lp_Energy>
36.1946

> <b_lp_Chiralities_Consistent>
1

> <s_lp_Variant>
AV-unprocessed.smi:1081-1

> <Gold.Version>
5.8.1

> <Gold.Id.Protein>
6NUR|6NUR_protein|mol2

> <Gold.PLP.Fitness>
50.6596

> <Gold.PLP.PLP>
-41.5317

> <Gold.PLP.part.hbond>
-2.8585

> <Gold.PLP.part.metal>
0.0000

> <Gold.PLP.part.buried>
-5.7916

> <Gold.PLP.part.nonpolar>
-34.4299

> <Gold.PLP.part.repulsive>
0.2412

> <Gold.PLP.ligand.clash>
0.0000

> <Gold.PLP.ligand.torsion>
0.6779

> <Gold.PLP.Chemscore.Hbond>
2.3590

> <Gold.PLP.Chemscore.CHOScore>
0.9922

> <Gold.PLP.Chemscore.Metal>
0.0000

> <Gold.Chemscore.Hbonds>
donor molecule, donor type, donor heavy atom, donor atom, acceptor molecule, acceptor atom, score
      L1  H     3    26       P1  7948  0.98
      L1  H    13    39       P1  7948  0.86
      P1  H  7989  7998       L1    24  0.54
      L1  C    25    52       P1  7957  0.98

> <Gold.PLP.Chemscore.Internal.Correction>
0.4300

> <Gold.Rescore>
     Score         DG    S(hbond)    S(metal)    S(lipo)     H(rot)  DE(clash)    DE(int)     intcor
     20.14     -21.00       1.91        0.00     109.06       1.41       0.08       0.78       ----

> <Gold.Chemscore.Fitness>
20.1440

> <Gold.Chemscore.DG>
-21.0040

> <Gold.Chemscore.ZeroCoef>
-5.4800

> <Gold.Chemscore.Hbond>
1.9088

> <Gold.Chemscore.Metal>
0.0000

> <Gold.Chemscore.Lipo>
109.0635

> <Gold.Chemscore.Internal_Hbond>
0.0000

> <Gold.Chemscore.DEClash>
0.0752

> <Gold.Chemscore.DEInternal>
0.7848

> <Gold.Chemscore.Rot>
1.4109

> <Gold.Chemscore.Internal.Correction>
   9.000000E+99

> <Gold.Chemscore.Hbonds>
donor molecule, donor type, donor heavy atom, donor atom, acceptor molecule, acceptor atom, score
      L1  H     3    26       P1  7948  0.92
      L1  H    13    39       P1  7948  0.80
      P1  H  7989  7998       L1    24  0.03

> <Gold.Chemscore.Hbond.Weighted>
-6.3754

> <Gold.Chemscore.Metal.Weighted>
-0.0000

> <Gold.Chemscore.Lipo.Weighted>
-12.7604

> <Gold.Chemscore.Internal_Hbond.Weighted>
0.0000

> <Gold.Chemscore.DEClash.Weighted>
0.0752

> <Gold.Chemscore.DEInternal.Weighted>
0.7848

> <Gold.Chemscore.Rot.Weighted>
3.6118

> <Gold.Chemscore.Internal.Correction.Weighted>
   9.000000E+99

> <Gold.Protein.RotatedTorsions>
[ 6907 6896 6895 6894 ] final  102.52 input  -60.11 | X-H torsion
[ 7974 7965 7964 7962 ] final   12.48 input  175.53 | X-H torsion
[ 8008 7997 7996 7995 ] final  132.55 input   59.86 | X-H torsion
[ 10167 10162 10161 10158 ] final -124.94 input  -65.29 | X-H torsion
[ 10718 10713 10712 10709 ] final -118.52 input   66.30 | X-H torsion
[ 10763 10752 10751 10750 ] final  149.52 input  -60.55 | X-H torsion
[ 11005 11000 10999 10996 ] final  106.16 input  -57.11 | X-H torsion

> <Gold.Protein.ActiveResidues>
 VAL166  LYS551  ARG553  GLY616  TRP617  ASP618  TYR619  PRO620  LYS621  CYS622 
 ASP623  PHE694  ASN695  SER759  ASP760  ASP761  ALA762  ILE779  LEU786  VAL792 
 PHE793  MET794  SER795  GLU796  ALA797  LYS798  CYS799  TRP800  GLU811  SER814 

> <Gold.Protein.RotatedAtoms>
  152.5321  133.9962  159.7873 H   0  0  0  0  0  0  0  0  0  0  0  0  # atno 6907 bound_to 6896
  151.0189  133.5887  159.2680 H   0  0  0  0  0  0  0  0  0  0  0  0  # atno 6908 bound_to 6896
  151.2934  135.0755  159.9266 H   0  0  0  0  0  0  0  0  0  0  0  0  # atno 6909 bound_to 6896
  146.2350  139.9330  142.8493 H   0  0  0  0  0  0  0  0  0  0  0  0  # atno 7974 bound_to 7965
  156.2984  140.2543  156.3108 H   0  0  0  0  0  0  0  0  0  0  0  0  # atno 8008 bound_to 7997
  154.9328  140.0398  157.2075 H   0  0  0  0  0  0  0  0  0  0  0  0  # atno 8009 bound_to 7997
  154.8202  140.2859  155.5797 H   0  0  0  0  0  0  0  0  0  0  0  0  # atno 8010 bound_to 7997
  139.9875  143.5676  152.2355 H   0  0  0  0  0  0  0  0  0  0  0  0  # atno 10167 bound_to 10162
  156.1112  130.6250  150.9301 H   0  0  0  0  0  0  0  0  0  0  0  0  # atno 10718 bound_to 10713
  154.0724  135.2865  155.3305 H   0  0  0  0  0  0  0  0  0  0  0  0  # atno 10763 bound_to 10752
  154.6737  135.5289  153.8175 H   0  0  0  0  0  0  0  0  0  0  0  0  # atno 10764 bound_to 10752
  153.0480  135.6564  154.0905 H   0  0  0  0  0  0  0  0  0  0  0  0  # atno 10765 bound_to 10752
  139.8810  134.9360  156.5624 H   0  0  0  0  0  0  0  0  0  0  0  0  # atno 11005 bound_to 11000
  145.2026  140.9861  143.4147 LP  0  0  0  0  0  0  0  0  0  0  0  0  # atno 17320 bound_to 7965
  144.9761  139.3831  143.6285 LP  0  0  0  0  0  0  0  0  0  0  0  0  # atno 17321 bound_to 7965
  139.6364  144.7650  151.2428 LP  0  0  0  0  0  0  0  0  0  0  0  0  # atno 17342 bound_to 10162
  140.7467  143.6390  150.8352 LP  0  0  0  0  0  0  0  0  0  0  0  0  # atno 17343 bound_to 10162
  157.6294  131.0922  150.8472 LP  0  0  0  0  0  0  0  0  0  0  0  0  # atno 17370 bound_to 10713
  156.8582  130.5104  149.5306 LP  0  0  0  0  0  0  0  0  0  0  0  0  # atno 17371 bound_to 10713
  140.8159  133.8392  155.8852 LP  0  0  0  0  0  0  0  0  0  0  0  0  # atno 17394 bound_to 11000
  140.9463  134.1836  157.4761 LP  0  0  0  0  0  0  0  0  0  0  0  0  # atno 17395 bound_to 11000

$$$$
