AV-unprocessed.smi:1497|AV-procd|sdf|6058|dock3
  -GOLD-   22720 6173D 1   1.00000     0.00000
 Structure written by MMmdl.
 33 34  0  0  0  0  0  0  0  0  1 V2000
  148.5409  138.2821  152.9557 N   0  0  0  0  0  0  0  0  0  0  0  0
  148.3871  138.8286  154.1651 C   0  0  0  0  0  0  0  0  0  0  0  0
  147.9514  138.1924  155.1221 O   0  0  0  0  0  0  0  0  0  0  0  0
  148.7698  140.3019  154.3222 C   0  0  0  0  0  0  0  0  0  0  0  0
  149.9788  140.4540  155.1123 N   0  0  0  0  0  0  0  0  0  0  0  0
  150.2155  141.3348  156.1497 C   0  0  0  0  0  0  0  0  0  0  0  0
  151.4918  141.0938  156.5600 C   0  0  0  0  0  0  0  0  0  0  0  0
  152.1441  141.7836  157.6125 N   0  0  0  0  0  0  0  0  0  0  0  0
  151.7183  142.8802  158.2679 C   0  0  0  0  0  0  0  0  0  0  0  0
  150.6690  143.4630  157.9927 O   0  0  0  0  0  0  0  0  0  0  0  0
  152.5590  143.3082  159.2451 N   0  0  0  0  0  0  0  0  0  0  0  0
  153.7837  142.6247  159.6958 C   0  0  0  0  0  0  0  0  0  0  0  0
  153.4597  141.7799  160.9391 C   0  0  0  0  0  0  0  0  0  0  0  0
  152.9096  142.8344  162.3172 S   0  0  0  0  0  0  0  0  0  0  0  0
  151.6445  143.8242  161.4603 C   0  0  0  0  0  0  0  0  0  0  0  0
  152.1944  144.4076  160.1475 C   0  0  0  0  0  0  0  0  0  0  0  0
  151.9772  140.0474  155.7257 C   0  0  0  0  0  0  0  0  0  0  0  0
  151.0540  139.6676  154.8551 N   0  0  0  0  0  0  0  0  0  0  0  0
  148.3024  137.3112  152.8132 H   0  0  0  0  0  0  0  0  0  0  0  0
  148.8966  138.8363  152.1906 H   0  0  0  0  0  0  0  0  0  0  0  0
  148.9288  140.7526  153.3415 H   0  0  0  0  0  0  0  0  0  0  0  0
  147.9563  140.8519  154.7984 H   0  0  0  0  0  0  0  0  0  0  0  0
  149.4724  142.0391  156.4941 H   0  0  0  0  0  0  0  0  0  0  0  0
  153.0276  141.3971  157.9108 H   0  0  0  0  0  0  0  0  0  0  0  0
  154.2348  141.9976  158.9266 H   0  0  0  0  0  0  0  0  0  0  0  0
  154.5511  143.3613  159.9381 H   0  0  0  0  0  0  0  0  0  0  0  0
  152.6803  141.0511  160.7131 H   0  0  0  0  0  0  0  0  0  0  0  0
  154.3389  141.2197  161.2579 H   0  0  0  0  0  0  0  0  0  0  0  0
  150.7745  143.1969  161.2631 H   0  0  0  0  0  0  0  0  0  0  0  0
  151.3173  144.6241  162.1246 H   0  0  0  0  0  0  0  0  0  0  0  0
  153.0640  145.0346  160.3489 H   0  0  0  0  0  0  0  0  0  0  0  0
  151.4571  145.0758  159.7000 H   0  0  0  0  0  0  0  0  0  0  0  0
  152.9386  139.5560  155.7139 H   0  0  0  0  0  0  0  0  0  0  0  0
  1  2  1  0  0  0  0
  1 19  1  0  0  0  0
  1 20  1  0  0  0  0
  2  3  2  0  0  0  0
  2  4  1  0  0  0  0
  4  5  1  0  0  0  0
  4 21  1  0  0  0  0
  4 22  1  0  0  0  0
  5 18  1  0  0  0  0
  5  6  1  0  0  0  0
  6  7  2  0  0  0  0
  6 23  1  0  0  0  0
  7  8  1  0  0  0  0
  7 17  1  0  0  0  0
  8  9  1  0  0  0  0
  8 24  1  0  0  0  0
  9 10  2  0  0  0  0
  9 11  1  0  0  0  0
 11 16  1  0  0  0  0
 11 12  1  0  0  0  0
 12 13  1  0  0  0  0
 12 25  1  0  0  0  0
 12 26  1  0  0  0  0
 13 14  1  0  0  0  0
 13 27  1  0  0  0  0
 13 28  1  0  0  0  0
 14 15  1  0  0  0  0
 15 16  1  0  0  0  0
 15 29  1  0  0  0  0
 15 30  1  0  0  0  0
 16 31  1  0  0  0  0
 16 32  1  0  0  0  0
 17 18  2  0  0  0  0
 17 33  1  0  0  0  0
M  END
> <s_m_source_file>
AV-unprocessed.smi

> <i_m_source_file_index>
1497

> <i_lp_mmshare_version>
43012

> <i_f3d_flags>
0

> <s_epik_input>
W05IMl1DKD1PKVtDSDJdbjFbY0hdYyhbY0hdbjEpW05IXUMoPU8pTjJbQ0gyXVtDSDJdU1tDSDJdW0NIMl0y

> <s_epik_cmdline>
J2VwaWtfcHl0aG9uJywgJy1waCcsICc3LjAnLCAnLXRuJywgJzgnLCAnLW1hJywgJzIwMCcsICctbWV0YWxfYmluZGluZycsICctaW1hZScsICc8aW5maWxlLm1hZT4nLCAnLW9tYWUnLCAnPG91dGZpbGUubWFlPic=

> <r_lp_tautomer_probability>
1

> <r_epik_Ionization_Penalty>
3.75542e-05

> <r_epik_Ionization_Penalty_Charging>
0

> <r_epik_Ionization_Penalty_Neutral>
3.75542e-05

> <r_epik_State_Penalty>
-0

> <r_epik_Charging_Adjusted_Penalty>
0

> <i_epik_Tot_Q>
0

> <i_epik_Tot_abs_Q>
0

> <r_epik_Metal_State_Penalty>
-0

> <b_epik_Metal_Only>
0

> <s_lp_Force_Field>
OPLS_2005

> <r_lp_Energy>
28.4964

> <b_lp_Chiralities_Consistent>
1

> <s_lp_Variant>
AV-unprocessed.smi:1497-1

> <Gold.Version>
5.8.1

> <Gold.Id.Protein>
6NUR|6NUR_protein|mol2

> <Gold.PLP.Fitness>
49.3129

> <Gold.PLP.PLP>
-40.8195

> <Gold.PLP.part.hbond>
-2.9655

> <Gold.PLP.part.metal>
0.0000

> <Gold.PLP.part.buried>
-1.5920

> <Gold.PLP.part.nonpolar>
-36.9139

> <Gold.PLP.part.repulsive>
0.9631

> <Gold.PLP.ligand.clash>
0.0000

> <Gold.PLP.ligand.torsion>
0.3101

> <Gold.PLP.Chemscore.Hbond>
2.0248

> <Gold.PLP.Chemscore.CHOScore>
1.0000

> <Gold.PLP.Chemscore.Metal>
0.0000

> <Gold.Chemscore.Hbonds>
donor molecule, donor type, donor heavy atom, donor atom, acceptor molecule, acceptor atom, score
      L1  H     1    19       P1  7948  0.58
      L1  H     1    20       P1  7957  1.00
      P1  H  7989  7998       L1    18  0.39
      L1  C     6    23       P1  8028  0.16

> <Gold.PLP.Chemscore.Internal.Correction>
0.0392

> <Gold.Rescore>
     Score         DG    S(hbond)    S(metal)    S(lipo)     H(rot)  DE(clash)    DE(int)     intcor
     15.50     -17.54       1.80        0.00      85.43       1.54       0.42       1.62       ----

> <Gold.Chemscore.Fitness>
15.5037

> <Gold.Chemscore.DG>
-17.5381

> <Gold.Chemscore.ZeroCoef>
-5.4800

> <Gold.Chemscore.Hbond>
1.7970

> <Gold.Chemscore.Metal>
0.0000

> <Gold.Chemscore.Lipo>
85.4307

> <Gold.Chemscore.Internal_Hbond>
0.0000

> <Gold.Chemscore.DEClash>
0.4160

> <Gold.Chemscore.DEInternal>
1.6184

> <Gold.Chemscore.Rot>
1.5388

> <Gold.Chemscore.Internal.Correction>
   9.000000E+99

> <Gold.Chemscore.Hbonds>
donor molecule, donor type, donor heavy atom, donor atom, acceptor molecule, acceptor atom, score
      L1  H     1    19       P1  7948  0.56
      L1  H     1    20       P1  7957  0.91

> <Gold.Chemscore.Hbond.Weighted>
-6.0019

> <Gold.Chemscore.Metal.Weighted>
-0.0000

> <Gold.Chemscore.Lipo.Weighted>
-9.9954

> <Gold.Chemscore.Internal_Hbond.Weighted>
0.0000

> <Gold.Chemscore.DEClash.Weighted>
0.4160

> <Gold.Chemscore.DEInternal.Weighted>
1.6184

> <Gold.Chemscore.Rot.Weighted>
3.9392

> <Gold.Chemscore.Internal.Correction.Weighted>
   9.000000E+99

> <Gold.Protein.RotatedTorsions>
[ 6907 6896 6895 6894 ] final   11.31 input  -60.11 | X-H torsion
[ 7974 7965 7964 7962 ] final   94.46 input  175.53 | X-H torsion
[ 8008 7997 7996 7995 ] final -158.01 input   59.86 | X-H torsion
[ 10167 10162 10161 10158 ] final   29.60 input  -65.29 | X-H torsion
[ 10718 10713 10712 10709 ] final  -25.47 input   66.30 | X-H torsion
[ 10763 10752 10751 10750 ] final   23.99 input  -60.55 | X-H torsion
[ 11005 11000 10999 10996 ] final -165.29 input  -57.11 | X-H torsion

> <Gold.Protein.ActiveResidues>
 VAL166  LYS551  ARG553  GLY616  TRP617  ASP618  TYR619  PRO620  LYS621  CYS622 
 ASP623  PHE694  ASN695  SER759  ASP760  ASP761  ALA762  ILE779  LEU786  VAL792 
 PHE793  MET794  SER795  GLU796  ALA797  LYS798  CYS799  TRP800  GLU811  SER814 

> <Gold.Protein.RotatedAtoms>
  151.7523  135.0830  160.0332 H   0  0  0  0  0  0  0  0  0  0  0  0  # atno 6907 bound_to 6896
  152.3408  133.6061  159.5884 H   0  0  0  0  0  0  0  0  0  0  0  0  # atno 6908 bound_to 6896
  150.7478  133.9641  159.3566 H   0  0  0  0  0  0  0  0  0  0  0  0  # atno 6909 bound_to 6896
  145.4653  139.2284  143.2965 H   0  0  0  0  0  0  0  0  0  0  0  0  # atno 7974 bound_to 7965
  155.7411  140.0814  157.2245 H   0  0  0  0  0  0  0  0  0  0  0  0  # atno 8008 bound_to 7997
  154.4022  140.1578  156.2672 H   0  0  0  0  0  0  0  0  0  0  0  0  # atno 8009 bound_to 7997
  155.9019  140.3409  155.6036 H   0  0  0  0  0  0  0  0  0  0  0  0  # atno 8010 bound_to 7997
  140.4752  144.0702  150.6248 H   0  0  0  0  0  0  0  0  0  0  0  0  # atno 10167 bound_to 10162
  156.4640  130.4510  149.6911 H   0  0  0  0  0  0  0  0  0  0  0  0  # atno 10718 bound_to 10713
  153.0797  135.6615  154.0072 H   0  0  0  0  0  0  0  0  0  0  0  0  # atno 10763 bound_to 10752
  153.9697  135.2966  155.3429 H   0  0  0  0  0  0  0  0  0  0  0  0  # atno 10764 bound_to 10752
  154.7193  135.5171  153.8858 H   0  0  0  0  0  0  0  0  0  0  0  0  # atno 10765 bound_to 10752
  140.5773  134.5177  157.5172 H   0  0  0  0  0  0  0  0  0  0  0  0  # atno 11005 bound_to 11000
  146.2428  140.5426  142.8927 LP  0  0  0  0  0  0  0  0  0  0  0  0  # atno 17320 bound_to 7965
  144.7978  140.6156  143.6498 LP  0  0  0  0  0  0  0  0  0  0  0  0  # atno 17321 bound_to 7965
  140.3928  143.2744  152.0040 LP  0  0  0  0  0  0  0  0  0  0  0  0  # atno 17342 bound_to 10162
  139.4824  144.6063  151.7515 LP  0  0  0  0  0  0  0  0  0  0  0  0  # atno 17343 bound_to 10162
  156.3687  130.7519  151.2500 LP  0  0  0  0  0  0  0  0  0  0  0  0  # atno 17370 bound_to 10713
  157.7496  131.0329  150.4248 LP  0  0  0  0  0  0  0  0  0  0  0  0  # atno 17371 bound_to 10713
  139.9333  134.7922  156.0870 LP  0  0  0  0  0  0  0  0  0  0  0  0  # atno 17394 bound_to 11000
  141.1018  133.6674  156.2773 LP  0  0  0  0  0  0  0  0  0  0  0  0  # atno 17395 bound_to 11000

$$$$
