AV-unprocessed.smi:1926|AV-procd|sdf|7794|dock1
  -GOLD-   22720 9533D 1   1.00000     0.00000
 Structure written by MMmdl.
 35 36  0  0  0  0  0  0  0  0  1 V2000
  148.2307  132.4055  153.2099 C   0  0  0  0  0  0  0  0  0  0  0  0
  147.5974  133.6144  152.8055 O   0  0  0  0  0  0  0  0  0  0  0  0
  146.3412  133.5429  152.2333 C   0  0  0  0  0  0  0  0  0  0  0  0
  145.7723  132.3207  152.0813 N   0  0  0  0  0  0  0  0  0  0  0  0
  144.5454  132.2473  151.5268 C   0  0  0  0  0  0  0  0  0  0  0  0
  143.8246  133.3775  151.1016 C   0  0  0  0  0  0  0  0  0  0  0  0
  144.4121  134.6464  151.2580 C   0  0  0  0  0  0  0  0  0  0  0  0
  145.7045  134.7412  151.8316 C   0  0  0  0  0  0  0  0  0  0  0  0
  146.4020  135.9640  152.0484 N   0  0  0  0  0  0  0  0  0  0  0  0
  145.9299  137.1721  152.4013 C   0  0  0  0  0  0  0  0  0  0  0  0
  144.7507  137.4489  152.6170 O   0  0  0  0  0  0  0  0  0  0  0  0
  146.9224  138.0692  152.4832 N   0  0  0  0  0  0  0  0  0  0  0  0
  146.7555  139.4762  152.8331 C   0  0  0  0  0  0  0  0  0  0  0  0
  147.7479  139.9268  153.9224 C   0  0  2  0  0  0  0  0  0  0  0  0
  148.0338  141.4154  153.9481 C   0  0  0  0  0  0  0  0  0  0  0  0
  149.3369  141.4681  154.7391 C   0  0  0  0  0  0  0  0  0  0  0  0
  150.0256  140.2591  154.4324 O   0  0  0  0  0  0  0  0  0  0  0  0
  149.1563  139.3585  153.7514 C   0  0  0  0  0  0  0  0  0  0  0  0
  149.2042  132.6362  153.6420 H   0  0  0  0  0  0  0  0  0  0  0  0
  148.3946  131.7378  152.3630 H   0  0  0  0  0  0  0  0  0  0  0  0
  147.6472  131.8841  153.9701 H   0  0  0  0  0  0  0  0  0  0  0  0
  144.1248  131.2583  151.4221 H   0  0  0  0  0  0  0  0  0  0  0  0
  142.8413  133.2741  150.6672 H   0  0  0  0  0  0  0  0  0  0  0  0
  143.8511  135.5101  150.9403 H   0  0  0  0  0  0  0  0  0  0  0  0
  147.3963  135.9173  151.8793 H   0  0  0  0  0  0  0  0  0  0  0  0
  147.8627  137.7580  152.2877 H   0  0  0  0  0  0  0  0  0  0  0  0
  146.8669  140.0949  151.9412 H   0  0  0  0  0  0  0  0  0  0  0  0
  145.7309  139.6166  153.1782 H   0  0  0  0  0  0  0  0  0  0  0  0
  147.3765  139.6283  154.9043 H   0  0  0  0  0  0  0  0  0  0  0  0
  148.1939  141.7909  152.9363 H   0  0  0  0  0  0  0  0  0  0  0  0
  147.2359  141.9992  154.4083 H   0  0  0  0  0  0  0  0  0  0  0  0
  149.9381  142.3441  154.4950 H   0  0  0  0  0  0  0  0  0  0  0  0
  149.1304  141.4866  155.8099 H   0  0  0  0  0  0  0  0  0  0  0  0
  149.2470  138.3449  154.1430 H   0  0  0  0  0  0  0  0  0  0  0  0
  149.4416  139.3397  152.6986 H   0  0  0  0  0  0  0  0  0  0  0  0
  1  2  1  0  0  0  0
  1 19  1  0  0  0  0
  1 20  1  0  0  0  0
  1 21  1  0  0  0  0
  2  3  1  0  0  0  0
  3  8  1  0  0  0  0
  3  4  2  0  0  0  0
  4  5  1  0  0  0  0
  5  6  2  0  0  0  0
  5 22  1  0  0  0  0
  6  7  1  0  0  0  0
  6 23  1  0  0  0  0
  7  8  2  0  0  0  0
  7 24  1  0  0  0  0
  8  9  1  0  0  0  0
  9 10  1  0  0  0  0
  9 25  1  0  0  0  0
 10 11  2  0  0  0  0
 10 12  1  0  0  0  0
 12 13  1  0  0  0  0
 12 26  1  0  0  0  0
 13 14  1  0  0  0  0
 13 27  1  0  0  0  0
 13 28  1  0  0  0  0
 14 18  1  0  0  0  0
 14 15  1  0  0  0  0
 14 29  1  0  0  0  0
 15 16  1  0  0  0  0
 15 30  1  0  0  0  0
 15 31  1  0  0  0  0
 16 17  1  0  0  0  0
 16 32  1  0  0  0  0
 16 33  1  0  0  0  0
 17 18  1  0  0  0  0
 18 34  1  0  0  0  0
 18 35  1  0  0  0  0
M  END
> <s_m_source_file>
AV-unprocessed.smi

> <i_m_source_file_index>
1926

> <i_lp_mmshare_version>
43012

> <i_f3d_flags>
0

> <s_epik_input>
W0NIM11PYzFuW2NIXVtjSF1bY0hdYzFbTkhdQyg9TylbTkhdW0NIMl1bQ0BASF0yW0NIMl1bQ0gyXU9bQ0gyXTI=

> <s_epik_cmdline>
J2VwaWtfcHl0aG9uJywgJy1waCcsICc3LjAnLCAnLXRuJywgJzgnLCAnLW1hJywgJzIwMCcsICctbWV0YWxfYmluZGluZycsICctaW1hZScsICc8aW5maWxlLm1hZT4nLCAnLW9tYWUnLCAnPG91dGZpbGUubWFlPic=

> <r_lp_tautomer_probability>
1

> <r_epik_Ionization_Penalty>
9.48928e-05

> <r_epik_Ionization_Penalty_Charging>
0

> <r_epik_Ionization_Penalty_Neutral>
9.48928e-05

> <r_epik_State_Penalty>
-0

> <r_epik_Charging_Adjusted_Penalty>
0

> <i_epik_Tot_Q>
0

> <i_epik_Tot_abs_Q>
0

> <r_epik_Metal_State_Penalty>
-0

> <b_epik_Metal_Only>
0

> <s_lp_Force_Field>
OPLS_2005

> <r_lp_Energy>
20.748

> <b_lp_Chiralities_Consistent>
1

> <s_lp_Variant>
AV-unprocessed.smi:1926-1

> <Gold.Version>
5.8.1

> <Gold.Id.Protein>
6NUR|6NUR_protein|mol2

> <Gold.PLP.Fitness>
38.4510

> <Gold.PLP.PLP>
-30.7249

> <Gold.PLP.part.hbond>
-3.0000

> <Gold.PLP.part.metal>
0.0000

> <Gold.PLP.part.buried>
-1.8330

> <Gold.PLP.part.nonpolar>
-27.0135

> <Gold.PLP.part.repulsive>
1.0659

> <Gold.PLP.ligand.clash>
0.0000

> <Gold.PLP.ligand.torsion>
0.5316

> <Gold.PLP.Chemscore.Hbond>
2.9280

> <Gold.PLP.Chemscore.CHOScore>
0.0000

> <Gold.PLP.Chemscore.Metal>
0.0000

> <Gold.Chemscore.Hbonds>
donor molecule, donor type, donor heavy atom, donor atom, acceptor molecule, acceptor atom, score
      L1  H     9    25       P1  7948  1.00
      L1  H    12    26       P1  7948  0.91
      P1  H  7989  7998       L1    17  0.96

> <Gold.PLP.Chemscore.Internal.Correction>
0.0054

> <Gold.Rescore>
     Score         DG    S(hbond)    S(metal)    S(lipo)     H(rot)  DE(clash)    DE(int)     intcor
     16.21     -18.30       2.60        0.00      68.19       1.50       1.68       0.41       ----

> <Gold.Chemscore.Fitness>
16.2119

> <Gold.Chemscore.DG>
-18.2979

> <Gold.Chemscore.ZeroCoef>
-5.4800

> <Gold.Chemscore.Hbond>
2.5965

> <Gold.Chemscore.Metal>
0.0000

> <Gold.Chemscore.Lipo>
68.1894

> <Gold.Chemscore.Internal_Hbond>
0.0000

> <Gold.Chemscore.DEClash>
1.6754

> <Gold.Chemscore.DEInternal>
0.4106

> <Gold.Chemscore.Rot>
1.4971

> <Gold.Chemscore.Internal.Correction>
   9.000000E+99

> <Gold.Chemscore.Hbonds>
donor molecule, donor type, donor heavy atom, donor atom, acceptor molecule, acceptor atom, score
      L1  H     9    25       P1  7948  0.96
      L1  H    12    26       P1  7948  0.88
      P1  H  7989  7998       L1    17  0.35

> <Gold.Chemscore.Hbond.Weighted>
-8.6723

> <Gold.Chemscore.Metal.Weighted>
-0.0000

> <Gold.Chemscore.Lipo.Weighted>
-7.9782

> <Gold.Chemscore.Internal_Hbond.Weighted>
0.0000

> <Gold.Chemscore.DEClash.Weighted>
1.6754

> <Gold.Chemscore.DEInternal.Weighted>
0.4106

> <Gold.Chemscore.Rot.Weighted>
3.8326

> <Gold.Chemscore.Internal.Correction.Weighted>
   9.000000E+99

> <Gold.Protein.RotatedTorsions>
[ 6907 6896 6895 6894 ] final -112.24 input  -60.11 | X-H torsion
[ 7974 7965 7964 7962 ] final  -50.18 input  175.53 | X-H torsion
[ 8008 7997 7996 7995 ] final -116.83 input   59.86 | X-H torsion
[ 10167 10162 10161 10158 ] final  -68.30 input  -65.29 | X-H torsion
[ 10718 10713 10712 10709 ] final -122.52 input   66.30 | X-H torsion
[ 10763 10752 10751 10750 ] final -140.77 input  -60.55 | X-H torsion
[ 11005 11000 10999 10996 ] final  168.20 input  -57.11 | X-H torsion

> <Gold.Protein.ActiveResidues>
 VAL166  LYS551  ARG553  GLY616  TRP617  ASP618  TYR619  PRO620  LYS621  CYS622 
 ASP623  PHE694  ASN695  SER759  ASP760  ASP761  ALA762  ILE779  LEU786  VAL792 
 PHE793  MET794  SER795  GLU796  ALA797  LYS798  CYS799  TRP800  GLU811  SER814 

> <Gold.Protein.RotatedAtoms>
  150.7745  133.9118  159.3371 H   0  0  0  0  0  0  0  0  0  0  0  0  # atno 6907 bound_to 6896
  151.6996  135.0930  160.0258 H   0  0  0  0  0  0  0  0  0  0  0  0  # atno 6908 bound_to 6896
  152.3775  133.6463  159.6171 H   0  0  0  0  0  0  0  0  0  0  0  0  # atno 6909 bound_to 6896
  145.9326  140.7735  142.9592 H   0  0  0  0  0  0  0  0  0  0  0  0  # atno 7974 bound_to 7965
  155.0741  140.0393  157.2618 H   0  0  0  0  0  0  0  0  0  0  0  0  # atno 8008 bound_to 7997
  154.6959  140.2663  155.6742 H   0  0  0  0  0  0  0  0  0  0  0  0  # atno 8009 bound_to 7997
  156.2744  140.2750  156.1553 H   0  0  0  0  0  0  0  0  0  0  0  0  # atno 8010 bound_to 7997
  140.5518  143.2312  151.6897 H   0  0  0  0  0  0  0  0  0  0  0  0  # atno 10167 bound_to 10162
  156.1425  130.6476  150.9792 H   0  0  0  0  0  0  0  0  0  0  0  0  # atno 10718 bound_to 10713
  154.8568  135.3543  154.5761 H   0  0  0  0  0  0  0  0  0  0  0  0  # atno 10763 bound_to 10752
  153.6373  135.7000  153.5259 H   0  0  0  0  0  0  0  0  0  0  0  0  # atno 10764 bound_to 10752
  153.3000  135.4209  155.1203 H   0  0  0  0  0  0  0  0  0  0  0  0  # atno 10765 bound_to 10752
  140.2847  134.7721  157.3788 H   0  0  0  0  0  0  0  0  0  0  0  0  # atno 11005 bound_to 11000
  144.6767  140.2152  143.7372 LP  0  0  0  0  0  0  0  0  0  0  0  0  # atno 17320 bound_to 7965
  145.8405  139.2128  143.1830 LP  0  0  0  0  0  0  0  0  0  0  0  0  # atno 17321 bound_to 7965
  139.5030  144.3805  152.0380 LP  0  0  0  0  0  0  0  0  0  0  0  0  # atno 17342 bound_to 10162
  140.2923  144.3740  150.6085 LP  0  0  0  0  0  0  0  0  0  0  0  0  # atno 17343 bound_to 10162
  157.6588  131.0884  150.7886 LP  0  0  0  0  0  0  0  0  0  0  0  0  # atno 17370 bound_to 10713
  156.7960  130.4905  149.5377 LP  0  0  0  0  0  0  0  0  0  0  0  0  # atno 17371 bound_to 10713
  140.1250  134.5169  155.8152 LP  0  0  0  0  0  0  0  0  0  0  0  0  # atno 17394 bound_to 11000
  141.2157  133.6769  156.6936 LP  0  0  0  0  0  0  0  0  0  0  0  0  # atno 17395 bound_to 11000

$$$$
