AV-unprocessed.smi:1145|AV-procd|sdf|4885|dock10
  -GOLD-   22720 3463D 1   1.00000     0.00000
 Structure written by MMmdl.
 36 37  0  0  0  0  0  0  0  0  1 V2000
  145.0685  136.3765  155.2703 C   0  0  0  0  0  0  0  0  0  0  0  0
  146.4602  135.8640  154.8554 C   0  0  1  0  0  0  0  0  0  0  0  0
  146.8512  134.5447  155.5513 C   0  0  0  0  0  0  0  0  0  0  0  0
  147.9334  133.8476  154.8804 N   0  0  0  0  0  0  0  0  0  0  0  0
  149.2190  133.6248  155.3275 C   0  0  0  0  0  0  0  0  0  0  0  0
  149.8698  132.9191  154.3564 C   0  0  0  0  0  0  0  0  0  0  0  0
  148.8854  132.7521  153.3426 C   0  0  0  0  0  0  0  0  0  0  0  0
  147.7268  133.3067  153.6603 N   0  0  0  0  0  0  0  0  0  0  0  0
  146.5158  135.6720  153.4088 N   0  0  0  0  0  0  0  0  0  0  0  0
  145.6803  134.9055  152.6901 C   0  0  0  0  0  0  0  0  0  0  0  0
  144.7576  134.2643  153.1937 O   0  0  0  0  0  0  0  0  0  0  0  0
  145.9232  134.8753  151.1688 C   0  0  1  0  0  0  0  0  0  0  0  0
  146.6216  133.5807  150.7135 C   0  0  0  0  0  0  0  0  0  0  0  0
  145.7131  132.3394  150.7959 C   0  0  0  0  0  0  0  0  0  0  0  0
  144.2818  132.5848  150.2950 C   0  0  0  0  0  0  0  0  0  0  0  0
  143.5593  131.6242  150.0398 O   0  0  0  0  0  0  0  0  0  0  0  0
  143.8339  133.8481  150.1871 N   0  0  0  0  0  0  0  0  0  0  0  0
  144.6264  135.0683  150.3509 C   0  0  0  0  0  0  0  0  0  0  0  0
  145.0232  136.5881  156.3387 H   0  0  0  0  0  0  0  0  0  0  0  0
  144.2933  135.6444  155.0424 H   0  0  0  0  0  0  0  0  0  0  0  0
  144.8163  137.3006  154.7494 H   0  0  0  0  0  0  0  0  0  0  0  0
  147.1980  136.6187  155.1346 H   0  0  0  0  0  0  0  0  0  0  0  0
  147.1538  134.7368  156.5818 H   0  0  0  0  0  0  0  0  0  0  0  0
  145.9922  133.8736  155.5998 H   0  0  0  0  0  0  0  0  0  0  0  0
  149.5599  133.9843  156.2870 H   0  0  0  0  0  0  0  0  0  0  0  0
  150.8928  132.5732  154.3683 H   0  0  0  0  0  0  0  0  0  0  0  0
  148.9768  132.2460  152.3928 H   0  0  0  0  0  0  0  0  0  0  0  0
  147.2447  136.1652  152.9142 H   0  0  0  0  0  0  0  0  0  0  0  0
  146.5823  135.7134  150.9353 H   0  0  0  0  0  0  0  0  0  0  0  0
  146.9597  133.7046  149.6838 H   0  0  0  0  0  0  0  0  0  0  0  0
  147.5242  133.4125  151.3024 H   0  0  0  0  0  0  0  0  0  0  0  0
  146.1571  131.5181  150.2326 H   0  0  0  0  0  0  0  0  0  0  0  0
  145.6468  132.0000  151.8301 H   0  0  0  0  0  0  0  0  0  0  0  0
  142.8739  133.9736  149.9004 H   0  0  0  0  0  0  0  0  0  0  0  0
  143.9964  135.8369  150.8005 H   0  0  0  0  0  0  0  0  0  0  0  0
  144.8798  135.4309  149.3541 H   0  0  0  0  0  0  0  0  0  0  0  0
  1  2  1  0  0  0  0
  1 19  1  0  0  0  0
  1 20  1  0  0  0  0
  1 21  1  0  0  0  0
  2  3  1  0  0  0  0
  2  9  1  0  0  0  0
  2 22  1  0  0  0  0
  3  4  1  0  0  0  0
  3 23  1  0  0  0  0
  3 24  1  0  0  0  0
  4  8  1  0  0  0  0
  4  5  1  0  0  0  0
  5  6  2  0  0  0  0
  5 25  1  0  0  0  0
  6  7  1  0  0  0  0
  6 26  1  0  0  0  0
  7  8  2  0  0  0  0
  7 27  1  0  0  0  0
  9 10  1  0  0  0  0
  9 28  1  0  0  0  0
 10 11  2  0  0  0  0
 10 12  1  0  0  0  0
 12 18  1  0  0  0  0
 12 13  1  0  0  0  0
 12 29  1  0  0  0  0
 13 14  1  0  0  0  0
 13 30  1  0  0  0  0
 13 31  1  0  0  0  0
 14 15  1  0  0  0  0
 14 32  1  0  0  0  0
 14 33  1  0  0  0  0
 15 16  2  0  0  0  0
 15 17  1  0  0  0  0
 17 18  1  0  0  0  0
 17 34  1  0  0  0  0
 18 35  1  0  0  0  0
 18 36  1  0  0  0  0
M  END
> <s_m_source_file>
AV-unprocessed.smi

> <i_m_source_file_index>
1145

> <i_lp_mmshare_version>
43012

> <i_f3d_flags>
0

> <s_epik_input>
bjFbY0hdW2NIXVtjSF1uMVtDSDJdW0NAQEhdKFtDSDNdKVtOSF1DKD1PKVtDQEBIXTJbQ0gyXVtDSDJdQyg9TylbTkhdW0NIMl0y

> <s_epik_cmdline>
J2VwaWtfcHl0aG9uJywgJy1waCcsICc3LjAnLCAnLXRuJywgJzgnLCAnLW1hJywgJzIwMCcsICctbWV0YWxfYmluZGluZycsICctaW1hZScsICc8aW5maWxlLm1hZT4nLCAnLW9tYWUnLCAnPG91dGZpbGUubWFlPic=

> <r_lp_tautomer_probability>
1

> <r_epik_Ionization_Penalty>
0.000314064

> <r_epik_Ionization_Penalty_Charging>
0

> <r_epik_Ionization_Penalty_Neutral>
0.000314064

> <r_epik_State_Penalty>
-0

> <r_epik_Charging_Adjusted_Penalty>
0

> <i_epik_Tot_Q>
0

> <i_epik_Tot_abs_Q>
0

> <r_epik_Metal_State_Penalty>
-0

> <b_epik_Metal_Only>
0

> <s_lp_Force_Field>
OPLS_2005

> <r_lp_Energy>
8.22521

> <b_lp_Chiralities_Consistent>
1

> <s_lp_Variant>
AV-unprocessed.smi:1145-4

> <Gold.Version>
5.8.1

> <Gold.Id.Protein>
6NUR|6NUR_protein|mol2

> <Gold.PLP.Fitness>
35.9767

> <Gold.PLP.PLP>
-25.3062

> <Gold.PLP.part.hbond>
-3.0000

> <Gold.PLP.part.metal>
0.0000

> <Gold.PLP.part.buried>
-5.0425

> <Gold.PLP.part.nonpolar>
-18.2921

> <Gold.PLP.part.repulsive>
1.0552

> <Gold.PLP.ligand.clash>
0.0000

> <Gold.PLP.ligand.torsion>
0.6719

> <Gold.PLP.Chemscore.Hbond>
2.9920

> <Gold.PLP.Chemscore.CHOScore>
1.0000

> <Gold.PLP.Chemscore.Metal>
0.0000

> <Gold.Chemscore.Hbonds>
donor molecule, donor type, donor heavy atom, donor atom, acceptor molecule, acceptor atom, score
      L1  H     9    28       P1  7948  1.00
      L1  H    17    34       P1 10186  1.00
      P1  H 10785 10796       L1    16  0.94
      L1  C     7    27       P1 10747  1.00

> <Gold.PLP.Chemscore.Internal.Correction>
0.0381

> <Gold.Rescore>
     Score         DG    S(hbond)    S(metal)    S(lipo)     H(rot)  DE(clash)    DE(int)     intcor
     14.74     -16.34       2.94        0.00      48.18       1.80       0.14       1.45       ----

> <Gold.Chemscore.Fitness>
14.7439

> <Gold.Chemscore.DG>
-16.3353

> <Gold.Chemscore.ZeroCoef>
-5.4800

> <Gold.Chemscore.Hbond>
2.9406

> <Gold.Chemscore.Metal>
0.0000

> <Gold.Chemscore.Lipo>
48.1811

> <Gold.Chemscore.Internal_Hbond>
0.0000

> <Gold.Chemscore.DEClash>
0.1450

> <Gold.Chemscore.DEInternal>
1.4464

> <Gold.Chemscore.Rot>
1.7982

> <Gold.Chemscore.Internal.Correction>
   9.000000E+99

> <Gold.Chemscore.Hbonds>
donor molecule, donor type, donor heavy atom, donor atom, acceptor molecule, acceptor atom, score
      L1  H     9    28       P1  7948  0.92
      L1  H    17    34       P1 10186  0.99
      P1  H 10785 10796       L1    16  0.87

> <Gold.Chemscore.Hbond.Weighted>
-9.8216

> <Gold.Chemscore.Metal.Weighted>
-0.0000

> <Gold.Chemscore.Lipo.Weighted>
-5.6372

> <Gold.Chemscore.Internal_Hbond.Weighted>
0.0000

> <Gold.Chemscore.DEClash.Weighted>
0.1450

> <Gold.Chemscore.DEInternal.Weighted>
1.4464

> <Gold.Chemscore.Rot.Weighted>
4.6035

> <Gold.Chemscore.Internal.Correction.Weighted>
   9.000000E+99

> <Gold.Protein.RotatedTorsions>
[ 6907 6896 6895 6894 ] final -157.32 input  -60.11 | X-H torsion
[ 7974 7965 7964 7962 ] final   79.02 input  175.53 | X-H torsion
[ 8008 7997 7996 7995 ] final    9.67 input   59.86 | X-H torsion
[ 10167 10162 10161 10158 ] final  -37.85 input  -65.29 | X-H torsion
[ 10718 10713 10712 10709 ] final   94.68 input   66.30 | X-H torsion
[ 10763 10752 10751 10750 ] final  -48.82 input  -60.55 | X-H torsion
[ 11005 11000 10999 10996 ] final  144.58 input  -57.11 | X-H torsion

> <Gold.Protein.ActiveResidues>
 VAL166  LYS551  ARG553  GLY616  TRP617  ASP618  TYR619  PRO620  LYS621  CYS622 
 ASP623  PHE694  ASN695  SER759  ASP760  ASP761  ALA762  ILE779  LEU786  VAL792 
 PHE793  MET794  SER795  GLU796  ALA797  LYS798  CYS799  TRP800  GLU811  SER814 

> <Gold.Protein.RotatedAtoms>
  151.3010  133.4122  159.2639 H   0  0  0  0  0  0  0  0  0  0  0  0  # atno 6907 bound_to 6896
  151.0195  134.9459  159.8062 H   0  0  0  0  0  0  0  0  0  0  0  0  # atno 6908 bound_to 6896
  152.5321  134.2973  159.9118 H   0  0  0  0  0  0  0  0  0  0  0  0  # atno 6909 bound_to 6896
  145.6696  139.2493  143.1876 H   0  0  0  0  0  0  0  0  0  0  0  0  # atno 7974 bound_to 7965
  154.7831  140.2822  155.6049 H   0  0  0  0  0  0  0  0  0  0  0  0  # atno 8008 bound_to 7997
  156.2953  140.2619  156.2589 H   0  0  0  0  0  0  0  0  0  0  0  0  # atno 8009 bound_to 7997
  154.9761  140.0375  157.2246 H   0  0  0  0  0  0  0  0  0  0  0  0  # atno 8010 bound_to 7997
  140.7108  143.3315  151.2558 H   0  0  0  0  0  0  0  0  0  0  0  0  # atno 10167 bound_to 10162
  157.6946  131.0520  150.4223 H   0  0  0  0  0  0  0  0  0  0  0  0  # atno 10718 bound_to 10713
  154.0840  135.6587  153.4842 H   0  0  0  0  0  0  0  0  0  0  0  0  # atno 10763 bound_to 10752
  153.0345  135.5187  154.7445 H   0  0  0  0  0  0  0  0  0  0  0  0  # atno 10764 bound_to 10752
  154.6549  135.3006  154.9908 H   0  0  0  0  0  0  0  0  0  0  0  0  # atno 10765 bound_to 10752
  140.0643  134.9187  157.1238 H   0  0  0  0  0  0  0  0  0  0  0  0  # atno 11005 bound_to 11000
  146.1057  140.7490  142.9527 LP  0  0  0  0  0  0  0  0  0  0  0  0  # atno 17320 bound_to 7965
  144.7061  140.3858  143.7117 LP  0  0  0  0  0  0  0  0  0  0  0  0  # atno 17321 bound_to 7965
  139.6798  143.9873  152.2802 LP  0  0  0  0  0  0  0  0  0  0  0  0  # atno 17342 bound_to 10162
  139.9500  144.6627  150.8182 LP  0  0  0  0  0  0  0  0  0  0  0  0  # atno 17343 bound_to 10162
  156.4597  130.4029  149.6584 LP  0  0  0  0  0  0  0  0  0  0  0  0  # atno 17370 bound_to 10713
  156.3704  130.7527  151.2510 LP  0  0  0  0  0  0  0  0  0  0  0  0  # atno 17371 bound_to 10713
  140.3722  134.2378  155.7177 LP  0  0  0  0  0  0  0  0  0  0  0  0  # atno 17394 bound_to 11000
  141.1986  133.8031  157.0574 LP  0  0  0  0  0  0  0  0  0  0  0  0  # atno 17395 bound_to 11000

$$$$
