AV-unprocessed.smi:155|AV-procd|sdf|1270|dock5
  -GOLD-   2262018523D 1   1.00000     0.00000
 Structure written by MMmdl.
 63 66  0  0  0  0  0  0  0  0  2 V2000
  152.6704  140.8380  160.0202 C   0  0  0  0  0  0  0  0  0  0  0  0
  151.5953  141.8198  159.9684 N   0  0  0  0  0  0  0  0  0  0  0  0
  152.1843  143.1455  160.1271 C   0  0  0  0  0  0  0  0  0  0  0  0
  150.8898  141.6914  158.6928 C   0  0  0  0  0  0  0  0  0  0  0  0
  149.7585  142.7301  158.5448 C   0  0  0  0  0  0  0  0  0  0  0  0
  148.7649  142.3186  157.5187 N   0  3  1  0  0  0  0  0  0  0  0  0
  149.4064  141.9991  156.2188 C   0  0  0  0  0  0  0  0  0  0  0  0
  148.4014  141.8371  155.0658 C   0  0  0  0  0  0  0  0  0  0  0  0
  147.6248  140.5123  155.1139 C   0  0  0  0  0  0  0  0  0  0  0  0
  146.4767  140.5356  156.0227 N   0  0  0  0  0  0  0  0  0  0  0  0
  145.4838  139.6265  155.8297 C   0  0  0  0  0  0  0  0  0  0  0  0
  144.6289  139.3628  156.8538 N   0  0  0  0  0  0  0  0  0  0  0  0
  143.6398  138.4780  156.7018 C   0  0  0  0  0  0  0  0  0  0  0  0
  143.3277  137.7538  155.6266 N   0  0  0  0  0  0  0  0  0  0  0  0
  144.1812  138.0075  154.5941 C   0  0  0  0  0  0  0  0  0  0  0  0
  145.2806  138.9133  154.6112 C   0  0  0  0  0  0  0  0  0  0  0  0
  145.9383  138.8747  153.3862 N   0  0  0  0  0  0  0  0  0  0  0  0
  145.2603  138.0083  152.6849 C   0  0  0  0  0  0  0  0  0  0  0  0
  144.1767  137.4527  153.3261 N   0  0  0  0  0  0  0  0  0  0  0  0
  143.2574  136.4662  152.7810 C   0  0  0  0  0  0  0  0  0  0  0  0
  143.6911  134.9907  152.9720 C   0  0  1  0  0  0  0  0  0  0  0  0
  142.5800  134.1587  153.2367 O   0  0  0  0  0  0  0  0  0  0  0  0
  144.5337  134.3405  151.8493 C   0  0  2  0  0  0  0  0  0  0  0  0
  143.7678  134.0821  150.5527 C   0  0  0  0  0  0  0  0  0  0  0  0
  144.6745  133.0889  149.8610 C   0  0  0  0  0  0  0  0  0  0  0  0
  145.2016  132.2560  151.0285 C   0  0  0  0  0  0  0  0  0  0  0  0
  145.0524  133.0609  152.1965 O   0  0  0  0  0  0  0  0  0  0  0  0
  146.4962  141.2900  157.2768 C   0  0  0  0  0  0  0  0  0  0  0  0
  147.8517  141.2494  157.9995 C   0  0  0  0  0  0  0  0  0  0  0  0
  152.2721  139.8259  159.9387 H   0  0  0  0  0  0  0  0  0  0  0  0
  153.2062  140.9037  160.9681 H   0  0  0  0  0  0  0  0  0  0  0  0
  153.3871  140.9890  159.2113 H   0  0  0  0  0  0  0  0  0  0  0  0
  151.4228  143.9233  160.1607 H   0  0  0  0  0  0  0  0  0  0  0  0
  152.8731  143.3753  159.3127 H   0  0  0  0  0  0  0  0  0  0  0  0
  152.7395  143.2042  161.0640 H   0  0  0  0  0  0  0  0  0  0  0  0
  151.6008  141.7917  157.8712 H   0  0  0  0  0  0  0  0  0  0  0  0
  150.4712  140.6883  158.6087 H   0  0  0  0  0  0  0  0  0  0  0  0
  149.2798  142.8965  159.5092 H   0  0  0  0  0  0  0  0  0  0  0  0
  150.1772  143.6984  158.2661 H   0  0  0  0  0  0  0  0  0  0  0  0
  150.0755  142.8190  155.9542 H   0  0  0  0  0  0  0  0  0  0  0  0
  150.0311  141.1098  156.3163 H   0  0  0  0  0  0  0  0  0  0  0  0
  147.7245  142.6905  155.0063 H   0  0  0  0  0  0  0  0  0  0  0  0
  148.9706  141.8473  154.1356 H   0  0  0  0  0  0  0  0  0  0  0  0
  147.2568  140.3064  154.1075 H   0  0  0  0  0  0  0  0  0  0  0  0
  148.2884  139.6872  155.3758 H   0  0  0  0  0  0  0  0  0  0  0  0
  143.0070  138.3305  157.5646 H   0  0  0  0  0  0  0  0  0  0  0  0
  145.5268  137.7563  151.6687 H   0  0  0  0  0  0  0  0  0  0  0  0
  142.2767  136.6301  153.2272 H   0  0  0  0  0  0  0  0  0  0  0  0
  143.1356  136.6763  151.7177 H   0  0  0  0  0  0  0  0  0  0  0  0
  144.2918  134.9536  153.8815 H   0  0  0  0  0  0  0  0  0  0  0  0
  142.8425  133.4927  153.8537 H   0  0  0  0  0  0  0  0  0  0  0  0
  145.3818  134.9859  151.6118 H   0  0  0  0  0  0  0  0  0  0  0  0
  142.7999  133.6215  150.7508 H   0  0  0  0  0  0  0  0  0  0  0  0
  143.6033  134.9878  149.9680 H   0  0  0  0  0  0  0  0  0  0  0  0
  144.1603  132.4912  149.1077 H   0  0  0  0  0  0  0  0  0  0  0  0
  145.4978  133.6146  149.3751 H   0  0  0  0  0  0  0  0  0  0  0  0
  144.6113  131.3481  151.1558 H   0  0  0  0  0  0  0  0  0  0  0  0
  146.2422  131.9648  150.8827 H   0  0  0  0  0  0  0  0  0  0  0  0
  146.1787  142.3177  157.0963 H   0  0  0  0  0  0  0  0  0  0  0  0
  145.7653  140.8624  157.9636 H   0  0  0  0  0  0  0  0  0  0  0  0
  148.3200  140.2657  157.9370 H   0  0  0  0  0  0  0  0  0  0  0  0
  147.6494  141.4123  159.0578 H   0  0  0  0  0  0  0  0  0  0  0  0
  148.1971  143.1384  157.3569 H   0  0  0  0  0  0  0  0  0  0  0  0
  1  2  1  0  0  0  0
  1 30  1  0  0  0  0
  1 31  1  0  0  0  0
  1 32  1  0  0  0  0
  2  3  1  0  0  0  0
  2  4  1  0  0  0  0
  3 33  1  0  0  0  0
  3 34  1  0  0  0  0
  3 35  1  0  0  0  0
  4  5  1  0  0  0  0
  4 36  1  0  0  0  0
  4 37  1  0  0  0  0
  5  6  1  0  0  0  0
  5 38  1  0  0  0  0
  5 39  1  0  0  0  0
  6 29  1  0  0  0  0
  6  7  1  0  0  0  0
  6 63  1  0  0  0  0
  7  8  1  0  0  0  0
  7 40  1  0  0  0  0
  7 41  1  0  0  0  0
  8  9  1  0  0  0  0
  8 42  1  0  0  0  0
  8 43  1  0  0  0  0
  9 10  1  0  0  0  0
  9 44  1  0  0  0  0
  9 45  1  0  0  0  0
 10 11  1  0  0  0  0
 10 28  1  0  0  0  0
 11 16  1  0  0  0  0
 11 12  2  0  0  0  0
 12 13  1  0  0  0  0
 13 14  2  0  0  0  0
 13 46  1  0  0  0  0
 14 15  1  0  0  0  0
 15 19  1  0  0  0  0
 15 16  2  0  0  0  0
 16 17  1  0  0  0  0
 17 18  2  0  0  0  0
 18 19  1  0  0  0  0
 18 47  1  0  0  0  0
 19 20  1  0  0  0  0
 20 21  1  0  0  0  0
 20 48  1  0  0  0  0
 20 49  1  0  0  0  0
 21 22  1  0  0  0  0
 21 23  1  0  0  0  0
 21 50  1  0  0  0  0
 22 51  1  0  0  0  0
 23 27  1  0  0  0  0
 23 24  1  0  0  0  0
 23 52  1  0  0  0  0
 24 25  1  0  0  0  0
 24 53  1  0  0  0  0
 24 54  1  0  0  0  0
 25 26  1  0  0  0  0
 25 55  1  0  0  0  0
 25 56  1  0  0  0  0
 26 27  1  0  0  0  0
 26 57  1  0  0  0  0
 26 58  1  0  0  0  0
 28 29  1  0  0  0  0
 28 59  1  0  0  0  0
 28 60  1  0  0  0  0
 29 61  1  0  0  0  0
 29 62  1  0  0  0  0
M  CHG  1   6   1
M  END
> <s_m_source_file>
AV-unprocessed.smi

> <i_m_source_file_index>
155

> <i_lp_mmshare_version>
43012

> <i_f3d_flags>
0

> <s_epik_input>
W0NIM11OKFtDSDNdKVtDSDJdW0NIMl1OMVtDSDJdW0NIMl1bQ0gyXU4oW0NIMl1bQ0gyXTEpYyhuW2NIXW4yKWMoYzIzKW5bY0hdbjNbQ0gyXVtDQEhdKFtPSF0pW0NAQEhdNFtDSDJdW0NIMl1bQ0gyXU80

> <s_epik_cmdline>
J2VwaWtfcHl0aG9uJywgJy1waCcsICc3LjAnLCAnLXRuJywgJzgnLCAnLW1hJywgJzIwMCcsICctbWV0YWxfYmluZGluZycsICctaW1hZScsICc8aW5maWxlLm1hZT4nLCAnLW9tYWUnLCAnPG91dGZpbGUubWFlPic=

> <r_epik_Ionization_Penalty>
0.0619615

> <r_epik_Ionization_Penalty_Charging>
0.0161638

> <r_epik_Ionization_Penalty_Neutral>
0.0457976

> <r_epik_State_Penalty>
0.403408

> <r_epik_Charging_Adjusted_Penalty>
0.419572

> <i_epik_Tot_Q>
1

> <i_epik_Tot_abs_Q>
1

> <r_epik_Metal_State_Penalty>
0.404222

> <b_epik_Metal_Only>
0

> <s_lp_Force_Field>
OPLS_2005

> <r_lp_Energy>
53.2961

> <b_lp_Chiralities_Consistent>
1

> <s_lp_Variant>
AV-unprocessed.smi:155-4

> <Gold.Version>
5.8.1

> <Gold.Id.Protein>
6NUR|6NUR_protein|mol2

> <Gold.PLP.Fitness>
48.4035

> <Gold.PLP.PLP>
-41.1130

> <Gold.PLP.part.hbond>
-2.0000

> <Gold.PLP.part.metal>
0.0000

> <Gold.PLP.part.buried>
-6.2609

> <Gold.PLP.part.nonpolar>
-33.5339

> <Gold.PLP.part.repulsive>
0.5139

> <Gold.PLP.ligand.clash>
0.0000

> <Gold.PLP.ligand.torsion>
1.1324

> <Gold.PLP.Chemscore.Hbond>
3.0000

> <Gold.PLP.Chemscore.CHOScore>
0.1161

> <Gold.PLP.Chemscore.Metal>
0.0000

> <Gold.Chemscore.Hbonds>
donor molecule, donor type, donor heavy atom, donor atom, acceptor molecule, acceptor atom, score
      L1  H     6    63       P1  8028  0.05
      L1  H    22    51       P1 10957  1.00
      L1  C    18    47       P1 10171  0.55

> <Gold.PLP.Chemscore.Internal.Correction>
0.2071

> <Gold.Rescore>
     Score         DG    S(hbond)    S(metal)    S(lipo)     H(rot)  DE(clash)    DE(int)     intcor
     14.80     -17.33       1.95        0.00     103.11       2.63       0.19       2.35       ----

> <Gold.Chemscore.Fitness>
14.7968

> <Gold.Chemscore.DG>
-17.3338

> <Gold.Chemscore.ZeroCoef>
-5.4800

> <Gold.Chemscore.Hbond>
1.9548

> <Gold.Chemscore.Metal>
0.0000

> <Gold.Chemscore.Lipo>
103.1081

> <Gold.Chemscore.Internal_Hbond>
0.0000

> <Gold.Chemscore.DEClash>
0.1903

> <Gold.Chemscore.DEInternal>
2.3467

> <Gold.Chemscore.Rot>
2.6324

> <Gold.Chemscore.Internal.Correction>
   9.000000E+99

> <Gold.Chemscore.Hbonds>
donor molecule, donor type, donor heavy atom, donor atom, acceptor molecule, acceptor atom, score
      L1  H    22    51       P1 10957  0.96

> <Gold.Chemscore.Hbond.Weighted>
-6.5291

> <Gold.Chemscore.Metal.Weighted>
-0.0000

> <Gold.Chemscore.Lipo.Weighted>
-12.0637

> <Gold.Chemscore.Internal_Hbond.Weighted>
0.0000

> <Gold.Chemscore.DEClash.Weighted>
0.1903

> <Gold.Chemscore.DEInternal.Weighted>
2.3467

> <Gold.Chemscore.Rot.Weighted>
6.7389

> <Gold.Chemscore.Internal.Correction.Weighted>
   9.000000E+99

> <Gold.Protein.RotatedTorsions>
[ 6907 6896 6895 6894 ] final  118.59 input  -60.11 | X-H torsion
[ 7974 7965 7964 7962 ] final    6.46 input  175.53 | X-H torsion
[ 8008 7997 7996 7995 ] final  -10.05 input   59.86 | X-H torsion
[ 10167 10162 10161 10158 ] final   91.72 input  -65.29 | X-H torsion
[ 10718 10713 10712 10709 ] final -123.31 input   66.30 | X-H torsion
[ 10763 10752 10751 10750 ] final  171.06 input  -60.55 | X-H torsion
[ 11005 11000 10999 10996 ] final -161.80 input  -57.11 | X-H torsion

> <Gold.Protein.ActiveResidues>
 VAL166  LYS551  ARG553  GLY616  TRP617  ASP618  TYR619  PRO620  LYS621  CYS622 
 ASP623  PHE694  ASN695  SER759  ASP760  ASP761  ALA762  ILE779  LEU786  VAL792 
 PHE793  MET794  SER795  GLU796  ALA797  LYS798  CYS799  TRP800  GLU811  SER814 

> <Gold.Protein.RotatedAtoms>
  152.4532  133.7671  159.6778 H   0  0  0  0  0  0  0  0  0  0  0  0  # atno 6907 bound_to 6896
  150.8450  133.7865  159.3052 H   0  0  0  0  0  0  0  0  0  0  0  0  # atno 6908 bound_to 6896
  151.5478  135.1070  159.9994 H   0  0  0  0  0  0  0  0  0  0  0  0  # atno 6909 bound_to 6896
  146.2434  140.0230  142.8396 H   0  0  0  0  0  0  0  0  0  0  0  0  # atno 7974 bound_to 7965
  154.5590  140.2339  155.8365 H   0  0  0  0  0  0  0  0  0  0  0  0  # atno 8008 bound_to 7997
  156.2013  140.3051  155.9492 H   0  0  0  0  0  0  0  0  0  0  0  0  # atno 8009 bound_to 7997
  155.2925  140.0427  157.3014 H   0  0  0  0  0  0  0  0  0  0  0  0  # atno 8010 bound_to 7997
  139.8347  144.6670  150.9356 H   0  0  0  0  0  0  0  0  0  0  0  0  # atno 10167 bound_to 10162
  156.1491  130.6521  150.9887 H   0  0  0  0  0  0  0  0  0  0  0  0  # atno 10718 bound_to 10713
  154.4065  135.2755  155.2064 H   0  0  0  0  0  0  0  0  0  0  0  0  # atno 10763 bound_to 10752
  154.4068  135.6032  153.5932 H   0  0  0  0  0  0  0  0  0  0  0  0  # atno 10764 bound_to 10752
  152.9831  135.5939  154.4340 H   0  0  0  0  0  0  0  0  0  0  0  0  # atno 10765 bound_to 10752
  140.6164  134.4796  157.5220 H   0  0  0  0  0  0  0  0  0  0  0  0  # atno 11005 bound_to 11000
  145.1224  140.9470  143.4592 LP  0  0  0  0  0  0  0  0  0  0  0  0  # atno 17320 bound_to 7965
  145.0468  139.3214  143.5949 LP  0  0  0  0  0  0  0  0  0  0  0  0  # atno 17321 bound_to 7965
  140.7803  143.3968  151.1216 LP  0  0  0  0  0  0  0  0  0  0  0  0  # atno 17342 bound_to 10162
  139.7619  143.8623  152.3102 LP  0  0  0  0  0  0  0  0  0  0  0  0  # atno 17343 bound_to 10162
  157.6642  131.0875  150.7768 LP  0  0  0  0  0  0  0  0  0  0  0  0  # atno 17370 bound_to 10713
  156.7837  130.4868  149.5396 LP  0  0  0  0  0  0  0  0  0  0  0  0  # atno 17371 bound_to 10713
  139.9171  134.8224  156.1330 LP  0  0  0  0  0  0  0  0  0  0  0  0  # atno 17394 bound_to 11000
  141.0773  133.6770  156.2262 LP  0  0  0  0  0  0  0  0  0  0  0  0  # atno 17395 bound_to 11000

$$$$
