AV-unprocessed.smi:101|AV-procd|sdf|916|dock5
  -GOLD-   2262017413D 1   1.00000     0.00000
 Structure written by MMmdl.
 44 46  0  0  0  0  0  0  0  0  1 V2000
  146.1272  141.5835  157.7637 C   0  0  0  0  0  0  0  0  0  0  0  0
  146.5167  141.1418  156.3627 C   0  0  0  0  0  0  0  0  0  0  0  0
  147.8045  140.8963  156.0093 C   0  0  0  0  0  0  0  0  0  0  0  0
  148.1902  140.4923  154.7372 N   0  0  0  0  0  0  0  0  0  0  0  0
  149.6386  140.2224  154.3769 C   0  0  1  0  0  0  0  0  0  0  0  0
  150.4550  140.5171  155.4744 O   0  0  0  0  0  0  0  0  0  0  0  0
  151.0459  139.3218  155.9723 C   0  0  2  0  0  0  0  0  0  0  0  0
  152.3473  139.6392  156.7218 C   0  0  0  0  0  0  0  0  0  0  0  0
  152.1753  140.7883  157.5363 O   0  0  0  0  0  0  0  0  0  0  0  0
  152.9074  140.9411  158.6553 C   0  0  0  0  0  0  0  0  0  0  0  0
  153.7494  140.1259  159.0374 O   0  0  0  0  0  0  0  0  0  0  0  0
  152.5908  142.2025  159.3852 C   0  0  0  0  0  0  0  0  0  0  0  0
  152.7702  142.2559  160.7873 C   0  0  0  0  0  0  0  0  0  0  0  0
  152.4773  143.4328  161.5034 C   0  0  0  0  0  0  0  0  0  0  0  0
  152.0011  144.5707  160.8266 C   0  0  0  0  0  0  0  0  0  0  0  0
  151.8183  144.5305  159.4321 C   0  0  0  0  0  0  0  0  0  0  0  0
  152.1112  143.3547  158.7138 C   0  0  0  0  0  0  0  0  0  0  0  0
  151.1927  138.4482  154.7276 C   0  0  1  0  0  0  0  0  0  0  0  0
  151.3704  137.0771  155.0308 O   0  0  0  0  0  0  0  0  0  0  0  0
  149.8997  138.7485  153.9764 C   0  0  1  0  0  0  0  0  0  0  0  0
  148.8493  137.8666  154.3462 O   0  0  0  0  0  0  0  0  0  0  0  0
  147.2065  140.3046  153.7451 C   0  0  0  0  0  0  0  0  0  0  0  0
  147.4742  139.9242  152.6060 O   0  0  0  0  0  0  0  0  0  0  0  0
  145.8851  140.5597  154.1060 N   0  0  0  0  0  0  0  0  0  0  0  0
  145.4536  140.9769  155.3675 C   0  0  0  0  0  0  0  0  0  0  0  0
  144.2556  141.1716  155.5659 O   0  0  0  0  0  0  0  0  0  0  0  0
  145.1783  140.4284  153.3972 H   0  0  0  0  0  0  0  0  0  0  0  0
  146.9939  141.6558  158.4210 H   0  0  0  0  0  0  0  0  0  0  0  0
  145.4296  140.8730  158.2086 H   0  0  0  0  0  0  0  0  0  0  0  0
  145.6477  142.5627  157.7344 H   0  0  0  0  0  0  0  0  0  0  0  0
  148.5601  141.0222  156.7694 H   0  0  0  0  0  0  0  0  0  0  0  0
  149.8950  140.9348  153.5905 H   0  0  0  0  0  0  0  0  0  0  0  0
  150.3390  138.8557  156.6606 H   0  0  0  0  0  0  0  0  0  0  0  0
  152.6365  138.7891  157.3410 H   0  0  0  0  0  0  0  0  0  0  0  0
  153.1534  139.8132  156.0075 H   0  0  0  0  0  0  0  0  0  0  0  0
  153.1345  141.3950  161.3292 H   0  0  0  0  0  0  0  0  0  0  0  0
  152.6182  143.4616  162.5737 H   0  0  0  0  0  0  0  0  0  0  0  0
  151.7767  145.4728  161.3765 H   0  0  0  0  0  0  0  0  0  0  0  0
  151.4522  145.4032  158.9113 H   0  0  0  0  0  0  0  0  0  0  0  0
  151.9594  143.3578  157.6443 H   0  0  0  0  0  0  0  0  0  0  0  0
  152.0357  138.7888  154.1252 H   0  0  0  0  0  0  0  0  0  0  0  0
  150.8194  136.8586  155.7670 H   0  0  0  0  0  0  0  0  0  0  0  0
  150.0376  138.6826  152.8966 H   0  0  0  0  0  0  0  0  0  0  0  0
  148.6647  137.2994  153.6130 H   0  0  0  0  0  0  0  0  0  0  0  0
  1  2  1  0  0  0  0
  1 28  1  0  0  0  0
  1 29  1  0  0  0  0
  1 30  1  0  0  0  0
  2 25  1  0  0  0  0
  2  3  2  0  0  0  0
  3  4  1  0  0  0  0
  3 31  1  0  0  0  0
  4  5  1  0  0  0  0
  4 22  1  0  0  0  0
  5 20  1  0  0  0  0
  5  6  1  0  0  0  0
  5 32  1  0  0  0  0
  6  7  1  0  0  0  0
  7  8  1  0  0  0  0
  7 18  1  0  0  0  0
  7 33  1  0  0  0  0
  8  9  1  0  0  0  0
  8 34  1  0  0  0  0
  8 35  1  0  0  0  0
  9 10  1  0  0  0  0
 10 11  2  0  0  0  0
 10 12  1  0  0  0  0
 12 17  1  0  0  0  0
 12 13  2  0  0  0  0
 13 14  1  0  0  0  0
 13 36  1  0  0  0  0
 14 15  2  0  0  0  0
 14 37  1  0  0  0  0
 15 16  1  0  0  0  0
 15 38  1  0  0  0  0
 16 17  2  0  0  0  0
 16 39  1  0  0  0  0
 17 40  1  0  0  0  0
 18 19  1  0  0  0  0
 18 20  1  0  0  0  0
 18 41  1  0  0  0  0
 19 42  1  0  0  0  0
 20 21  1  0  0  0  0
 20 43  1  0  0  0  0
 21 44  1  0  0  0  0
 22 23  2  0  0  0  0
 22 24  1  0  0  0  0
 24 27  1  0  0  0  0
 24 25  1  0  0  0  0
 25 26  2  0  0  0  0
M  END
> <s_m_source_file>
AV-unprocessed.smi

> <i_m_source_file_index>
101

> <i_lp_mmshare_version>
43012

> <i_f3d_flags>
0

> <s_epik_input>
Tz1jMVtuSF1jKD1PKW4oW2NIXWMxW0NIM10pW0NAQEhdMk9bQ0BIXShbQ0BASF0oW09IXSlbQ0BIXTJbT0hdKVtDSDJdT0MoPU8pYzNbY0hdW2NIXVtjSF1bY0hdW2NIXTM=

> <s_epik_cmdline>
J2VwaWtfcHl0aG9uJywgJy1waCcsICc3LjAnLCAnLXRuJywgJzgnLCAnLW1hJywgJzIwMCcsICctbWV0YWxfYmluZGluZycsICctaW1hZScsICc8aW5maWxlLm1hZT4nLCAnLW9tYWUnLCAnPG91dGZpbGUubWFlPic=

> <r_lp_tautomer_probability>
0.999537

> <r_epik_Ionization_Penalty>
0.00263537

> <r_epik_Ionization_Penalty_Charging>
0.00263428

> <r_epik_Ionization_Penalty_Neutral>
1.09111e-06

> <r_epik_State_Penalty>
0.00183335

> <r_epik_Charging_Adjusted_Penalty>
0.00446763

> <i_epik_Tot_Q>
0

> <i_epik_Tot_abs_Q>
0

> <r_epik_Metal_State_Penalty>
1.00528

> <b_epik_Metal_Only>
0

> <s_epik_Chemistry_Notes>
This compound has an ester and may undergo hydrolysis at high or low pH. This compound contains an acetal/aminal-like group ( X-CH(R)-Y where X, Y are N, S, or O) that may be acid/base labile, releasing an aldehyde.

> <s_lp_Force_Field>
OPLS_2005

> <r_lp_Energy>
40.9392

> <b_lp_Chiralities_Consistent>
1

> <s_lp_Variant>
AV-unprocessed.smi:101-4

> <Gold.Version>
5.8.1

> <Gold.Id.Protein>
6NUR|6NUR_protein|mol2

> <Gold.PLP.Fitness>
51.5489

> <Gold.PLP.PLP>
-41.0904

> <Gold.PLP.part.hbond>
-4.3779

> <Gold.PLP.part.metal>
0.0000

> <Gold.PLP.part.buried>
-3.1308

> <Gold.PLP.part.nonpolar>
-36.1169

> <Gold.PLP.part.repulsive>
3.2790

> <Gold.PLP.ligand.clash>
0.0000

> <Gold.PLP.ligand.torsion>
0.6918

> <Gold.PLP.Chemscore.Hbond>
3.9185

> <Gold.PLP.Chemscore.CHOScore>
0.0000

> <Gold.PLP.Chemscore.Metal>
0.0000

> <Gold.Chemscore.Hbonds>
donor molecule, donor type, donor heavy atom, donor atom, acceptor molecule, acceptor atom, score
      L1  H    21    44       P1  7948  0.93
      L1  H    24    27       P1 10175  1.00
      P1  H  7997  8008       L1    11  0.70
      P1  H 10752 10764       L1    19  0.57

> <Gold.PLP.Chemscore.Internal.Correction>
0.0865

> <Gold.Rescore>
     Score         DG    S(hbond)    S(metal)    S(lipo)     H(rot)  DE(clash)    DE(int)     intcor
     16.48     -19.36       3.38        0.00      94.70       3.32       2.20       0.67       ----

> <Gold.Chemscore.Fitness>
16.4817

> <Gold.Chemscore.DG>
-19.3606

> <Gold.Chemscore.ZeroCoef>
-5.4800

> <Gold.Chemscore.Hbond>
3.3811

> <Gold.Chemscore.Metal>
0.0000

> <Gold.Chemscore.Lipo>
94.6976

> <Gold.Chemscore.Internal_Hbond>
0.0000

> <Gold.Chemscore.DEClash>
2.2048

> <Gold.Chemscore.DEInternal>
0.6741

> <Gold.Chemscore.Rot>
3.3172

> <Gold.Chemscore.Internal.Correction>
   9.000000E+99

> <Gold.Chemscore.Hbonds>
donor molecule, donor type, donor heavy atom, donor atom, acceptor molecule, acceptor atom, score
      L1  H    21    44       P1  7948  0.88
      L1  H    24    27       P1 10175  0.99
      P1  H  7997  8008       L1    11  0.15
      P1  H 10752 10764       L1    19  0.55

> <Gold.Chemscore.Hbond.Weighted>
-11.2930

> <Gold.Chemscore.Metal.Weighted>
-0.0000

> <Gold.Chemscore.Lipo.Weighted>
-11.0796

> <Gold.Chemscore.Internal_Hbond.Weighted>
0.0000

> <Gold.Chemscore.DEClash.Weighted>
2.2048

> <Gold.Chemscore.DEInternal.Weighted>
0.6741

> <Gold.Chemscore.Rot.Weighted>
8.4920

> <Gold.Chemscore.Internal.Correction.Weighted>
   9.000000E+99

> <Gold.Protein.RotatedTorsions>
[ 6907 6896 6895 6894 ] final  -35.37 input  -60.11 | X-H torsion
[ 7974 7965 7964 7962 ] final -101.62 input  175.53 | X-H torsion
[ 8008 7997 7996 7995 ] final -110.48 input   59.86 | X-H torsion
[ 10167 10162 10161 10158 ] final  -90.22 input  -65.29 | X-H torsion
[ 10718 10713 10712 10709 ] final    1.63 input   66.30 | X-H torsion
[ 10763 10752 10751 10750 ] final  -67.06 input  -60.55 | X-H torsion
[ 11005 11000 10999 10996 ] final  165.93 input  -57.11 | X-H torsion

> <Gold.Protein.ActiveResidues>
 VAL166  LYS551  ARG553  GLY616  TRP617  ASP618  TYR619  PRO620  LYS621  CYS622 
 ASP623  PHE694  ASN695  SER759  ASP760  ASP761  ALA762  ILE779  LEU786  VAL792 
 PHE793  MET794  SER795  GLU796  ALA797  LYS798  CYS799  TRP800  GLU811  SER814 

> <Gold.Protein.RotatedAtoms>
  151.0407  134.9605  159.8159 H   0  0  0  0  0  0  0  0  0  0  0  0  # atno 6907 bound_to 6896
  152.5363  134.2661  159.8964 H   0  0  0  0  0  0  0  0  0  0  0  0  # atno 6908 bound_to 6896
  151.2673  133.4229  159.2653 H   0  0  0  0  0  0  0  0  0  0  0  0  # atno 6909 bound_to 6896
  145.2793  140.9322  143.2941 H   0  0  0  0  0  0  0  0  0  0  0  0  # atno 7974 bound_to 7965
  154.9751  140.0397  157.2252 H   0  0  0  0  0  0  0  0  0  0  0  0  # atno 8008 bound_to 7997
  154.7765  140.2811  155.6075 H   0  0  0  0  0  0  0  0  0  0  0  0  # atno 8009 bound_to 7997
  156.2929  140.2600  156.2580 H   0  0  0  0  0  0  0  0  0  0  0  0  # atno 8010 bound_to 7997
  140.3571  143.2861  151.9659 H   0  0  0  0  0  0  0  0  0  0  0  0  # atno 10167 bound_to 10162
  156.8510  130.5554  149.5669 H   0  0  0  0  0  0  0  0  0  0  0  0  # atno 10718 bound_to 10713
  154.3689  135.6099  153.5730 H   0  0  0  0  0  0  0  0  0  0  0  0  # atno 10763 bound_to 10752
  152.9791  135.5833  154.4545 H   0  0  0  0  0  0  0  0  0  0  0  0  # atno 10764 bound_to 10752
  154.4295  135.2847  155.1899 H   0  0  0  0  0  0  0  0  0  0  0  0  # atno 10765 bound_to 10752
  140.2612  134.7900  157.3592 H   0  0  0  0  0  0  0  0  0  0  0  0  # atno 11005 bound_to 11000
  144.9267  139.4347  143.6515 LP  0  0  0  0  0  0  0  0  0  0  0  0  # atno 17320 bound_to 7965
  146.3221  139.8156  142.8937 LP  0  0  0  0  0  0  0  0  0  0  0  0  # atno 17321 bound_to 7965
  139.4819  144.6026  151.7579 LP  0  0  0  0  0  0  0  0  0  0  0  0  # atno 17342 bound_to 10162
  140.5163  144.0947  150.6009 LP  0  0  0  0  0  0  0  0  0  0  0  0  # atno 17343 bound_to 10162
  156.0828  130.5834  150.9594 LP  0  0  0  0  0  0  0  0  0  0  0  0  # atno 17370 bound_to 10713
  157.6303  131.0921  150.8454 LP  0  0  0  0  0  0  0  0  0  0  0  0  # atno 17371 bound_to 10713
  140.1463  134.4907  155.7994 LP  0  0  0  0  0  0  0  0  0  0  0  0  # atno 17394 bound_to 11000
  141.2190  133.6844  156.7299 LP  0  0  0  0  0  0  0  0  0  0  0  0  # atno 17395 bound_to 11000

$$$$
