AV-unprocessed.smi:3349|AV-procd|sdf|12938|dock5
  -GOLD-   2272019373D 1   1.00000     0.00000
 Structure written by MMmdl.
 41 42  0  0  0  0  0  0  0  0  2 V2000
  149.6748  134.3852  155.1122 C   0  0  0  0  0  0  0  0  0  0  0  0
  149.0534  135.7319  155.5597 C   0  0  1  0  0  0  0  0  0  0  0  0
  149.2503  135.9456  157.0847 C   0  0  0  0  0  0  0  0  0  0  0  0
  148.1075  135.4955  157.8761 N   0  0  0  0  0  0  0  0  0  0  0  0
  148.1265  134.5112  158.7896 C   0  0  0  0  0  0  0  0  0  0  0  0
  149.1355  133.8562  159.0528 O   0  0  0  0  0  0  0  0  0  0  0  0
  146.7969  134.2270  159.5063 C   0  0  1  0  0  0  0  0  0  0  0  0
  146.2776  132.7994  159.2565 C   0  0  0  0  0  0  0  0  0  0  0  0
  146.9160  134.4931  160.9332 N   0  0  0  0  0  0  0  0  0  0  0  0
  147.6017  133.8621  161.8912 C   0  0  0  0  0  0  0  0  0  0  0  0
  147.4477  134.3889  163.0977 N   0  0  0  0  0  0  0  0  0  0  0  0
  146.5861  135.4045  162.7946 C   0  0  0  0  0  0  0  0  0  0  0  0
  146.2322  135.5081  161.5137 N   0  0  0  0  0  0  0  0  0  0  0  0
  149.5840  136.9090  154.7936 N   0  3  0  0  0  0  0  0  0  0  0  0
  148.8365  138.1841  154.9832 C   0  0  0  0  0  0  0  0  0  0  0  0
  149.4437  139.3198  154.1411 C   0  0  0  0  0  0  0  0  0  0  0  0
  150.8155  139.4836  154.4662 O   0  0  0  0  0  0  0  0  0  0  0  0
  151.5591  138.3100  154.1768 C   0  0  0  0  0  0  0  0  0  0  0  0
  151.0348  137.1464  155.0336 C   0  0  0  0  0  0  0  0  0  0  0  0
  149.2859  133.5462  155.6877 H   0  0  0  0  0  0  0  0  0  0  0  0
  150.7590  134.3881  155.2308 H   0  0  0  0  0  0  0  0  0  0  0  0
  149.4430  134.1489  154.0738 H   0  0  0  0  0  0  0  0  0  0  0  0
  147.9830  135.6636  155.3579 H   0  0  0  0  0  0  0  0  0  0  0  0
  150.1712  135.4600  157.4120 H   0  0  0  0  0  0  0  0  0  0  0  0
  149.3697  137.0002  157.3243 H   0  0  0  0  0  0  0  0  0  0  0  0
  147.2333  135.9795  157.7273 H   0  0  0  0  0  0  0  0  0  0  0  0
  146.0581  134.9186  159.0960 H   0  0  0  0  0  0  0  0  0  0  0  0
  146.1843  132.5926  158.1896 H   0  0  0  0  0  0  0  0  0  0  0  0
  145.2923  132.6621  159.7026 H   0  0  0  0  0  0  0  0  0  0  0  0
  146.9402  132.0468  159.6862 H   0  0  0  0  0  0  0  0  0  0  0  0
  148.2255  133.0007  161.7017 H   0  0  0  0  0  0  0  0  0  0  0  0
  146.2068  136.0873  163.5408 H   0  0  0  0  0  0  0  0  0  0  0  0
  147.7972  138.0767  154.6751 H   0  0  0  0  0  0  0  0  0  0  0  0
  148.8408  138.4576  156.0395 H   0  0  0  0  0  0  0  0  0  0  0  0
  149.3306  139.1177  153.0747 H   0  0  0  0  0  0  0  0  0  0  0  0
  148.9212  140.2552  154.3428 H   0  0  0  0  0  0  0  0  0  0  0  0
  151.4969  138.0730  153.1132 H   0  0  0  0  0  0  0  0  0  0  0  0
  152.6098  138.4962  154.4001 H   0  0  0  0  0  0  0  0  0  0  0  0
  151.1983  137.3649  156.0901 H   0  0  0  0  0  0  0  0  0  0  0  0
  151.6256  136.2635  154.7990 H   0  0  0  0  0  0  0  0  0  0  0  0
  149.4832  136.6762  153.8157 H   0  0  0  0  0  0  0  0  0  0  0  0
  1  2  1  0  0  0  0
  1 20  1  0  0  0  0
  1 21  1  0  0  0  0
  1 22  1  0  0  0  0
  2  3  1  0  0  0  0
  2 14  1  0  0  0  0
  2 23  1  0  0  0  0
  3  4  1  0  0  0  0
  3 24  1  0  0  0  0
  3 25  1  0  0  0  0
  4  5  1  0  0  0  0
  4 26  1  0  0  0  0
  5  6  2  0  0  0  0
  5  7  1  0  0  0  0
  7  8  1  0  0  0  0
  7  9  1  0  0  0  0
  7 27  1  0  0  0  0
  8 28  1  0  0  0  0
  8 29  1  0  0  0  0
  8 30  1  0  0  0  0
  9 13  1  0  0  0  0
  9 10  1  0  0  0  0
 10 11  2  0  0  0  0
 10 31  1  0  0  0  0
 11 12  1  0  0  0  0
 12 13  2  0  0  0  0
 12 32  1  0  0  0  0
 14 19  1  0  0  0  0
 14 15  1  0  0  0  0
 14 41  1  0  0  0  0
 15 16  1  0  0  0  0
 15 33  1  0  0  0  0
 15 34  1  0  0  0  0
 16 17  1  0  0  0  0
 16 35  1  0  0  0  0
 16 36  1  0  0  0  0
 17 18  1  0  0  0  0
 18 19  1  0  0  0  0
 18 37  1  0  0  0  0
 18 38  1  0  0  0  0
 19 39  1  0  0  0  0
 19 40  1  0  0  0  0
M  CHG  1  14   1
M  END
> <s_m_source_file>
AV-unprocessed.smi

> <i_m_source_file_index>
3349

> <i_lp_mmshare_version>
43012

> <i_f3d_flags>
0

> <s_epik_input>
W0NIMl0xW0NIMl1PW0NIMl1bQ0gyXU4xW0NASF0oW0NIM10pW0NIMl1bTkhdQyg9TylbQ0BIXShbQ0gzXSluMltjSF1uW2NIXW4y

> <s_epik_cmdline>
J2VwaWtfcHl0aG9uJywgJy1waCcsICc3LjAnLCAnLXRuJywgJzgnLCAnLW1hJywgJzIwMCcsICctbWV0YWxfYmluZGluZycsICctaW1hZScsICc8aW5maWxlLm1hZT4nLCAnLW9tYWUnLCAnPG91dGZpbGUubWFlPic=

> <r_lp_tautomer_probability>
1

> <r_epik_Ionization_Penalty>
0.71326

> <r_epik_Ionization_Penalty_Charging>
0.713252

> <r_epik_Ionization_Penalty_Neutral>
8.10337e-06

> <r_epik_State_Penalty>
0.737017

> <r_epik_Charging_Adjusted_Penalty>
1.45027

> <i_epik_Tot_Q>
1

> <i_epik_Tot_abs_Q>
1

> <r_epik_Metal_State_Penalty>
0.73702

> <b_epik_Metal_Only>
0

> <s_lp_Force_Field>
OPLS_2005

> <r_lp_Energy>
26.9228

> <b_lp_Chiralities_Consistent>
1

> <s_lp_Variant>
AV-unprocessed.smi:3349-8

> <Gold.Version>
5.8.1

> <Gold.Id.Protein>
6NUR|6NUR_protein|mol2

> <Gold.PLP.Fitness>
35.8827

> <Gold.PLP.PLP>
-25.0589

> <Gold.PLP.part.hbond>
-3.3877

> <Gold.PLP.part.metal>
0.0000

> <Gold.PLP.part.buried>
-3.2860

> <Gold.PLP.part.nonpolar>
-18.0763

> <Gold.PLP.part.repulsive>
0.1971

> <Gold.PLP.ligand.clash>
0.0000

> <Gold.PLP.ligand.torsion>
0.6497

> <Gold.PLP.Chemscore.Hbond>
4.0000

> <Gold.PLP.Chemscore.CHOScore>
0.0000

> <Gold.PLP.Chemscore.Metal>
0.0000

> <Gold.Chemscore.Hbonds>
donor molecule, donor type, donor heavy atom, donor atom, acceptor molecule, acceptor atom, score
      L1  H    14    41       P1  7948  1.92
      P1  H  6896  6907       L1     6  1.00
      P1  H  7989  7998       L1    17  1.00

> <Gold.PLP.Chemscore.Internal.Correction>
0.1233

> <Gold.Rescore>
     Score         DG    S(hbond)    S(metal)    S(lipo)     H(rot)  DE(clash)    DE(int)     intcor
     10.96     -11.65       2.55        0.00      37.48       2.63       0.04       0.65       ----

> <Gold.Chemscore.Fitness>
10.9633

> <Gold.Chemscore.DG>
-11.6544

> <Gold.Chemscore.ZeroCoef>
-5.4800

> <Gold.Chemscore.Hbond>
2.5536

> <Gold.Chemscore.Metal>
0.0000

> <Gold.Chemscore.Lipo>
37.4846

> <Gold.Chemscore.Internal_Hbond>
0.0000

> <Gold.Chemscore.DEClash>
0.0436

> <Gold.Chemscore.DEInternal>
0.6475

> <Gold.Chemscore.Rot>
2.6329

> <Gold.Chemscore.Internal.Correction>
   9.000000E+99

> <Gold.Chemscore.Hbonds>
donor molecule, donor type, donor heavy atom, donor atom, acceptor molecule, acceptor atom, score
      L1  H    14    41       P1  7948  0.78
      P1  H  6896  6907       L1     6  0.93
      P1  H  7989  7998       L1    17  0.47

> <Gold.Chemscore.Hbond.Weighted>
-8.5290

> <Gold.Chemscore.Metal.Weighted>
-0.0000

> <Gold.Chemscore.Lipo.Weighted>
-4.3857

> <Gold.Chemscore.Internal_Hbond.Weighted>
0.0000

> <Gold.Chemscore.DEClash.Weighted>
0.0436

> <Gold.Chemscore.DEInternal.Weighted>
0.6475

> <Gold.Chemscore.Rot.Weighted>
6.7403

> <Gold.Chemscore.Internal.Correction.Weighted>
   9.000000E+99

> <Gold.Protein.RotatedTorsions>
[ 6907 6896 6895 6894 ] final -110.78 input  -60.11 | X-H torsion
[ 7974 7965 7964 7962 ] final  -89.47 input  175.53 | X-H torsion
[ 8008 7997 7996 7995 ] final   37.07 input   59.86 | X-H torsion
[ 10167 10162 10161 10158 ] final -150.35 input  -65.29 | X-H torsion
[ 10718 10713 10712 10709 ] final  -21.11 input   66.30 | X-H torsion
[ 10763 10752 10751 10750 ] final  -28.29 input  -60.55 | X-H torsion
[ 11005 11000 10999 10996 ] final  -10.74 input  -57.11 | X-H torsion

> <Gold.Protein.ActiveResidues>
 VAL166  LYS551  ARG553  GLY616  TRP617  ASP618  TYR619  PRO620  LYS621  CYS622 
 ASP623  PHE694  ASN695  SER759  ASP760  ASP761  ALA762  ILE779  LEU786  VAL792 
 PHE793  MET794  SER795  GLU796  ALA797  LYS798  CYS799  TRP800  GLU811  SER814 

> <Gold.Protein.RotatedAtoms>
  150.7647  133.9331  159.3432 H   0  0  0  0  0  0  0  0  0  0  0  0  # atno 6907 bound_to 6896
  151.7232  135.0888  160.0297 H   0  0  0  0  0  0  0  0  0  0  0  0  # atno 6908 bound_to 6896
  152.3637  133.6291  159.6070 H   0  0  0  0  0  0  0  0  0  0  0  0  # atno 6909 bound_to 6896
  145.4394  140.9558  143.2083 H   0  0  0  0  0  0  0  0  0  0  0  0  # atno 7974 bound_to 7965
  155.1978  140.3313  155.4348 H   0  0  0  0  0  0  0  0  0  0  0  0  # atno 8008 bound_to 7997
  156.2418  140.1899  156.7016 H   0  0  0  0  0  0  0  0  0  0  0  0  # atno 8009 bound_to 7997
  154.6162  140.0602  156.9543 H   0  0  0  0  0  0  0  0  0  0  0  0  # atno 8010 bound_to 7997
  139.7362  143.8733  152.2549 H   0  0  0  0  0  0  0  0  0  0  0  0  # atno 10167 bound_to 10162
  156.5227  130.4636  149.6588 H   0  0  0  0  0  0  0  0  0  0  0  0  # atno 10718 bound_to 10713
  153.7460  135.6929  153.4956 H   0  0  0  0  0  0  0  0  0  0  0  0  # atno 10763 bound_to 10752
  153.2036  135.4428  155.0295 H   0  0  0  0  0  0  0  0  0  0  0  0  # atno 10764 bound_to 10752
  154.8204  135.3419  154.6983 H   0  0  0  0  0  0  0  0  0  0  0  0  # atno 10765 bound_to 10752
  140.7480  133.8616  155.9021 H   0  0  0  0  0  0  0  0  0  0  0  0  # atno 11005 bound_to 11000
  144.8131  139.5926  143.7020 LP  0  0  0  0  0  0  0  0  0  0  0  0  # atno 17320 bound_to 7965
  146.2564  139.6312  142.9392 LP  0  0  0  0  0  0  0  0  0  0  0  0  # atno 17321 bound_to 7965
  139.8670  144.7088  150.9032 LP  0  0  0  0  0  0  0  0  0  0  0  0  # atno 17342 bound_to 10162
  140.7779  143.3770  151.1545 LP  0  0  0  0  0  0  0  0  0  0  0  0  # atno 17343 bound_to 10162
  156.3134  130.7241  151.2139 LP  0  0  0  0  0  0  0  0  0  0  0  0  # atno 17370 bound_to 10713
  157.7434  131.0475  150.4947 LP  0  0  0  0  0  0  0  0  0  0  0  0  # atno 17371 bound_to 10713
  140.9777  134.1447  157.4522 LP  0  0  0  0  0  0  0  0  0  0  0  0  # atno 17394 bound_to 11000
  139.8793  135.0000  156.5985 LP  0  0  0  0  0  0  0  0  0  0  0  0  # atno 17395 bound_to 11000

$$$$
