#       Name:                AV-unprocessed.smi:1645
#       Creating user name   scv26
#       Creation time:       Fri Mar 27 07:31:13 2020


#       File generated by GOLD software.
#

@<TRIPOS>MOLECULE
AV-unprocessed.smi:1645
    58    61     1
SMALL
NO_CHARGES


@<TRIPOS>ATOM
      1 ****        -0.9641   1.2866   0.3763 O.2            1 S1                 0.0000
      2 ****        -1.3123   0.1586   0.7229 C.2            1 S1                 0.0000
      3 ****        -0.4867  -0.8836   0.9237 N.am           1 S1                 0.0000
      4 ****         0.9303  -0.9284   0.8070 C.ar           1 S1                 0.0000
      5 ****         1.6052  -2.0163   1.3988 C.ar           1 S1                 0.0000
      6 ****         3.0096  -2.1068   1.3091 C.ar           1 S1                 0.0000
      7 ****         3.7388  -1.1085   0.6156 C.ar           1 S1                 0.0000
      8 ****         5.1462  -1.1052   0.4856 N.pl3          1 S1                 0.0000
      9 ****         5.6847  -0.7296  -0.8260 C.3            1 S1                 0.0000
     10 ****         7.1630  -0.3164  -0.7286 C.3            1 S1                 0.0000
     11 ****         7.9956  -1.4010  -0.0314 C.3            1 S1                 0.0000
     12 ****         7.3934  -1.7150   1.3450 C.3            1 S1                 0.0000
     13 ****         5.9107  -2.1090   1.2285 C.3            1 S1                 0.0000
     14 ****         3.0432  -0.0920   0.0510 N.pl3          1 S1                 1.0000
     15 ****         1.7005   0.0346   0.1132 C.ar           1 S1                 0.0000
     16 ****        -2.5889  -0.1768   0.9594 N.am           1 S1                 0.0000
     17 ****        -3.7281   0.7305   0.8450 C.3            1 S1                 0.0000
     18 ****        -4.8737   0.3819   1.7876 C.3            1 S1                 0.0000
     19 ****        -6.0529   1.1183   1.1480 C.3            1 S1                 0.0000
     20 ****        -5.8093   1.0913  -0.3133 N.4            1 S1                 1.0000
     21 ****        -6.2338   2.3183  -1.0312 C.3            1 S1                 0.0000
     22 ****        -5.9679   2.1889  -2.5430 C.3            1 S1                 0.0000
     23 ****        -4.5459   1.6864  -2.8690 C.3            1 S1                 0.0000
     24 ****        -3.6793   1.5308  -1.6104 C.3            1 S1                 0.0000
     25 ****        -4.3953   0.6766  -0.5393 C.3            1 S1                 0.0000
     26 ****        -0.9193  -1.7327   1.2574 H              1 S1                 0.0000
     27 ****         1.0530  -2.7804   1.9263 H              1 S1                 0.0000
     28 ****         3.4995  -2.9513   1.7697 H              1 S1                 0.0000
     29 ****         5.5810  -1.5810  -1.4996 H              1 S1                 0.0000
     30 ****         5.1269   0.0928  -1.2734 H              1 S1                 0.0000
     31 ****         7.5611  -0.1217  -1.7248 H              1 S1                 0.0000
     32 ****         7.2445   0.6194  -0.1740 H              1 S1                 0.0000
     33 ****         8.0140  -2.3040  -0.6429 H              1 S1                 0.0000
     34 ****         9.0299  -1.0723   0.0752 H              1 S1                 0.0000
     35 ****         7.9554  -2.5157   1.8265 H              1 S1                 0.0000
     36 ****         7.4873  -0.8405   1.9904 H              1 S1                 0.0000
     37 ****         5.5097  -2.2239   2.2357 H              1 S1                 0.0000
     38 ****         5.8162  -3.0727   0.7263 H              1 S1                 0.0000
     39 ****         1.3077   0.8978  -0.4017 H              1 S1                 0.0000
     40 ****        -2.7875  -1.1247   1.2452 H              1 S1                 0.0000
     41 ****        -3.4203   1.7551   1.0650 H              1 S1                 0.0000
     42 ****        -5.0589  -0.6934   1.7857 H              1 S1                 0.0000
     43 ****        -4.6894   0.6937   2.8162 H              1 S1                 0.0000
     44 ****        -7.0131   0.6676   1.4002 H              1 S1                 0.0000
     45 ****        -6.0667   2.1496   1.5046 H              1 S1                 0.0000
     46 ****        -7.2947   2.4975  -0.8532 H              1 S1                 0.0000
     47 ****        -5.6989   3.1808  -0.6299 H              1 S1                 0.0000
     48 ****        -6.6952   1.5039  -2.9809 H              1 S1                 0.0000
     49 ****        -6.1397   3.1533  -3.0220 H              1 S1                 0.0000
     50 ****        -4.6150   0.7217  -3.3732 H              1 S1                 0.0000
     51 ****        -4.0607   2.3615  -3.5747 H              1 S1                 0.0000
     52 ****        -2.7227   1.0787  -1.8735 H              1 S1                 0.0000
     53 ****        -3.4455   2.5185  -1.2107 H              1 S1                 0.0000
     54 ****        -4.4376  -0.3593  -0.8805 H              1 S1                 0.0000
     55 ****        -6.3729   0.3400  -0.6849 H              1 S1                 0.0000
     56 ****         3.5665   0.6259  -0.4507 H              1 S1                 0.0000
     57 ****         0.0036   1.4855   0.2209 LP             1 S1                 0.0000
     58 ****        -1.6487   2.0045   0.2501 LP             1 S1                 0.0000
@<TRIPOS>BOND
    1    1    2 2     
    2    2    3 am    
    3    2   16 am    
    4    3    4 1     
    5    3   26 1     
    6    4   15 ar    
    7    4    5 ar    
    8    5    6 ar    
    9    5   27 1     
   10    6    7 ar    
   11    6   28 1     
   12    7    8 1     
   13    7   14 ar    
   14    8   13 1     
   15    8    9 1     
   16    9   10 1     
   17    9   29 1     
   18    9   30 1     
   19   10   11 1     
   20   10   31 1     
   21   10   32 1     
   22   11   12 1     
   23   11   33 1     
   24   11   34 1     
   25   12   13 1     
   26   12   35 1     
   27   12   36 1     
   28   13   37 1     
   29   13   38 1     
   30   14   15 ar    
   31   14   56 1     
   32   15   39 1     
   33   16   17 1     
   34   16   40 1     
   35   17   25 1     
   36   17   18 1     
   37   17   41 1     
   38   18   19 1     
   39   18   42 1     
   40   18   43 1     
   41   19   20 1     
   42   19   44 1     
   43   19   45 1     
   44   20   25 1     
   45   20   21 1     
   46   20   55 1     
   47   21   22 1     
   48   21   46 1     
   49   21   47 1     
   50   22   23 1     
   51   22   48 1     
   52   22   49 1     
   53   23   24 1     
   54   23   50 1     
   55   23   51 1     
   56   24   25 1     
   57   24   52 1     
   58   24   53 1     
   59   25   54 1     
   60    1   57 1     
   61    1   58 1     
@<TRIPOS>SUBSTRUCTURE
      1 S1             1
@<TRIPOS>SET
LONE_PAIRS      STATIC     ATOMS    <user>   **** ""
2 57 58
DONOR_HYDROGENS      STATIC     ATOMS    <user>   **** ""
4 26 56 40 55
ATOM$BLUE        STATIC     ATOMS    COLORGROUP SYSTEM
2 57 58
ATOM$RED        STATIC     ATOMS    COLORGROUP SYSTEM
4 26 56 40 55
