AV-unprocessed.smi:908|AV-procd|sdf|4114|dock5
  -GOLD-   22720 2 13D 1   1.00000     0.00000
 Structure written by MMmdl.
 38 38  0  0  0  0  0  0  0  0  1 V2000
  149.0887  140.6034  154.6681 C   0  0  0  0  0  0  0  0  0  0  0  0
  150.3477  140.1540  155.4168 C   0  0  0  0  0  0  0  0  0  0  0  0
  150.9080  138.8268  154.8803 C   0  0  0  0  0  0  0  0  0  0  0  0
  149.9488  137.7396  155.0370 N   0  0  0  0  0  0  0  0  0  0  0  0
  150.2469  136.4331  154.9758 C   0  0  0  0  0  0  0  0  0  0  0  0
  151.3821  136.0089  154.7532 O   0  0  0  0  0  0  0  0  0  0  0  0
  149.0755  135.4645  155.1775 C   0  0  0  0  0  0  0  0  0  0  0  0
  148.8100  134.6496  153.9953 N   0  0  0  0  0  0  0  0  0  0  0  0
  148.6988  133.3109  153.9858 C   0  0  0  0  0  0  0  0  0  0  0  0
  148.8003  132.6190  154.9985 O   0  0  0  0  0  0  0  0  0  0  0  0
  148.4566  132.6439  152.6280 C   0  0  0  0  0  0  0  0  0  0  0  0
  147.1331  132.9413  152.0984 N   0  0  0  0  0  0  0  0  0  0  0  0
  146.7910  134.2370  151.8791 N   0  0  0  0  0  0  0  0  0  0  0  0
  145.5572  134.2004  151.3993 C   0  0  0  0  0  0  0  0  0  0  0  0
  144.8548  135.4760  151.0350 C   0  0  0  0  0  0  0  0  0  0  0  0
  145.0986  132.8606  151.3089 C   0  0  0  0  0  0  0  0  0  0  0  0
  143.5564  132.3378  150.7353 Cl  0  0  0  0  0  0  0  0  0  0  0  0
  146.1112  132.0668  151.7602 C   0  0  0  0  0  0  0  0  0  0  0  0
  146.2150  130.5824  151.9019 C   0  0  0  0  0  0  0  0  0  0  0  0
  148.7120  141.5437  155.0713 H   0  0  0  0  0  0  0  0  0  0  0  0
  148.2937  139.8622  154.7534 H   0  0  0  0  0  0  0  0  0  0  0  0
  149.2946  140.7548  153.6081 H   0  0  0  0  0  0  0  0  0  0  0  0
  151.1053  140.9350  155.3393 H   0  0  0  0  0  0  0  0  0  0  0  0
  150.1173  140.0523  156.4782 H   0  0  0  0  0  0  0  0  0  0  0  0
  151.1375  138.9233  153.8188 H   0  0  0  0  0  0  0  0  0  0  0  0
  151.8459  138.5765  155.3794 H   0  0  0  0  0  0  0  0  0  0  0  0
  148.9900  138.0000  155.2180 H   0  0  0  0  0  0  0  0  0  0  0  0
  149.2582  134.8240  156.0424 H   0  0  0  0  0  0  0  0  0  0  0  0
  148.1804  136.0451  155.4012 H   0  0  0  0  0  0  0  0  0  0  0  0
  148.7215  135.1389  153.1167 H   0  0  0  0  0  0  0  0  0  0  0  0
  149.2162  132.9753  151.9196 H   0  0  0  0  0  0  0  0  0  0  0  0
  148.5645  131.5620  152.7211 H   0  0  0  0  0  0  0  0  0  0  0  0
  143.7751  135.3340  150.9909 H   0  0  0  0  0  0  0  0  0  0  0  0
  145.1823  135.8364  150.0599 H   0  0  0  0  0  0  0  0  0  0  0  0
  145.0540  136.2606  151.7655 H   0  0  0  0  0  0  0  0  0  0  0  0
  145.2997  130.0909  151.5724 H   0  0  0  0  0  0  0  0  0  0  0  0
  146.3869  130.3028  152.9414 H   0  0  0  0  0  0  0  0  0  0  0  0
  147.0372  130.1901  151.3038 H   0  0  0  0  0  0  0  0  0  0  0  0
  1  2  1  0  0  0  0
  1 20  1  0  0  0  0
  1 21  1  0  0  0  0
  1 22  1  0  0  0  0
  2  3  1  0  0  0  0
  2 23  1  0  0  0  0
  2 24  1  0  0  0  0
  3  4  1  0  0  0  0
  3 25  1  0  0  0  0
  3 26  1  0  0  0  0
  4  5  1  0  0  0  0
  4 27  1  0  0  0  0
  5  6  2  0  0  0  0
  5  7  1  0  0  0  0
  7  8  1  0  0  0  0
  7 28  1  0  0  0  0
  7 29  1  0  0  0  0
  8  9  1  0  0  0  0
  8 30  1  0  0  0  0
  9 10  2  0  0  0  0
  9 11  1  0  0  0  0
 11 12  1  0  0  0  0
 11 31  1  0  0  0  0
 11 32  1  0  0  0  0
 12 18  1  0  0  0  0
 12 13  1  0  0  0  0
 13 14  2  0  0  0  0
 14 15  1  0  0  0  0
 14 16  1  0  0  0  0
 15 33  1  0  0  0  0
 15 34  1  0  0  0  0
 15 35  1  0  0  0  0
 16 17  1  0  0  0  0
 16 18  2  0  0  0  0
 18 19  1  0  0  0  0
 19 36  1  0  0  0  0
 19 37  1  0  0  0  0
 19 38  1  0  0  0  0
M  END
> <s_m_source_file>
AV-unprocessed.smi

> <i_m_source_file_index>
908

> <i_lp_mmshare_version>
43012

> <i_f3d_flags>
0

> <s_epik_input>
W0NIM11bQ0gyXVtDSDJdW05IXUMoPU8pW0NIMl1bTkhdQyg9TylbQ0gyXW4xbmMoW0NIM10pYyhDbCljMVtDSDNd

> <s_epik_cmdline>
J2VwaWtfcHl0aG9uJywgJy1waCcsICc3LjAnLCAnLXRuJywgJzgnLCAnLW1hJywgJzIwMCcsICctbWV0YWxfYmluZGluZycsICctaW1hZScsICc8aW5maWxlLm1hZT4nLCAnLW9tYWUnLCAnPG91dGZpbGUubWFlPic=

> <r_lp_tautomer_probability>
1

> <r_epik_Ionization_Penalty>
3.40177e-06

> <r_epik_Ionization_Penalty_Charging>
0

> <r_epik_Ionization_Penalty_Neutral>
3.40177e-06

> <r_epik_State_Penalty>
-0

> <r_epik_Charging_Adjusted_Penalty>
0

> <i_epik_Tot_Q>
0

> <i_epik_Tot_abs_Q>
0

> <r_epik_Metal_State_Penalty>
-0

> <b_epik_Metal_Only>
0

> <s_lp_Force_Field>
OPLS_2005

> <r_lp_Energy>
0.427377

> <b_lp_Chiralities_Consistent>
1

> <s_lp_Variant>
AV-unprocessed.smi:908-1

> <Gold.Version>
5.8.1

> <Gold.Id.Protein>
6NUR|6NUR_protein|mol2

> <Gold.PLP.Fitness>
41.2916

> <Gold.PLP.PLP>
-35.6813

> <Gold.PLP.part.hbond>
-2.0000

> <Gold.PLP.part.metal>
0.0000

> <Gold.PLP.part.buried>
-4.5836

> <Gold.PLP.part.nonpolar>
-31.0743

> <Gold.PLP.part.repulsive>
1.9149

> <Gold.PLP.ligand.clash>
0.0000

> <Gold.PLP.ligand.torsion>
0.2311

> <Gold.PLP.Chemscore.Hbond>
2.0000

> <Gold.PLP.Chemscore.CHOScore>
0.0000

> <Gold.PLP.Chemscore.Metal>
0.0000

> <Gold.Chemscore.Hbonds>
donor molecule, donor type, donor heavy atom, donor atom, acceptor molecule, acceptor atom, score
      L1  H     8    30       P1  7948  1.00
      P1  H 10752 10765       L1     6  1.00

> <Gold.PLP.Chemscore.Internal.Correction>
0.0725

> <Gold.Rescore>
     Score         DG    S(hbond)    S(metal)    S(lipo)     H(rot)  DE(clash)    DE(int)     intcor
     14.52     -15.09       1.88        0.00      75.16       2.13       0.15       0.42       ----

> <Gold.Chemscore.Fitness>
14.5238

> <Gold.Chemscore.DG>
-15.0947

> <Gold.Chemscore.ZeroCoef>
-5.4800

> <Gold.Chemscore.Hbond>
1.8781

> <Gold.Chemscore.Metal>
0.0000

> <Gold.Chemscore.Lipo>
75.1611

> <Gold.Chemscore.Internal_Hbond>
0.0000

> <Gold.Chemscore.DEClash>
0.1475

> <Gold.Chemscore.DEInternal>
0.4233

> <Gold.Chemscore.Rot>
2.1297

> <Gold.Chemscore.Internal.Correction>
   9.000000E+99

> <Gold.Chemscore.Hbonds>
donor molecule, donor type, donor heavy atom, donor atom, acceptor molecule, acceptor atom, score
      L1  H     8    30       P1  7948  0.60
      P1  H 10752 10765       L1     6  0.99

> <Gold.Chemscore.Hbond.Weighted>
-6.2728

> <Gold.Chemscore.Metal.Weighted>
-0.0000

> <Gold.Chemscore.Lipo.Weighted>
-8.7938

> <Gold.Chemscore.Internal_Hbond.Weighted>
0.0000

> <Gold.Chemscore.DEClash.Weighted>
0.1475

> <Gold.Chemscore.DEInternal.Weighted>
0.4233

> <Gold.Chemscore.Rot.Weighted>
5.4520

> <Gold.Chemscore.Internal.Correction.Weighted>
   9.000000E+99

> <Gold.Protein.RotatedTorsions>
[ 6907 6896 6895 6894 ] final  -43.69 input  -60.11 | X-H torsion
[ 7974 7965 7964 7962 ] final  -62.82 input  175.53 | X-H torsion
[ 8008 7997 7996 7995 ] final -129.39 input   59.86 | X-H torsion
[ 10167 10162 10161 10158 ] final  127.57 input  -65.29 | X-H torsion
[ 10718 10713 10712 10709 ] final  -47.26 input   66.30 | X-H torsion
[ 10763 10752 10751 10750 ] final  167.08 input  -60.55 | X-H torsion
[ 11005 11000 10999 10996 ] final   16.21 input  -57.11 | X-H torsion

> <Gold.Protein.ActiveResidues>
 VAL166  LYS551  ARG553  GLY616  TRP617  ASP618  TYR619  PRO620  LYS621  CYS622 
 ASP623  PHE694  ASN695  SER759  ASP760  ASP761  ALA762  ILE779  LEU786  VAL792 
 PHE793  MET794  SER795  GLU796  ALA797  LYS798  CYS799  TRP800  GLU811  SER814 

> <Gold.Protein.RotatedAtoms>
  150.9411  134.8820  159.7612 H   0  0  0  0  0  0  0  0  0  0  0  0  # atno 6907 bound_to 6896
  152.5080  134.3940  159.9403 H   0  0  0  0  0  0  0  0  0  0  0  0  # atno 6908 bound_to 6896
  151.3961  133.3733  159.2761 H   0  0  0  0  0  0  0  0  0  0  0  0  # atno 6909 bound_to 6896
  145.7866  140.8732  143.0302 H   0  0  0  0  0  0  0  0  0  0  0  0  # atno 7974 bound_to 7965
  155.2784  140.0443  157.3013 H   0  0  0  0  0  0  0  0  0  0  0  0  # atno 8008 bound_to 7997
  154.5611  140.2346  155.8302 H   0  0  0  0  0  0  0  0  0  0  0  0  # atno 8009 bound_to 7997
  156.2048  140.3015  155.9611 H   0  0  0  0  0  0  0  0  0  0  0  0  # atno 8010 bound_to 7997
  139.5571  144.6856  151.4150 H   0  0  0  0  0  0  0  0  0  0  0  0  # atno 10167 bound_to 10162
  156.2102  130.4160  149.9125 H   0  0  0  0  0  0  0  0  0  0  0  0  # atno 10718 bound_to 10713
  154.3485  135.2753  155.2384 H   0  0  0  0  0  0  0  0  0  0  0  0  # atno 10763 bound_to 10752
  154.4624  135.5904  153.6268 H   0  0  0  0  0  0  0  0  0  0  0  0  # atno 10764 bound_to 10752
  152.9851  135.6068  154.3694 H   0  0  0  0  0  0  0  0  0  0  0  0  # atno 10765 bound_to 10752
  140.4497  134.1237  155.7701 H   0  0  0  0  0  0  0  0  0  0  0  0  # atno 11005 bound_to 11000
  144.6788  140.0065  143.7484 LP  0  0  0  0  0  0  0  0  0  0  0  0  # atno 17320 bound_to 7965
  146.0019  139.3098  143.0922 LP  0  0  0  0  0  0  0  0  0  0  0  0  # atno 17321 bound_to 7965
  140.6846  143.8004  150.7168 LP  0  0  0  0  0  0  0  0  0  0  0  0  # atno 17342 bound_to 10162
  140.1467  143.4393  152.2158 LP  0  0  0  0  0  0  0  0  0  0  0  0  # atno 17343 bound_to 10162
  156.6806  130.8856  151.3575 LP  0  0  0  0  0  0  0  0  0  0  0  0  # atno 17370 bound_to 10713
  157.7034  130.9358  150.0855 LP  0  0  0  0  0  0  0  0  0  0  0  0  # atno 17371 bound_to 10713
  141.1669  133.8684  157.1687 LP  0  0  0  0  0  0  0  0  0  0  0  0  # atno 17394 bound_to 11000
  140.0015  135.0026  157.0200 LP  0  0  0  0  0  0  0  0  0  0  0  0  # atno 17395 bound_to 11000

$$$$
