AV-unprocessed.smi:1087|AV-procd|sdf|4727|dock7
  -GOLD-   22720 3253D 1   1.00000     0.00000
 Structure written by MMmdl.
 46 47  0  0  0  0  0  0  0  0  1 V2000
  144.8875  132.0820  150.7502 C   0  0  0  0  0  0  0  0  0  0  0  0
  144.3264  133.3652  150.5230 O   0  0  0  0  0  0  0  0  0  0  0  0
  144.9221  134.4070  151.2860 C   0  0  0  0  0  0  0  0  0  0  0  0
  144.0195  135.6474  151.4565 C   0  0  0  0  0  0  0  0  0  0  0  0
  144.6742  136.8463  151.9841 N   0  0  0  0  0  0  0  0  0  0  0  0
  146.0126  137.0527  151.4252 C   0  0  0  0  0  0  0  0  0  0  0  0
  146.6837  138.3333  151.9508 C   0  0  0  0  0  0  0  0  0  0  0  0
  146.7678  138.3266  153.4876 C   0  0  0  0  0  0  0  0  0  0  0  0
  147.3882  139.6358  154.0200 C   0  0  0  0  0  0  0  0  0  0  0  0
  148.5838  139.3995  154.8218 N   0  0  0  0  0  0  0  0  0  0  0  0
  149.6601  140.1990  154.8571 C   0  0  0  0  0  0  0  0  0  0  0  0
  149.7348  141.2593  154.2350 O   0  0  0  0  0  0  0  0  0  0  0  0
  150.8200  139.7268  155.7447 C   0  0  0  0  0  0  0  0  0  0  0  0
  151.1123  140.6506  156.8530 N   0  0  0  0  0  0  0  0  0  0  0  0
  150.5808  141.9490  156.7757 C   0  0  0  0  0  0  0  0  0  0  0  0
  150.8074  142.8442  157.7478 C   0  0  0  0  0  0  0  0  0  0  0  0
  151.6308  142.3890  158.8757 C   0  0  0  0  0  0  0  0  0  0  0  0
  152.1188  141.2071  158.9480 N   0  0  0  0  0  0  0  0  0  0  0  0
  151.8820  140.2697  157.9246 C   0  0  0  0  0  0  0  0  0  0  0  0
  152.3520  139.1331  157.9851 O   0  0  0  0  0  0  0  0  0  0  0  0
  145.3647  138.0490  154.0647 C   0  0  0  0  0  0  0  0  0  0  0  0
  144.7600  136.7793  153.4435 C   0  0  0  0  0  0  0  0  0  0  0  0
  144.3444  131.3413  150.1632 H   0  0  0  0  0  0  0  0  0  0  0  0
  144.8097  131.7968  151.8002 H   0  0  0  0  0  0  0  0  0  0  0  0
  145.9343  132.0356  150.4505 H   0  0  0  0  0  0  0  0  0  0  0  0
  145.1737  134.0078  152.2692 H   0  0  0  0  0  0  0  0  0  0  0  0
  145.8701  134.6942  150.8286 H   0  0  0  0  0  0  0  0  0  0  0  0
  143.6390  135.8850  150.4621 H   0  0  0  0  0  0  0  0  0  0  0  0
  143.1372  135.4083  152.0499 H   0  0  0  0  0  0  0  0  0  0  0  0
  146.6443  136.1903  151.6442 H   0  0  0  0  0  0  0  0  0  0  0  0
  145.9587  137.1319  150.3409 H   0  0  0  0  0  0  0  0  0  0  0  0
  147.6813  138.4287  151.5210 H   0  0  0  0  0  0  0  0  0  0  0  0
  146.1167  139.2023  151.6139 H   0  0  0  0  0  0  0  0  0  0  0  0
  147.4179  137.4994  153.7770 H   0  0  0  0  0  0  0  0  0  0  0  0
  147.6278  140.3065  153.1931 H   0  0  0  0  0  0  0  0  0  0  0  0
  146.6654  140.1642  154.6425 H   0  0  0  0  0  0  0  0  0  0  0  0
  148.6044  138.5521  155.3702 H   0  0  0  0  0  0  0  0  0  0  0  0
  150.5723  138.7350  156.1251 H   0  0  0  0  0  0  0  0  0  0  0  0
  151.7157  139.5865  155.1362 H   0  0  0  0  0  0  0  0  0  0  0  0
  149.9964  142.1637  155.8929 H   0  0  0  0  0  0  0  0  0  0  0  0
  150.4316  143.8567  157.7500 H   0  0  0  0  0  0  0  0  0  0  0  0
  151.8028  143.1320  159.6587 H   0  0  0  0  0  0  0  0  0  0  0  0
  145.4127  137.9316  155.1477 H   0  0  0  0  0  0  0  0  0  0  0  0
  144.7076  138.8982  153.8720 H   0  0  0  0  0  0  0  0  0  0  0  0
  143.7647  136.6275  153.8630 H   0  0  0  0  0  0  0  0  0  0  0  0
  145.3536  135.9130  153.7398 H   0  0  0  0  0  0  0  0  0  0  0  0
  1  2  1  0  0  0  0
  1 23  1  0  0  0  0
  1 24  1  0  0  0  0
  1 25  1  0  0  0  0
  2  3  1  0  0  0  0
  3  4  1  0  0  0  0
  3 26  1  0  0  0  0
  3 27  1  0  0  0  0
  4  5  1  0  0  0  0
  4 28  1  0  0  0  0
  4 29  1  0  0  0  0
  5 22  1  0  0  0  0
  5  6  1  0  0  0  0
  6  7  1  0  0  0  0
  6 30  1  0  0  0  0
  6 31  1  0  0  0  0
  7  8  1  0  0  0  0
  7 32  1  0  0  0  0
  7 33  1  0  0  0  0
  8  9  1  0  0  0  0
  8 21  1  0  0  0  0
  8 34  1  0  0  0  0
  9 10  1  0  0  0  0
  9 35  1  0  0  0  0
  9 36  1  0  0  0  0
 10 11  1  0  0  0  0
 10 37  1  0  0  0  0
 11 12  2  0  0  0  0
 11 13  1  0  0  0  0
 13 14  1  0  0  0  0
 13 38  1  0  0  0  0
 13 39  1  0  0  0  0
 14 19  1  0  0  0  0
 14 15  1  0  0  0  0
 15 16  2  0  0  0  0
 15 40  1  0  0  0  0
 16 17  1  0  0  0  0
 16 41  1  0  0  0  0
 17 18  2  0  0  0  0
 17 42  1  0  0  0  0
 18 19  1  0  0  0  0
 19 20  2  0  0  0  0
 21 22  1  0  0  0  0
 21 43  1  0  0  0  0
 21 44  1  0  0  0  0
 22 45  1  0  0  0  0
 22 46  1  0  0  0  0
M  END
> <s_m_source_file>
AV-unprocessed.smi

> <i_m_source_file_index>
1087

> <i_lp_mmshare_version>
43012

> <i_f3d_flags>
0

> <s_epik_input>
W0NIM11PW0NIMl1bQ0gyXU4xW0NIMl1bQ0gyXVtDSF0oW0NIMl1bQ0gyXTEpW0NIMl1bTkhdQyg9TylbQ0gyXW4yW2NIXVtjSF1bY0hdbmMyPU8=

> <s_epik_cmdline>
J2VwaWtfcHl0aG9uJywgJy1waCcsICc3LjAnLCAnLXRuJywgJzgnLCAnLW1hJywgJzIwMCcsICctbWV0YWxfYmluZGluZycsICctaW1hZScsICc8aW5maWxlLm1hZT4nLCAnLW9tYWUnLCAnPG91dGZpbGUubWFlPic=

> <r_lp_tautomer_probability>
1

> <r_epik_Ionization_Penalty>
2.43401

> <r_epik_Ionization_Penalty_Charging>
1.64716e-08

> <r_epik_Ionization_Penalty_Neutral>
2.43401

> <r_epik_State_Penalty>
2.59428

> <r_epik_Charging_Adjusted_Penalty>
2.59428

> <i_epik_Tot_Q>
0

> <i_epik_Tot_abs_Q>
0

> <r_epik_Metal_State_Penalty>
2.59427

> <b_epik_Metal_Only>
0

> <s_lp_Force_Field>
OPLS_2005

> <r_lp_Energy>
30.2677

> <b_lp_Chiralities_Consistent>
1

> <s_lp_Variant>
AV-unprocessed.smi:1087-3

> <Gold.Version>
5.8.1

> <Gold.Id.Protein>
6NUR|6NUR_protein|mol2

> <Gold.PLP.Fitness>
38.7749

> <Gold.PLP.PLP>
-34.7724

> <Gold.PLP.part.hbond>
-3.0000

> <Gold.PLP.part.metal>
0.0000

> <Gold.PLP.part.buried>
0.3018

> <Gold.PLP.part.nonpolar>
-32.5353

> <Gold.PLP.part.repulsive>
1.9519

> <Gold.PLP.ligand.clash>
0.0000

> <Gold.PLP.ligand.torsion>
1.4755

> <Gold.PLP.Chemscore.Hbond>
1.5920

> <Gold.PLP.Chemscore.CHOScore>
0.6938

> <Gold.PLP.Chemscore.Metal>
0.0000

> <Gold.Chemscore.Hbonds>
donor molecule, donor type, donor heavy atom, donor atom, acceptor molecule, acceptor atom, score
      P1  H  7989  7998       L1    12  0.31
      P1  H  8011  8017       L1    12  0.36
      L1  C    15    40       P1  8028  0.25

> <Gold.PLP.Chemscore.Internal.Correction>
0.0959

> <Gold.Rescore>
     Score         DG    S(hbond)    S(metal)    S(lipo)     H(rot)  DE(clash)    DE(int)     intcor
     10.83     -13.80       1.63        0.00      76.50       2.37       0.37       2.60       ----

> <Gold.Chemscore.Fitness>
10.8259

> <Gold.Chemscore.DG>
-13.7956

> <Gold.Chemscore.ZeroCoef>
-5.4800

> <Gold.Chemscore.Hbond>
1.6282

> <Gold.Chemscore.Metal>
0.0000

> <Gold.Chemscore.Lipo>
76.5002

> <Gold.Chemscore.Internal_Hbond>
0.0000

> <Gold.Chemscore.DEClash>
0.3661

> <Gold.Chemscore.DEInternal>
2.6036

> <Gold.Chemscore.Rot>
2.3723

> <Gold.Chemscore.Internal.Correction>
   9.000000E+99

> <Gold.Chemscore.Hbonds>
donor molecule, donor type, donor heavy atom, donor atom, acceptor molecule, acceptor atom, score
      P1  H  7989  7998       L1    12  0.04
      P1  H  8011  8017       L1    12  0.35

> <Gold.Chemscore.Hbond.Weighted>
-5.4382

> <Gold.Chemscore.Metal.Weighted>
-0.0000

> <Gold.Chemscore.Lipo.Weighted>
-8.9505

> <Gold.Chemscore.Internal_Hbond.Weighted>
0.0000

> <Gold.Chemscore.DEClash.Weighted>
0.3661

> <Gold.Chemscore.DEInternal.Weighted>
2.6036

> <Gold.Chemscore.Rot.Weighted>
6.0731

> <Gold.Chemscore.Internal.Correction.Weighted>
   9.000000E+99

> <Gold.Protein.RotatedTorsions>
[ 6907 6896 6895 6894 ] final  141.35 input  -60.11 | X-H torsion
[ 7974 7965 7964 7962 ] final    0.72 input  175.53 | X-H torsion
[ 8008 7997 7996 7995 ] final  163.71 input   59.86 | X-H torsion
[ 10167 10162 10161 10158 ] final -135.66 input  -65.29 | X-H torsion
[ 10718 10713 10712 10709 ] final   36.22 input   66.30 | X-H torsion
[ 10763 10752 10751 10750 ] final -117.06 input  -60.55 | X-H torsion
[ 11005 11000 10999 10996 ] final  112.65 input  -57.11 | X-H torsion

> <Gold.Protein.ActiveResidues>
 VAL166  LYS551  ARG553  GLY616  TRP617  ASP618  TYR619  PRO620  LYS621  CYS622 
 ASP623  PHE694  ASN695  SER759  ASP760  ASP761  ALA762  ILE779  LEU786  VAL792 
 PHE793  MET794  SER795  GLU796  ALA797  LYS798  CYS799  TRP800  GLU811  SER814 

> <Gold.Protein.RotatedAtoms>
  152.2320  133.5066  159.5220 H   0  0  0  0  0  0  0  0  0  0  0  0  # atno 6907 bound_to 6896
  150.7040  134.1204  159.4041 H   0  0  0  0  0  0  0  0  0  0  0  0  # atno 6908 bound_to 6896
  151.9125  135.0333  160.0566 H   0  0  0  0  0  0  0  0  0  0  0  0  # atno 6909 bound_to 6896
  146.2436  140.1095  142.8344 H   0  0  0  0  0  0  0  0  0  0  0  0  # atno 7974 bound_to 7965
  156.1936  140.1716  156.8042 H   0  0  0  0  0  0  0  0  0  0  0  0  # atno 8008 bound_to 7997
  154.5502  140.0719  156.8687 H   0  0  0  0  0  0  0  0  0  0  0  0  # atno 8009 bound_to 7997
  155.3044  140.3363  155.4248 H   0  0  0  0  0  0  0  0  0  0  0  0  # atno 8010 bound_to 7997
  139.8756  143.6902  152.2634 H   0  0  0  0  0  0  0  0  0  0  0  0  # atno 10167 bound_to 10162
  157.3322  130.7504  149.6855 H   0  0  0  0  0  0  0  0  0  0  0  0  # atno 10718 bound_to 10713
  154.8542  135.4323  154.1920 H   0  0  0  0  0  0  0  0  0  0  0  0  # atno 10763 bound_to 10752
  153.2986  135.6967  153.7230 H   0  0  0  0  0  0  0  0  0  0  0  0  # atno 10764 bound_to 10752
  153.6369  135.3475  155.3034 H   0  0  0  0  0  0  0  0  0  0  0  0  # atno 10765 bound_to 10752
  139.8932  134.9534  156.6618 H   0  0  0  0  0  0  0  0  0  0  0  0  # atno 11005 bound_to 11000
  145.0499  140.9010  143.5001 LP  0  0  0  0  0  0  0  0  0  0  0  0  # atno 17320 bound_to 7965
  145.1191  139.2706  143.5598 LP  0  0  0  0  0  0  0  0  0  0  0  0  # atno 17321 bound_to 7965
  139.7243  144.7596  151.0904 LP  0  0  0  0  0  0  0  0  0  0  0  0  # atno 17342 bound_to 10162
  140.7753  143.5168  150.9585 LP  0  0  0  0  0  0  0  0  0  0  0  0  # atno 17343 bound_to 10162
  155.9697  130.4192  150.4363 LP  0  0  0  0  0  0  0  0  0  0  0  0  # atno 17370 bound_to 10713
  157.2397  131.0522  151.2444 LP  0  0  0  0  0  0  0  0  0  0  0  0  # atno 17371 bound_to 10713
  140.7441  133.8952  155.8299 LP  0  0  0  0  0  0  0  0  0  0  0  0  # atno 17394 bound_to 11000
  141.0053  134.1094  157.4276 LP  0  0  0  0  0  0  0  0  0  0  0  0  # atno 17395 bound_to 11000

$$$$
