AV-unprocessed.smi:3348|AV-procd|sdf|12928|dock5
  -GOLD-   2272019353D 1   1.00000     0.00000
 Structure written by MMmdl.
 46 47  0  0  0  0  0  0  0  0  1 V2000
  152.0313  144.5813  157.3222 C   0  0  0  0  0  0  0  0  0  0  0  0
  152.0036  143.6705  158.5679 C   0  0  1  0  0  0  0  0  0  0  0  0
  152.0311  144.4804  159.8807 C   0  0  0  0  0  0  0  0  0  0  0  0
  152.5082  143.7066  161.0135 N   0  0  0  0  0  0  0  0  0  0  0  0
  153.0496  142.4385  161.0132 C   0  0  0  0  0  0  0  0  0  0  0  0
  153.3493  142.1240  162.3077 C   0  0  0  0  0  0  0  0  0  0  0  0
  152.9453  143.2769  163.0375 C   0  0  0  0  0  0  0  0  0  0  0  0
  152.4397  144.2212  162.2607 N   0  0  0  0  0  0  0  0  0  0  0  0
  150.8295  142.7922  158.5755 N   0  0  0  0  0  0  0  0  0  0  0  0
  150.7910  141.7746  157.5259 C   0  0  0  0  0  0  0  0  0  0  0  0
  149.3472  141.4723  157.1134 C   0  0  0  0  0  0  0  0  0  0  0  0
  149.3546  140.3663  156.2232 O   0  0  0  0  0  0  0  0  0  0  0  0
  149.7785  140.6733  154.8994 C   0  0  2  0  0  0  0  0  0  0  0  0
  148.8003  141.6726  154.2463 C   0  0  0  0  0  0  0  0  0  0  0  0
  147.4018  141.0605  154.0621 C   0  0  0  0  0  0  0  0  0  0  0  0
  147.4678  139.7518  153.2601 C   0  0  0  0  0  0  0  0  0  0  0  0
  148.4393  138.7496  153.9040 C   0  0  0  0  0  0  0  0  0  0  0  0
  149.8432  139.3606  154.0870 C   0  0  2  0  0  0  0  0  0  0  0  0
  150.8315  138.3541  154.6963 C   0  0  0  0  0  0  0  0  0  0  0  0
  152.8968  145.2434  157.3308 H   0  0  0  0  0  0  0  0  0  0  0  0
  151.1393  145.2062  157.2693 H   0  0  0  0  0  0  0  0  0  0  0  0
  152.0962  144.0094  156.3975 H   0  0  0  0  0  0  0  0  0  0  0  0
  152.9000  143.0493  158.5461 H   0  0  0  0  0  0  0  0  0  0  0  0
  152.6558  145.3681  159.7675 H   0  0  0  0  0  0  0  0  0  0  0  0
  151.0285  144.8366  160.1218 H   0  0  0  0  0  0  0  0  0  0  0  0
  153.1766  141.8738  160.1015 H   0  0  0  0  0  0  0  0  0  0  0  0
  153.7894  141.2099  162.6773 H   0  0  0  0  0  0  0  0  0  0  0  0
  153.0030  143.4539  164.1013 H   0  0  0  0  0  0  0  0  0  0  0  0
  149.9836  143.3520  158.5299 H   0  0  0  0  0  0  0  0  0  0  0  0
  151.3512  142.0890  156.6461 H   0  0  0  0  0  0  0  0  0  0  0  0
  151.2594  140.8594  157.8895 H   0  0  0  0  0  0  0  0  0  0  0  0
  148.7648  141.2324  158.0027 H   0  0  0  0  0  0  0  0  0  0  0  0
  148.8863  142.3448  156.6469 H   0  0  0  0  0  0  0  0  0  0  0  0
  150.7790  141.1089  154.9232 H   0  0  0  0  0  0  0  0  0  0  0  0
  148.7301  142.5879  154.8332 H   0  0  0  0  0  0  0  0  0  0  0  0
  149.1908  141.9709  153.2728 H   0  0  0  0  0  0  0  0  0  0  0  0
  146.9544  140.8689  155.0383 H   0  0  0  0  0  0  0  0  0  0  0  0
  146.7479  141.7725  153.5582 H   0  0  0  0  0  0  0  0  0  0  0  0
  146.4734  139.3103  153.1864 H   0  0  0  0  0  0  0  0  0  0  0  0
  147.7871  139.9653  152.2393 H   0  0  0  0  0  0  0  0  0  0  0  0
  148.0453  138.4286  154.8693 H   0  0  0  0  0  0  0  0  0  0  0  0
  148.5007  137.8539  153.2850 H   0  0  0  0  0  0  0  0  0  0  0  0
  150.2203  139.6113  153.0943 H   0  0  0  0  0  0  0  0  0  0  0  0
  150.5170  138.0367  155.6909 H   0  0  0  0  0  0  0  0  0  0  0  0
  151.8280  138.7876  154.7854 H   0  0  0  0  0  0  0  0  0  0  0  0
  150.9149  137.4621  154.0750 H   0  0  0  0  0  0  0  0  0  0  0  0
  1  2  1  0  0  0  0
  1 20  1  0  0  0  0
  1 21  1  0  0  0  0
  1 22  1  0  0  0  0
  2  3  1  0  0  0  0
  2  9  1  0  0  0  0
  2 23  1  0  0  0  0
  3  4  1  0  0  0  0
  3 24  1  0  0  0  0
  3 25  1  0  0  0  0
  4  8  1  0  0  0  0
  4  5  1  0  0  0  0
  5  6  2  0  0  0  0
  5 26  1  0  0  0  0
  6  7  1  0  0  0  0
  6 27  1  0  0  0  0
  7  8  2  0  0  0  0
  7 28  1  0  0  0  0
  9 10  1  0  0  0  0
  9 29  1  0  0  0  0
 10 11  1  0  0  0  0
 10 30  1  0  0  0  0
 10 31  1  0  0  0  0
 11 12  1  0  0  0  0
 11 32  1  0  0  0  0
 11 33  1  0  0  0  0
 12 13  1  0  0  0  0
 13 18  1  0  0  0  0
 13 14  1  0  0  0  0
 13 34  1  0  0  0  0
 14 15  1  0  0  0  0
 14 35  1  0  0  0  0
 14 36  1  0  0  0  0
 15 16  1  0  0  0  0
 15 37  1  0  0  0  0
 15 38  1  0  0  0  0
 16 17  1  0  0  0  0
 16 39  1  0  0  0  0
 16 40  1  0  0  0  0
 17 18  1  0  0  0  0
 17 41  1  0  0  0  0
 17 42  1  0  0  0  0
 18 19  1  0  0  0  0
 18 43  1  0  0  0  0
 19 44  1  0  0  0  0
 19 45  1  0  0  0  0
 19 46  1  0  0  0  0
M  END
> <s_m_source_file>
AV-unprocessed.smi

> <i_m_source_file_index>
3348

> <i_lp_mmshare_version>
43012

> <i_f3d_flags>
0

> <s_epik_input>
bjFbY0hdW2NIXVtjSF1uMVtDSDJdW0NAQEhdKFtDSDNdKVtOSF1bQ0gyXVtDSDJdT1tDQEBIXTJbQ0gyXVtDSDJdW0NIMl1bQ0gyXVtDQEhdMltDSDNd

> <s_epik_cmdline>
J2VwaWtfcHl0aG9uJywgJy1waCcsICc3LjAnLCAnLXRuJywgJzgnLCAnLW1hJywgJzIwMCcsICctbWV0YWxfYmluZGluZycsICctaW1hZScsICc8aW5maWxlLm1hZT4nLCAnLW9tYWUnLCAnPG91dGZpbGUubWFlPic=

> <r_lp_tautomer_probability>
1

> <r_epik_Ionization_Penalty>
2.46945

> <r_epik_Ionization_Penalty_Charging>
0

> <r_epik_Ionization_Penalty_Neutral>
2.46945

> <r_epik_State_Penalty>
2.6322

> <r_epik_Charging_Adjusted_Penalty>
2.6322

> <i_epik_Tot_Q>
0

> <i_epik_Tot_abs_Q>
0

> <r_epik_Metal_State_Penalty>
2.63217

> <b_epik_Metal_Only>
0

> <s_lp_Force_Field>
OPLS_2005

> <r_lp_Energy>
17.7248

> <b_lp_Chiralities_Consistent>
1

> <s_lp_Variant>
AV-unprocessed.smi:3348-14

> <Gold.Version>
5.8.1

> <Gold.Id.Protein>
6NUR|6NUR_protein|mol2

> <Gold.PLP.Fitness>
44.9849

> <Gold.PLP.PLP>
-45.9236

> <Gold.PLP.part.hbond>
0.0000

> <Gold.PLP.part.metal>
0.0000

> <Gold.PLP.part.buried>
-1.8157

> <Gold.PLP.part.nonpolar>
-43.9617

> <Gold.PLP.part.repulsive>
0.2128

> <Gold.PLP.ligand.clash>
0.0000

> <Gold.PLP.ligand.torsion>
0.5743

> <Gold.PLP.Chemscore.Hbond>
0.0000

> <Gold.PLP.Chemscore.CHOScore>
0.0000

> <Gold.PLP.Chemscore.Metal>
0.0000

> <Gold.PLP.Chemscore.Internal.Correction>
0.2100

> <Gold.Rescore>
     Score         DG    S(hbond)    S(metal)    S(lipo)     H(rot)  DE(clash)    DE(int)     intcor
     15.50     -16.37       0.00        0.00     130.77       1.72       0.34       0.53       ----

> <Gold.Chemscore.Fitness>
15.4969

> <Gold.Chemscore.DG>
-16.3680

> <Gold.Chemscore.ZeroCoef>
-5.4800

> <Gold.Chemscore.Hbond>
0.0000

> <Gold.Chemscore.Metal>
0.0000

> <Gold.Chemscore.Lipo>
130.7745

> <Gold.Chemscore.Internal_Hbond>
0.0000

> <Gold.Chemscore.DEClash>
0.3374

> <Gold.Chemscore.DEInternal>
0.5337

> <Gold.Chemscore.Rot>
1.7237

> <Gold.Chemscore.Internal.Correction>
   9.000000E+99

> <Gold.Chemscore.Hbond.Weighted>
-0.0000

> <Gold.Chemscore.Metal.Weighted>
-0.0000

> <Gold.Chemscore.Lipo.Weighted>
-15.3006

> <Gold.Chemscore.Internal_Hbond.Weighted>
0.0000

> <Gold.Chemscore.DEClash.Weighted>
0.3374

> <Gold.Chemscore.DEInternal.Weighted>
0.5337

> <Gold.Chemscore.Rot.Weighted>
4.4126

> <Gold.Chemscore.Internal.Correction.Weighted>
   9.000000E+99

> <Gold.Protein.RotatedTorsions>
[ 6907 6896 6895 6894 ] final   89.75 input  -60.11 | X-H torsion
[ 7974 7965 7964 7962 ] final  115.67 input  175.53 | X-H torsion
[ 8008 7997 7996 7995 ] final  123.18 input   59.86 | X-H torsion
[ 10167 10162 10161 10158 ] final  100.82 input  -65.29 | X-H torsion
[ 10718 10713 10712 10709 ] final -151.13 input   66.30 | X-H torsion
[ 10763 10752 10751 10750 ] final  -65.30 input  -60.55 | X-H torsion
[ 11005 11000 10999 10996 ] final  -57.91 input  -57.11 | X-H torsion

> <Gold.Protein.ActiveResidues>
 VAL166  LYS551  ARG553  GLY616  TRP617  ASP618  TYR619  PRO620  LYS621  CYS622 
 ASP623  PHE694  ASN695  SER759  ASP760  ASP761  ALA762  ILE779  LEU786  VAL792 
 PHE793  MET794  SER795  GLU796  ALA797  LYS798  CYS799  TRP800  GLU811  SER814 

> <Gold.Protein.RotatedAtoms>
  152.5439  134.1918  159.8676 H   0  0  0  0  0  0  0  0  0  0  0  0  # atno 6907 bound_to 6896
  151.1913  133.4658  159.2602 H   0  0  0  0  0  0  0  0  0  0  0  0  # atno 6908 bound_to 6896
  151.1080  135.0022  159.8536 H   0  0  0  0  0  0  0  0  0  0  0  0  # atno 6909 bound_to 6896
  145.1892  139.3009  143.4377 H   0  0  0  0  0  0  0  0  0  0  0  0  # atno 7974 bound_to 7965
  156.2756  140.2768  156.1587 H   0  0  0  0  0  0  0  0  0  0  0  0  # atno 8008 bound_to 7997
  155.0777  140.0387  157.2647 H   0  0  0  0  0  0  0  0  0  0  0  0  # atno 8009 bound_to 7997
  154.6989  140.2645  155.6744 H   0  0  0  0  0  0  0  0  0  0  0  0  # atno 8010 bound_to 7997
  139.7493  144.6989  151.0457 H   0  0  0  0  0  0  0  0  0  0  0  0  # atno 10167 bound_to 10162
  156.4552  130.8187  151.2418 H   0  0  0  0  0  0  0  0  0  0  0  0  # atno 10718 bound_to 10713
  154.3430  135.6152  153.5606 H   0  0  0  0  0  0  0  0  0  0  0  0  # atno 10763 bound_to 10752
  152.9803  135.5774  154.4831 H   0  0  0  0  0  0  0  0  0  0  0  0  # atno 10764 bound_to 10752
  154.4538  135.2853  155.1739 H   0  0  0  0  0  0  0  0  0  0  0  0  # atno 10765 bound_to 10752
  141.1185  133.6611  156.4840 H   0  0  0  0  0  0  0  0  0  0  0  0  # atno 11005 bound_to 11000
  146.3439  140.2098  142.8590 LP  0  0  0  0  0  0  0  0  0  0  0  0  # atno 17320 bound_to 7965
  145.0059  140.8672  143.5254 LP  0  0  0  0  0  0  0  0  0  0  0  0  # atno 17321 bound_to 7965
  140.7796  143.4829  150.9994 LP  0  0  0  0  0  0  0  0  0  0  0  0  # atno 17342 bound_to 10162
  139.8517  143.7430  152.3177 LP  0  0  0  0  0  0  0  0  0  0  0  0  # atno 17343 bound_to 10162
  157.7501  131.0125  150.3386 LP  0  0  0  0  0  0  0  0  0  0  0  0  # atno 17370 bound_to 10713
  156.3774  130.3874  149.7128 LP  0  0  0  0  0  0  0  0  0  0  0  0  # atno 17371 bound_to 10713
  140.4577  134.6870  157.5070 LP  0  0  0  0  0  0  0  0  0  0  0  0  # atno 17394 bound_to 11000
  140.0124  134.6671  155.9361 LP  0  0  0  0  0  0  0  0  0  0  0  0  # atno 17395 bound_to 11000

$$$$
