#       Name:                AV-unprocessed.smi:1600
#       Creating user name   scv26
#       Creation time:       Fri Mar 27 07:07:12 2020


#       File generated by GOLD software.
#

@<TRIPOS>MOLECULE
AV-unprocessed.smi:1600
    49    50     1
SMALL
NO_CHARGES


@<TRIPOS>ATOM
      1 ****        -5.3260   4.7154   1.0016 C.3            1 S1                 0.0000
      2 ****        -4.8539   3.2958   1.1147 C.2            1 S1                 0.0000
      3 ****        -3.5120   2.8156   1.1243 C.2            1 S1                 0.0000
      4 ****        -3.6771   1.4630   1.2481 C.2            1 S1                 0.0000
      5 ****        -2.7310   0.4880   1.3064 N.am           1 S1                 0.0000
      6 ****        -1.3928   0.6170   1.3274 C.2            1 S1                 0.0000
      7 ****        -0.7759   1.6817   1.2875 O.2            1 S1                 0.0000
      8 ****        -0.7909  -0.5790   1.3996 N.am           1 S1                 0.0000
      9 ****         0.6523  -0.7859   1.4644 C.3            1 S1                 0.0000
     10 ****         1.3298  -0.6120   0.0913 C.3            1 S1                 0.0000
     11 ****         0.8560  -1.5850  -0.9874 C.3            1 S1                 0.0000
     12 ****         2.0332  -1.6839  -1.9676 C.3            1 S1                 0.0000
     13 ****         3.2098  -1.0658  -1.3046 N.4            1 S1                 1.0000
     14 ****         4.5068  -1.7636  -1.5331 C.3            1 S1                 0.0000
     15 ****         5.6612  -1.0895  -0.7667 C.3            1 S1                 0.0000
     16 ****         4.8499  -1.8189  -3.0341 C.3            1 S1                 0.0000
     17 ****         2.8366  -0.8568   0.1113 C.3            1 S1                 0.0000
     18 ****        -5.0245   1.1825   1.3039 N.pl3          1 S1                 0.0000
     19 ****        -5.6962  -0.0964   1.4293 C.3            1 S1                 0.0000
     20 ****        -5.7485   2.3195   1.2203 N.2            1 S1                 0.0000
     21 ****        -4.4852   5.4077   0.9539 H              1 S1                 0.0000
     22 ****        -5.9377   4.9957   1.8595 H              1 S1                 0.0000
     23 ****        -5.9251   4.8593   0.1020 H              1 S1                 0.0000
     24 ****        -2.5984   3.3858   1.0505 H              1 S1                 0.0000
     25 ****        -3.0891  -0.4543   1.3565 H              1 S1                 0.0000
     26 ****        -1.3721  -1.4041   1.4290 H              1 S1                 0.0000
     27 ****         1.0902  -0.0992   2.1908 H              1 S1                 0.0000
     28 ****         0.8314  -1.7911   1.8470 H              1 S1                 0.0000
     29 ****         1.1623   0.4049  -0.2682 H              1 S1                 0.0000
     30 ****         0.6646  -2.5658  -0.5494 H              1 S1                 0.0000
     31 ****        -0.0638  -1.2545  -1.4713 H              1 S1                 0.0000
     32 ****         2.2113  -2.7297  -2.2225 H              1 S1                 0.0000
     33 ****         1.8241  -1.1471  -2.8934 H              1 S1                 0.0000
     34 ****         4.4107  -2.7865  -1.1651 H              1 S1                 0.0000
     35 ****         6.6108  -1.5807  -0.9816 H              1 S1                 0.0000
     36 ****         5.5206  -1.1392   0.3132 H              1 S1                 0.0000
     37 ****         5.7632  -0.0397  -1.0446 H              1 S1                 0.0000
     38 ****         5.8077  -2.3140  -3.1973 H              1 S1                 0.0000
     39 ****         4.9204  -0.8178  -3.4611 H              1 S1                 0.0000
     40 ****         4.1066  -2.3730  -3.6070 H              1 S1                 0.0000
     41 ****         3.3791  -0.0211   0.5546 H              1 S1                 0.0000
     42 ****         3.0637  -1.7559   0.6873 H              1 S1                 0.0000
     43 ****        -5.2464  -0.6706   2.2398 H              1 S1                 0.0000
     44 ****        -5.5976  -0.6539   0.4974 H              1 S1                 0.0000
     45 ****        -6.7556   0.0467   1.6477 H              1 S1                 0.0000
     46 ****         3.2979  -0.1414  -1.7023 H              1 S1                 0.0000
     47 ****        -1.2746   2.5468   1.2346 LP             1 S1                 0.0000
     48 ****         0.2239   1.6813   1.3079 LP             1 S1                 0.0000
     49 ****        -6.7445   2.4075   1.2347 LP             1 S1                 0.0000
@<TRIPOS>BOND
    1    1    2 1     
    2    1   21 1     
    3    1   22 1     
    4    1   23 1     
    5    2   20 2     
    6    2    3 1     
    7    3    4 2     
    8    3   24 1     
    9    4    5 1     
   10    4   18 1     
   11    5    6 am    
   12    5   25 1     
   13    6    7 2     
   14    6    8 am    
   15    8    9 1     
   16    8   26 1     
   17    9   10 1     
   18    9   27 1     
   19    9   28 1     
   20   10   17 1     
   21   10   11 1     
   22   10   29 1     
   23   11   12 1     
   24   11   30 1     
   25   11   31 1     
   26   12   13 1     
   27   12   32 1     
   28   12   33 1     
   29   13   14 1     
   30   13   17 1     
   31   13   46 1     
   32   14   15 1     
   33   14   16 1     
   34   14   34 1     
   35   15   35 1     
   36   15   36 1     
   37   15   37 1     
   38   16   38 1     
   39   16   39 1     
   40   16   40 1     
   41   17   41 1     
   42   17   42 1     
   43   18   19 1     
   44   18   20 1     
   45   19   43 1     
   46   19   44 1     
   47   19   45 1     
   48    7   47 1     
   49    7   48 1     
   50   20   49 1     
@<TRIPOS>SUBSTRUCTURE
      1 S1             1
@<TRIPOS>SET
LONE_PAIRS      STATIC     ATOMS    <user>   **** ""
3 47 48 49
DONOR_HYDROGENS      STATIC     ATOMS    <user>   **** ""
3 25 26 46
ATOM$BLUE        STATIC     ATOMS    COLORGROUP SYSTEM
3 47 48 49
ATOM$RED        STATIC     ATOMS    COLORGROUP SYSTEM
3 25 26 46
