AV-unprocessed.smi:1504|AV-procd|sdf|6074|dock9
  -GOLD-   22720 6193D 1   1.00000     0.00000
 Structure written by MMmdl.
 40 41  0  0  0  0  0  0  0  0  2 V2000
  146.1726  139.1556  153.8233 O   0  0  0  0  0  0  0  0  0  0  0  0
  146.9869  138.3964  153.2978 C   0  0  0  0  0  0  0  0  0  0  0  0
  146.6480  137.3253  152.5665 N   0  0  0  0  0  0  0  0  0  0  0  0
  145.2788  136.9040  152.2938 C   0  0  0  0  0  0  0  0  0  0  0  0
  145.1868  136.0842  150.9956 C   0  0  0  0  0  0  0  0  0  0  0  0
  145.5343  134.6244  151.2119 C   0  0  0  0  0  0  0  0  0  0  0  0
  144.6346  133.5842  150.8926 C   0  0  0  0  0  0  0  0  0  0  0  0
  145.0223  132.2459  151.1127 C   0  0  0  0  0  0  0  0  0  0  0  0
  146.3003  131.9763  151.6451 C   0  0  0  0  0  0  0  0  0  0  0  0
  147.1596  133.0534  151.9437 C   0  0  0  0  0  0  0  0  0  0  0  0
  146.7515  134.3218  151.7191 N   0  3  0  0  0  0  0  0  0  0  0  0
  148.3159  138.5340  153.3917 N   0  0  0  0  0  0  0  0  0  0  0  0
  148.9991  139.5853  154.1377 C   0  0  0  0  0  0  0  0  0  0  0  0
  150.1242  139.0000  155.0080 C   0  0  1  0  0  0  0  0  0  0  0  0
  150.7528  137.7378  154.3864 C   0  0  0  0  0  0  0  0  0  0  0  0
  152.0249  137.3920  155.1663 C   0  0  0  0  0  0  0  0  0  0  0  0
  152.7491  138.9990  155.6621 S   0  0  0  0  0  0  0  0  0  0  0  0
  152.9870  138.9906  157.1135 O   0  0  0  0  0  0  0  0  0  0  0  0
  153.8179  139.3665  154.7213 O   0  0  0  0  0  0  0  0  0  0  0  0
  151.2594  140.0009  155.2891 C   0  0  0  0  0  0  0  0  0  0  0  0
  147.3879  136.7627  152.1721 H   0  0  0  0  0  0  0  0  0  0  0  0
  144.8920  136.3288  153.1371 H   0  0  0  0  0  0  0  0  0  0  0  0
  144.6588  137.7976  152.2170 H   0  0  0  0  0  0  0  0  0  0  0  0
  144.1800  136.1514  150.5809 H   0  0  0  0  0  0  0  0  0  0  0  0
  145.8571  136.4955  150.2395 H   0  0  0  0  0  0  0  0  0  0  0  0
  143.6601  133.8068  150.4827 H   0  0  0  0  0  0  0  0  0  0  0  0
  144.3477  131.4363  150.8749 H   0  0  0  0  0  0  0  0  0  0  0  0
  146.6163  130.9583  151.8210 H   0  0  0  0  0  0  0  0  0  0  0  0
  148.1533  132.9399  152.3519 H   0  0  0  0  0  0  0  0  0  0  0  0
  148.8997  137.8578  152.9213 H   0  0  0  0  0  0  0  0  0  0  0  0
  149.4098  140.3024  153.4260 H   0  0  0  0  0  0  0  0  0  0  0  0
  148.2968  140.1337  154.7682 H   0  0  0  0  0  0  0  0  0  0  0  0
  149.7009  138.7059  155.9700 H   0  0  0  0  0  0  0  0  0  0  0  0
  150.0537  136.9012  154.3749 H   0  0  0  0  0  0  0  0  0  0  0  0
  151.0213  137.9428  153.3491 H   0  0  0  0  0  0  0  0  0  0  0  0
  151.7836  136.8369  156.0729 H   0  0  0  0  0  0  0  0  0  0  0  0
  152.7431  136.8158  154.5831 H   0  0  0  0  0  0  0  0  0  0  0  0
  151.4784  140.6038  154.4072 H   0  0  0  0  0  0  0  0  0  0  0  0
  151.0409  140.6711  156.1205 H   0  0  0  0  0  0  0  0  0  0  0  0
  147.3899  135.0856  151.9424 H   0  0  0  0  0  0  0  0  0  0  0  0
  1  2  2  0  0  0  0
  2  3  1  0  0  0  0
  2 12  1  0  0  0  0
  3  4  1  0  0  0  0
  3 21  1  0  0  0  0
  4  5  1  0  0  0  0
  4 22  1  0  0  0  0
  4 23  1  0  0  0  0
  5  6  1  0  0  0  0
  5 24  1  0  0  0  0
  5 25  1  0  0  0  0
  6 11  1  0  0  0  0
  6  7  2  0  0  0  0
  7  8  1  0  0  0  0
  7 26  1  0  0  0  0
  8  9  2  0  0  0  0
  8 27  1  0  0  0  0
  9 10  1  0  0  0  0
  9 28  1  0  0  0  0
 10 11  2  0  0  0  0
 10 29  1  0  0  0  0
 11 40  1  0  0  0  0
 12 13  1  0  0  0  0
 12 30  1  0  0  0  0
 13 14  1  0  0  0  0
 13 31  1  0  0  0  0
 13 32  1  0  0  0  0
 14 20  1  0  0  0  0
 14 15  1  0  0  0  0
 14 33  1  0  0  0  0
 15 16  1  0  0  0  0
 15 34  1  0  0  0  0
 15 35  1  0  0  0  0
 16 17  1  0  0  0  0
 16 36  1  0  0  0  0
 16 37  1  0  0  0  0
 17 18  2  0  0  0  0
 17 19  2  0  0  0  0
 17 20  1  0  0  0  0
 20 38  1  0  0  0  0
 20 39  1  0  0  0  0
M  CHG  1  11   1
M  END
> <s_m_source_file>
AV-unprocessed.smi

> <i_m_source_file_index>
1504

> <i_lp_mmshare_version>
43012

> <i_f3d_flags>
0

> <s_epik_input>
Tz1TMSg9TylbQ0gyXVtDSDJdW0NASF0oW0NIMl0xKVtDSDJdW05IXUMoPU8pW05IXVtDSDJdW0NIMl1jMltjSF1bY0hdW2NIXVtjSF1uMg==

> <s_epik_cmdline>
J2VwaWtfcHl0aG9uJywgJy1waCcsICc3LjAnLCAnLXRuJywgJzgnLCAnLW1hJywgJzIwMCcsICctbWV0YWxfYmluZGluZycsICctaW1hZScsICc8aW5maWxlLm1hZT4nLCAnLW9tYWUnLCAnPG91dGZpbGUubWFlPic=

> <r_epik_Ionization_Penalty>
1.57393

> <r_epik_Ionization_Penalty_Charging>
1.57388

> <r_epik_Ionization_Penalty_Neutral>
4.82054e-05

> <r_epik_State_Penalty>
1.66991

> <r_epik_Charging_Adjusted_Penalty>
3.24379

> <i_epik_Tot_Q>
1

> <i_epik_Tot_abs_Q>
1

> <r_epik_Metal_State_Penalty>
1.71052

> <b_epik_Metal_Only>
0

> <s_lp_Force_Field>
OPLS_2005

> <r_lp_Energy>
6.78157

> <b_lp_Chiralities_Consistent>
1

> <s_lp_Variant>
AV-unprocessed.smi:1504-4

> <Gold.Version>
5.8.1

> <Gold.Id.Protein>
6NUR|6NUR_protein|mol2

> <Gold.PLP.Fitness>
48.8014

> <Gold.PLP.PLP>
-33.7462

> <Gold.PLP.part.hbond>
-5.9761

> <Gold.PLP.part.metal>
0.0000

> <Gold.PLP.part.buried>
2.3252

> <Gold.PLP.part.nonpolar>
-31.2141

> <Gold.PLP.part.repulsive>
0.3788

> <Gold.PLP.ligand.clash>
0.0025

> <Gold.PLP.ligand.torsion>
0.7115

> <Gold.PLP.Chemscore.Hbond>
5.4904

> <Gold.PLP.Chemscore.CHOScore>
0.0000

> <Gold.PLP.Chemscore.Metal>
0.0000

> <Gold.Chemscore.Hbonds>
donor molecule, donor type, donor heavy atom, donor atom, acceptor molecule, acceptor atom, score
      L1  H     3    21       P1  7948  1.00
      L1  H    11    40       P1  7948  2.00
      L1  H    12    30       P1  7948  0.94
      P1  H  7997  8008       L1    19  0.88
      P1  H  7997  8010       L1    18  0.58

> <Gold.PLP.Chemscore.Internal.Correction>
0.0095

> <Gold.Rescore>
     Score         DG    S(hbond)    S(metal)    S(lipo)     H(rot)  DE(clash)    DE(int)     intcor
     19.73     -20.97       3.56        0.00      74.78       2.01       0.58       0.66       ----

> <Gold.Chemscore.Fitness>
19.7278

> <Gold.Chemscore.DG>
-20.9695

> <Gold.Chemscore.ZeroCoef>
-5.4800

> <Gold.Chemscore.Hbond>
3.5620

> <Gold.Chemscore.Metal>
0.0000

> <Gold.Chemscore.Lipo>
74.7835

> <Gold.Chemscore.Internal_Hbond>
0.0000

> <Gold.Chemscore.DEClash>
0.5804

> <Gold.Chemscore.DEInternal>
0.6614

> <Gold.Chemscore.Rot>
2.0146

> <Gold.Chemscore.Internal.Correction>
   9.000000E+99

> <Gold.Chemscore.Hbonds>
donor molecule, donor type, donor heavy atom, donor atom, acceptor molecule, acceptor atom, score
      L1  H     3    21       P1  7948  0.99
      L1  H    11    40       P1  7948  0.93
      L1  H    12    30       P1  7948  0.91
      P1  H  7997  8008       L1    19  0.60
      P1  H  7997  8010       L1    18  0.11

> <Gold.Chemscore.Hbond.Weighted>
-11.8971

> <Gold.Chemscore.Metal.Weighted>
-0.0000

> <Gold.Chemscore.Lipo.Weighted>
-8.7497

> <Gold.Chemscore.Internal_Hbond.Weighted>
0.0000

> <Gold.Chemscore.DEClash.Weighted>
0.5804

> <Gold.Chemscore.DEInternal.Weighted>
0.6614

> <Gold.Chemscore.Rot.Weighted>
5.1573

> <Gold.Chemscore.Internal.Correction.Weighted>
   9.000000E+99

> <Gold.Protein.RotatedTorsions>
[ 6907 6896 6895 6894 ] final  104.85 input  -60.11 | X-H torsion
[ 7974 7965 7964 7962 ] final  159.49 input  175.53 | X-H torsion
[ 8008 7997 7996 7995 ] final   20.77 input   59.86 | X-H torsion
[ 10167 10162 10161 10158 ] final   17.08 input  -65.29 | X-H torsion
[ 10718 10713 10712 10709 ] final   95.01 input   66.30 | X-H torsion
[ 10763 10752 10751 10750 ] final -150.61 input  -60.55 | X-H torsion
[ 11005 11000 10999 10996 ] final   93.59 input  -57.11 | X-H torsion

> <Gold.Protein.ActiveResidues>
 VAL166  LYS551  ARG553  GLY616  TRP617  ASP618  TYR619  PRO620  LYS621  CYS622 
 ASP623  PHE694  ASN695  SER759  ASP760  ASP761  ALA762  ILE779  LEU786  VAL792 
 PHE793  MET794  SER795  GLU796  ALA797  LYS798  CYS799  TRP800  GLU811  SER814 

> <Gold.Protein.RotatedAtoms>
  152.5250  133.9616  159.7719 H   0  0  0  0  0  0  0  0  0  0  0  0  # atno 6907 bound_to 6896
  150.9905  133.6146  159.2716 H   0  0  0  0  0  0  0  0  0  0  0  0  # atno 6908 bound_to 6896
  151.3291  135.0843  159.9385 H   0  0  0  0  0  0  0  0  0  0  0  0  # atno 6909 bound_to 6896
  144.7787  139.7625  143.6268 H   0  0  0  0  0  0  0  0  0  0  0  0  # atno 7974 bound_to 7965
  154.9406  140.3052  155.5122 H   0  0  0  0  0  0  0  0  0  0  0  0  # atno 8008 bound_to 7997
  156.2996  140.2337  156.4412 H   0  0  0  0  0  0  0  0  0  0  0  0  # atno 8009 bound_to 7997
  154.8149  140.0426  157.1358 H   0  0  0  0  0  0  0  0  0  0  0  0  # atno 8010 bound_to 7997
  140.5752  143.9086  150.6744 H   0  0  0  0  0  0  0  0  0  0  0  0  # atno 10167 bound_to 10162
  157.6943  131.0531  150.4273 H   0  0  0  0  0  0  0  0  0  0  0  0  # atno 10718 bound_to 10713
  154.8108  135.3280  154.7309 H   0  0  0  0  0  0  0  0  0  0  0  0  # atno 10763 bound_to 10752
  153.7958  135.6907  153.4868 H   0  0  0  0  0  0  0  0  0  0  0  0  # atno 10764 bound_to 10752
  153.1886  135.4559  155.0067 H   0  0  0  0  0  0  0  0  0  0  0  0  # atno 10765 bound_to 10752
  139.8808  134.8798  156.3740 H   0  0  0  0  0  0  0  0  0  0  0  0  # atno 11005 bound_to 11000
  146.1983  139.5262  142.9760 LP  0  0  0  0  0  0  0  0  0  0  0  0  # atno 17320 bound_to 7965
  145.6111  141.0339  143.1966 LP  0  0  0  0  0  0  0  0  0  0  0  0  # atno 17321 bound_to 7965
  140.2572  143.3550  152.1355 LP  0  0  0  0  0  0  0  0  0  0  0  0  # atno 17342 bound_to 10162
  139.5139  144.6939  151.5684 LP  0  0  0  0  0  0  0  0  0  0  0  0  # atno 17343 bound_to 10162
  156.4643  130.4039  149.6557 LP  0  0  0  0  0  0  0  0  0  0  0  0  # atno 17370 bound_to 10713
  156.3661  130.7506  151.2484 LP  0  0  0  0  0  0  0  0  0  0  0  0  # atno 17371 bound_to 10713
  140.9444  133.7492  156.0189 LP  0  0  0  0  0  0  0  0  0  0  0  0  # atno 17394 bound_to 11000
  140.8180  134.3322  157.5391 LP  0  0  0  0  0  0  0  0  0  0  0  0  # atno 17395 bound_to 11000

$$$$
