AV-unprocessed.smi:1208|AV-procd|sdf|5065|dock4
  -GOLD-   22720 4103D 1   1.00000     0.00000
 Structure written by MMmdl.
 36 37  0  0  0  0  0  0  0  0  1 V2000
  150.4454  142.4031  156.3639 C   0  0  0  0  0  0  0  0  0  0  0  0
  151.2566  141.8676  157.5561 C   0  0  2  0  0  0  0  0  0  0  0  0
  150.7829  140.5311  157.9060 N   0  0  0  0  0  0  0  0  0  0  0  0
  151.4946  139.3986  157.7993 C   0  0  0  0  0  0  0  0  0  0  0  0
  152.6407  139.3588  157.3496 O   0  0  0  0  0  0  0  0  0  0  0  0
  150.7874  138.1118  158.2476 C   0  0  0  0  0  0  0  0  0  0  0  0
  150.4976  137.1990  157.1328 N   0  0  0  0  0  0  0  0  0  0  0  0
  151.0028  137.6157  155.9103 N   0  0  0  0  0  0  0  0  0  0  0  0
  150.8266  136.8889  154.8589 C   0  0  0  0  0  0  0  0  0  0  0  0
  151.3467  137.3372  153.6698 O   0  0  0  0  0  0  0  0  0  0  0  0
  150.1031  135.6382  154.9254 C   0  0  0  0  0  0  0  0  0  0  0  0
  149.6091  135.2441  156.1195 C   0  0  0  0  0  0  0  0  0  0  0  0
  149.7894  136.0447  157.3317 C   0  0  0  0  0  0  0  0  0  0  0  0
  149.3459  135.7126  158.4309 O   0  0  0  0  0  0  0  0  0  0  0  0
  151.1554  142.7790  158.7946 C   0  0  2  0  0  0  0  0  0  0  0  0
  151.5648  144.2337  158.5500 C   0  0  0  0  0  0  0  0  0  0  0  0
  152.0206  144.6652  159.9245 C   0  0  0  0  0  0  0  0  0  0  0  0
  152.7317  143.4096  160.4138 C   0  0  0  0  0  0  0  0  0  0  0  0
  152.0336  142.3180  159.8221 O   0  0  0  0  0  0  0  0  0  0  0  0
  150.7338  137.0575  153.0073 H   0  0  0  0  0  0  0  0  0  0  0  0
  150.8048  143.3819  156.0463 H   0  0  0  0  0  0  0  0  0  0  0  0
  149.3889  142.5017  156.6154 H   0  0  0  0  0  0  0  0  0  0  0  0
  150.5218  141.7370  155.5038 H   0  0  0  0  0  0  0  0  0  0  0  0
  152.3070  141.8126  157.2643 H   0  0  0  0  0  0  0  0  0  0  0  0
  149.8499  140.4682  158.2871 H   0  0  0  0  0  0  0  0  0  0  0  0
  151.3881  137.5991  159.0016 H   0  0  0  0  0  0  0  0  0  0  0  0
  149.8635  138.3964  158.7541 H   0  0  0  0  0  0  0  0  0  0  0  0
  149.9662  135.0409  154.0361 H   0  0  0  0  0  0  0  0  0  0  0  0
  149.0670  134.3120  156.1840 H   0  0  0  0  0  0  0  0  0  0  0  0
  150.1414  142.7583  159.1978 H   0  0  0  0  0  0  0  0  0  0  0  0
  152.4000  144.2879  157.8500 H   0  0  0  0  0  0  0  0  0  0  0  0
  150.7512  144.8453  158.1592 H   0  0  0  0  0  0  0  0  0  0  0  0
  152.6661  145.5438  159.9091 H   0  0  0  0  0  0  0  0  0  0  0  0
  151.1582  144.8820  160.5564 H   0  0  0  0  0  0  0  0  0  0  0  0
  153.7625  143.3937  160.0577 H   0  0  0  0  0  0  0  0  0  0  0  0
  152.7467  143.3331  161.5011 H   0  0  0  0  0  0  0  0  0  0  0  0
  1  2  1  0  0  0  0
  1 21  1  0  0  0  0
  1 22  1  0  0  0  0
  1 23  1  0  0  0  0
  2  3  1  0  0  0  0
  2 15  1  0  0  0  0
  2 24  1  0  0  0  0
  3  4  1  0  0  0  0
  3 25  1  0  0  0  0
  4  5  2  0  0  0  0
  4  6  1  0  0  0  0
  6 26  1  0  0  0  0
  6 27  1  0  0  0  0
  6  7  1  0  0  0  0
  7  8  1  0  0  0  0
  7 13  1  0  0  0  0
  8  9  2  0  0  0  0
  9 10  1  0  0  0  0
  9 11  1  0  0  0  0
 10 20  1  0  0  0  0
 11 28  1  0  0  0  0
 11 12  2  0  0  0  0
 12 29  1  0  0  0  0
 12 13  1  0  0  0  0
 13 14  2  0  0  0  0
 15 19  1  0  0  0  0
 15 16  1  0  0  0  0
 15 30  1  0  0  0  0
 16 17  1  0  0  0  0
 16 31  1  0  0  0  0
 16 32  1  0  0  0  0
 17 18  1  0  0  0  0
 17 33  1  0  0  0  0
 17 34  1  0  0  0  0
 18 19  1  0  0  0  0
 18 35  1  0  0  0  0
 18 36  1  0  0  0  0
M  END
> <s_m_source_file>
AV-unprocessed.smi

> <i_m_source_file_index>
1208

> <i_lp_mmshare_version>
43012

> <i_f3d_flags>
0

> <s_epik_input>
TzFbQ0gyXVtDSDJdW0NIMl1bQ0BIXTFbQ0BIXShbQ0gzXSlbTkhdQyg9TylbQ0gyXW4yW25IXWMoPU8pW2NIXVtjSF1jMj1P

> <s_epik_cmdline>
J2VwaWtfcHl0aG9uJywgJy1waCcsICc3LjAnLCAnLXRuJywgJzgnLCAnLW1hJywgJzIwMCcsICctbWV0YWxfYmluZGluZycsICctaW1hZScsICc8aW5maWxlLm1hZT4nLCAnLW9tYWUnLCAnPG91dGZpbGUubWFlPic=

> <r_lp_tautomer_probability>
0.9996

> <r_epik_Ionization_Penalty>
2.12735

> <r_epik_Ionization_Penalty_Charging>
3.86665e-08

> <r_epik_Ionization_Penalty_Neutral>
2.12735

> <r_epik_State_Penalty>
1.70441

> <r_epik_Charging_Adjusted_Penalty>
1.70441

> <i_epik_Tot_Q>
0

> <i_epik_Tot_abs_Q>
0

> <r_epik_Metal_State_Penalty>
1.70441

> <b_epik_Metal_Only>
0

> <s_lp_Force_Field>
OPLS_2005

> <r_lp_Energy>
29.6219

> <b_lp_Chiralities_Consistent>
1

> <s_lp_Variant>
AV-unprocessed.smi:1208-5

> <Gold.Version>
5.8.1

> <Gold.Id.Protein>
6NUR|6NUR_protein|mol2

> <Gold.PLP.Fitness>
42.5858

> <Gold.PLP.PLP>
-31.0589

> <Gold.PLP.part.hbond>
-4.0000

> <Gold.PLP.part.metal>
0.0000

> <Gold.PLP.part.buried>
-4.5345

> <Gold.PLP.part.nonpolar>
-22.4079

> <Gold.PLP.part.repulsive>
0.0982

> <Gold.PLP.ligand.clash>
0.0000

> <Gold.PLP.ligand.torsion>
0.1139

> <Gold.PLP.Chemscore.Hbond>
3.9120

> <Gold.PLP.Chemscore.CHOScore>
0.0000

> <Gold.PLP.Chemscore.Metal>
0.0000

> <Gold.Chemscore.Hbonds>
donor molecule, donor type, donor heavy atom, donor atom, acceptor molecule, acceptor atom, score
      L1  H    10    20       P1  7949  0.33
      P1  H  6896  6908       L1    14  0.86
      P1  H  7997  8009       L1     5  1.00
      P1  H 10752 10765       L1    10  0.04

> <Gold.PLP.Chemscore.Internal.Correction>
0.0187

> <Gold.Rescore>
     Score         DG    S(hbond)    S(metal)    S(lipo)     H(rot)  DE(clash)    DE(int)     intcor
     11.52     -13.33       1.70        0.00      76.09       2.63       0.18       1.63       ----

> <Gold.Chemscore.Fitness>
11.5188

> <Gold.Chemscore.DG>
-13.3253

> <Gold.Chemscore.ZeroCoef>
-5.4800

> <Gold.Chemscore.Hbond>
1.6964

> <Gold.Chemscore.Metal>
0.0000

> <Gold.Chemscore.Lipo>
76.0942

> <Gold.Chemscore.Internal_Hbond>
0.0000

> <Gold.Chemscore.DEClash>
0.1809

> <Gold.Chemscore.DEInternal>
1.6256

> <Gold.Chemscore.Rot>
2.6264

> <Gold.Chemscore.Internal.Correction>
   9.000000E+99

> <Gold.Chemscore.Hbonds>
donor molecule, donor type, donor heavy atom, donor atom, acceptor molecule, acceptor atom, score
      L1  H    10    20       P1  7949  0.03
      P1  H  6896  6908       L1    14  0.71
      P1  H  7997  8009       L1     5  0.94

> <Gold.Chemscore.Hbond.Weighted>
-5.6660

> <Gold.Chemscore.Metal.Weighted>
-0.0000

> <Gold.Chemscore.Lipo.Weighted>
-8.9030

> <Gold.Chemscore.Internal_Hbond.Weighted>
0.0000

> <Gold.Chemscore.DEClash.Weighted>
0.1809

> <Gold.Chemscore.DEInternal.Weighted>
1.6256

> <Gold.Chemscore.Rot.Weighted>
6.7237

> <Gold.Chemscore.Internal.Correction.Weighted>
   9.000000E+99

> <Gold.Protein.RotatedTorsions>
[ 6907 6896 6895 6894 ] final -178.64 input  -60.11 | X-H torsion
[ 7974 7965 7964 7962 ] final  169.05 input  175.53 | X-H torsion
[ 8008 7997 7996 7995 ] final -175.73 input   59.86 | X-H torsion
[ 10167 10162 10161 10158 ] final  101.13 input  -65.29 | X-H torsion
[ 10718 10713 10712 10709 ] final  -96.32 input   66.30 | X-H torsion
[ 10763 10752 10751 10750 ] final  134.20 input  -60.55 | X-H torsion
[ 11005 11000 10999 10996 ] final -129.93 input  -57.11 | X-H torsion

> <Gold.Protein.ActiveResidues>
 VAL166  LYS551  ARG553  GLY616  TRP617  ASP618  TYR619  PRO620  LYS621  CYS622 
 ASP623  PHE694  ASN695  SER759  ASP760  ASP761  ALA762  ILE779  LEU786  VAL792 
 PHE793  MET794  SER795  GLU796  ALA797  LYS798  CYS799  TRP800  GLU811  SER814 

> <Gold.Protein.RotatedAtoms>
  151.6405  133.3326  159.3128 H   0  0  0  0  0  0  0  0  0  0  0  0  # atno 6907 bound_to 6896
  150.8010  134.7107  159.6612 H   0  0  0  0  0  0  0  0  0  0  0  0  # atno 6908 bound_to 6896
  152.4102  134.6141  160.0085 H   0  0  0  0  0  0  0  0  0  0  0  0  # atno 6909 bound_to 6896
  144.7368  139.8998  143.6408 H   0  0  0  0  0  0  0  0  0  0  0  0  # atno 7974 bound_to 7965
  155.9862  140.1191  157.0681 H   0  0  0  0  0  0  0  0  0  0  0  0  # atno 8008 bound_to 7997
  154.4197  140.1135  156.5570 H   0  0  0  0  0  0  0  0  0  0  0  0  # atno 8009 bound_to 7997
  155.6405  140.3473  155.4715 H   0  0  0  0  0  0  0  0  0  0  0  0  # atno 8010 bound_to 7997
  139.7465  144.6996  151.0496 H   0  0  0  0  0  0  0  0  0  0  0  0  # atno 10167 bound_to 10162
  156.0060  130.5146  150.6209 H   0  0  0  0  0  0  0  0  0  0  0  0  # atno 10718 bound_to 10713
  153.8197  135.3118  155.3409 H   0  0  0  0  0  0  0  0  0  0  0  0  # atno 10763 bound_to 10752
  154.8018  135.4722  154.0296 H   0  0  0  0  0  0  0  0  0  0  0  0  # atno 10764 bound_to 10752
  153.1701  135.6876  153.8709 H   0  0  0  0  0  0  0  0  0  0  0  0  # atno 10765 bound_to 10752
  140.9390  134.1219  157.4168 H   0  0  0  0  0  0  0  0  0  0  0  0  # atno 11005 bound_to 11000
  146.1080  139.4082  143.0305 LP  0  0  0  0  0  0  0  0  0  0  0  0  # atno 17320 bound_to 7965
  145.7484  140.9982  143.1264 LP  0  0  0  0  0  0  0  0  0  0  0  0  # atno 17321 bound_to 7965
  140.7793  143.4860  150.9955 LP  0  0  0  0  0  0  0  0  0  0  0  0  # atno 17342 bound_to 10162
  139.8548  143.7391  152.3176 LP  0  0  0  0  0  0  0  0  0  0  0  0  # atno 17343 bound_to 10162
  157.4025  131.0812  151.1296 LP  0  0  0  0  0  0  0  0  0  0  0  0  # atno 17370 bound_to 10713
  157.1953  130.6370  149.5719 LP  0  0  0  0  0  0  0  0  0  0  0  0  # atno 17371 bound_to 10713
  139.8815  135.0030  156.6161 LP  0  0  0  0  0  0  0  0  0  0  0  0  # atno 17394 bound_to 11000
  140.7760  133.8699  155.8530 LP  0  0  0  0  0  0  0  0  0  0  0  0  # atno 17395 bound_to 11000

$$$$
