#       Name:                AV-unprocessed.smi:2024
#       Creating user name   scv26
#       Creation time:       Fri Mar 27 10:44:57 2020


#       File generated by GOLD software.
#

@<TRIPOS>MOLECULE
AV-unprocessed.smi:2024
    48    49     1
SMALL
NO_CHARGES


@<TRIPOS>ATOM
      1 ****        -2.7644  -3.3425   2.4726 C.3            1 S1                 0.0000
      2 ****        -2.3814  -2.7858   1.1844 N.3            1 S1                 0.0000
      3 ****        -0.9326  -2.7872   1.0081 C.3            1 S1                 0.0000
      4 ****        -0.5325  -2.2146  -0.3637 C.3            1 S1                 0.0000
      5 ****        -1.0184  -0.8365  -0.5433 N.3            1 S1                 0.0000
      6 ****        -0.5551  -0.1673  -1.7913 C.3            1 S1                 0.0000
      7 ****        -1.0570  -0.8684  -3.0769 C.3            1 S1                 0.0000
      8 ****        -1.0495   1.3004  -1.8502 C.3            1 S1                 0.0000
      9 ****         0.9995  -0.1170  -1.8753 C.3            1 S1                 0.0000
     10 ****         1.6182   0.4356  -0.6705 N.am           1 S1                 0.0000
     11 ****         2.1614   1.6557  -0.5563 C.2            1 S1                 0.0000
     12 ****         2.2122   2.4685  -1.4794 O.2            1 S1                 0.0000
     13 ****         2.6280   1.8621   0.6856 N.am           1 S1                 0.0000
     14 ****         3.2636   3.0224   1.1922 C.2            1 S1                 0.0000
     15 ****         3.6612   3.0359   2.4658 N.2            1 S1                 0.0000
     16 ****         4.2685   4.2460   2.8135 C.2            1 S1                 0.0000
     17 ****         4.3255   5.1511   1.7828 C.2            1 S1                 0.0000
     18 ****         3.6140   4.5185   0.3226 S.3            1 S1                 0.0000
     19 ****        -2.4777  -0.8394  -0.3485 C.3            1 S1                 0.0000
     20 ****        -2.8711  -1.4203   1.0223 C.3            1 S1                 0.0000
     21 ****        -2.4097  -4.3692   2.5697 H              1 S1                 0.0000
     22 ****        -3.8494  -3.3548   2.5803 H              1 S1                 0.0000
     23 ****        -2.3472  -2.7593   3.2946 H              1 S1                 0.0000
     24 ****        -0.4576  -2.2055   1.8001 H              1 S1                 0.0000
     25 ****        -0.5520  -3.8052   1.0977 H              1 S1                 0.0000
     26 ****         0.5530  -2.2553  -0.4314 H              1 S1                 0.0000
     27 ****        -0.9232  -2.8623  -1.1488 H              1 S1                 0.0000
     28 ****        -0.7057  -0.3467  -3.9680 H              1 S1                 0.0000
     29 ****        -2.1448  -0.8921  -3.1367 H              1 S1                 0.0000
     30 ****        -0.6984  -1.8947  -3.1527 H              1 S1                 0.0000
     31 ****        -0.5673   1.8525  -2.6578 H              1 S1                 0.0000
     32 ****        -0.8405   1.8342  -0.9225 H              1 S1                 0.0000
     33 ****        -2.1216   1.3689  -2.0341 H              1 S1                 0.0000
     34 ****         1.4134  -1.1129  -2.0314 H              1 S1                 0.0000
     35 ****         1.3122   0.4443  -2.7578 H              1 S1                 0.0000
     36 ****         1.6127  -0.1570   0.1468 H              1 S1                 0.0000
     37 ****         2.5157   1.1051   1.3437 H              1 S1                 0.0000
     38 ****         4.6335   4.3791   3.8211 H              1 S1                 0.0000
     39 ****         4.7412   6.1477   1.7943 H              1 S1                 0.0000
     40 ****        -2.8783   0.1710  -0.4037 H              1 S1                 0.0000
     41 ****        -2.9660  -1.4172  -1.1337 H              1 S1                 0.0000
     42 ****        -3.9570  -1.4053   1.1212 H              1 S1                 0.0000
     43 ****        -2.4771  -0.7838   1.8164 H              1 S1                 0.0000
     44 ****        -2.7996  -3.3717   0.4903 LP             1 S1                 0.0000
     45 ****        -0.6003  -0.2529   0.1529 LP             1 S1                 0.0000
     46 ****         1.8351   2.2323  -2.3750 LP             1 S1                 0.0000
     47 ****         2.6306   3.3651  -1.3338 LP             1 S1                 0.0000
     48 ****         3.5391   2.2703   3.0974 LP             1 S1                 0.0000
@<TRIPOS>BOND
    1    1    2 1     
    2    1   21 1     
    3    1   22 1     
    4    1   23 1     
    5    2   20 1     
    6    2    3 1     
    7    3    4 1     
    8    3   24 1     
    9    3   25 1     
   10    4    5 1     
   11    4   26 1     
   12    4   27 1     
   13    5    6 1     
   14    5   19 1     
   15    6    7 1     
   16    6    8 1     
   17    6    9 1     
   18    7   28 1     
   19    7   29 1     
   20    7   30 1     
   21    8   31 1     
   22    8   32 1     
   23    8   33 1     
   24    9   10 1     
   25    9   34 1     
   26    9   35 1     
   27   10   11 am    
   28   10   36 1     
   29   11   12 2     
   30   11   13 am    
   31   13   14 1     
   32   13   37 1     
   33   14   18 1     
   34   14   15 2     
   35   15   16 1     
   36   16   17 2     
   37   16   38 1     
   38   17   18 1     
   39   17   39 1     
   40   19   20 1     
   41   19   40 1     
   42   19   41 1     
   43   20   42 1     
   44   20   43 1     
   45    2   44 1     
   46    5   45 1     
   47   12   46 1     
   48   12   47 1     
   49   15   48 1     
@<TRIPOS>SUBSTRUCTURE
      1 S1             1
@<TRIPOS>SET
LONE_PAIRS      STATIC     ATOMS    <user>   **** ""
5 44 45 46 47 48
DONOR_HYDROGENS      STATIC     ATOMS    <user>   **** ""
2 36 37
ATOM$BLUE        STATIC     ATOMS    COLORGROUP SYSTEM
5 44 45 46 47 48
ATOM$RED        STATIC     ATOMS    COLORGROUP SYSTEM
2 36 37
