#       Name:                AV-unprocessed.smi:1033
#       Creating user name   scv26
#       Creation time:       Fri Mar 27 02:48:13 2020


#       File generated by GOLD software.
#

@<TRIPOS>MOLECULE
AV-unprocessed.smi:1033
    62    64     1
SMALL
NO_CHARGES


@<TRIPOS>ATOM
      1 ****         1.5681   3.6819  -1.7208 C.3            1 S1                 0.0000
      2 ****         0.3353   2.8738  -1.3557 C.ar           1 S1                 0.0000
      3 ****        -0.2992   2.1004  -2.3532 C.ar           1 S1                 0.0000
      4 ****        -1.4369   1.3211  -2.0509 C.ar           1 S1                 0.0000
      5 ****        -2.1845   0.4769  -2.8525 N.2            1 S1                 0.0000
      6 ****        -3.0785   0.0077  -1.9874 C.2            1 S1                 0.0000
      7 ****        -2.9929   0.4415  -0.7153 N.pl3          1 S1                 0.0000
      8 ****        -3.8299   0.0314   0.3983 C.3            1 S1                 0.0000
      9 ****        -3.4099  -1.3373   0.9754 C.3            1 S1                 0.0000
     10 ****        -4.3737  -1.7009   1.9415 O.3            1 S1                 0.0000
     11 ****        -2.0191  -1.3248   1.6568 C.3            1 S1                 0.0000
     12 ****        -1.1612  -2.4825   1.3741 N.3            1 S1                 0.0000
     13 ****        -0.6828  -2.5639  -0.0080 C.3            1 S1                 0.0000
     14 ****         0.3509  -1.4785  -0.3722 C.3            1 S1                 0.0000
     15 ****         1.5026  -1.4769   0.5687 N.4            1 S1                 1.0000
     16 ****         2.4822  -0.3917   0.2967 C.3            1 S1                 0.0000
     17 ****         3.2062  -0.5246  -1.0587 C.3            1 S1                 0.0000
     18 ****         4.0570  -1.7985  -1.1666 C.3            1 S1                 0.0000
     19 ****         4.0618   0.5884  -1.2094 O.3            1 S1                 0.0000
     20 ****         1.0391  -1.4413   1.9811 C.3            1 S1                 0.0000
     21 ****         0.0023  -2.5497   2.2563 C.3            1 S1                 0.0000
     22 ****        -1.9284   1.3374  -0.7123 C.ar           1 S1                 0.0000
     23 ****        -1.3180   2.1206   0.2838 C.ar           1 S1                 0.0000
     24 ****        -0.1779   2.8877  -0.0340 C.ar           1 S1                 0.0000
     25 ****         0.4866   3.7126   1.0536 C.3            1 S1                 0.0000
     26 ****         1.8399   3.5435  -2.7678 H              1 S1                 0.0000
     27 ****         2.4198   3.3772  -1.1120 H              1 S1                 0.0000
     28 ****         1.3888   4.7452  -1.5595 H              1 S1                 0.0000
     29 ****         0.0898   2.0909  -3.3609 H              1 S1                 0.0000
     30 ****        -3.8285  -0.7082  -2.2909 H              1 S1                 0.0000
     31 ****        -3.7962   0.8021   1.1695 H              1 S1                 0.0000
     32 ****        -4.8611  -0.0087   0.0436 H              1 S1                 0.0000
     33 ****        -3.4575  -2.0841   0.1832 H              1 S1                 0.0000
     34 ****        -4.1636  -2.5637   2.2656 H              1 S1                 0.0000
     35 ****        -1.4920  -0.4126   1.3886 H              1 S1                 0.0000
     36 ****        -2.1624  -1.2406   2.7353 H              1 S1                 0.0000
     37 ****        -0.2283  -3.5432  -0.1645 H              1 S1                 0.0000
     38 ****        -1.5177  -2.5180  -0.7062 H              1 S1                 0.0000
     39 ****         0.6938  -1.6601  -1.3898 H              1 S1                 0.0000
     40 ****        -0.1059  -0.4949  -0.3688 H              1 S1                 0.0000
     41 ****         1.9676   0.5697   0.3506 H              1 S1                 0.0000
     42 ****         3.2289  -0.3843   1.0927 H              1 S1                 0.0000
     43 ****         2.4966  -0.4849  -1.8844 H              1 S1                 0.0000
     44 ****         3.4388  -2.6940  -1.1002 H              1 S1                 0.0000
     45 ****         4.8027  -1.8484  -0.3724 H              1 S1                 0.0000
     46 ****         4.5847  -1.8374  -2.1200 H              1 S1                 0.0000
     47 ****         3.5373   1.3744  -1.2397 H              1 S1                 0.0000
     48 ****         1.8944  -1.5771   2.6438 H              1 S1                 0.0000
     49 ****         0.6227  -0.4594   2.2104 H              1 S1                 0.0000
     50 ****        -0.3201  -2.5032   3.2973 H              1 S1                 0.0000
     51 ****         0.4828  -3.5221   2.1393 H              1 S1                 0.0000
     52 ****        -1.7114   2.1136   1.2896 H              1 S1                 0.0000
     53 ****        -0.0430   3.6207   2.0024 H              1 S1                 0.0000
     54 ****         0.4984   4.7677   0.7791 H              1 S1                 0.0000
     55 ****         1.5141   3.3828   1.2103 H              1 S1                 0.0000
     56 ****         1.9854  -2.3555   0.4458 H              1 S1                 0.0000
     57 ****        -2.0800   0.2733  -3.8259 LP             1 S1                 0.0000
     58 ****        -5.2825  -1.7094   1.5245 LP             1 S1                 0.0000
     59 ****        -4.3592  -1.0446   2.6959 LP             1 S1                 0.0000
     60 ****        -1.7694  -3.2585   1.5407 LP             1 S1                 0.0000
     61 ****         4.5829   0.4992  -2.0583 LP             1 S1                 0.0000
     62 ****         4.6924   0.6349  -0.4346 LP             1 S1                 0.0000
@<TRIPOS>BOND
    1    1    2 1     
    2    1   26 1     
    3    1   27 1     
    4    1   28 1     
    5    2   24 ar    
    6    2    3 ar    
    7    3    4 ar    
    8    3   29 1     
    9    4   22 ar    
   10    4    5 1     
   11    5    6 2     
   12    6    7 1     
   13    6   30 1     
   14    7    8 1     
   15    7   22 1     
   16    8    9 1     
   17    8   31 1     
   18    8   32 1     
   19    9   10 1     
   20    9   11 1     
   21    9   33 1     
   22   10   34 1     
   23   11   12 1     
   24   11   35 1     
   25   11   36 1     
   26   12   21 1     
   27   12   13 1     
   28   13   14 1     
   29   13   37 1     
   30   13   38 1     
   31   14   15 1     
   32   14   39 1     
   33   14   40 1     
   34   15   16 1     
   35   15   20 1     
   36   15   56 1     
   37   16   17 1     
   38   16   41 1     
   39   16   42 1     
   40   17   18 1     
   41   17   19 1     
   42   17   43 1     
   43   18   44 1     
   44   18   45 1     
   45   18   46 1     
   46   19   47 1     
   47   20   21 1     
   48   20   48 1     
   49   20   49 1     
   50   21   50 1     
   51   21   51 1     
   52   22   23 ar    
   53   23   24 ar    
   54   23   52 1     
   55   24   25 1     
   56   25   53 1     
   57   25   54 1     
   58   25   55 1     
   59    5   57 1     
   60   10   58 1     
   61   10   59 1     
   62   12   60 1     
   63   19   61 1     
   64   19   62 1     
@<TRIPOS>SUBSTRUCTURE
      1 S1             1
@<TRIPOS>SET
LONE_PAIRS      STATIC     ATOMS    <user>   **** ""
6 57 58 59 60 61 62
DONOR_HYDROGENS      STATIC     ATOMS    <user>   **** ""
3 34 56 47
ATOM$BLUE        STATIC     ATOMS    COLORGROUP SYSTEM
6 57 58 59 60 61 62
ATOM$RED        STATIC     ATOMS    COLORGROUP SYSTEM
3 34 56 47
