AV-unprocessed.smi:81|AV-procd|sdf|787|dock8
  -GOLD-   2262017153D 1   1.00000     0.00000
 Structure written by MMmdl.
 64 67  0  0  0  0  0  0  0  0  2 V2000
  147.4661  141.9394  154.2934 C   0  0  0  0  0  0  0  0  0  0  0  0
  148.4945  140.8470  154.6304 C   0  0  0  0  0  0  0  0  0  0  0  0
  148.4276  139.7089  153.6025 C   0  0  0  0  0  0  0  0  0  0  0  0
  148.2958  140.2946  156.0598 C   0  0  0  0  0  0  0  0  0  0  0  0
  149.5449  140.1029  156.8025 N   0  0  0  0  0  0  0  0  0  0  0  0
  149.6317  138.9242  157.4680 C   0  0  0  0  0  0  0  0  0  0  0  0
  150.8492  138.3912  157.7529 N   0  0  0  0  0  0  0  0  0  0  0  0
  150.9340  137.2354  158.4185 C   0  0  0  0  0  0  0  0  0  0  0  0
  149.9477  136.4666  158.8847 N   0  0  0  0  0  0  0  0  0  0  0  0
  148.7254  137.0037  158.6055 C   0  0  0  0  0  0  0  0  0  0  0  0
  148.4803  138.2196  157.9094 C   0  0  0  0  0  0  0  0  0  0  0  0
  147.1139  138.4520  157.8205 N   0  0  0  0  0  0  0  0  0  0  0  0
  146.5796  137.4285  158.4294 C   0  0  0  0  0  0  0  0  0  0  0  0
  147.4743  136.5061  158.9241 N   0  0  0  0  0  0  0  0  0  0  0  0
  147.1576  135.2793  159.6377 C   0  0  0  0  0  0  0  0  0  0  0  0
  146.5367  135.5222  161.0336 C   0  0  2  0  0  0  0  0  0  0  0  0
  145.1956  135.9554  160.8669 O   0  0  0  0  0  0  0  0  0  0  0  0
  147.2758  136.5568  161.8695 C   0  0  0  0  0  0  0  0  0  0  0  0
  146.8911  136.1681  163.2918 C   0  0  0  0  0  0  0  0  0  0  0  0
  146.8257  134.7482  163.2748 O   0  0  0  0  0  0  0  0  0  0  0  0
  146.6026  134.2775  161.9461 C   0  0  1  0  0  0  0  0  0  0  0  0
  145.3984  133.3233  161.8963 C   0  0  0  0  0  0  0  0  0  0  0  0
  150.0827  141.2822  157.4962 C   0  0  2  0  0  0  0  0  0  0  0  0
  149.0094  142.1234  158.2199 C   0  0  0  0  0  0  0  0  0  0  0  0
  149.6502  143.2901  158.9886 C   0  0  0  0  0  0  0  0  0  0  0  0
  150.4606  144.1426  158.0837 N   0  3  1  0  0  0  0  0  0  0  0  0
  150.9887  145.3434  158.7659 C   0  0  0  0  0  0  0  0  0  0  0  0
  151.5243  143.3691  157.3959 C   0  0  0  0  0  0  0  0  0  0  0  0
  150.9273  142.2039  156.5898 C   0  0  0  0  0  0  0  0  0  0  0  0
  146.4474  141.5551  154.3499 H   0  0  0  0  0  0  0  0  0  0  0  0
  147.6207  142.3253  153.2855 H   0  0  0  0  0  0  0  0  0  0  0  0
  147.5412  142.7842  154.9782 H   0  0  0  0  0  0  0  0  0  0  0  0
  149.4899  141.2853  154.5498 H   0  0  0  0  0  0  0  0  0  0  0  0
  147.4552  139.2157  153.6187 H   0  0  0  0  0  0  0  0  0  0  0  0
  149.1878  138.9535  153.8038 H   0  0  0  0  0  0  0  0  0  0  0  0
  148.5958  140.0810  152.5915 H   0  0  0  0  0  0  0  0  0  0  0  0
  147.6523  140.9750  156.6187 H   0  0  0  0  0  0  0  0  0  0  0  0
  147.7586  139.3465  156.0135 H   0  0  0  0  0  0  0  0  0  0  0  0
  151.9349  136.8749  158.6047 H   0  0  0  0  0  0  0  0  0  0  0  0
  145.5101  137.3155  158.5318 H   0  0  0  0  0  0  0  0  0  0  0  0
  146.4812  134.6849  159.0221 H   0  0  0  0  0  0  0  0  0  0  0  0
  148.0761  134.6983  159.7287 H   0  0  0  0  0  0  0  0  0  0  0  0
  144.6508  135.4829  161.4776 H   0  0  0  0  0  0  0  0  0  0  0  0
  148.3534  136.4399  161.7455 H   0  0  0  0  0  0  0  0  0  0  0  0
  147.0201  137.5880  161.6225 H   0  0  0  0  0  0  0  0  0  0  0  0
  147.6042  136.5274  164.0339 H   0  0  0  0  0  0  0  0  0  0  0  0
  145.9071  136.5644  163.5451 H   0  0  0  0  0  0  0  0  0  0  0  0
  147.4966  133.7072  161.6903 H   0  0  0  0  0  0  0  0  0  0  0  0
  145.2185  132.9724  160.8800 H   0  0  0  0  0  0  0  0  0  0  0  0
  144.4877  133.8036  162.2544 H   0  0  0  0  0  0  0  0  0  0  0  0
  145.5739  132.4486  162.5229 H   0  0  0  0  0  0  0  0  0  0  0  0
  150.7464  140.8904  158.2683 H   0  0  0  0  0  0  0  0  0  0  0  0
  148.2894  142.5269  157.5066 H   0  0  0  0  0  0  0  0  0  0  0  0
  148.4475  141.4964  158.9128 H   0  0  0  0  0  0  0  0  0  0  0  0
  148.8677  143.8913  159.4533 H   0  0  0  0  0  0  0  0  0  0  0  0
  150.2793  142.9097  159.7950 H   0  0  0  0  0  0  0  0  0  0  0  0
  151.6795  145.0682  159.5640 H   0  0  0  0  0  0  0  0  0  0  0  0
  150.1770  145.9269  159.2015 H   0  0  0  0  0  0  0  0  0  0  0  0
  151.5175  145.9856  158.0610 H   0  0  0  0  0  0  0  0  0  0  0  0
  152.0790  144.0268  156.7253 H   0  0  0  0  0  0  0  0  0  0  0  0
  152.2369  142.9912  158.1310 H   0  0  0  0  0  0  0  0  0  0  0  0
  151.7347  141.6426  156.1188 H   0  0  0  0  0  0  0  0  0  0  0  0
  150.3172  142.6088  155.7819 H   0  0  0  0  0  0  0  0  0  0  0  0
  149.8352  144.4748  157.3631 H   0  0  0  0  0  0  0  0  0  0  0  0
  1  2  1  0  0  0  0
  1 30  1  0  0  0  0
  1 31  1  0  0  0  0
  1 32  1  0  0  0  0
  2  3  1  0  0  0  0
  2  4  1  0  0  0  0
  2 33  1  0  0  0  0
  3 34  1  0  0  0  0
  3 35  1  0  0  0  0
  3 36  1  0  0  0  0
  4  5  1  0  0  0  0
  4 37  1  0  0  0  0
  4 38  1  0  0  0  0
  5  6  1  0  0  0  0
  5 23  1  0  0  0  0
  6 11  1  0  0  0  0
  6  7  2  0  0  0  0
  7  8  1  0  0  0  0
  8  9  2  0  0  0  0
  8 39  1  0  0  0  0
  9 10  1  0  0  0  0
 10 14  1  0  0  0  0
 10 11  2  0  0  0  0
 11 12  1  0  0  0  0
 12 13  2  0  0  0  0
 13 14  1  0  0  0  0
 13 40  1  0  0  0  0
 14 15  1  0  0  0  0
 15 16  1  0  0  0  0
 15 41  1  0  0  0  0
 15 42  1  0  0  0  0
 16 21  1  0  0  0  0
 16 17  1  0  0  0  0
 16 18  1  0  0  0  0
 17 43  1  0  0  0  0
 18 19  1  0  0  0  0
 18 44  1  0  0  0  0
 18 45  1  0  0  0  0
 19 20  1  0  0  0  0
 19 46  1  0  0  0  0
 19 47  1  0  0  0  0
 20 21  1  0  0  0  0
 21 22  1  0  0  0  0
 21 48  1  0  0  0  0
 22 49  1  0  0  0  0
 22 50  1  0  0  0  0
 22 51  1  0  0  0  0
 23 29  1  0  0  0  0
 23 24  1  0  0  0  0
 23 52  1  0  0  0  0
 24 25  1  0  0  0  0
 24 53  1  0  0  0  0
 24 54  1  0  0  0  0
 25 26  1  0  0  0  0
 25 55  1  0  0  0  0
 25 56  1  0  0  0  0
 26 27  1  0  0  0  0
 26 28  1  0  0  0  0
 26 64  1  0  0  0  0
 27 57  1  0  0  0  0
 27 58  1  0  0  0  0
 27 59  1  0  0  0  0
 28 29  1  0  0  0  0
 28 60  1  0  0  0  0
 28 61  1  0  0  0  0
 29 62  1  0  0  0  0
 29 63  1  0  0  0  0
M  CHG  1  26   1
M  END
> <s_m_source_file>
AV-unprocessed.smi

> <i_m_source_file_index>
81

> <i_lp_mmshare_version>
43012

> <i_f3d_flags>
0

> <s_epik_input>
W0NIMl0xW0NIMl1OKFtDSDNdKVtDSDJdW0NIMl1bQ0hdMU4oW0NIMl1bQ0hdKFtDSDNdKVtDSDNdKWMobltjSF1uMiljKGMyMyluW2NIXW4zW0NIMl1bQ0BAXTQoW09IXSlbQ0gyXVtDSDJdT1tDQEhdNFtDSDNd

> <s_epik_cmdline>
J2VwaWtfcHl0aG9uJywgJy1waCcsICc3LjAnLCAnLXRuJywgJzgnLCAnLW1hJywgJzIwMCcsICctbWV0YWxfYmluZGluZycsICctaW1hZScsICc8aW5maWxlLm1hZT4nLCAnLW9tYWUnLCAnPG91dGZpbGUubWFlPic=

> <r_lp_tautomer_probability>
1

> <r_epik_Ionization_Penalty>
0.00272708

> <r_epik_Ionization_Penalty_Charging>
0.00158983

> <r_epik_Ionization_Penalty_Neutral>
0.00113725

> <r_epik_State_Penalty>
-0

> <r_epik_Charging_Adjusted_Penalty>
0.00158983

> <i_epik_Tot_Q>
1

> <i_epik_Tot_abs_Q>
1

> <r_epik_Metal_State_Penalty>
-0

> <b_epik_Metal_Only>
0

> <s_lp_Force_Field>
OPLS_2005

> <r_lp_Energy>
45.4509

> <b_lp_Chiralities_Consistent>
1

> <s_lp_Variant>
AV-unprocessed.smi:81-2

> <Gold.Version>
5.8.1

> <Gold.Id.Protein>
6NUR|6NUR_protein|mol2

> <Gold.PLP.Fitness>
48.9868

> <Gold.PLP.PLP>
-43.9605

> <Gold.PLP.part.hbond>
-3.6642

> <Gold.PLP.part.metal>
0.0000

> <Gold.PLP.part.buried>
-5.0735

> <Gold.PLP.part.nonpolar>
-34.3951

> <Gold.PLP.part.repulsive>
0.0769

> <Gold.PLP.ligand.clash>
0.0000

> <Gold.PLP.ligand.torsion>
2.4155

> <Gold.PLP.Chemscore.Hbond>
3.0000

> <Gold.PLP.Chemscore.CHOScore>
0.0000

> <Gold.PLP.Chemscore.Metal>
0.0000

> <Gold.Chemscore.Hbonds>
donor molecule, donor type, donor heavy atom, donor atom, acceptor molecule, acceptor atom, score
      L1  H    26    64       P1  8028  1.90
      P1  H  6896  6909       L1     9  1.00

> <Gold.PLP.Chemscore.Internal.Correction>
0.8574

> <Gold.Rescore>
     Score         DG    S(hbond)    S(metal)    S(lipo)     H(rot)  DE(clash)    DE(int)     intcor
     10.80     -17.32       1.49        0.00     114.95       2.58       2.50       4.01       ----

> <Gold.Chemscore.Fitness>
10.8031

> <Gold.Chemscore.DG>
-17.3162

> <Gold.Chemscore.ZeroCoef>
-5.4800

> <Gold.Chemscore.Hbond>
1.4927

> <Gold.Chemscore.Metal>
0.0000

> <Gold.Chemscore.Lipo>
114.9484

> <Gold.Chemscore.Internal_Hbond>
0.0000

> <Gold.Chemscore.DEClash>
2.5028

> <Gold.Chemscore.DEInternal>
4.0104

> <Gold.Chemscore.Rot>
2.5774

> <Gold.Chemscore.Internal.Correction>
   9.000000E+99

> <Gold.Chemscore.Hbonds>
donor molecule, donor type, donor heavy atom, donor atom, acceptor molecule, acceptor atom, score
      L1  H    26    64       P1  8028  0.21
      P1  H  6896  6909       L1     9  0.57

> <Gold.Chemscore.Hbond.Weighted>
-4.9855

> <Gold.Chemscore.Metal.Weighted>
-0.0000

> <Gold.Chemscore.Lipo.Weighted>
-13.4490

> <Gold.Chemscore.Internal_Hbond.Weighted>
0.0000

> <Gold.Chemscore.DEClash.Weighted>
2.5028

> <Gold.Chemscore.DEInternal.Weighted>
4.0104

> <Gold.Chemscore.Rot.Weighted>
6.5982

> <Gold.Chemscore.Internal.Correction.Weighted>
   9.000000E+99

> <Gold.Protein.RotatedTorsions>
[ 6907 6896 6895 6894 ] final   65.01 input  -60.11 | X-H torsion
[ 7974 7965 7964 7962 ] final  139.50 input  175.53 | X-H torsion
[ 8008 7997 7996 7995 ] final  -33.61 input   59.86 | X-H torsion
[ 10167 10162 10161 10158 ] final  162.81 input  -65.29 | X-H torsion
[ 10718 10713 10712 10709 ] final  117.42 input   66.30 | X-H torsion
[ 10763 10752 10751 10750 ] final  -41.61 input  -60.55 | X-H torsion
[ 11005 11000 10999 10996 ] final   94.74 input  -57.11 | X-H torsion

> <Gold.Protein.ActiveResidues>
 VAL166  LYS551  ARG553  GLY616  TRP617  ASP618  TYR619  PRO620  LYS621  CYS622 
 ASP623  PHE694  ASN695  SER759  ASP760  ASP761  ALA762  ILE779  LEU786  VAL792 
 PHE793  MET794  SER795  GLU796  ALA797  LYS798  CYS799  TRP800  GLU811  SER814 

> <Gold.Protein.RotatedAtoms>
  152.4375  134.5657  159.9906 H   0  0  0  0  0  0  0  0  0  0  0  0  # atno 6907 bound_to 6896
  151.5763  133.3377  159.3007 H   0  0  0  0  0  0  0  0  0  0  0  0  # atno 6908 bound_to 6896
  150.8276  134.7548  159.6890 H   0  0  0  0  0  0  0  0  0  0  0  0  # atno 6909 bound_to 6896
  144.9273  139.5092  143.5635 H   0  0  0  0  0  0  0  0  0  0  0  0  # atno 7974 bound_to 7965
  154.4144  140.1706  156.1916 H   0  0  0  0  0  0  0  0  0  0  0  0  # atno 8008 bound_to 7997
  155.9598  140.3394  155.6457 H   0  0  0  0  0  0  0  0  0  0  0  0  # atno 8009 bound_to 7997
  155.6763  140.0717  157.2492 H   0  0  0  0  0  0  0  0  0  0  0  0  # atno 8010 bound_to 7997
  139.4865  144.4400  151.8964 H   0  0  0  0  0  0  0  0  0  0  0  0  # atno 10167 bound_to 10162
  157.6097  131.1037  150.7613 H   0  0  0  0  0  0  0  0  0  0  0  0  # atno 10718 bound_to 10713
  153.9653  135.6735  153.4746 H   0  0  0  0  0  0  0  0  0  0  0  0  # atno 10763 bound_to 10752
  153.0818  135.4919  154.8515 H   0  0  0  0  0  0  0  0  0  0  0  0  # atno 10764 bound_to 10752
  154.7249  135.3125  154.8947 H   0  0  0  0  0  0  0  0  0  0  0  0  # atno 10765 bound_to 10752
  139.8795  134.8861  156.3908 H   0  0  0  0  0  0  0  0  0  0  0  0  # atno 11005 bound_to 11000
  146.3231  139.8197  142.8929 LP  0  0  0  0  0  0  0  0  0  0  0  0  # atno 17320 bound_to 7965
  145.3199  141.0241  143.3506 LP  0  0  0  0  0  0  0  0  0  0  0  0  # atno 17321 bound_to 7965
  140.3851  144.2687  150.5905 LP  0  0  0  0  0  0  0  0  0  0  0  0  # atno 17342 bound_to 10162
  140.5197  143.2269  151.8407 LP  0  0  0  0  0  0  0  0  0  0  0  0  # atno 17343 bound_to 10162
  156.7993  130.4916  149.5372 LP  0  0  0  0  0  0  0  0  0  0  0  0  # atno 17370 bound_to 10713
  156.1196  130.6100  151.0173 LP  0  0  0  0  0  0  0  0  0  0  0  0  # atno 17371 bound_to 10713
  140.9334  133.7563  156.0054 LP  0  0  0  0  0  0  0  0  0  0  0  0  # atno 17394 bound_to 11000
  140.8304  134.3185  157.5351 LP  0  0  0  0  0  0  0  0  0  0  0  0  # atno 17395 bound_to 11000

$$$$
