#       Name:                AV-unprocessed.smi:3045
#       Creating user name   scv26
#       Creation time:       Fri Mar 27 16:59:21 2020


#       File generated by GOLD software.
#

@<TRIPOS>MOLECULE
AV-unprocessed.smi:3045
    40    41     1
SMALL
NO_CHARGES


@<TRIPOS>ATOM
      1 ****        -4.1547   1.9599   0.8706 C.3            1 S1                 0.0000
      2 ****        -3.1842   0.8786   0.7691 N.am           1 S1                 0.0000
      3 ****        -2.3524   0.5053   1.9008 C.3            1 S1                 0.0000
      4 ****        -1.3383  -0.5195   1.3456 C.3            1 S1                 0.0000
      5 ****         0.0844   0.0501   1.2381 C.2            1 S1                 0.0000
      6 ****         0.2758   1.1416   0.7003 O.2            1 S1                 0.0000
      7 ****         1.0741  -0.7118   1.7307 N.am           1 S1                 0.0000
      8 ****         2.4991  -0.3930   1.6743 C.3            1 S1                 0.0000
      9 ****         3.1948  -1.0179   0.4476 C.3            1 S1                 0.0000
     10 ****         2.6021  -0.5806  -0.8816 C.ar           1 S1                 0.0000
     11 ****         1.8035  -1.4638  -1.6424 C.ar           1 S1                 0.0000
     12 ****         1.2373  -1.0151  -2.8537 C.ar           1 S1                 0.0000
     13 ****         1.4829   0.3066  -3.2783 C.ar           1 S1                 0.0000
     14 ****         2.2562   1.1210  -2.5273 N.pl3          1 S1                 1.0000
     15 ****         2.8186   0.7289  -1.3632 C.ar           1 S1                 0.0000
     16 ****        -1.8821  -0.9062  -0.0446 C.3            1 S1                 0.0000
     17 ****        -2.9792   0.1121  -0.3055 C.2            1 S1                 0.0000
     18 ****        -3.5681   0.1972  -1.3819 O.2            1 S1                 0.0000
     19 ****        -5.1697   1.5690   0.7927 H              1 S1                 0.0000
     20 ****        -4.0038   2.6881   0.0726 H              1 S1                 0.0000
     21 ****        -4.0646   2.4813   1.8240 H              1 S1                 0.0000
     22 ****        -1.8777   1.3855   2.3382 H              1 S1                 0.0000
     23 ****        -2.9771   0.0522   2.6717 H              1 S1                 0.0000
     24 ****        -1.3203  -1.3972   1.9942 H              1 S1                 0.0000
     25 ****         0.8228  -1.5902   2.1611 H              1 S1                 0.0000
     26 ****         2.6496   0.6878   1.6843 H              1 S1                 0.0000
     27 ****         2.9647  -0.7697   2.5852 H              1 S1                 0.0000
     28 ****         4.2535  -0.7564   0.4571 H              1 S1                 0.0000
     29 ****         3.1525  -2.1056   0.5183 H              1 S1                 0.0000
     30 ****         1.6143  -2.4700  -1.2978 H              1 S1                 0.0000
     31 ****         0.6186  -1.6739  -3.4453 H              1 S1                 0.0000
     32 ****         1.0860   0.7340  -4.1876 H              1 S1                 0.0000
     33 ****         3.4058   1.4748  -0.8474 H              1 S1                 0.0000
     34 ****        -1.1325  -0.8697  -0.8366 H              1 S1                 0.0000
     35 ****        -2.3124  -1.9080  -0.0337 H              1 S1                 0.0000
     36 ****         2.4192   2.0748  -2.8510 H              1 S1                 0.0000
     37 ****        -0.4961   1.6598   0.3321 LP             1 S1                 0.0000
     38 ****         1.2032   1.5096   0.6320 LP             1 S1                 0.0000
     39 ****        -4.2759   0.8917  -1.5110 LP             1 S1                 0.0000
     40 ****        -3.3390  -0.4281  -2.1279 LP             1 S1                 0.0000
@<TRIPOS>BOND
    1    1    2 1     
    2    1   19 1     
    3    1   20 1     
    4    1   21 1     
    5    2   17 am    
    6    2    3 1     
    7    3    4 1     
    8    3   22 1     
    9    3   23 1     
   10    4    5 1     
   11    4   16 1     
   12    4   24 1     
   13    5    6 2     
   14    5    7 am    
   15    7    8 1     
   16    7   25 1     
   17    8    9 1     
   18    8   26 1     
   19    8   27 1     
   20    9   10 1     
   21    9   28 1     
   22    9   29 1     
   23   10   15 ar    
   24   10   11 ar    
   25   11   12 ar    
   26   11   30 1     
   27   12   13 ar    
   28   12   31 1     
   29   13   14 ar    
   30   13   32 1     
   31   14   15 ar    
   32   14   36 1     
   33   15   33 1     
   34   16   17 1     
   35   16   34 1     
   36   16   35 1     
   37   17   18 2     
   38    6   37 1     
   39    6   38 1     
   40   18   39 1     
   41   18   40 1     
@<TRIPOS>SUBSTRUCTURE
      1 S1             1
@<TRIPOS>SET
LONE_PAIRS      STATIC     ATOMS    <user>   **** ""
4 37 38 39 40
DONOR_HYDROGENS      STATIC     ATOMS    <user>   **** ""
2 25 36
ATOM$BLUE        STATIC     ATOMS    COLORGROUP SYSTEM
4 37 38 39 40
ATOM$RED        STATIC     ATOMS    COLORGROUP SYSTEM
2 25 36
