AV-unprocessed.smi:3320|AV-procd|sdf|12768|dock3
  -GOLD-   2272019103D 1   1.00000     0.00000
 Structure written by MMmdl.
 37 38  0  0  0  0  0  0  0  0  1 V2000
  153.8816  141.4948  161.4723 C   0  0  0  0  0  0  0  0  0  0  0  0
  153.3386  142.8790  161.0890 C   0  0  0  0  0  0  0  0  0  0  0  0
  152.5289  143.5402  162.2136 C   0  0  0  0  0  0  0  0  0  0  0  0
  152.5863  142.8500  159.7956 C   0  0  0  0  0  0  0  0  0  0  0  0
  152.3982  141.7424  159.0717 N   0  0  0  0  0  0  0  0  0  0  0  0
  151.6656  141.9760  157.9041 C   0  0  0  0  0  0  0  0  0  0  0  0
  151.3717  140.8427  156.9692 C   0  0  0  0  0  0  0  0  0  0  0  0
  150.5923  141.3052  155.7271 C   0  0  0  0  0  0  0  0  0  0  0  0
  149.7894  140.2270  155.1617 N   0  0  0  0  0  0  0  0  0  0  0  0
  148.8872  140.3729  154.1798 C   0  0  0  0  0  0  0  0  0  0  0  0
  148.6436  141.4547  153.6436 O   0  0  0  0  0  0  0  0  0  0  0  0
  148.1556  139.0970  153.7425 C   0  0  0  0  0  0  0  0  0  0  0  0
  146.9133  139.3369  152.8659 C   0  0  0  0  0  0  0  0  0  0  0  0
  146.1685  138.2969  153.7080 C   0  0  0  0  0  0  0  0  0  0  0  0
  147.2149  138.5049  154.8070 C   0  0  0  0  0  0  0  0  0  0  0  0
  151.2946  143.2886  157.7524 C   0  0  0  0  0  0  0  0  0  0  0  0
  151.8553  144.2787  159.0716 S   0  0  0  0  0  0  0  0  0  0  0  0
  154.5185  141.0911  160.6847 H   0  0  0  0  0  0  0  0  0  0  0  0
  153.0718  140.7846  161.6429 H   0  0  0  0  0  0  0  0  0  0  0  0
  154.4761  141.5452  162.3848 H   0  0  0  0  0  0  0  0  0  0  0  0
  154.2091  143.5149  160.9227 H   0  0  0  0  0  0  0  0  0  0  0  0
  152.2282  144.5514  161.9379 H   0  0  0  0  0  0  0  0  0  0  0  0
  153.1142  143.6083  163.1310 H   0  0  0  0  0  0  0  0  0  0  0  0
  151.6251  142.9729  162.4380 H   0  0  0  0  0  0  0  0  0  0  0  0
  152.3052  140.3683  156.6639 H   0  0  0  0  0  0  0  0  0  0  0  0
  150.8016  140.0712  157.4882 H   0  0  0  0  0  0  0  0  0  0  0  0
  149.9214  142.1220  155.9944 H   0  0  0  0  0  0  0  0  0  0  0  0
  151.2739  141.6990  154.9709 H   0  0  0  0  0  0  0  0  0  0  0  0
  149.9270  139.3039  155.5470 H   0  0  0  0  0  0  0  0  0  0  0  0
  148.8163  138.3401  153.3149 H   0  0  0  0  0  0  0  0  0  0  0  0
  146.4836  140.3364  152.9557 H   0  0  0  0  0  0  0  0  0  0  0  0
  147.0391  139.0526  151.8209 H   0  0  0  0  0  0  0  0  0  0  0  0
  145.1530  138.5795  153.9872 H   0  0  0  0  0  0  0  0  0  0  0  0
  146.2068  137.2967  153.2736 H   0  0  0  0  0  0  0  0  0  0  0  0
  147.5736  137.5793  155.2582 H   0  0  0  0  0  0  0  0  0  0  0  0
  146.8910  139.2180  155.5675 H   0  0  0  0  0  0  0  0  0  0  0  0
  150.7291  143.7323  156.9465 H   0  0  0  0  0  0  0  0  0  0  0  0
  1  2  1  0  0  0  0
  1 18  1  0  0  0  0
  1 19  1  0  0  0  0
  1 20  1  0  0  0  0
  2  3  1  0  0  0  0
  2  4  1  0  0  0  0
  2 21  1  0  0  0  0
  3 22  1  0  0  0  0
  3 23  1  0  0  0  0
  3 24  1  0  0  0  0
  4 17  1  0  0  0  0
  4  5  2  0  0  0  0
  5  6  1  0  0  0  0
  6  7  1  0  0  0  0
  6 16  2  0  0  0  0
  7  8  1  0  0  0  0
  7 25  1  0  0  0  0
  7 26  1  0  0  0  0
  8  9  1  0  0  0  0
  8 27  1  0  0  0  0
  8 28  1  0  0  0  0
  9 10  1  0  0  0  0
  9 29  1  0  0  0  0
 10 11  2  0  0  0  0
 10 12  1  0  0  0  0
 12 15  1  0  0  0  0
 12 13  1  0  0  0  0
 12 30  1  0  0  0  0
 13 14  1  0  0  0  0
 13 31  1  0  0  0  0
 13 32  1  0  0  0  0
 14 15  1  0  0  0  0
 14 33  1  0  0  0  0
 14 34  1  0  0  0  0
 15 35  1  0  0  0  0
 15 36  1  0  0  0  0
 16 17  1  0  0  0  0
 16 37  1  0  0  0  0
M  END
> <s_m_source_file>
AV-unprocessed.smi

> <i_m_source_file_index>
3320

> <i_lp_mmshare_version>
43012

> <i_f3d_flags>
0

> <s_epik_input>
W0NIM11bQ0hdKFtDSDNdKWMxbmMoW2NIXXMxKVtDSDJdW0NIMl1bTkhdQyg9TylbQ0hdMltDSDJdW0NIMl1bQ0gyXTI=

> <s_epik_cmdline>
J2VwaWtfcHl0aG9uJywgJy1waCcsICc3LjAnLCAnLXRuJywgJzgnLCAnLW1hJywgJzIwMCcsICctbWV0YWxfYmluZGluZycsICctaW1hZScsICc8aW5maWxlLm1hZT4nLCAnLW9tYWUnLCAnPG91dGZpbGUubWFlPic=

> <r_epik_Ionization_Penalty>
0.000842111

> <r_epik_Ionization_Penalty_Charging>
0

> <r_epik_Ionization_Penalty_Neutral>
0.000842111

> <r_epik_State_Penalty>
0.000542609

> <r_epik_Charging_Adjusted_Penalty>
0.000542609

> <i_epik_Tot_Q>
0

> <i_epik_Tot_abs_Q>
0

> <r_epik_Metal_State_Penalty>
-0

> <b_epik_Metal_Only>
0

> <s_lp_Force_Field>
OPLS_2005

> <r_lp_Energy>
-0.445202

> <b_lp_Chiralities_Consistent>
1

> <s_lp_Variant>
AV-unprocessed.smi:3320-1

> <Gold.Version>
5.8.1

> <Gold.Id.Protein>
6NUR|6NUR_protein|mol2

> <Gold.PLP.Fitness>
41.0777

> <Gold.PLP.PLP>
-36.1014

> <Gold.PLP.part.hbond>
-1.0000

> <Gold.PLP.part.metal>
0.0000

> <Gold.PLP.part.buried>
-3.0571

> <Gold.PLP.part.nonpolar>
-33.0906

> <Gold.PLP.part.repulsive>
1.3658

> <Gold.PLP.ligand.clash>
0.0000

> <Gold.PLP.ligand.torsion>
0.4575

> <Gold.PLP.Chemscore.Hbond>
0.8000

> <Gold.PLP.Chemscore.CHOScore>
1.0000

> <Gold.PLP.Chemscore.Metal>
0.0000

> <Gold.Chemscore.Hbonds>
donor molecule, donor type, donor heavy atom, donor atom, acceptor molecule, acceptor atom, score
      P1  H  8011  8017       L1    11  0.75
      L1  C    16    37       P1  8028  1.00

> <Gold.PLP.Chemscore.Internal.Correction>
0.4914

> <Gold.Rescore>
     Score         DG    S(hbond)    S(metal)    S(lipo)     H(rot)  DE(clash)    DE(int)     intcor
     15.72     -16.55       0.68        0.00     107.79       1.49       0.38       0.45       ----

> <Gold.Chemscore.Fitness>
15.7236

> <Gold.Chemscore.DG>
-16.5547

> <Gold.Chemscore.ZeroCoef>
-5.4800

> <Gold.Chemscore.Hbond>
0.6796

> <Gold.Chemscore.Metal>
0.0000

> <Gold.Chemscore.Lipo>
107.7906

> <Gold.Chemscore.Internal_Hbond>
0.0000

> <Gold.Chemscore.DEClash>
0.3847

> <Gold.Chemscore.DEInternal>
0.4465

> <Gold.Chemscore.Rot>
1.4870

> <Gold.Chemscore.Internal.Correction>
   9.000000E+99

> <Gold.Chemscore.Hbonds>
donor molecule, donor type, donor heavy atom, donor atom, acceptor molecule, acceptor atom, score
      P1  H  8011  8017       L1    11  0.74

> <Gold.Chemscore.Hbond.Weighted>
-2.2698

> <Gold.Chemscore.Metal.Weighted>
-0.0000

> <Gold.Chemscore.Lipo.Weighted>
-12.6115

> <Gold.Chemscore.Internal_Hbond.Weighted>
0.0000

> <Gold.Chemscore.DEClash.Weighted>
0.3847

> <Gold.Chemscore.DEInternal.Weighted>
0.4465

> <Gold.Chemscore.Rot.Weighted>
3.8067

> <Gold.Chemscore.Internal.Correction.Weighted>
   9.000000E+99

> <Gold.Protein.RotatedTorsions>
[ 6907 6896 6895 6894 ] final   -9.98 input  -60.11 | X-H torsion
[ 7974 7965 7964 7962 ] final  -88.63 input  175.53 | X-H torsion
[ 8008 7997 7996 7995 ] final  142.30 input   59.86 | X-H torsion
[ 10167 10162 10161 10158 ] final  -98.43 input  -65.29 | X-H torsion
[ 10718 10713 10712 10709 ] final   54.55 input   66.30 | X-H torsion
[ 10763 10752 10751 10750 ] final -127.19 input  -60.55 | X-H torsion
[ 11005 11000 10999 10996 ] final  -13.09 input  -57.11 | X-H torsion

> <Gold.Protein.ActiveResidues>
 VAL166  LYS551  ARG553  GLY616  TRP617  ASP618  TYR619  PRO620  LYS621  CYS622 
 ASP623  PHE694  ASN695  SER759  ASP760  ASP761  ALA762  ILE779  LEU786  VAL792 
 PHE793  MET794  SER795  GLU796  ALA797  LYS798  CYS799  TRP800  GLU811  SER814 

> <Gold.Protein.RotatedAtoms>
  151.4092  135.0982  159.9579 H   0  0  0  0  0  0  0  0  0  0  0  0  # atno 6907 bound_to 6896
  152.5025  133.8814  159.7358 H   0  0  0  0  0  0  0  0  0  0  0  0  # atno 6908 bound_to 6896
  150.9305  133.6716  159.2840 H   0  0  0  0  0  0  0  0  0  0  0  0  # atno 6909 bound_to 6896
  145.4506  140.9560  143.2024 H   0  0  0  0  0  0  0  0  0  0  0  0  # atno 7974 bound_to 7965
  156.2952  140.2292  156.4705 H   0  0  0  0  0  0  0  0  0  0  0  0  # atno 8008 bound_to 7997
  154.7939  140.0452  157.1243 H   0  0  0  0  0  0  0  0  0  0  0  0  # atno 8009 bound_to 7997
  154.9612  140.3054  155.5033 H   0  0  0  0  0  0  0  0  0  0  0  0  # atno 8010 bound_to 7997
  140.2731  143.3331  152.0515 H   0  0  0  0  0  0  0  0  0  0  0  0  # atno 10167 bound_to 10162
  157.5266  130.8602  149.8631 H   0  0  0  0  0  0  0  0  0  0  0  0  # atno 10718 bound_to 10713
  154.8751  135.3970  154.3554 H   0  0  0  0  0  0  0  0  0  0  0  0  # atno 10763 bound_to 10752
  153.4334  135.7025  153.6221 H   0  0  0  0  0  0  0  0  0  0  0  0  # atno 10764 bound_to 10752
  153.4833  135.3764  155.2423 H   0  0  0  0  0  0  0  0  0  0  0  0  # atno 10765 bound_to 10752
  140.7725  133.8427  155.9220 H   0  0  0  0  0  0  0  0  0  0  0  0  # atno 11005 bound_to 11000
  144.8064  139.6044  143.7049 LP  0  0  0  0  0  0  0  0  0  0  0  0  # atno 17320 bound_to 7965
  146.2506  139.6192  142.9429 LP  0  0  0  0  0  0  0  0  0  0  0  0  # atno 17321 bound_to 7965
  139.4983  144.6643  151.6393 LP  0  0  0  0  0  0  0  0  0  0  0  0  # atno 17342 bound_to 10162
  140.5874  143.9841  150.6303 LP  0  0  0  0  0  0  0  0  0  0  0  0  # atno 17343 bound_to 10162
  156.0392  130.3743  150.1480 LP  0  0  0  0  0  0  0  0  0  0  0  0  # atno 17370 bound_to 10713
  156.9666  130.9821  151.3468 LP  0  0  0  0  0  0  0  0  0  0  0  0  # atno 17371 bound_to 10713
  140.9560  134.1718  157.4691 LP  0  0  0  0  0  0  0  0  0  0  0  0  # atno 17394 bound_to 11000
  139.8753  134.9927  156.5608 LP  0  0  0  0  0  0  0  0  0  0  0  0  # atno 17395 bound_to 11000

$$$$
