AV-unprocessed.smi:2655|AV-procd|sdf|10301|dock7
  -GOLD-   2272014313D 1   1.00000     0.00000
 Structure written by MMmdl.
 32 33  0  0  0  0  0  0  0  0  3 V2000
  148.4047  140.6157  154.3321 C   0  0  0  0  0  0  0  0  0  0  0  0
  149.7254  140.5685  155.0446 C   0  0  0  0  0  0  0  0  0  0  0  0
  150.0482  141.5598  155.8692 N   0  0  0  0  0  0  0  0  0  0  0  0
  151.2652  141.2205  156.3345 N   0  0  0  0  0  0  0  0  0  0  0  0
  151.7001  140.0325  155.8065 C   0  0  0  0  0  0  0  0  0  0  0  0
  152.8951  139.5149  156.1451 O   0  5  0  0  0  0  0  0  0  0  0  0
  150.7390  139.5637  154.9577 C   0  0  0  0  0  0  0  0  0  0  0  0
  150.7323  138.3045  154.1325 C   0  0  0  0  0  0  0  0  0  0  0  0
  150.8362  137.0505  155.0158 C   0  0  0  0  0  0  0  0  0  0  0  0
  150.2291  135.8876  154.3765 N   0  0  0  0  0  0  0  0  0  0  0  0
  150.1650  134.6502  154.8885 C   0  0  0  0  0  0  0  0  0  0  0  0
  150.6411  134.4193  156.0024 O   0  0  0  0  0  0  0  0  0  0  0  0
  149.5556  133.7550  154.0760 N   0  5  0  0  0  0  0  0  0  0  0  0
  149.9007  132.4591  154.1216 C   0  0  0  0  0  0  0  0  0  0  0  0
  149.3322  131.4162  153.3402 C   0  0  0  0  0  0  0  0  0  0  0  0
  150.0059  130.3060  153.7635 C   0  0  0  0  0  0  0  0  0  0  0  0
  149.9323  128.8689  153.3747 C   0  0  0  0  0  0  0  0  0  0  0  0
  150.9030  130.6383  154.7306 O   0  0  0  0  0  0  0  0  0  0  0  0
  150.8248  132.0175  154.9586 N   0  0  0  0  0  0  0  0  0  0  0  0
  148.0773  139.6182  154.0393 H   0  0  0  0  0  0  0  0  0  0  0  0
  148.4714  141.2219  153.4288 H   0  0  0  0  0  0  0  0  0  0  0  0
  147.6269  141.0431  154.9650 H   0  0  0  0  0  0  0  0  0  0  0  0
  151.7703  141.7949  156.9935 H   0  0  0  0  0  0  0  0  0  0  0  0
  151.5554  138.3139  153.4171 H   0  0  0  0  0  0  0  0  0  0  0  0
  149.8236  138.2490  153.5323 H   0  0  0  0  0  0  0  0  0  0  0  0
  151.8773  136.8441  155.2695 H   0  0  0  0  0  0  0  0  0  0  0  0
  150.3153  137.2178  155.9588 H   0  0  0  0  0  0  0  0  0  0  0  0
  149.8260  136.0312  153.4624 H   0  0  0  0  0  0  0  0  0  0  0  0
  148.5599  131.4760  152.5881 H   0  0  0  0  0  0  0  0  0  0  0  0
  148.9562  128.4525  153.6231 H   0  0  0  0  0  0  0  0  0  0  0  0
  150.6914  128.2816  153.8917 H   0  0  0  0  0  0  0  0  0  0  0  0
  150.0875  128.7516  152.3023 H   0  0  0  0  0  0  0  0  0  0  0  0
  1 20  1  0  0  0  0
  1 21  1  0  0  0  0
  1 22  1  0  0  0  0
  1  2  1  0  0  0  0
  2  7  1  0  0  0  0
  2  3  2  0  0  0  0
  3  4  1  0  0  0  0
  4 23  1  0  0  0  0
  4  5  1  0  0  0  0
  5  7  2  0  0  0  0
  5  6  1  0  0  0  0
  7  8  1  0  0  0  0
  8  9  1  0  0  0  0
  8 24  1  0  0  0  0
  8 25  1  0  0  0  0
  9 10  1  0  0  0  0
  9 26  1  0  0  0  0
  9 27  1  0  0  0  0
 10 11  1  0  0  0  0
 10 28  1  0  0  0  0
 11 12  2  0  0  0  0
 11 13  1  0  0  0  0
 13 14  1  0  0  0  0
 14 19  2  0  0  0  0
 14 15  1  0  0  0  0
 15 16  2  0  0  0  0
 15 29  1  0  0  0  0
 16 17  1  0  0  0  0
 16 18  1  0  0  0  0
 17 30  1  0  0  0  0
 17 31  1  0  0  0  0
 17 32  1  0  0  0  0
 18 19  1  0  0  0  0
M  CHG  1   6  -1
M  CHG  1  13  -1
M  END
> <s_m_source_file>
AV-unprocessed.smi

> <i_m_source_file_index>
2655

> <i_lp_mmshare_version>
43012

> <i_f3d_flags>
0

> <s_epik_input>
W0NIM11DMT1OW05IXUMoPU8pW0NASF0xW0NIMl1bQ0gyXVtOSF1DKD1PKVtOSF1jMltjSF1jKFtDSDNdKW9uMg==

> <s_epik_cmdline>
J2VwaWtfcHl0aG9uJywgJy1waCcsICc3LjAnLCAnLXRuJywgJzgnLCAnLW1hJywgJzIwMCcsICctbWV0YWxfYmluZGluZycsICctaW1hZScsICc8aW5maWxlLm1hZT4nLCAnLW9tYWUnLCAnPG91dGZpbGUubWFlPic=

> <r_lp_tautomer_probability>
0.99495

> <r_epik_Ionization_Penalty>
8.09923

> <r_epik_Ionization_Penalty_Charging>
6.55729

> <r_epik_Ionization_Penalty_Neutral>
1.54195

> <r_epik_State_Penalty>
6.87174

> <r_epik_Charging_Adjusted_Penalty>
13.429

> <i_epik_Tot_Q>
-2

> <i_epik_Tot_abs_Q>
2

> <r_epik_Metal_State_Penalty>
4.19188

> <b_epik_Metal_Only>
1

> <s_lp_Force_Field>
OPLS_2005

> <r_lp_Energy>
-4.19881

> <b_lp_Chiralities_Consistent>
1

> <s_lp_Variant>
AV-unprocessed.smi:2655-4

> <Gold.Version>
5.8.1

> <Gold.Id.Protein>
6NUR|6NUR_protein|mol2

> <Gold.PLP.Fitness>
40.8140

> <Gold.PLP.PLP>
-32.5835

> <Gold.PLP.part.hbond>
-2.5850

> <Gold.PLP.part.metal>
0.0000

> <Gold.PLP.part.buried>
-3.2506

> <Gold.PLP.part.nonpolar>
-26.0765

> <Gold.PLP.part.repulsive>
0.4578

> <Gold.PLP.ligand.clash>
0.0000

> <Gold.PLP.ligand.torsion>
0.3341

> <Gold.PLP.Chemscore.Hbond>
2.9500

> <Gold.PLP.Chemscore.CHOScore>
0.0000

> <Gold.PLP.Chemscore.Metal>
0.0000

> <Gold.Chemscore.Hbonds>
donor molecule, donor type, donor heavy atom, donor atom, acceptor molecule, acceptor atom, score
      L1  H    10    28       P1  7948  0.75
      P1  H  7997  8009       L1     6  2.00

> <Gold.PLP.Chemscore.Internal.Correction>
0.0486

> <Gold.Rescore>
     Score         DG    S(hbond)    S(metal)    S(lipo)     H(rot)  DE(clash)    DE(int)     intcor
     11.29     -13.40       1.91        0.00      53.05       1.82       0.07       2.03       ----

> <Gold.Chemscore.Fitness>
11.2920

> <Gold.Chemscore.DG>
-13.3989

> <Gold.Chemscore.ZeroCoef>
-5.4800

> <Gold.Chemscore.Hbond>
1.9087

> <Gold.Chemscore.Metal>
0.0000

> <Gold.Chemscore.Lipo>
53.0517

> <Gold.Chemscore.Internal_Hbond>
0.0000

> <Gold.Chemscore.DEClash>
0.0743

> <Gold.Chemscore.DEInternal>
2.0326

> <Gold.Chemscore.Rot>
1.8215

> <Gold.Chemscore.Internal.Correction>
   9.000000E+99

> <Gold.Chemscore.Hbonds>
donor molecule, donor type, donor heavy atom, donor atom, acceptor molecule, acceptor atom, score
      L1  H    10    28       P1  7948  0.09
      P1  H  7997  8009       L1     6  0.97

> <Gold.Chemscore.Hbond.Weighted>
-6.3749

> <Gold.Chemscore.Metal.Weighted>
-0.0000

> <Gold.Chemscore.Lipo.Weighted>
-6.2071

> <Gold.Chemscore.Internal_Hbond.Weighted>
0.0000

> <Gold.Chemscore.DEClash.Weighted>
0.0743

> <Gold.Chemscore.DEInternal.Weighted>
2.0326

> <Gold.Chemscore.Rot.Weighted>
4.6631

> <Gold.Chemscore.Internal.Correction.Weighted>
   9.000000E+99

> <Gold.Protein.RotatedTorsions>
[ 6907 6896 6895 6894 ] final -117.55 input  -60.11 | X-H torsion
[ 7974 7965 7964 7962 ] final  -15.40 input  175.53 | X-H torsion
[ 8008 7997 7996 7995 ] final -157.73 input   59.86 | X-H torsion
[ 10167 10162 10161 10158 ] final    9.55 input  -65.29 | X-H torsion
[ 10718 10713 10712 10709 ] final  -95.68 input   66.30 | X-H torsion
[ 10763 10752 10751 10750 ] final  179.11 input  -60.55 | X-H torsion
[ 11005 11000 10999 10996 ] final  -34.96 input  -57.11 | X-H torsion

> <Gold.Protein.ActiveResidues>
 VAL166  LYS551  ARG553  GLY616  TRP617  ASP618  TYR619  PRO620  LYS621  CYS622 
 ASP623  PHE694  ASN695  SER759  ASP760  ASP761  ALA762  ILE779  LEU786  VAL792 
 PHE793  MET794  SER795  GLU796  ALA797  LYS798  CYS799  TRP800  GLU811  SER814 

> <Gold.Protein.RotatedAtoms>
  150.8146  133.8360  159.3166 H   0  0  0  0  0  0  0  0  0  0  0  0  # atno 6907 bound_to 6896
  151.6136  135.1036  160.0096 H   0  0  0  0  0  0  0  0  0  0  0  0  # atno 6908 bound_to 6896
  152.4237  133.7119  159.6540 H   0  0  0  0  0  0  0  0  0  0  0  0  # atno 6909 bound_to 6896
  146.2033  140.3487  142.8415 H   0  0  0  0  0  0  0  0  0  0  0  0  # atno 7974 bound_to 7965
  155.7369  140.0809  157.2263 H   0  0  0  0  0  0  0  0  0  0  0  0  # atno 8008 bound_to 7997
  154.4026  140.1585  156.2627 H   0  0  0  0  0  0  0  0  0  0  0  0  # atno 8009 bound_to 7997
  155.9057  140.3407  155.6062 H   0  0  0  0  0  0  0  0  0  0  0  0  # atno 8010 bound_to 7997
  140.6248  143.8124  150.7220 H   0  0  0  0  0  0  0  0  0  0  0  0  # atno 10167 bound_to 10162
  156.0048  130.5119  150.6112 H   0  0  0  0  0  0  0  0  0  0  0  0  # atno 10718 bound_to 10713
  154.5164  135.2791  155.1299 H   0  0  0  0  0  0  0  0  0  0  0  0  # atno 10763 bound_to 10752
  154.2874  135.6273  153.5375 H   0  0  0  0  0  0  0  0  0  0  0  0  # atno 10764 bound_to 10752
  152.9928  135.5666  154.5643 H   0  0  0  0  0  0  0  0  0  0  0  0  # atno 10765 bound_to 10752
  140.9758  133.7084  156.1600 H   0  0  0  0  0  0  0  0  0  0  0  0  # atno 11005 bound_to 11000
  144.8734  140.7304  143.6032 LP  0  0  0  0  0  0  0  0  0  0  0  0  # atno 17320 bound_to 7965
  145.3407  139.1733  143.4487 LP  0  0  0  0  0  0  0  0  0  0  0  0  # atno 17321 bound_to 7965
  140.1723  143.4184  152.1992 LP  0  0  0  0  0  0  0  0  0  0  0  0  # atno 17342 bound_to 10162
  139.5470  144.7307  151.4551 LP  0  0  0  0  0  0  0  0  0  0  0  0  # atno 17343 bound_to 10162
  157.3944  131.0800  151.1365 LP  0  0  0  0  0  0  0  0  0  0  0  0  # atno 17370 bound_to 10713
  157.2046  130.6410  149.5751 LP  0  0  0  0  0  0  0  0  0  0  0  0  # atno 17371 bound_to 10713
  140.7261  134.4305  157.5570 LP  0  0  0  0  0  0  0  0  0  0  0  0  # atno 17394 bound_to 11000
  139.8930  134.8741  156.2245 LP  0  0  0  0  0  0  0  0  0  0  0  0  # atno 17395 bound_to 11000

$$$$
