AV-unprocessed.smi:115|AV-procd|sdf|1124|dock3
  -GOLD-   2262018243D 1   1.00000     0.00000
 Structure written by MMmdl.
 55 57  0  0  0  0  0  0  0  0  1 V2000
  146.6158  134.7121  151.0640 C   0  0  0  0  0  0  0  0  0  0  0  0
  146.9124  135.3100  152.3141 O   0  0  0  0  0  0  0  0  0  0  0  0
  147.2306  134.3548  153.3138 C   0  0  0  0  0  0  0  0  0  0  0  0
  147.6016  135.0927  154.6166 C   0  0  1  0  0  0  0  0  0  0  0  0
  147.6213  134.1879  155.8606 C   0  0  0  0  0  0  0  0  0  0  0  0
  148.8268  135.9016  154.5052 N   0  0  0  0  0  0  0  0  0  0  0  0
  150.0946  135.3643  154.2859 C   0  0  0  0  0  0  0  0  0  0  0  0
  150.3566  133.8990  154.1306 C   0  0  0  0  0  0  0  0  0  0  0  0
  150.9872  136.3925  154.2546 C   0  0  0  0  0  0  0  0  0  0  0  0
  150.2814  137.6112  154.4363 C   0  0  0  0  0  0  0  0  0  0  0  0
  150.8426  138.9851  154.5084 C   0  0  0  0  0  0  0  0  0  0  0  0
  150.2454  139.9821  154.1000 O   0  0  0  0  0  0  0  0  0  0  0  0
  152.2379  139.1050  155.1499 C   0  0  0  0  0  0  0  0  0  0  0  0
  152.1867  139.4650  156.5622 N   0  0  0  0  0  0  0  0  0  0  0  0
  152.8054  138.5882  157.4875 C   0  0  0  0  0  0  0  0  0  0  0  0
  153.3863  137.5617  157.1305 O   0  0  0  0  0  0  0  0  0  0  0  0
  152.6955  139.0051  158.8802 C   0  0  0  0  0  0  0  0  0  0  0  0
  153.1909  138.2180  159.8504 F   0  0  0  0  0  0  0  0  0  0  0  0
  152.0878  140.1632  159.2157 C   0  0  0  0  0  0  0  0  0  0  0  0
  151.5555  141.0412  158.2851 N   0  0  0  0  0  0  0  0  0  0  0  0
  150.8039  142.2864  158.7102 C   0  0  2  0  0  0  0  0  0  0  0  0
  151.3503  143.5895  158.1000 C   0  0  0  0  0  0  0  0  0  0  0  0
  152.0643  144.2254  159.2772 C   0  0  0  0  0  0  0  0  0  0  0  0
  151.2330  143.7223  160.4509 C   0  0  0  0  0  0  0  0  0  0  0  0
  150.9061  142.3842  160.0994 O   0  0  0  0  0  0  0  0  0  0  0  0
  151.5477  140.6779  156.9185 C   0  0  0  0  0  0  0  0  0  0  0  0
  151.0158  141.4004  156.0723 O   0  0  0  0  0  0  0  0  0  0  0  0
  148.9447  137.2998  154.5525 C   0  0  0  0  0  0  0  0  0  0  0  0
  147.7566  138.2083  154.7109 C   0  0  0  0  0  0  0  0  0  0  0  0
  146.3728  135.4864  150.3364 H   0  0  0  0  0  0  0  0  0  0  0  0
  145.7595  134.0407  151.1401 H   0  0  0  0  0  0  0  0  0  0  0  0
  147.4696  134.1495  150.6838 H   0  0  0  0  0  0  0  0  0  0  0  0
  146.3809  133.6879  153.4524 H   0  0  0  0  0  0  0  0  0  0  0  0
  148.0749  133.7513  152.9755 H   0  0  0  0  0  0  0  0  0  0  0  0
  146.7767  135.7862  154.7698 H   0  0  0  0  0  0  0  0  0  0  0  0
  146.6633  133.6830  155.9875 H   0  0  0  0  0  0  0  0  0  0  0  0
  147.8019  134.7734  156.7624 H   0  0  0  0  0  0  0  0  0  0  0  0
  148.3889  133.4184  155.8105 H   0  0  0  0  0  0  0  0  0  0  0  0
  151.3998  133.7172  153.8715 H   0  0  0  0  0  0  0  0  0  0  0  0
  149.7415  133.4719  153.3380 H   0  0  0  0  0  0  0  0  0  0  0  0
  150.1486  133.3636  155.0573 H   0  0  0  0  0  0  0  0  0  0  0  0
  152.0525  136.2748  154.1192 H   0  0  0  0  0  0  0  0  0  0  0  0
  152.7934  138.1713  155.0540 H   0  0  0  0  0  0  0  0  0  0  0  0
  152.8419  139.8535  154.6345 H   0  0  0  0  0  0  0  0  0  0  0  0
  152.0206  140.3942  160.2668 H   0  0  0  0  0  0  0  0  0  0  0  0
  149.7665  142.1375  158.4078 H   0  0  0  0  0  0  0  0  0  0  0  0
  151.9693  143.4298  157.2171 H   0  0  0  0  0  0  0  0  0  0  0  0
  150.5009  144.2076  157.8061 H   0  0  0  0  0  0  0  0  0  0  0  0
  153.0866  143.8554  159.3566 H   0  0  0  0  0  0  0  0  0  0  0  0
  152.1004  145.3134  159.2168 H   0  0  0  0  0  0  0  0  0  0  0  0
  151.7688  143.7693  161.3992 H   0  0  0  0  0  0  0  0  0  0  0  0
  150.3138  144.3021  160.5474 H   0  0  0  0  0  0  0  0  0  0  0  0
  147.9218  139.1720  154.2318 H   0  0  0  0  0  0  0  0  0  0  0  0
  147.5445  138.3891  155.7648 H   0  0  0  0  0  0  0  0  0  0  0  0
  146.8614  137.8089  154.2437 H   0  0  0  0  0  0  0  0  0  0  0  0
  1  2  1  0  0  0  0
  1 30  1  0  0  0  0
  1 31  1  0  0  0  0
  1 32  1  0  0  0  0
  2  3  1  0  0  0  0
  3  4  1  0  0  0  0
  3 33  1  0  0  0  0
  3 34  1  0  0  0  0
  4  5  1  0  0  0  0
  4  6  1  0  0  0  0
  4 35  1  0  0  0  0
  5 36  1  0  0  0  0
  5 37  1  0  0  0  0
  5 38  1  0  0  0  0
  6 28  1  0  0  0  0
  6  7  1  0  0  0  0
  7  8  1  0  0  0  0
  7  9  2  0  0  0  0
  8 39  1  0  0  0  0
  8 40  1  0  0  0  0
  8 41  1  0  0  0  0
  9 10  1  0  0  0  0
  9 42  1  0  0  0  0
 10 11  1  0  0  0  0
 10 28  2  0  0  0  0
 11 12  2  0  0  0  0
 11 13  1  0  0  0  0
 13 14  1  0  0  0  0
 13 43  1  0  0  0  0
 13 44  1  0  0  0  0
 14 26  1  0  0  0  0
 14 15  1  0  0  0  0
 15 16  2  0  0  0  0
 15 17  1  0  0  0  0
 17 18  1  0  0  0  0
 17 19  2  0  0  0  0
 19 20  1  0  0  0  0
 19 45  1  0  0  0  0
 20 21  1  0  0  0  0
 20 26  1  0  0  0  0
 21 25  1  0  0  0  0
 21 22  1  0  0  0  0
 21 46  1  0  0  0  0
 22 23  1  0  0  0  0
 22 47  1  0  0  0  0
 22 48  1  0  0  0  0
 23 24  1  0  0  0  0
 23 49  1  0  0  0  0
 23 50  1  0  0  0  0
 24 25  1  0  0  0  0
 24 51  1  0  0  0  0
 24 52  1  0  0  0  0
 26 27  2  0  0  0  0
 28 29  1  0  0  0  0
 29 53  1  0  0  0  0
 29 54  1  0  0  0  0
 29 55  1  0  0  0  0
M  END
> <s_m_source_file>
AV-unprocessed.smi

> <i_m_source_file_index>
115

> <i_lp_mmshare_version>
43012

> <i_f3d_flags>
0

> <s_epik_input>
W0NIM11PW0NIMl1bQ0BIXShbQ0gzXSluMWMoW0NIM10pW2NIXWMoYzFbQ0gzXSlDKD1PKVtDSDJdbjJjKD1PKWMoRilbY0hdbihjMj1PKVtDQEBIXTNbQ0gyXVtDSDJdW0NIMl1PMw==

> <s_epik_cmdline>
J2VwaWtfcHl0aG9uJywgJy1waCcsICc3LjAnLCAnLXRuJywgJzgnLCAnLW1hJywgJzIwMCcsICctbWV0YWxfYmluZGluZycsICctaW1hZScsICc8aW5maWxlLm1hZT4nLCAnLW9tYWUnLCAnPG91dGZpbGUubWFlPic=

> <r_lp_tautomer_probability>
1

> <r_epik_Ionization_Penalty>
5.02611e-09

> <r_epik_Ionization_Penalty_Charging>
5.01743e-09

> <r_epik_Ionization_Penalty_Neutral>
8.68114e-12

> <r_epik_State_Penalty>
-0

> <r_epik_Charging_Adjusted_Penalty>
5.01743e-09

> <i_epik_Tot_Q>
0

> <i_epik_Tot_abs_Q>
0

> <r_epik_Metal_State_Penalty>
-0

> <b_epik_Metal_Only>
0

> <s_epik_Chemistry_Notes>
This compound contains an acetal/aminal-like group ( X-CH(R)-Y where X, Y are N, S, or O) that may be acid/base labile, releasing an aldehyde.

> <s_lp_Force_Field>
OPLS_2005

> <r_lp_Energy>
46.8154

> <b_lp_Chiralities_Consistent>
1

> <s_lp_Variant>
AV-unprocessed.smi:115-2

> <Gold.Version>
5.8.1

> <Gold.Id.Protein>
6NUR|6NUR_protein|mol2

> <Gold.PLP.Fitness>
47.2462

> <Gold.PLP.PLP>
-45.7241

> <Gold.PLP.part.hbond>
-2.0331

> <Gold.PLP.part.metal>
0.0000

> <Gold.PLP.part.buried>
-4.7851

> <Gold.PLP.part.nonpolar>
-39.5785

> <Gold.PLP.part.repulsive>
1.9153

> <Gold.PLP.ligand.clash>
0.0000

> <Gold.PLP.ligand.torsion>
0.9461

> <Gold.PLP.Chemscore.Hbond>
1.0000

> <Gold.PLP.Chemscore.CHOScore>
0.0000

> <Gold.PLP.Chemscore.Metal>
0.0000

> <Gold.Chemscore.Hbonds>
donor molecule, donor type, donor heavy atom, donor atom, acceptor molecule, acceptor atom, score
      P1  H  7989  7998       L1    12  0.95

> <Gold.PLP.Chemscore.Internal.Correction>
0.4142

> <Gold.Rescore>
     Score         DG    S(hbond)    S(metal)    S(lipo)     H(rot)  DE(clash)    DE(int)     intcor
     12.15     -16.09       1.94        0.00      83.35       2.19       0.04       3.90       ----

> <Gold.Chemscore.Fitness>
12.1529

> <Gold.Chemscore.DG>
-16.0947

> <Gold.Chemscore.ZeroCoef>
-5.4800

> <Gold.Chemscore.Hbond>
1.9398

> <Gold.Chemscore.Metal>
0.0000

> <Gold.Chemscore.Lipo>
83.3482

> <Gold.Chemscore.Internal_Hbond>
0.0000

> <Gold.Chemscore.DEClash>
0.0371

> <Gold.Chemscore.DEInternal>
3.9047

> <Gold.Chemscore.Rot>
2.1938

> <Gold.Chemscore.Internal.Correction>
   9.000000E+99

> <Gold.Chemscore.Hbonds>
donor molecule, donor type, donor heavy atom, donor atom, acceptor molecule, acceptor atom, score
      P1  H  7989  7998       L1    12  0.21

> <Gold.Chemscore.Hbond.Weighted>
-6.4790

> <Gold.Chemscore.Metal.Weighted>
-0.0000

> <Gold.Chemscore.Lipo.Weighted>
-9.7517

> <Gold.Chemscore.Internal_Hbond.Weighted>
0.0000

> <Gold.Chemscore.DEClash.Weighted>
0.0371

> <Gold.Chemscore.DEInternal.Weighted>
3.9047

> <Gold.Chemscore.Rot.Weighted>
5.6160

> <Gold.Chemscore.Internal.Correction.Weighted>
   9.000000E+99

> <Gold.Protein.RotatedTorsions>
[ 6907 6896 6895 6894 ] final  144.31 input  -60.11 | X-H torsion
[ 7974 7965 7964 7962 ] final  110.68 input  175.53 | X-H torsion
[ 8008 7997 7996 7995 ] final -167.47 input   59.86 | X-H torsion
[ 10167 10162 10161 10158 ] final   25.52 input  -65.29 | X-H torsion
[ 10718 10713 10712 10709 ] final   79.85 input   66.30 | X-H torsion
[ 10763 10752 10751 10750 ] final  137.55 input  -60.55 | X-H torsion
[ 11005 11000 10999 10996 ] final   84.50 input  -57.11 | X-H torsion

> <Gold.Protein.ActiveResidues>
 VAL166  LYS551  ARG553  GLY616  TRP617  ASP618  TYR619  PRO620  LYS621  CYS622 
 ASP623  PHE694  ASN695  SER759  ASP760  ASP761  ALA762  ILE779  LEU786  VAL792 
 PHE793  MET794  SER795  GLU796  ALA797  LYS798  CYS799  TRP800  GLU811  SER814 

> <Gold.Protein.RotatedAtoms>
  152.1952  133.4801  159.5028 H   0  0  0  0  0  0  0  0  0  0  0  0  # atno 6907 bound_to 6896
  150.6959  134.1661  159.4203 H   0  0  0  0  0  0  0  0  0  0  0  0  # atno 6908 bound_to 6896
  151.9577  135.0138  160.0596 H   0  0  0  0  0  0  0  0  0  0  0  0  # atno 6909 bound_to 6896
  145.2518  139.2736  143.4063 H   0  0  0  0  0  0  0  0  0  0  0  0  # atno 7974 bound_to 7965
  155.8782  140.1004  157.1504 H   0  0  0  0  0  0  0  0  0  0  0  0  # atno 8008 bound_to 7997
  154.4003  140.1334  156.4226 H   0  0  0  0  0  0  0  0  0  0  0  0  # atno 8009 bound_to 7997
  155.7673  140.3461  155.5231 H   0  0  0  0  0  0  0  0  0  0  0  0  # atno 8010 bound_to 7997
  140.5099  144.0177  150.6368 H   0  0  0  0  0  0  0  0  0  0  0  0  # atno 10167 bound_to 10162
  157.6789  130.9933  150.1993 H   0  0  0  0  0  0  0  0  0  0  0  0  # atno 10718 bound_to 10713
  153.8750  135.3051  155.3443 H   0  0  0  0  0  0  0  0  0  0  0  0  # atno 10763 bound_to 10752
  154.7788  135.4847  153.9803 H   0  0  0  0  0  0  0  0  0  0  0  0  # atno 10764 bound_to 10752
  153.1384  135.6819  153.9162 H   0  0  0  0  0  0  0  0  0  0  0  0  # atno 10765 bound_to 10752
  139.8998  134.8221  156.2454 H   0  0  0  0  0  0  0  0  0  0  0  0  # atno 11005 bound_to 11000
  146.3300  140.2911  142.8615 LP  0  0  0  0  0  0  0  0  0  0  0  0  # atno 17320 bound_to 7965
  144.9496  140.8164  143.5580 LP  0  0  0  0  0  0  0  0  0  0  0  0  # atno 17321 bound_to 7965
  140.3496  143.2971  152.0501 LP  0  0  0  0  0  0  0  0  0  0  0  0  # atno 17342 bound_to 10162
  139.4893  144.6383  151.6929 LP  0  0  0  0  0  0  0  0  0  0  0  0  # atno 17343 bound_to 10162
  156.2688  130.3719  149.8054 LP  0  0  0  0  0  0  0  0  0  0  0  0  # atno 17370 bound_to 10713
  156.5777  130.8452  151.3374 LP  0  0  0  0  0  0  0  0  0  0  0  0  # atno 17371 bound_to 10713
  141.0258  133.7016  156.1345 LP  0  0  0  0  0  0  0  0  0  0  0  0  # atno 17394 bound_to 11000
  140.7168  134.4401  157.5578 LP  0  0  0  0  0  0  0  0  0  0  0  0  # atno 17395 bound_to 11000

$$$$
