AV-unprocessed.smi:1247|AV-procd|sdf|5244|dock10
  -GOLD-   22720 4353D 1   1.00000     0.00000
 Structure written by MMmdl.
 46 47  0  0  0  0  0  0  0  0  1 V2000
  151.6221  141.8609  157.5460 C   0  0  0  0  0  0  0  0  0  0  0  0
  151.3545  140.8654  156.4559 C   0  0  0  0  0  0  0  0  0  0  0  0
  150.1273  140.6189  155.7742 C   0  0  0  0  0  0  0  0  0  0  0  0
  150.4646  139.6241  154.8975 C   0  0  0  0  0  0  0  0  0  0  0  0
  149.6857  138.9936  153.9787 N   0  0  0  0  0  0  0  0  0  0  0  0
  148.4448  139.3111  153.5700 C   0  0  0  0  0  0  0  0  0  0  0  0
  147.7710  140.2499  153.9952 O   0  0  0  0  0  0  0  0  0  0  0  0
  148.0141  138.4612  152.6270 N   0  0  0  0  0  0  0  0  0  0  0  0
  146.7112  138.5245  151.9763 C   0  0  0  0  0  0  0  0  0  0  0  0
  145.5943  138.0279  152.9132 C   0  0  0  0  0  0  0  0  0  0  0  0
  144.9008  136.8232  152.4612 N   0  0  0  0  0  0  0  0  0  0  0  0
  145.7489  135.6339  152.5085 C   0  0  0  0  0  0  0  0  0  0  0  0
  145.0094  134.3552  152.0653 C   0  0  2  0  0  0  0  0  0  0  0  0
  144.7782  134.2808  150.5463 C   0  0  0  0  0  0  0  0  0  0  0  0
  143.7899  134.2077  152.7945 O   0  0  0  0  0  0  0  0  0  0  0  0
  142.9280  135.3439  152.7727 C   0  0  1  0  0  0  0  0  0  0  0  0
  141.7169  135.0400  153.6608 C   0  0  0  0  0  0  0  0  0  0  0  0
  143.7034  136.5825  153.2564 C   0  0  0  0  0  0  0  0  0  0  0  0
  151.7979  139.3205  155.0603 N   0  0  0  0  0  0  0  0  0  0  0  0
  152.6117  138.3435  154.3634 C   0  0  0  0  0  0  0  0  0  0  0  0
  152.3436  140.0888  156.0276 N   0  0  0  0  0  0  0  0  0  0  0  0
  150.7418  142.4720  157.7463 H   0  0  0  0  0  0  0  0  0  0  0  0
  152.4362  142.5331  157.2737 H   0  0  0  0  0  0  0  0  0  0  0  0
  151.8972  141.3608  158.4749 H   0  0  0  0  0  0  0  0  0  0  0  0
  149.1737  141.1038  155.9183 H   0  0  0  0  0  0  0  0  0  0  0  0
  150.0997  138.1784  153.5511 H   0  0  0  0  0  0  0  0  0  0  0  0
  148.6314  137.7171  152.3367 H   0  0  0  0  0  0  0  0  0  0  0  0
  146.5053  139.5426  151.6410 H   0  0  0  0  0  0  0  0  0  0  0  0
  146.7685  137.9070  151.0805 H   0  0  0  0  0  0  0  0  0  0  0  0
  146.0005  137.8663  153.9128 H   0  0  0  0  0  0  0  0  0  0  0  0
  144.8625  138.8307  153.0145 H   0  0  0  0  0  0  0  0  0  0  0  0
  146.6288  135.7653  151.8797 H   0  0  0  0  0  0  0  0  0  0  0  0
  146.1161  135.4928  153.5262 H   0  0  0  0  0  0  0  0  0  0  0  0
  145.6307  133.5002  152.3335 H   0  0  0  0  0  0  0  0  0  0  0  0
  145.7272  134.2809  150.0099 H   0  0  0  0  0  0  0  0  0  0  0  0
  144.1972  135.1259  150.1775 H   0  0  0  0  0  0  0  0  0  0  0  0
  144.2472  133.3675  150.2779 H   0  0  0  0  0  0  0  0  0  0  0  0
  142.5733  135.5107  151.7553 H   0  0  0  0  0  0  0  0  0  0  0  0
  141.0178  135.8766  153.6701 H   0  0  0  0  0  0  0  0  0  0  0  0
  142.0209  134.8451  154.6897 H   0  0  0  0  0  0  0  0  0  0  0  0
  141.1798  134.1625  153.3003 H   0  0  0  0  0  0  0  0  0  0  0  0
  143.9771  136.4552  154.3052 H   0  0  0  0  0  0  0  0  0  0  0  0
  143.0494  137.4542  153.2100 H   0  0  0  0  0  0  0  0  0  0  0  0
  152.5878  138.5443  153.2921 H   0  0  0  0  0  0  0  0  0  0  0  0
  152.2202  137.3429  154.5484 H   0  0  0  0  0  0  0  0  0  0  0  0
  153.6459  138.3883  154.7077 H   0  0  0  0  0  0  0  0  0  0  0  0
  1  2  1  0  0  0  0
  1 22  1  0  0  0  0
  1 23  1  0  0  0  0
  1 24  1  0  0  0  0
  2 21  2  0  0  0  0
  2  3  1  0  0  0  0
  3  4  2  0  0  0  0
  3 25  1  0  0  0  0
  4  5  1  0  0  0  0
  4 19  1  0  0  0  0
  5  6  1  0  0  0  0
  5 26  1  0  0  0  0
  6  7  2  0  0  0  0
  6  8  1  0  0  0  0
  8  9  1  0  0  0  0
  8 27  1  0  0  0  0
  9 10  1  0  0  0  0
  9 28  1  0  0  0  0
  9 29  1  0  0  0  0
 10 11  1  0  0  0  0
 10 30  1  0  0  0  0
 10 31  1  0  0  0  0
 11 18  1  0  0  0  0
 11 12  1  0  0  0  0
 12 13  1  0  0  0  0
 12 32  1  0  0  0  0
 12 33  1  0  0  0  0
 13 14  1  0  0  0  0
 13 15  1  0  0  0  0
 13 34  1  0  0  0  0
 14 35  1  0  0  0  0
 14 36  1  0  0  0  0
 14 37  1  0  0  0  0
 15 16  1  0  0  0  0
 16 17  1  0  0  0  0
 16 18  1  0  0  0  0
 16 38  1  0  0  0  0
 17 39  1  0  0  0  0
 17 40  1  0  0  0  0
 17 41  1  0  0  0  0
 18 42  1  0  0  0  0
 18 43  1  0  0  0  0
 19 20  1  0  0  0  0
 19 21  1  0  0  0  0
 20 44  1  0  0  0  0
 20 45  1  0  0  0  0
 20 46  1  0  0  0  0
M  END
> <s_m_source_file>
AV-unprocessed.smi

> <i_m_source_file_index>
1247

> <i_lp_mmshare_version>
43012

> <i_f3d_flags>
0

> <s_epik_input>
W0NIM11jMVtjSF1jKG4objEpW0NIM10pW05IXUMoPU8pW05IXVtDSDJdW0NIMl1OMltDSDJdW0NAQEhdKFtDSDNdKU9bQ0BASF0oW0NIM10pW0NIMl0y

> <s_epik_cmdline>
J2VwaWtfcHl0aG9uJywgJy1waCcsICc3LjAnLCAnLXRuJywgJzgnLCAnLW1hJywgJzIwMCcsICctbWV0YWxfYmluZGluZycsICctaW1hZScsICc8aW5maWxlLm1hZT4nLCAnLW9tYWUnLCAnPG91dGZpbGUubWFlPic=

> <r_lp_tautomer_probability>
1

> <r_epik_Ionization_Penalty>
0.233972

> <r_epik_Ionization_Penalty_Charging>
0

> <r_epik_Ionization_Penalty_Neutral>
0.233972

> <r_epik_State_Penalty>
0.224627

> <r_epik_Charging_Adjusted_Penalty>
0.224627

> <i_epik_Tot_Q>
0

> <i_epik_Tot_abs_Q>
0

> <r_epik_Metal_State_Penalty>
0.224624

> <b_epik_Metal_Only>
0

> <s_lp_Force_Field>
OPLS_2005

> <r_lp_Energy>
23.1298

> <b_lp_Chiralities_Consistent>
1

> <s_lp_Variant>
AV-unprocessed.smi:1247-2

> <Gold.Version>
5.8.1

> <Gold.Id.Protein>
6NUR|6NUR_protein|mol2

> <Gold.PLP.Fitness>
40.5783

> <Gold.PLP.PLP>
-35.6322

> <Gold.PLP.part.hbond>
-4.0000

> <Gold.PLP.part.metal>
0.0000

> <Gold.PLP.part.buried>
0.1180

> <Gold.PLP.part.nonpolar>
-32.1349

> <Gold.PLP.part.repulsive>
0.6210

> <Gold.PLP.ligand.clash>
0.0000

> <Gold.PLP.ligand.torsion>
0.5415

> <Gold.PLP.Chemscore.Hbond>
1.9913

> <Gold.PLP.Chemscore.CHOScore>
0.0000

> <Gold.PLP.Chemscore.Metal>
0.0000

> <Gold.Chemscore.Hbonds>
donor molecule, donor type, donor heavy atom, donor atom, acceptor molecule, acceptor atom, score
      L1  H     8    27       P1  7948  1.00
      P1  H  7997  8008       L1    21  1.00

> <Gold.PLP.Chemscore.Internal.Correction>
0.0554

> <Gold.Rescore>
     Score         DG    S(hbond)    S(metal)    S(lipo)     H(rot)  DE(clash)    DE(int)     intcor
     13.91     -15.93       1.99        0.00      65.12       1.48       0.40       1.63       ----

> <Gold.Chemscore.Fitness>
13.9068

> <Gold.Chemscore.DG>
-15.9334

> <Gold.Chemscore.ZeroCoef>
-5.4800

> <Gold.Chemscore.Hbond>
1.9858

> <Gold.Chemscore.Metal>
0.0000

> <Gold.Chemscore.Lipo>
65.1222

> <Gold.Chemscore.Internal_Hbond>
0.0000

> <Gold.Chemscore.DEClash>
0.3999

> <Gold.Chemscore.DEInternal>
1.6267

> <Gold.Chemscore.Rot>
1.4838

> <Gold.Chemscore.Internal.Correction>
   9.000000E+99

> <Gold.Chemscore.Hbonds>
donor molecule, donor type, donor heavy atom, donor atom, acceptor molecule, acceptor atom, score
      L1  H     8    27       P1  7948  0.94
      P1  H  7997  8008       L1    21  0.93

> <Gold.Chemscore.Hbond.Weighted>
-6.6326

> <Gold.Chemscore.Metal.Weighted>
-0.0000

> <Gold.Chemscore.Lipo.Weighted>
-7.6193

> <Gold.Chemscore.Internal_Hbond.Weighted>
0.0000

> <Gold.Chemscore.DEClash.Weighted>
0.3999

> <Gold.Chemscore.DEInternal.Weighted>
1.6267

> <Gold.Chemscore.Rot.Weighted>
3.7985

> <Gold.Chemscore.Internal.Correction.Weighted>
   9.000000E+99

> <Gold.Protein.RotatedTorsions>
[ 6907 6896 6895 6894 ] final  129.63 input  -60.11 | X-H torsion
[ 7974 7965 7964 7962 ] final -151.82 input  175.53 | X-H torsion
[ 8008 7997 7996 7995 ] final  -40.81 input   59.86 | X-H torsion
[ 10167 10162 10161 10158 ] final  175.69 input  -65.29 | X-H torsion
[ 10718 10713 10712 10709 ] final  -12.95 input   66.30 | X-H torsion
[ 10763 10752 10751 10750 ] final  -79.76 input  -60.55 | X-H torsion
[ 11005 11000 10999 10996 ] final   32.66 input  -57.11 | X-H torsion

> <Gold.Protein.ActiveResidues>
 VAL166  LYS551  ARG553  GLY616  TRP617  ASP618  TYR619  PRO620  LYS621  CYS622 
 ASP623  PHE694  ASN695  SER759  ASP760  ASP761  ALA762  ILE779  LEU786  VAL792 
 PHE793  MET794  SER795  GLU796  ALA797  LYS798  CYS799  TRP800  GLU811  SER814 

> <Gold.Protein.RotatedAtoms>
  152.3605  133.6291  159.6011 H   0  0  0  0  0  0  0  0  0  0  0  0  # atno 6907 bound_to 6896
  150.7598  133.9431  159.3471 H   0  0  0  0  0  0  0  0  0  0  0  0  # atno 6908 bound_to 6896
  151.7269  135.0884  160.0345 H   0  0  0  0  0  0  0  0  0  0  0  0  # atno 6909 bound_to 6896
  144.7828  140.4746  143.5827 H   0  0  0  0  0  0  0  0  0  0  0  0  # atno 7974 bound_to 7965
  154.4009  140.1515  156.3088 H   0  0  0  0  0  0  0  0  0  0  0  0  # atno 8008 bound_to 7997
  155.8634  140.3452  155.5750 H   0  0  0  0  0  0  0  0  0  0  0  0  # atno 8009 bound_to 7997
  155.7855  140.0849  157.2027 H   0  0  0  0  0  0  0  0  0  0  0  0  # atno 8010 bound_to 7997
  139.5186  144.3002  152.0385 H   0  0  0  0  0  0  0  0  0  0  0  0  # atno 10167 bound_to 10162
  156.6373  130.4918  149.6107 H   0  0  0  0  0  0  0  0  0  0  0  0  # atno 10718 bound_to 10713
  154.5427  135.5684  153.6854 H   0  0  0  0  0  0  0  0  0  0  0  0  # atno 10763 bound_to 10752
  152.9968  135.6232  154.2480 H   0  0  0  0  0  0  0  0  0  0  0  0  # atno 10764 bound_to 10752
  154.2411  135.2862  155.2833 H   0  0  0  0  0  0  0  0  0  0  0  0  # atno 10765 bound_to 10752
  140.2712  134.3080  155.7827 H   0  0  0  0  0  0  0  0  0  0  0  0  # atno 11005 bound_to 11000
  145.6003  139.1503  143.3133 LP  0  0  0  0  0  0  0  0  0  0  0  0  # atno 17320 bound_to 7965
  146.2045  140.6124  142.9087 LP  0  0  0  0  0  0  0  0  0  0  0  0  # atno 17321 bound_to 7965
  140.2450  144.4229  150.6244 LP  0  0  0  0  0  0  0  0  0  0  0  0  # atno 17342 bound_to 10162
  140.6264  143.2182  151.6587 LP  0  0  0  0  0  0  0  0  0  0  0  0  # atno 17343 bound_to 10162
  156.2187  130.6724  151.1346 LP  0  0  0  0  0  0  0  0  0  0  0  0  # atno 17370 bound_to 10713
  157.7182  131.0697  150.6244 LP  0  0  0  0  0  0  0  0  0  0  0  0  # atno 17371 bound_to 10713
  141.2177  133.7468  156.9337 LP  0  0  0  0  0  0  0  0  0  0  0  0  # atno 17394 bound_to 11000
  140.1371  134.9318  157.2417 LP  0  0  0  0  0  0  0  0  0  0  0  0  # atno 17395 bound_to 11000

$$$$
