#       Name:                AV-unprocessed.smi:72
#       Creating user name   scv26
#       Creation time:       Thu Mar 26 17:07:22 2020


#       File generated by GOLD software.
#

@<TRIPOS>MOLECULE
AV-unprocessed.smi:72
    41    42     1
SMALL
NO_CHARGES


@<TRIPOS>ATOM
      1 ****        -2.3538   4.5419   1.1556 N.2            1 S1                 0.0000
      2 ****        -1.9634   3.4151   0.7459 C.2            1 S1                 0.0000
      3 ****        -0.5488   3.1175   0.6855 N.2            1 S1                 0.0000
      4 ****        -0.1945   1.9527   0.2364 C.2            1 S1                 0.0000
      5 ****        -1.1737   0.9710  -0.2102 N.am           1 S1                 0.0000
      6 ****        -0.7517  -0.3915  -0.7169 C.3            1 S1                 0.0000
      7 ****         0.5370  -0.3086  -1.2559 O.3            1 S1                 0.0000
      8 ****         1.3472  -1.3675  -0.7548 C.3            1 S1                 0.0000
      9 ****         2.8235  -0.9423  -0.7652 C.3            1 S1                 0.0000
     10 ****         3.3819  -1.1480  -2.0453 O.3            1 S1                 0.0000
     11 ****         0.7818  -1.5787   0.6498 C.3            1 S1                 0.0000
     12 ****         1.1252  -2.8323   1.2099 O.3            1 S1                 0.0000
     13 ****        -0.7176  -1.4028   0.4401 C.3            1 S1                 0.0000
     14 ****        -1.3675  -2.6068   0.0765 O.3            1 S1                 0.0000
     15 ****        -2.5565   1.2757  -0.1052 C.2            1 S1                 0.0000
     16 ****        -3.3689   0.4128  -0.4396 O.2            1 S1                 0.0000
     17 ****        -2.9216   2.4994   0.3698 N.pl3          1 S1                -1.0000
     18 ****        -1.4484  -0.6497  -1.5162 H              1 S1                 0.0000
     19 ****         1.1846  -2.2644  -1.3560 H              1 S1                 0.0000
     20 ****         1.1414  -0.7876   1.3097 H              1 S1                 0.0000
     21 ****        -1.2049  -1.0041   1.3312 H              1 S1                 0.0000
     22 ****        -3.3594   4.6311   1.1551 H              1 S1                 0.0000
     23 ****         0.8475   1.6381   0.1717 H              1 S1                 0.0000
     24 ****         2.9379   0.0992  -0.4630 H              1 S1                 0.0000
     25 ****         3.3933  -1.5482  -0.0604 H              1 S1                 0.0000
     26 ****         4.2905  -0.8896  -2.0217 H              1 S1                 0.0000
     27 ****         0.6450  -2.9392   2.0166 H              1 S1                 0.0000
     28 ****        -2.2757  -2.4121  -0.0996 H              1 S1                 0.0000
     29 ****        -1.7337   5.2692   1.4496 LP             1 S1                 0.0000
     30 ****         0.1331   3.7870   0.9800 LP             1 S1                 0.0000
     31 ****         0.9455   0.5683  -1.0027 LP             1 S1                 0.0000
     32 ****         0.4836  -0.3763  -2.2522 LP             1 S1                 0.0000
     33 ****         2.8917  -0.5959  -2.7197 LP             1 S1                 0.0000
     34 ****         3.3126  -2.1146  -2.2921 LP             1 S1                 0.0000
     35 ****         2.1075  -2.8622   1.3949 LP             1 S1                 0.0000
     36 ****         0.8835  -3.5646   0.5732 LP             1 S1                 0.0000
     37 ****        -1.3020  -3.2661   0.8256 LP             1 S1                 0.0000
     38 ****        -0.9386  -2.9888  -0.7421 LP             1 S1                 0.0000
     39 ****        -3.0479  -0.4734  -0.7739 LP             1 S1                 0.0000
     40 ****        -4.3495   0.5982  -0.3768 LP             1 S1                 0.0000
     41 ****        -3.8906   2.7342   0.4459 LP             1 S1                 0.0000
@<TRIPOS>BOND
    1    1    2 2     
    2    1   22 1     
    3    2   17 1     
    4    2    3 1     
    5    3    4 2     
    6    4    5 1     
    7    4   23 1     
    8    5    6 1     
    9    5   15 am    
   10    6   18 1     
   11    6   13 1     
   12    6    7 1     
   13    7    8 1     
   14    8   19 1     
   15    8    9 1     
   16    8   11 1     
   17    9   10 1     
   18    9   24 1     
   19    9   25 1     
   20   10   26 1     
   21   11   20 1     
   22   11   12 1     
   23   11   13 1     
   24   12   27 1     
   25   13   21 1     
   26   13   14 1     
   27   14   28 1     
   28   15   16 2     
   29   15   17 1     
   30    1   29 1     
   31    3   30 1     
   32    7   31 1     
   33    7   32 1     
   34   10   33 1     
   35   10   34 1     
   36   12   35 1     
   37   12   36 1     
   38   14   37 1     
   39   14   38 1     
   40   16   39 1     
   41   16   40 1     
   42   17   41 1     
@<TRIPOS>SUBSTRUCTURE
      1 S1             1
@<TRIPOS>SET
LONE_PAIRS      STATIC     ATOMS    <user>   **** ""
13 29 30 31 32 33 34 35 36 37 38 39 40 41
DONOR_HYDROGENS      STATIC     ATOMS    <user>   **** ""
4 22 26 27 28
ATOM$BLUE        STATIC     ATOMS    COLORGROUP SYSTEM
13 29 30 31 32 33 34 35 36 37 38 39 40 41
ATOM$RED        STATIC     ATOMS    COLORGROUP SYSTEM
4 22 26 27 28
