AV-unprocessed.smi:1896|AV-procd|sdf|7683|dock7
  -GOLD-   22720 9423D 1   1.00000     0.00000
 Structure written by MMmdl.
 47 48  0  0  0  0  0  0  0  0  2 V2000
  151.0297  142.1202  156.6252 C   0  0  0  0  0  0  0  0  0  0  0  0
  151.8632  142.0786  157.8737 C   0  0  0  0  0  0  0  0  0  0  0  0
  152.4747  140.9523  158.1991 N   0  0  0  0  0  0  0  0  0  0  0  0
  153.1168  141.2290  159.3514 N   0  0  0  0  0  0  0  0  0  0  0  0
  153.9008  140.1933  159.9956 C   0  0  0  0  0  0  0  0  0  0  0  0
  152.9070  142.5323  159.7576 C   0  0  0  0  0  0  0  0  0  0  0  0
  153.5062  143.0785  161.0136 C   0  0  0  0  0  0  0  0  0  0  0  0
  152.0970  143.1190  158.8217 C   0  0  0  0  0  0  0  0  0  0  0  0
  151.5621  144.5285  158.7928 C   0  0  0  0  0  0  0  0  0  0  0  0
  150.7064  144.7727  160.0353 C   0  0  0  0  0  0  0  0  0  0  0  0
  151.1681  144.5555  161.1553 O   0  0  0  0  0  0  0  0  0  0  0  0
  149.4562  145.2098  159.8258 N   0  0  0  0  0  0  0  0  0  0  0  0
  148.4784  145.4420  160.8816 C   0  0  0  0  0  0  0  0  0  0  0  0
  147.0333  145.1367  160.4167 C   0  0  1  0  0  0  0  0  0  0  0  0
  146.0670  145.0759  161.6213 C   0  0  0  0  0  0  0  0  0  0  0  0
  146.5606  146.1363  159.4147 N   0  3  0  0  0  0  0  0  0  0  0  0
  145.1791  145.9499  158.9183 C   0  0  0  0  0  0  0  0  0  0  0  0
  144.7814  147.3019  158.3376 C   0  0  0  0  0  0  0  0  0  0  0  0
  145.4371  148.2918  159.2927 C   0  0  0  0  0  0  0  0  0  0  0  0
  146.6697  147.5565  159.8365 C   0  0  0  0  0  0  0  0  0  0  0  0
  149.9909  141.8763  156.8461 H   0  0  0  0  0  0  0  0  0  0  0  0
  151.3865  141.4067  155.8816 H   0  0  0  0  0  0  0  0  0  0  0  0
  151.0505  143.1085  156.1663 H   0  0  0  0  0  0  0  0  0  0  0  0
  154.9266  140.5381  160.1266 H   0  0  0  0  0  0  0  0  0  0  0  0
  153.9096  139.2843  159.3924 H   0  0  0  0  0  0  0  0  0  0  0  0
  153.4733  139.9645  160.9721 H   0  0  0  0  0  0  0  0  0  0  0  0
  153.1696  144.0971  161.2048 H   0  0  0  0  0  0  0  0  0  0  0  0
  154.5944  143.0913  160.9492 H   0  0  0  0  0  0  0  0  0  0  0  0
  153.2247  142.4705  161.8734 H   0  0  0  0  0  0  0  0  0  0  0  0
  152.3676  145.2630  158.7711 H   0  0  0  0  0  0  0  0  0  0  0  0
  150.9695  144.7136  157.8961 H   0  0  0  0  0  0  0  0  0  0  0  0
  149.1566  145.3623  158.8735 H   0  0  0  0  0  0  0  0  0  0  0  0
  148.7342  144.8223  161.7430 H   0  0  0  0  0  0  0  0  0  0  0  0
  148.5721  146.4820  161.1965 H   0  0  0  0  0  0  0  0  0  0  0  0
  147.0347  144.1588  159.9318 H   0  0  0  0  0  0  0  0  0  0  0  0
  146.3599  144.3040  162.3323 H   0  0  0  0  0  0  0  0  0  0  0  0
  145.0465  144.8389  161.3219 H   0  0  0  0  0  0  0  0  0  0  0  0
  146.0427  146.0260  162.1558 H   0  0  0  0  0  0  0  0  0  0  0  0
  145.1144  145.1546  158.1751 H   0  0  0  0  0  0  0  0  0  0  0  0
  144.5187  145.6980  159.7499 H   0  0  0  0  0  0  0  0  0  0  0  0
  145.2033  147.4147  157.3377 H   0  0  0  0  0  0  0  0  0  0  0  0
  143.7012  147.4325  158.2650 H   0  0  0  0  0  0  0  0  0  0  0  0
  145.6913  149.2333  158.8046 H   0  0  0  0  0  0  0  0  0  0  0  0
  144.7539  148.5182  160.1125 H   0  0  0  0  0  0  0  0  0  0  0  0
  146.7027  147.6540  160.9227 H   0  0  0  0  0  0  0  0  0  0  0  0
  147.5921  147.9794  159.4366 H   0  0  0  0  0  0  0  0  0  0  0  0
  147.1548  146.0425  158.6031 H   0  0  0  0  0  0  0  0  0  0  0  0
  1  2  1  0  0  0  0
  1 21  1  0  0  0  0
  1 22  1  0  0  0  0
  1 23  1  0  0  0  0
  2  8  1  0  0  0  0
  2  3  2  0  0  0  0
  3  4  1  0  0  0  0
  4  5  1  0  0  0  0
  4  6  1  0  0  0  0
  5 24  1  0  0  0  0
  5 25  1  0  0  0  0
  5 26  1  0  0  0  0
  6  7  1  0  0  0  0
  6  8  2  0  0  0  0
  7 27  1  0  0  0  0
  7 28  1  0  0  0  0
  7 29  1  0  0  0  0
  8  9  1  0  0  0  0
  9 10  1  0  0  0  0
  9 30  1  0  0  0  0
  9 31  1  0  0  0  0
 10 11  2  0  0  0  0
 10 12  1  0  0  0  0
 12 13  1  0  0  0  0
 12 32  1  0  0  0  0
 13 14  1  0  0  0  0
 13 33  1  0  0  0  0
 13 34  1  0  0  0  0
 14 15  1  0  0  0  0
 14 16  1  0  0  0  0
 14 35  1  0  0  0  0
 15 36  1  0  0  0  0
 15 37  1  0  0  0  0
 15 38  1  0  0  0  0
 16 20  1  0  0  0  0
 16 17  1  0  0  0  0
 16 47  1  0  0  0  0
 17 18  1  0  0  0  0
 17 39  1  0  0  0  0
 17 40  1  0  0  0  0
 18 19  1  0  0  0  0
 18 41  1  0  0  0  0
 18 42  1  0  0  0  0
 19 20  1  0  0  0  0
 19 43  1  0  0  0  0
 19 44  1  0  0  0  0
 20 45  1  0  0  0  0
 20 46  1  0  0  0  0
M  CHG  1  16   1
M  END
> <s_m_source_file>
AV-unprocessed.smi

> <i_m_source_file_index>
1896

> <i_lp_mmshare_version>
43012

> <i_f3d_flags>
0

> <s_epik_input>
W0NIM11jMW5uKFtDSDNdKWMoW0NIM10pYzFbQ0gyXUMoPU8pW05IXVtDSDJdW0NASF0oW0NIM10pTjJbQ0gyXVtDSDJdW0NIMl1bQ0gyXTI=

> <s_epik_cmdline>
J2VwaWtfcHl0aG9uJywgJy1waCcsICc3LjAnLCAnLXRuJywgJzgnLCAnLW1hJywgJzIwMCcsICctbWV0YWxfYmluZGluZycsICctaW1hZScsICc8aW5maWxlLm1hZT4nLCAnLW9tYWUnLCAnPG91dGZpbGUubWFlPic=

> <r_lp_tautomer_probability>
1

> <r_epik_Ionization_Penalty>
0.00723064

> <r_epik_Ionization_Penalty_Charging>
0.0050435

> <r_epik_Ionization_Penalty_Neutral>
0.00218714

> <r_epik_State_Penalty>
-0

> <r_epik_Charging_Adjusted_Penalty>
0.0050435

> <i_epik_Tot_Q>
1

> <i_epik_Tot_abs_Q>
1

> <r_epik_Metal_State_Penalty>
-0

> <b_epik_Metal_Only>
0

> <s_lp_Force_Field>
OPLS_2005

> <r_lp_Energy>
24.4883

> <b_lp_Chiralities_Consistent>
1

> <s_lp_Variant>
AV-unprocessed.smi:1896-2

> <Gold.Version>
5.8.1

> <Gold.Id.Protein>
6NUR|6NUR_protein|mol2

> <Gold.PLP.Fitness>
51.5464

> <Gold.PLP.PLP>
-43.1618

> <Gold.PLP.part.hbond>
-2.9327

> <Gold.PLP.part.metal>
0.0000

> <Gold.PLP.part.buried>
-7.8880

> <Gold.PLP.part.nonpolar>
-32.5409

> <Gold.PLP.part.repulsive>
0.4750

> <Gold.PLP.ligand.clash>
0.0000

> <Gold.PLP.ligand.torsion>
0.3219

> <Gold.PLP.Chemscore.Hbond>
2.9913

> <Gold.PLP.Chemscore.CHOScore>
0.0000

> <Gold.PLP.Chemscore.Metal>
0.0000

> <Gold.Chemscore.Hbonds>
donor molecule, donor type, donor heavy atom, donor atom, acceptor molecule, acceptor atom, score
      L1  H    12    32       P1  8029  0.80
      L1  H    16    47       P1  8029  1.79

> <Gold.PLP.Chemscore.Internal.Correction>
0.0546

> <Gold.Rescore>
     Score         DG    S(hbond)    S(metal)    S(lipo)     H(rot)  DE(clash)    DE(int)     intcor
     19.37     -19.87       1.97        0.00     102.70       1.65       0.05       0.44       ----

> <Gold.Chemscore.Fitness>
19.3728

> <Gold.Chemscore.DG>
-19.8668

> <Gold.Chemscore.ZeroCoef>
-5.4800

> <Gold.Chemscore.Hbond>
1.9740

> <Gold.Chemscore.Metal>
0.0000

> <Gold.Chemscore.Lipo>
102.7028

> <Gold.Chemscore.Internal_Hbond>
0.0000

> <Gold.Chemscore.DEClash>
0.0510

> <Gold.Chemscore.DEInternal>
0.4429

> <Gold.Chemscore.Rot>
1.6495

> <Gold.Chemscore.Internal.Correction>
   9.000000E+99

> <Gold.Chemscore.Hbonds>
donor molecule, donor type, donor heavy atom, donor atom, acceptor molecule, acceptor atom, score
      L1  H    12    32       P1  8029  0.78
      L1  H    16    47       P1  8029  0.87

> <Gold.Chemscore.Hbond.Weighted>
-6.5933

> <Gold.Chemscore.Metal.Weighted>
-0.0000

> <Gold.Chemscore.Lipo.Weighted>
-12.0162

> <Gold.Chemscore.Internal_Hbond.Weighted>
0.0000

> <Gold.Chemscore.DEClash.Weighted>
0.0510

> <Gold.Chemscore.DEInternal.Weighted>
0.4429

> <Gold.Chemscore.Rot.Weighted>
4.2227

> <Gold.Chemscore.Internal.Correction.Weighted>
   9.000000E+99

> <Gold.Protein.RotatedTorsions>
[ 6907 6896 6895 6894 ] final -123.26 input  -60.11 | X-H torsion
[ 7974 7965 7964 7962 ] final   22.12 input  175.53 | X-H torsion
[ 8008 7997 7996 7995 ] final  154.41 input   59.86 | X-H torsion
[ 10167 10162 10161 10158 ] final  -90.45 input  -65.29 | X-H torsion
[ 10718 10713 10712 10709 ] final -165.62 input   66.30 | X-H torsion
[ 10763 10752 10751 10750 ] final   73.72 input  -60.55 | X-H torsion
[ 11005 11000 10999 10996 ] final  -67.91 input  -57.11 | X-H torsion

> <Gold.Protein.ActiveResidues>
 VAL166  LYS551  ARG553  GLY616  TRP617  ASP618  TYR619  PRO620  LYS621  CYS622 
 ASP623  PHE694  ASN695  SER759  ASP760  ASP761  ALA762  ILE779  LEU786  VAL792 
 PHE793  MET794  SER795  GLU796  ALA797  LYS798  CYS799  TRP800  GLU811  SER814 

> <Gold.Protein.RotatedAtoms>
  150.8654  133.7582  159.2978 H   0  0  0  0  0  0  0  0  0  0  0  0  # atno 6907 bound_to 6896
  151.5211  135.1065  159.9888 H   0  0  0  0  0  0  0  0  0  0  0  0  # atno 6908 bound_to 6896
  152.4657  133.7873  159.6939 H   0  0  0  0  0  0  0  0  0  0  0  0  # atno 6909 bound_to 6896
  146.2042  139.7930  142.8738 H   0  0  0  0  0  0  0  0  0  0  0  0  # atno 7974 bound_to 7965
  156.2533  140.1967  156.6641 H   0  0  0  0  0  0  0  0  0  0  0  0  # atno 8008 bound_to 7997
  154.6442  140.0580  156.9906 H   0  0  0  0  0  0  0  0  0  0  0  0  # atno 8009 bound_to 7997
  155.1516  140.3252  155.4432 H   0  0  0  0  0  0  0  0  0  0  0  0  # atno 8010 bound_to 7997
  140.3548  143.2872  151.9684 H   0  0  0  0  0  0  0  0  0  0  0  0  # atno 10167 bound_to 10162
  156.6561  130.9027  151.3021 H   0  0  0  0  0  0  0  0  0  0  0  0  # atno 10718 bound_to 10713
  153.0540  135.5052  154.7936 H   0  0  0  0  0  0  0  0  0  0  0  0  # atno 10763 bound_to 10752
  154.6776  135.2963  154.9659 H   0  0  0  0  0  0  0  0  0  0  0  0  # atno 10764 bound_to 10752
  154.0456  135.6711  153.4847 H   0  0  0  0  0  0  0  0  0  0  0  0  # atno 10765 bound_to 10752
  141.1519  133.6729  156.6365 H   0  0  0  0  0  0  0  0  0  0  0  0  # atno 11005 bound_to 11000
  145.3377  141.0281  143.3410 LP  0  0  0  0  0  0  0  0  0  0  0  0  # atno 17320 bound_to 7965
  144.8754  139.4979  143.6748 LP  0  0  0  0  0  0  0  0  0  0  0  0  # atno 17321 bound_to 7965
  139.4821  144.6045  151.7547 LP  0  0  0  0  0  0  0  0  0  0  0  0  # atno 17342 bound_to 10162
  140.5184  144.0917  150.6015 LP  0  0  0  0  0  0  0  0  0  0  0  0  # atno 17343 bound_to 10162
  157.7125  130.9457  150.1138 LP  0  0  0  0  0  0  0  0  0  0  0  0  # atno 17370 bound_to 10713
  156.2047  130.3662  149.8745 LP  0  0  0  0  0  0  0  0  0  0  0  0  # atno 17371 bound_to 10713
  140.3426  134.7836  157.4409 LP  0  0  0  0  0  0  0  0  0  0  0  0  # atno 17394 bound_to 11000
  140.0925  134.5581  155.8430 LP  0  0  0  0  0  0  0  0  0  0  0  0  # atno 17395 bound_to 11000

$$$$
