AV-unprocessed.smi:3303|AV-procd|sdf|12678|dock9
  -GOLD-   2272019 13D 1   1.00000     0.00000
 Structure written by MMmdl.
 44 45  0  0  0  0  0  0  0  0  2 V2000
  147.3419  141.4186  154.2214 C   0  0  0  0  0  0  0  0  0  0  0  0
  148.7434  140.7860  154.1941 C   0  0  1  0  0  0  0  0  0  0  0  0
  149.5047  141.1420  155.4881 C   0  0  0  0  0  0  0  0  0  0  0  0
  150.8413  140.5479  155.4849 N   0  0  0  0  0  0  0  0  0  0  0  0
  151.6223  141.0443  156.6111 C   0  0  0  0  0  0  0  0  0  0  0  0
  150.8181  139.0795  155.4108 C   0  0  1  0  0  0  0  0  0  0  0  0
  150.2277  138.3804  156.6570 C   0  0  0  0  0  0  0  0  0  0  0  0
  150.1056  138.6658  154.1072 C   0  0  0  0  0  0  0  0  0  0  0  0
  148.6880  139.2558  153.9944 C   0  0  2  0  0  0  0  0  0  0  0  0
  148.1168  138.9211  152.6707 N   0  3  0  0  0  0  0  0  0  0  0  0
  146.6422  138.9455  152.6068 C   0  0  0  0  0  0  0  0  0  0  0  0
  146.0398  137.7467  153.3520 C   0  0  0  0  0  0  0  0  0  0  0  0
  145.4389  136.7259  152.4046 C   0  0  0  0  0  0  0  0  0  0  0  0
  144.1840  136.1407  152.6772 C   0  0  0  0  0  0  0  0  0  0  0  0
  143.6751  135.1922  151.7687 C   0  0  0  0  0  0  0  0  0  0  0  0
  144.4365  134.8681  150.6294 C   0  0  0  0  0  0  0  0  0  0  0  0
  145.6794  135.5072  150.4492 C   0  0  0  0  0  0  0  0  0  0  0  0
  146.1777  136.4165  151.3154 N   0  0  0  0  0  0  0  0  0  0  0  0
  146.7380  141.0072  155.0309 H   0  0  0  0  0  0  0  0  0  0  0  0
  146.8055  141.2513  153.2872 H   0  0  0  0  0  0  0  0  0  0  0  0
  147.4035  142.4971  154.3703 H   0  0  0  0  0  0  0  0  0  0  0  0
  149.2909  141.2226  153.3570 H   0  0  0  0  0  0  0  0  0  0  0  0
  149.6006  142.2265  155.5562 H   0  0  0  0  0  0  0  0  0  0  0  0
  148.9456  140.8248  156.3687 H   0  0  0  0  0  0  0  0  0  0  0  0
  152.6206  140.6058  156.6117 H   0  0  0  0  0  0  0  0  0  0  0  0
  151.1450  140.8213  157.5655 H   0  0  0  0  0  0  0  0  0  0  0  0
  151.7375  142.1265  156.5417 H   0  0  0  0  0  0  0  0  0  0  0  0
  151.8551  138.7516  155.3257 H   0  0  0  0  0  0  0  0  0  0  0  0
  150.2387  137.2981  156.5263 H   0  0  0  0  0  0  0  0  0  0  0  0
  149.1960  138.6683  156.8555 H   0  0  0  0  0  0  0  0  0  0  0  0
  150.8100  138.5899  157.5537 H   0  0  0  0  0  0  0  0  0  0  0  0
  150.7053  139.0018  153.2595 H   0  0  0  0  0  0  0  0  0  0  0  0
  150.0657  137.5780  154.0347 H   0  0  0  0  0  0  0  0  0  0  0  0
  148.0656  138.8238  154.7797 H   0  0  0  0  0  0  0  0  0  0  0  0
  148.4716  139.5886  152.0007 H   0  0  0  0  0  0  0  0  0  0  0  0
  146.2809  139.8803  153.0377 H   0  0  0  0  0  0  0  0  0  0  0  0
  146.3279  138.9258  151.5624 H   0  0  0  0  0  0  0  0  0  0  0  0
  146.8050  137.2626  153.9605 H   0  0  0  0  0  0  0  0  0  0  0  0
  145.2667  138.0850  154.0439 H   0  0  0  0  0  0  0  0  0  0  0  0
  143.6226  136.4091  153.5603 H   0  0  0  0  0  0  0  0  0  0  0  0
  142.7187  134.7213  151.9431 H   0  0  0  0  0  0  0  0  0  0  0  0
  144.0766  134.1464  149.9110 H   0  0  0  0  0  0  0  0  0  0  0  0
  146.2901  135.2812  149.5874 H   0  0  0  0  0  0  0  0  0  0  0  0
  148.4381  138.0009  152.4053 H   0  0  0  0  0  0  0  0  0  0  0  0
  1  2  1  0  0  0  0
  1 19  1  0  0  0  0
  1 20  1  0  0  0  0
  1 21  1  0  0  0  0
  2  9  1  0  0  0  0
  2  3  1  0  0  0  0
  2 22  1  0  0  0  0
  3  4  1  0  0  0  0
  3 23  1  0  0  0  0
  3 24  1  0  0  0  0
  4  5  1  0  0  0  0
  4  6  1  0  0  0  0
  5 25  1  0  0  0  0
  5 26  1  0  0  0  0
  5 27  1  0  0  0  0
  6  7  1  0  0  0  0
  6  8  1  0  0  0  0
  6 28  1  0  0  0  0
  7 29  1  0  0  0  0
  7 30  1  0  0  0  0
  7 31  1  0  0  0  0
  8  9  1  0  0  0  0
  8 32  1  0  0  0  0
  8 33  1  0  0  0  0
  9 10  1  0  0  0  0
  9 34  1  0  0  0  0
 10 11  1  0  0  0  0
 10 35  1  0  0  0  0
 10 44  1  0  0  0  0
 11 12  1  0  0  0  0
 11 36  1  0  0  0  0
 11 37  1  0  0  0  0
 12 13  1  0  0  0  0
 12 38  1  0  0  0  0
 12 39  1  0  0  0  0
 13 18  1  0  0  0  0
 13 14  2  0  0  0  0
 14 15  1  0  0  0  0
 14 40  1  0  0  0  0
 15 16  2  0  0  0  0
 15 41  1  0  0  0  0
 16 17  1  0  0  0  0
 16 42  1  0  0  0  0
 17 18  2  0  0  0  0
 17 43  1  0  0  0  0
M  CHG  1  10   1
M  END
> <s_m_source_file>
AV-unprocessed.smi

> <i_m_source_file_index>
3303

> <i_lp_mmshare_version>
43012

> <i_f3d_flags>
0

> <s_epik_input>
W0NIM11bQ0BASF0xW0NIMl1OKFtDSDNdKVtDQEBIXShbQ0gzXSlbQ0gyXVtDQEhdMVtOSF1bQ0gyXVtDSDJdYzJbY0hdW2NIXVtjSF1bY0hdbjI=

> <s_epik_cmdline>
J2VwaWtfcHl0aG9uJywgJy1waCcsICc3LjAnLCAnLXRuJywgJzgnLCAnLW1hJywgJzIwMCcsICctbWV0YWxfYmluZGluZycsICctaW1hZScsICc8aW5maWxlLm1hZT4nLCAnLW9tYWUnLCAnPG91dGZpbGUubWFlPic=

> <r_epik_Ionization_Penalty>
1.37325

> <r_epik_Ionization_Penalty_Charging>
0.000251572

> <r_epik_Ionization_Penalty_Neutral>
1.373

> <r_epik_State_Penalty>
1.46343

> <r_epik_Charging_Adjusted_Penalty>
1.46368

> <i_epik_Tot_Q>
1

> <i_epik_Tot_abs_Q>
1

> <r_epik_Metal_State_Penalty>
1.46331

> <b_epik_Metal_Only>
0

> <s_lp_Force_Field>
OPLS_2005

> <r_lp_Energy>
23.1884

> <b_lp_Chiralities_Consistent>
1

> <s_lp_Variant>
AV-unprocessed.smi:3303-22

> <Gold.Version>
5.8.1

> <Gold.Id.Protein>
6NUR|6NUR_protein|mol2

> <Gold.PLP.Fitness>
45.4739

> <Gold.PLP.PLP>
-32.2328

> <Gold.PLP.part.hbond>
-2.7953

> <Gold.PLP.part.metal>
0.0000

> <Gold.PLP.part.buried>
-4.5315

> <Gold.PLP.part.nonpolar>
-26.7401

> <Gold.PLP.part.repulsive>
0.9240

> <Gold.PLP.ligand.clash>
0.0000

> <Gold.PLP.ligand.torsion>
0.8131

> <Gold.PLP.Chemscore.Hbond>
3.9513

> <Gold.PLP.Chemscore.CHOScore>
1.0000

> <Gold.PLP.Chemscore.Metal>
0.0000

> <Gold.Chemscore.Hbonds>
donor molecule, donor type, donor heavy atom, donor atom, acceptor molecule, acceptor atom, score
      L1  H    10    35       P1  7957  0.81
      L1  H    10    44       P1  7948  2.00
      P1  H  7989  7998       L1     4  0.54
      L1  C    17    43       P1  7921  0.92

> <Gold.PLP.Chemscore.Internal.Correction>
0.0135

> <Gold.Rescore>
     Score         DG    S(hbond)    S(metal)    S(lipo)     H(rot)  DE(clash)    DE(int)     intcor
     17.64     -18.69       1.99        0.00      85.09       1.33       0.11       0.94       ----

> <Gold.Chemscore.Fitness>
17.6380

> <Gold.Chemscore.DG>
-18.6885

> <Gold.Chemscore.ZeroCoef>
-5.4800

> <Gold.Chemscore.Hbond>
1.9931

> <Gold.Chemscore.Metal>
0.0000

> <Gold.Chemscore.Lipo>
85.0921

> <Gold.Chemscore.Internal_Hbond>
0.0000

> <Gold.Chemscore.DEClash>
0.1117

> <Gold.Chemscore.DEInternal>
0.9388

> <Gold.Chemscore.Rot>
1.3298

> <Gold.Chemscore.Internal.Correction>
   9.000000E+99

> <Gold.Chemscore.Hbonds>
donor molecule, donor type, donor heavy atom, donor atom, acceptor molecule, acceptor atom, score
      L1  H    10    35       P1  7957  0.76
      L1  H    10    44       P1  7948  1.00
      P1  H  7989  7998       L1     4  0.05

> <Gold.Chemscore.Hbond.Weighted>
-6.6570

> <Gold.Chemscore.Metal.Weighted>
-0.0000

> <Gold.Chemscore.Lipo.Weighted>
-9.9558

> <Gold.Chemscore.Internal_Hbond.Weighted>
0.0000

> <Gold.Chemscore.DEClash.Weighted>
0.1117

> <Gold.Chemscore.DEInternal.Weighted>
0.9388

> <Gold.Chemscore.Rot.Weighted>
3.4043

> <Gold.Chemscore.Internal.Correction.Weighted>
   9.000000E+99

> <Gold.Protein.RotatedTorsions>
[ 6907 6896 6895 6894 ] final  -72.63 input  -60.11 | X-H torsion
[ 7974 7965 7964 7962 ] final   13.25 input  175.53 | X-H torsion
[ 8008 7997 7996 7995 ] final   11.87 input   59.86 | X-H torsion
[ 10167 10162 10161 10158 ] final  -79.25 input  -65.29 | X-H torsion
[ 10718 10713 10712 10709 ] final -128.68 input   66.30 | X-H torsion
[ 10763 10752 10751 10750 ] final  -61.81 input  -60.55 | X-H torsion
[ 11005 11000 10999 10996 ] final  -78.16 input  -57.11 | X-H torsion

> <Gold.Protein.ActiveResidues>
 VAL166  LYS551  ARG553  GLY616  TRP617  ASP618  TYR619  PRO620  LYS621  CYS622 
 ASP623  PHE694  ASN695  SER759  ASP760  ASP761  ALA762  ILE779  LEU786  VAL792 
 PHE793  MET794  SER795  GLU796  ALA797  LYS798  CYS799  TRP800  GLU811  SER814 

> <Gold.Protein.RotatedAtoms>
  150.7162  134.5135  159.5618 H   0  0  0  0  0  0  0  0  0  0  0  0  # atno 6907 bound_to 6896
  152.2706  134.7934  160.0424 H   0  0  0  0  0  0  0  0  0  0  0  0  # atno 6908 bound_to 6896
  151.8615  133.3423  159.3742 H   0  0  0  0  0  0  0  0  0  0  0  0  # atno 6909 bound_to 6896
  146.2333  139.9216  142.8509 H   0  0  0  0  0  0  0  0  0  0  0  0  # atno 7974 bound_to 7965
  154.8128  140.2871  155.5841 H   0  0  0  0  0  0  0  0  0  0  0  0  # atno 8008 bound_to 7997
  156.2990  140.2565  156.2950 H   0  0  0  0  0  0  0  0  0  0  0  0  # atno 8009 bound_to 7997
  154.9427  140.0381  157.2094 H   0  0  0  0  0  0  0  0  0  0  0  0  # atno 8010 bound_to 7997
  140.4610  143.2454  151.8349 H   0  0  0  0  0  0  0  0  0  0  0  0  # atno 10167 bound_to 10162
  156.1974  130.6835  151.0498 H   0  0  0  0  0  0  0  0  0  0  0  0  # atno 10718 bound_to 10713
  154.2903  135.6255  153.5382 H   0  0  0  0  0  0  0  0  0  0  0  0  # atno 10763 bound_to 10752
  152.9853  135.5654  154.5398 H   0  0  0  0  0  0  0  0  0  0  0  0  # atno 10764 bound_to 10752
  154.5007  135.2872  155.1399 H   0  0  0  0  0  0  0  0  0  0  0  0  # atno 10765 bound_to 10752
  141.1663  133.7052  156.7929 H   0  0  0  0  0  0  0  0  0  0  0  0  # atno 11005 bound_to 11000
  145.2131  140.9904  143.4089 LP  0  0  0  0  0  0  0  0  0  0  0  0  # atno 17320 bound_to 7965
  144.9674  139.3916  143.6326 LP  0  0  0  0  0  0  0  0  0  0  0  0  # atno 17321 bound_to 7965
  139.4806  144.5008  151.9063 LP  0  0  0  0  0  0  0  0  0  0  0  0  # atno 17342 bound_to 10162
  140.4093  144.2390  150.5889 LP  0  0  0  0  0  0  0  0  0  0  0  0  # atno 17343 bound_to 10162
  157.6966  131.0792  150.6951 LP  0  0  0  0  0  0  0  0  0  0  0  0  # atno 17370 bound_to 10713
  156.7007  130.4622  149.5573 LP  0  0  0  0  0  0  0  0  0  0  0  0  # atno 17371 bound_to 10713
  140.2312  134.8684  157.3478 LP  0  0  0  0  0  0  0  0  0  0  0  0  # atno 17394 bound_to 11000
  140.1889  134.4396  155.7727 LP  0  0  0  0  0  0  0  0  0  0  0  0  # atno 17395 bound_to 11000

$$$$
