AV-unprocessed.smi:36|AV-procd|sdf|286|dock9
  -GOLD-   2262016 63D 1   1.00000     0.00000
 Structure written by MMmdl.
 64 67  0  0  0  0  0  0  0  0  1 V2000
  155.3470  128.0879  166.2527 C   0  0  0  0  0  0  0  0  0  0  0  0
  154.3904  129.2726  166.0370 C   0  0  0  0  0  0  0  0  0  0  0  0
  153.6570  129.1152  164.6943 C   0  0  0  0  0  0  0  0  0  0  0  0
  153.3657  129.3328  167.1819 C   0  0  0  0  0  0  0  0  0  0  0  0
  155.3910  130.8998  166.0110 Si  0  0  0  0  0  0  0  0  0  0  0  0
  156.2447  131.2115  167.6793 C   0  0  0  0  0  0  0  0  0  0  0  0
  156.6853  130.8853  164.6197 C   0  0  0  0  0  0  0  0  0  0  0  0
  154.3099  132.1685  165.7231 O   0  0  0  0  0  0  0  0  0  0  0  0
  154.6634  133.5315  165.8298 C   0  0  0  0  0  0  0  0  0  0  0  0
  154.4708  134.2168  164.4716 C   0  0  1  0  0  0  0  0  0  0  0  0
  155.2017  135.4402  164.4453 O   0  0  0  0  0  0  0  0  0  0  0  0
  155.7083  135.6735  163.1644 C   0  0  2  0  0  0  0  0  0  0  0  0
  155.1670  136.9766  162.6808 N   0  0  0  0  0  0  0  0  0  0  0  0
  154.2282  137.2063  161.6984 C   0  0  0  0  0  0  0  0  0  0  0  0
  153.9346  138.4622  161.4903 N   0  0  0  0  0  0  0  0  0  0  0  0
  154.7347  139.1494  162.3950 C   0  0  0  0  0  0  0  0  0  0  0  0
  154.9146  140.5228  162.7044 C   0  0  0  0  0  0  0  0  0  0  0  0
  154.1998  141.4667  162.0480 N   0  0  0  0  0  0  0  0  0  0  0  0
  153.8278  141.4961  160.6445 C   0  0  0  0  0  0  0  0  0  0  0  0
  154.0581  140.5541  159.8856 O   0  0  0  0  0  0  0  0  0  0  0  0
  153.0664  142.7072  160.1901 C   0  0  0  0  0  0  0  0  0  0  0  0
  152.5567  143.6199  161.1411 C   0  0  0  0  0  0  0  0  0  0  0  0
  151.8212  144.7467  160.7251 C   0  0  0  0  0  0  0  0  0  0  0  0
  151.5822  144.9664  159.3553 C   0  0  0  0  0  0  0  0  0  0  0  0
  152.0778  144.0573  158.4016 C   0  0  0  0  0  0  0  0  0  0  0  0
  152.8137  142.9302  158.8164 C   0  0  0  0  0  0  0  0  0  0  0  0
  155.8126  140.8322  163.6769 N   0  0  0  0  0  0  0  0  0  0  0  0
  156.4882  139.8635  164.3025 C   0  0  0  0  0  0  0  0  0  0  0  0
  156.4173  138.5434  164.1177 N   0  0  0  0  0  0  0  0  0  0  0  0
  155.5160  138.2261  163.1439 C   0  0  0  0  0  0  0  0  0  0  0  0
  155.2284  134.5323  162.2673 C   0  0  0  0  0  0  0  0  0  0  0  0
  155.0227  133.4281  163.2813 C   0  0  2  0  0  0  0  0  0  0  0  0
  154.1076  132.4648  162.8006 O   0  0  0  0  0  0  0  0  0  0  0  0
  154.8066  127.1410  166.2723 H   0  0  0  0  0  0  0  0  0  0  0  0
  155.8849  128.1783  167.1967 H   0  0  0  0  0  0  0  0  0  0  0  0
  156.0887  128.0255  165.4560 H   0  0  0  0  0  0  0  0  0  0  0  0
  154.3583  129.0615  163.8613 H   0  0  0  0  0  0  0  0  0  0  0  0
  152.9880  129.9558  164.5079 H   0  0  0  0  0  0  0  0  0  0  0  0
  153.0561  128.2053  164.6750 H   0  0  0  0  0  0  0  0  0  0  0  0
  152.7598  128.4268  167.2195 H   0  0  0  0  0  0  0  0  0  0  0  0
  152.6870  130.1780  167.0621 H   0  0  0  0  0  0  0  0  0  0  0  0
  153.8561  129.4393  168.1497 H   0  0  0  0  0  0  0  0  0  0  0  0
  156.9345  130.4069  167.9332 H   0  0  0  0  0  0  0  0  0  0  0  0
  155.5218  131.2892  168.4909 H   0  0  0  0  0  0  0  0  0  0  0  0
  156.8188  132.1376  167.6674 H   0  0  0  0  0  0  0  0  0  0  0  0
  157.3936  130.0658  164.7401 H   0  0  0  0  0  0  0  0  0  0  0  0
  157.2621  131.8097  164.6009 H   0  0  0  0  0  0  0  0  0  0  0  0
  156.2208  130.7730  163.6406 H   0  0  0  0  0  0  0  0  0  0  0  0
  154.0345  134.0073  166.5829 H   0  0  0  0  0  0  0  0  0  0  0  0
  155.6975  133.6214  166.1639 H   0  0  0  0  0  0  0  0  0  0  0  0
  153.4179  134.4563  164.3108 H   0  0  0  0  0  0  0  0  0  0  0  0
  156.7925  135.7851  163.1995 H   0  0  0  0  0  0  0  0  0  0  0  0
  153.7633  136.4070  161.1396 H   0  0  0  0  0  0  0  0  0  0  0  0
  153.9152  142.2647  162.5966 H   0  0  0  0  0  0  0  0  0  0  0  0
  152.7287  143.4636  162.1966 H   0  0  0  0  0  0  0  0  0  0  0  0
  151.4380  145.4415  161.4578 H   0  0  0  0  0  0  0  0  0  0  0  0
  151.0161  145.8293  159.0368 H   0  0  0  0  0  0  0  0  0  0  0  0
  151.8900  144.2222  157.3507 H   0  0  0  0  0  0  0  0  0  0  0  0
  153.1749  142.2393  158.0684 H   0  0  0  0  0  0  0  0  0  0  0  0
  157.1842  140.1939  165.0596 H   0  0  0  0  0  0  0  0  0  0  0  0
  154.2837  134.8049  161.7924 H   0  0  0  0  0  0  0  0  0  0  0  0
  155.9624  134.2976  161.4962 H   0  0  0  0  0  0  0  0  0  0  0  0
  155.9753  132.9585  163.5308 H   0  0  0  0  0  0  0  0  0  0  0  0
  153.5448  132.2054  163.5146 H   0  0  0  0  0  0  0  0  0  0  0  0
  1  2  1  0  0  0  0
  1 34  1  0  0  0  0
  1 35  1  0  0  0  0
  1 36  1  0  0  0  0
  2  3  1  0  0  0  0
  2  4  1  0  0  0  0
  2  5  1  0  0  0  0
  3 37  1  0  0  0  0
  3 38  1  0  0  0  0
  3 39  1  0  0  0  0
  4 40  1  0  0  0  0
  4 41  1  0  0  0  0
  4 42  1  0  0  0  0
  5  6  1  0  0  0  0
  5  7  1  0  0  0  0
  5  8  1  0  0  0  0
  6 43  1  0  0  0  0
  6 44  1  0  0  0  0
  6 45  1  0  0  0  0
  7 46  1  0  0  0  0
  7 47  1  0  0  0  0
  7 48  1  0  0  0  0
  8  9  1  0  0  0  0
  9 10  1  0  0  0  0
  9 49  1  0  0  0  0
  9 50  1  0  0  0  0
 10 32  1  0  0  0  0
 10 11  1  0  0  0  0
 10 51  1  0  0  0  0
 11 12  1  0  0  0  0
 12 13  1  0  0  0  0
 12 31  1  0  0  0  0
 12 52  1  0  0  0  0
 13 30  1  0  0  0  0
 13 14  1  0  0  0  0
 14 15  2  0  0  0  0
 14 53  1  0  0  0  0
 15 16  1  0  0  0  0
 16 30  2  0  0  0  0
 16 17  1  0  0  0  0
 17 18  1  0  0  0  0
 17 27  2  0  0  0  0
 18 19  1  0  0  0  0
 18 54  1  0  0  0  0
 19 20  2  0  0  0  0
 19 21  1  0  0  0  0
 21 26  1  0  0  0  0
 21 22  2  0  0  0  0
 22 23  1  0  0  0  0
 22 55  1  0  0  0  0
 23 24  2  0  0  0  0
 23 56  1  0  0  0  0
 24 25  1  0  0  0  0
 24 57  1  0  0  0  0
 25 26  2  0  0  0  0
 25 58  1  0  0  0  0
 26 59  1  0  0  0  0
 27 28  1  0  0  0  0
 28 29  2  0  0  0  0
 28 60  1  0  0  0  0
 29 30  1  0  0  0  0
 31 32  1  0  0  0  0
 31 61  1  0  0  0  0
 31 62  1  0  0  0  0
 32 33  1  0  0  0  0
 32 63  1  0  0  0  0
 33 64  1  0  0  0  0
M  END
> <s_m_source_file>
AV-unprocessed.smi

> <i_m_source_file_index>
36

> <i_lp_mmshare_version>
43012

> <i_f3d_flags>
0

> <s_epik_input>
W0NIM11DKFtDSDNdKShbQ0gzXSlbU2ldKFtDSDNdKShbQ0gzXSlPW0NIMl1bQ0BASF0xT1tDQEhdKFtDSDJdW0NASF0xW09IXSluKFtjSF1uMiljKGMyMyluW2NIXW5jM1tOSF1DKD1PKWM0W2NIXVtjSF1bY0hdW2NIXVtjSF00

> <s_epik_cmdline>
J2VwaWtfcHl0aG9uJywgJy1waCcsICc3LjAnLCAnLXRuJywgJzgnLCAnLW1hJywgJzIwMCcsICctbWV0YWxfYmluZGluZycsICctaW1hZScsICc8aW5maWxlLm1hZT4nLCAnLW9tYWUnLCAnPG91dGZpbGUubWFlPic=

> <r_lp_tautomer_probability>
1

> <r_epik_Ionization_Penalty>
0.00150433

> <r_epik_Ionization_Penalty_Charging>
0

> <r_epik_Ionization_Penalty_Neutral>
0.00150433

> <r_epik_State_Penalty>
0.00724046

> <r_epik_Charging_Adjusted_Penalty>
0.00724046

> <i_epik_Tot_Q>
0

> <i_epik_Tot_abs_Q>
0

> <r_epik_Metal_State_Penalty>
0.323355

> <b_epik_Metal_Only>
0

> <s_epik_Chemistry_Notes>
This compound contains an acetal/aminal-like group ( X-CH(R)-Y where X, Y are N, S, or O) that may be acid/base labile, releasing an aldehyde.

> <s_lp_Force_Field>
OPLS_2005

> <r_lp_Energy>
35.7954

> <b_lp_Chiralities_Consistent>
1

> <s_lp_Variant>
AV-unprocessed.smi:36-8

> <Gold.Version>
5.8.1

> <Gold.Id.Protein>
6NUR|6NUR_protein|mol2

> <Gold.PLP.Fitness>
53.3894

> <Gold.PLP.PLP>
-55.5095

> <Gold.PLP.part.hbond>
-1.8388

> <Gold.PLP.part.metal>
0.0000

> <Gold.PLP.part.buried>
-6.3411

> <Gold.PLP.part.nonpolar>
-46.8206

> <Gold.PLP.part.repulsive>
0.1012

> <Gold.PLP.ligand.clash>
0.0000

> <Gold.PLP.ligand.torsion>
1.1107

> <Gold.PLP.Chemscore.Hbond>
0.0000

> <Gold.PLP.Chemscore.CHOScore>
0.0000

> <Gold.PLP.Chemscore.Metal>
0.0000

> <Gold.PLP.Chemscore.Internal.Correction>
0.1014

> <Gold.Rescore>
     Score         DG    S(hbond)    S(metal)    S(lipo)     H(rot)  DE(clash)    DE(int)     intcor
      7.73     -13.69       0.00        0.00     129.37       2.70       0.85       5.11       ----

> <Gold.Chemscore.Fitness>
7.7280

> <Gold.Chemscore.DG>
-13.6941

> <Gold.Chemscore.ZeroCoef>
-5.4800

> <Gold.Chemscore.Hbond>
0.0000

> <Gold.Chemscore.Metal>
0.0000

> <Gold.Chemscore.Lipo>
129.3723

> <Gold.Chemscore.Internal_Hbond>
0.0000

> <Gold.Chemscore.DEClash>
0.8513

> <Gold.Chemscore.DEInternal>
5.1148

> <Gold.Chemscore.Rot>
2.7041

> <Gold.Chemscore.Internal.Correction>
   9.000000E+99

> <Gold.Chemscore.Hbond.Weighted>
-0.0000

> <Gold.Chemscore.Metal.Weighted>
-0.0000

> <Gold.Chemscore.Lipo.Weighted>
-15.1366

> <Gold.Chemscore.Internal_Hbond.Weighted>
0.0000

> <Gold.Chemscore.DEClash.Weighted>
0.8513

> <Gold.Chemscore.DEInternal.Weighted>
5.1148

> <Gold.Chemscore.Rot.Weighted>
6.9225

> <Gold.Chemscore.Internal.Correction.Weighted>
   9.000000E+99

> <Gold.Protein.RotatedTorsions>
[ 6907 6896 6895 6894 ] final  -57.46 input  -60.11 | X-H torsion
[ 7974 7965 7964 7962 ] final  150.59 input  175.53 | X-H torsion
[ 8008 7997 7996 7995 ] final  132.80 input   59.86 | X-H torsion
[ 10167 10162 10161 10158 ] final   75.29 input  -65.29 | X-H torsion
[ 10718 10713 10712 10709 ] final  169.70 input   66.30 | X-H torsion
[ 10763 10752 10751 10750 ] final -107.51 input  -60.55 | X-H torsion
[ 11005 11000 10999 10996 ] final -174.44 input  -57.11 | X-H torsion

> <Gold.Protein.ActiveResidues>
 VAL166  LYS551  ARG553  GLY616  TRP617  ASP618  TYR619  PRO620  LYS621  CYS622 
 ASP623  PHE694  ASN695  SER759  ASP760  ASP761  ALA762  ILE779  LEU786  VAL792 
 PHE793  MET794  SER795  GLU796  ALA797  LYS798  CYS799  TRP800  GLU811  SER814 

> <Gold.Protein.RotatedAtoms>
  150.8084  134.7224  159.6665 H   0  0  0  0  0  0  0  0  0  0  0  0  # atno 6907 bound_to 6896
  152.4204  134.5962  159.9997 H   0  0  0  0  0  0  0  0  0  0  0  0  # atno 6908 bound_to 6896
  151.6179  133.3304  159.3117 H   0  0  0  0  0  0  0  0  0  0  0  0  # atno 6909 bound_to 6896
  144.8353  139.6428  143.6040 H   0  0  0  0  0  0  0  0  0  0  0  0  # atno 7974 bound_to 7965
  156.2986  140.2537  156.3148 H   0  0  0  0  0  0  0  0  0  0  0  0  # atno 8008 bound_to 7997
  154.9291  140.0399  157.2058 H   0  0  0  0  0  0  0  0  0  0  0  0  # atno 8009 bound_to 7997
  154.8235  140.2864  155.5775 H   0  0  0  0  0  0  0  0  0  0  0  0  # atno 8010 bound_to 7997
  140.0046  144.5660  150.7709 H   0  0  0  0  0  0  0  0  0  0  0  0  # atno 10167 bound_to 10162
  157.0188  131.0226  151.2781 H   0  0  0  0  0  0  0  0  0  0  0  0  # atno 10718 bound_to 10713
  154.8079  135.4672  154.0441 H   0  0  0  0  0  0  0  0  0  0  0  0  # atno 10763 bound_to 10752
  153.1895  135.6853  153.8378 H   0  0  0  0  0  0  0  0  0  0  0  0  # atno 10764 bound_to 10752
  153.7901  135.3244  155.3355 H   0  0  0  0  0  0  0  0  0  0  0  0  # atno 10765 bound_to 10752
  140.4745  134.6134  157.4895 H   0  0  0  0  0  0  0  0  0  0  0  0  # atno 11005 bound_to 11000
  146.2653  139.6504  142.9334 LP  0  0  0  0  0  0  0  0  0  0  0  0  # atno 17320 bound_to 7965
  145.4807  141.0438  143.2647 LP  0  0  0  0  0  0  0  0  0  0  0  0  # atno 17321 bound_to 7965
  140.7405  143.2806  151.3610 LP  0  0  0  0  0  0  0  0  0  0  0  0  # atno 17342 bound_to 10162
  139.6248  144.0836  152.2424 LP  0  0  0  0  0  0  0  0  0  0  0  0  # atno 17343 bound_to 10162
  157.5265  130.8031  149.7868 LP  0  0  0  0  0  0  0  0  0  0  0  0  # atno 17370 bound_to 10713
  156.0109  130.3833  150.2267 LP  0  0  0  0  0  0  0  0  0  0  0  0  # atno 17371 bound_to 10713
  139.9865  134.7054  155.9766 LP  0  0  0  0  0  0  0  0  0  0  0  0  # atno 17394 bound_to 11000
  141.1561  133.6543  156.4166 LP  0  0  0  0  0  0  0  0  0  0  0  0  # atno 17395 bound_to 11000

$$$$
