AV-unprocessed.smi:193|AV-procd|sdf|1500|dock4
  -GOLD-   2262019323D 1   1.00000     0.00000
 Structure written by MMmdl.
 62 66  0  0  0  0  0  0  0  0  2 V2000
  150.5811  133.3491  155.3664 C   0  0  0  0  0  0  0  0  0  0  0  0
  149.9378  134.6848  154.9599 C   0  0  2  0  0  0  0  0  0  0  0  0
  150.3672  135.7847  155.9538 C   0  0  0  0  0  0  0  0  0  0  0  0
  150.2731  137.1480  155.4263 N   0  0  0  0  0  0  0  0  0  0  0  0
  150.9304  138.1353  156.0898 C   0  0  0  0  0  0  0  0  0  0  0  0
  151.9367  137.8028  156.9417 N   0  0  0  0  0  0  0  0  0  0  0  0
  152.5889  138.7503  157.6215 C   0  0  0  0  0  0  0  0  0  0  0  0
  152.4017  140.0707  157.5998 N   0  0  0  0  0  0  0  0  0  0  0  0
  151.4014  140.4148  156.7396 C   0  0  0  0  0  0  0  0  0  0  0  0
  150.6262  139.5207  155.9474 C   0  0  0  0  0  0  0  0  0  0  0  0
  149.7195  140.2403  155.1766 N   0  0  0  0  0  0  0  0  0  0  0  0
  149.9364  141.4844  155.5051 C   0  0  0  0  0  0  0  0  0  0  0  0
  150.9188  141.6791  156.4493 N   0  0  0  0  0  0  0  0  0  0  0  0
  151.3536  142.9529  157.0024 C   0  0  0  0  0  0  0  0  0  0  0  0
  151.2373  143.0423  158.5452 C   0  0  0  0  0  0  0  0  0  0  0  0
  150.0337  142.4000  158.9276 O   0  0  0  0  0  0  0  0  0  0  0  0
  152.4141  142.3049  159.2153 C   0  0  0  0  0  0  0  0  0  0  0  0
  152.4379  142.5123  160.7402 C   0  0  0  0  0  0  0  0  0  0  0  0
  152.4603  143.9024  161.0412 O   0  0  0  0  0  0  0  0  0  0  0  0
  151.2943  144.5801  160.5903 C   0  0  0  0  0  0  0  0  0  0  0  0
  151.1935  144.4995  159.0566 C   0  0  0  0  0  0  0  0  0  0  0  0
  149.2296  137.5470  154.4819 C   0  0  0  0  0  0  0  0  0  0  0  0
  147.8584  136.9348  154.7954 C   0  0  0  0  0  0  0  0  0  0  0  0
  147.7099  135.6020  154.1639 N   0  3  2  0  0  0  0  0  0  0  0  0
  146.2889  135.2597  153.9183 C   0  0  1  0  0  0  0  0  0  0  0  0
  145.8008  135.6188  152.5321 C   0  0  0  0  0  0  0  0  0  0  0  0
  146.0551  134.1703  152.8860 C   0  0  1  0  0  0  0  0  0  0  0  0
  147.1741  133.4061  152.2020 C   0  0  0  0  0  0  0  0  0  0  0  0
  148.4026  134.5208  154.9070 C   0  0  0  0  0  0  0  0  0  0  0  0
  150.2515  133.0345  156.3573 H   0  0  0  0  0  0  0  0  0  0  0  0
  151.6689  133.4242  155.3860 H   0  0  0  0  0  0  0  0  0  0  0  0
  150.3253  132.5560  154.6630 H   0  0  0  0  0  0  0  0  0  0  0  0
  150.3141  134.9246  153.9640 H   0  0  0  0  0  0  0  0  0  0  0  0
  149.7932  135.7047  156.8781 H   0  0  0  0  0  0  0  0  0  0  0  0
  151.4107  135.6176  156.2266 H   0  0  0  0  0  0  0  0  0  0  0  0
  153.3709  138.4005  158.2793 H   0  0  0  0  0  0  0  0  0  0  0  0
  149.3757  142.2999  155.0715 H   0  0  0  0  0  0  0  0  0  0  0  0
  152.3827  143.1317  156.6872 H   0  0  0  0  0  0  0  0  0  0  0  0
  150.7551  143.7383  156.5386 H   0  0  0  0  0  0  0  0  0  0  0  0
  149.3147  142.8124  158.4737 H   0  0  0  0  0  0  0  0  0  0  0  0
  152.3813  141.2396  158.9829 H   0  0  0  0  0  0  0  0  0  0  0  0
  153.3537  142.6767  158.8041 H   0  0  0  0  0  0  0  0  0  0  0  0
  151.5787  142.0381  161.2168 H   0  0  0  0  0  0  0  0  0  0  0  0
  153.3283  142.0485  161.1647 H   0  0  0  0  0  0  0  0  0  0  0  0
  150.4075  144.1584  161.0659 H   0  0  0  0  0  0  0  0  0  0  0  0
  151.3522  145.6226  160.9040 H   0  0  0  0  0  0  0  0  0  0  0  0
  152.0260  145.0564  158.6247 H   0  0  0  0  0  0  0  0  0  0  0  0
  150.2838  145.0017  158.7261 H   0  0  0  0  0  0  0  0  0  0  0  0
  149.1032  138.6293  154.5124 H   0  0  0  0  0  0  0  0  0  0  0  0
  149.5422  137.3090  153.4646 H   0  0  0  0  0  0  0  0  0  0  0  0
  147.6561  136.8993  155.8671 H   0  0  0  0  0  0  0  0  0  0  0  0
  147.1074  137.6020  154.3711 H   0  0  0  0  0  0  0  0  0  0  0  0
  145.6209  135.3681  154.7712 H   0  0  0  0  0  0  0  0  0  0  0  0
  144.7633  135.9302  152.4299 H   0  0  0  0  0  0  0  0  0  0  0  0
  146.4978  136.1024  151.8497 H   0  0  0  0  0  0  0  0  0  0  0  0
  145.1674  133.5628  153.0520 H   0  0  0  0  0  0  0  0  0  0  0  0
  148.0196  134.0553  151.9732 H   0  0  0  0  0  0  0  0  0  0  0  0
  146.8118  132.9791  151.2667 H   0  0  0  0  0  0  0  0  0  0  0  0
  147.5191  132.5926  152.8402 H   0  0  0  0  0  0  0  0  0  0  0  0
  148.1709  133.5790  154.4082 H   0  0  0  0  0  0  0  0  0  0  0  0
  147.9890  134.4363  155.9132 H   0  0  0  0  0  0  0  0  0  0  0  0
  148.1424  135.6614  153.2531 H   0  0  0  0  0  0  0  0  0  0  0  0
  1  2  1  0  0  0  0
  1 30  1  0  0  0  0
  1 31  1  0  0  0  0
  1 32  1  0  0  0  0
  2 29  1  0  0  0  0
  2  3  1  0  0  0  0
  2 33  1  0  0  0  0
  3  4  1  0  0  0  0
  3 34  1  0  0  0  0
  3 35  1  0  0  0  0
  4  5  1  0  0  0  0
  4 22  1  0  0  0  0
  5 10  1  0  0  0  0
  5  6  2  0  0  0  0
  6  7  1  0  0  0  0
  7  8  2  0  0  0  0
  7 36  1  0  0  0  0
  8  9  1  0  0  0  0
  9 13  1  0  0  0  0
  9 10  2  0  0  0  0
 10 11  1  0  0  0  0
 11 12  2  0  0  0  0
 12 13  1  0  0  0  0
 12 37  1  0  0  0  0
 13 14  1  0  0  0  0
 14 15  1  0  0  0  0
 14 38  1  0  0  0  0
 14 39  1  0  0  0  0
 15 21  1  0  0  0  0
 15 16  1  0  0  0  0
 15 17  1  0  0  0  0
 16 40  1  0  0  0  0
 17 18  1  0  0  0  0
 17 41  1  0  0  0  0
 17 42  1  0  0  0  0
 18 19  1  0  0  0  0
 18 43  1  0  0  0  0
 18 44  1  0  0  0  0
 19 20  1  0  0  0  0
 20 21  1  0  0  0  0
 20 45  1  0  0  0  0
 20 46  1  0  0  0  0
 21 47  1  0  0  0  0
 21 48  1  0  0  0  0
 22 23  1  0  0  0  0
 22 49  1  0  0  0  0
 22 50  1  0  0  0  0
 23 24  1  0  0  0  0
 23 51  1  0  0  0  0
 23 52  1  0  0  0  0
 24 25  1  0  0  0  0
 24 29  1  0  0  0  0
 24 62  1  0  0  0  0
 25 27  1  0  0  0  0
 25 26  1  0  0  0  0
 25 53  1  0  0  0  0
 26 27  1  0  0  0  0
 26 54  1  0  0  0  0
 26 55  1  0  0  0  0
 27 28  1  0  0  0  0
 27 56  1  0  0  0  0
 28 57  1  0  0  0  0
 28 58  1  0  0  0  0
 28 59  1  0  0  0  0
 29 60  1  0  0  0  0
 29 61  1  0  0  0  0
M  CHG  1  24   1
M  END
> <s_m_source_file>
AV-unprocessed.smi

> <i_m_source_file_index>
193

> <i_lp_mmshare_version>
43012

> <i_f3d_flags>
0

> <s_epik_input>
W0NIM11bQ0BASF0xW0NIMl1bQ0BIXTFOKFtDSDJdMilbQ0gyXVtDSDJdTihbQ0gyXVtDQEhdMltDSDNdKWMobltjSF1uMyljKGMzNCluW2NIXW40W0NIMl1DNShbT0hdKVtDSDJdW0NIMl1PW0NIMl1bQ0gyXTU=

> <s_epik_cmdline>
J2VwaWtfcHl0aG9uJywgJy1waCcsICc3LjAnLCAnLXRuJywgJzgnLCAnLW1hJywgJzIwMCcsICctbWV0YWxfYmluZGluZycsICctaW1hZScsICc8aW5maWxlLm1hZT4nLCAnLW9tYWUnLCAnPG91dGZpbGUubWFlPic=

> <r_lp_tautomer_probability>
1

> <r_epik_Ionization_Penalty>
0.0540825

> <r_epik_Ionization_Penalty_Charging>
0.0538476

> <r_epik_Ionization_Penalty_Neutral>
0.000234891

> <r_epik_State_Penalty>
0.0200719

> <r_epik_Charging_Adjusted_Penalty>
0.0739194

> <i_epik_Tot_Q>
1

> <i_epik_Tot_abs_Q>
1

> <r_epik_Metal_State_Penalty>
0.0199414

> <b_epik_Metal_Only>
0

> <s_lp_Force_Field>
OPLS_2005

> <r_lp_Energy>
56.6778

> <b_lp_Chiralities_Consistent>
1

> <s_lp_Variant>
AV-unprocessed.smi:193-5

> <Gold.Version>
5.8.1

> <Gold.Id.Protein>
6NUR|6NUR_protein|mol2

> <Gold.PLP.Fitness>
50.2841

> <Gold.PLP.PLP>
-41.7512

> <Gold.PLP.part.hbond>
-2.7364

> <Gold.PLP.part.metal>
0.0000

> <Gold.PLP.part.buried>
-4.4190

> <Gold.PLP.part.nonpolar>
-36.3088

> <Gold.PLP.part.repulsive>
0.1643

> <Gold.PLP.ligand.clash>
0.0000

> <Gold.PLP.ligand.torsion>
1.0192

> <Gold.PLP.Chemscore.Hbond>
2.0837

> <Gold.PLP.Chemscore.CHOScore>
1.0000

> <Gold.PLP.Chemscore.Metal>
0.0000

> <Gold.Chemscore.Hbonds>
donor molecule, donor type, donor heavy atom, donor atom, acceptor molecule, acceptor atom, score
      L1  H    24    62       P1  7948  2.00
      P1  H  7997  8008       L1     8  0.05
      L1  C    12    37       P1  8028  1.00

> <Gold.PLP.Chemscore.Internal.Correction>
1.3202

> <Gold.Rescore>
     Score         DG    S(hbond)    S(metal)    S(lipo)     H(rot)  DE(clash)    DE(int)     intcor
     12.21     -16.14       1.00        0.00     104.76       1.93       0.19       3.73       ----

> <Gold.Chemscore.Fitness>
12.2140

> <Gold.Chemscore.DG>
-16.1356

> <Gold.Chemscore.ZeroCoef>
-5.4800

> <Gold.Chemscore.Hbond>
0.9991

> <Gold.Chemscore.Metal>
0.0000

> <Gold.Chemscore.Lipo>
104.7593

> <Gold.Chemscore.Internal_Hbond>
0.0000

> <Gold.Chemscore.DEClash>
0.1897

> <Gold.Chemscore.DEInternal>
3.7320

> <Gold.Chemscore.Rot>
1.9290

> <Gold.Chemscore.Internal.Correction>
   9.000000E+99

> <Gold.Chemscore.Hbonds>
donor molecule, donor type, donor heavy atom, donor atom, acceptor molecule, acceptor atom, score
      L1  H    24    62       P1  7948  1.00

> <Gold.Chemscore.Hbond.Weighted>
-3.3371

> <Gold.Chemscore.Metal.Weighted>
-0.0000

> <Gold.Chemscore.Lipo.Weighted>
-12.2568

> <Gold.Chemscore.Internal_Hbond.Weighted>
0.0000

> <Gold.Chemscore.DEClash.Weighted>
0.1897

> <Gold.Chemscore.DEInternal.Weighted>
3.7320

> <Gold.Chemscore.Rot.Weighted>
4.9383

> <Gold.Chemscore.Internal.Correction.Weighted>
   9.000000E+99

> <Gold.Protein.RotatedTorsions>
[ 6907 6896 6895 6894 ] final  112.10 input  -60.11 | X-H torsion
[ 7974 7965 7964 7962 ] final   99.11 input  175.53 | X-H torsion
[ 8008 7997 7996 7995 ] final  -83.05 input   59.86 | X-H torsion
[ 10167 10162 10161 10158 ] final -177.20 input  -65.29 | X-H torsion
[ 10718 10713 10712 10709 ] final -167.87 input   66.30 | X-H torsion
[ 10763 10752 10751 10750 ] final -156.29 input  -60.55 | X-H torsion
[ 11005 11000 10999 10996 ] final   70.87 input  -57.11 | X-H torsion

> <Gold.Protein.ActiveResidues>
 VAL166  LYS551  ARG553  GLY616  TRP617  ASP618  TYR619  PRO620  LYS621  CYS622 
 ASP623  PHE694  ASN695  SER759  ASP760  ASP761  ALA762  ILE779  LEU786  VAL792 
 PHE793  MET794  SER795  GLU796  ALA797  LYS798  CYS799  TRP800  GLU811  SER814 

> <Gold.Protein.RotatedAtoms>
  152.4934  133.8564  159.7227 H   0  0  0  0  0  0  0  0  0  0  0  0  # atno 6907 bound_to 6896
  150.9087  133.7016  159.2867 H   0  0  0  0  0  0  0  0  0  0  0  0  # atno 6908 bound_to 6896
  151.4433  135.1026  159.9729 H   0  0  0  0  0  0  0  0  0  0  0  0  # atno 6909 bound_to 6896
  145.4032  139.2344  143.3289 H   0  0  0  0  0  0  0  0  0  0  0  0  # atno 7974 bound_to 7965
  154.6150  140.0624  156.9542 H   0  0  0  0  0  0  0  0  0  0  0  0  # atno 8008 bound_to 7997
  155.1911  140.3307  155.4340 H   0  0  0  0  0  0  0  0  0  0  0  0  # atno 8009 bound_to 7997
  156.2399  140.1881  156.7001 H   0  0  0  0  0  0  0  0  0  0  0  0  # atno 8010 bound_to 7997
  139.5492  144.2155  152.1045 H   0  0  0  0  0  0  0  0  0  0  0  0  # atno 10167 bound_to 10162
  156.6887  130.9151  151.3066 H   0  0  0  0  0  0  0  0  0  0  0  0  # atno 10718 bound_to 10713
  154.7724  135.3149  154.8162 H   0  0  0  0  0  0  0  0  0  0  0  0  # atno 10763 bound_to 10752
  153.8895  135.6827  153.4766 H   0  0  0  0  0  0  0  0  0  0  0  0  # atno 10764 bound_to 10752
  153.1340  135.4768  154.9328 H   0  0  0  0  0  0  0  0  0  0  0  0  # atno 10765 bound_to 10752
  139.9574  134.7120  156.0722 H   0  0  0  0  0  0  0  0  0  0  0  0  # atno 11005 bound_to 11000
  146.2742  140.4732  142.8802 LP  0  0  0  0  0  0  0  0  0  0  0  0  # atno 17320 bound_to 7965
  144.8360  140.6782  143.6260 LP  0  0  0  0  0  0  0  0  0  0  0  0  # atno 17321 bound_to 7965
  140.1647  144.4993  150.6613 LP  0  0  0  0  0  0  0  0  0  0  0  0  # atno 17342 bound_to 10162
  140.6749  143.2301  151.5532 LP  0  0  0  0  0  0  0  0  0  0  0  0  # atno 17343 bound_to 10162
  157.7017  130.9340  150.0805 LP  0  0  0  0  0  0  0  0  0  0  0  0  # atno 17370 bound_to 10713
  156.1813  130.3650  149.9031 LP  0  0  0  0  0  0  0  0  0  0  0  0  # atno 17371 bound_to 10713
  141.1247  133.6602  156.3306 LP  0  0  0  0  0  0  0  0  0  0  0  0  # atno 17394 bound_to 11000
  140.5578  134.5964  157.5425 LP  0  0  0  0  0  0  0  0  0  0  0  0  # atno 17395 bound_to 11000

$$$$
