AV-unprocessed.smi:276|AV-procd|sdf|2077|dock10
  -GOLD-   2262021343D 1   1.00000     0.00000
 Structure written by MMmdl.
 57 61  0  0  0  0  0  0  0  0  1 V2000
  151.8440  141.5006  157.9359 C   0  0  0  0  0  0  0  0  0  0  0  0
  151.6743  140.5858  156.8679 O   0  0  0  0  0  0  0  0  0  0  0  0
  150.3492  140.5812  156.3607 C   0  0  1  0  0  0  0  0  0  0  0  0
  150.0675  141.6614  155.3093 C   0  0  0  0  0  0  0  0  0  0  0  0
  149.2674  140.6141  154.5095 C   0  0  2  0  0  0  0  0  0  0  0  0
  147.8373  140.6544  154.8477 N   0  0  0  0  0  0  0  0  0  0  0  0
  147.0773  141.7713  154.2943 C   0  0  0  0  0  0  0  0  0  0  0  0
  147.1513  139.5021  154.6771 C   0  0  0  0  0  0  0  0  0  0  0  0
  146.8349  138.8052  155.7968 N   0  0  0  0  0  0  0  0  0  0  0  0
  146.1651  137.6527  155.7007 C   0  0  0  0  0  0  0  0  0  0  0  0
  145.7218  137.0335  154.6047 N   0  0  0  0  0  0  0  0  0  0  0  0
  146.0246  137.7405  153.4785 C   0  0  0  0  0  0  0  0  0  0  0  0
  146.7266  138.9776  153.4221 C   0  0  0  0  0  0  0  0  0  0  0  0
  146.8397  139.3957  152.1010 N   0  0  0  0  0  0  0  0  0  0  0  0
  146.2508  138.4543  151.4157 C   0  0  0  0  0  0  0  0  0  0  0  0
  145.7355  137.4209  152.1639 N   0  0  0  0  0  0  0  0  0  0  0  0
  145.0405  136.2499  151.6595 C   0  0  0  0  0  0  0  0  0  0  0  0
  146.0095  135.1202  151.2603 C   0  0  1  0  0  0  0  0  0  0  0  0
  146.6545  134.6262  152.4190 O   0  0  0  0  0  0  0  0  0  0  0  0
  145.2874  133.9552  150.5595 C   0  0  2  0  0  0  0  0  0  0  0  0
  144.2839  133.2075  151.4394 C   0  0  0  0  0  0  0  0  0  0  0  0
  144.2116  131.8270  150.8065 C   0  0  0  0  0  0  0  0  0  0  0  0
  145.4489  131.7643  149.9067 C   0  0  0  0  0  0  0  0  0  0  0  0
  146.2044  132.9229  150.2309 O   0  0  0  0  0  0  0  0  0  0  0  0
  150.1062  139.5392  155.2541 C   0  0  0  0  0  0  0  0  0  0  0  0
  151.3037  138.8881  154.5376 C   0  0  0  0  0  0  0  0  0  0  0  0
  151.0957  137.6571  155.4242 C   0  0  0  0  0  0  0  0  0  0  0  0
  149.6439  138.1099  155.5976 C   0  0  0  0  0  0  0  0  0  0  0  0
  152.8746  141.4642  158.2883 H   0  0  0  0  0  0  0  0  0  0  0  0
  151.1923  141.2510  158.7741 H   0  0  0  0  0  0  0  0  0  0  0  0
  151.6324  142.5233  157.6209 H   0  0  0  0  0  0  0  0  0  0  0  0
  149.5831  140.5335  157.1377 H   0  0  0  0  0  0  0  0  0  0  0  0
  149.5121  142.5188  155.6881 H   0  0  0  0  0  0  0  0  0  0  0  0
  150.9702  141.9809  154.7857 H   0  0  0  0  0  0  0  0  0  0  0  0
  149.4746  140.6705  153.4409 H   0  0  0  0  0  0  0  0  0  0  0  0
  146.0016  141.5859  154.3009 H   0  0  0  0  0  0  0  0  0  0  0  0
  147.3786  141.9678  153.2646 H   0  0  0  0  0  0  0  0  0  0  0  0
  147.2507  142.6744  154.8786 H   0  0  0  0  0  0  0  0  0  0  0  0
  145.9560  137.1551  156.6361 H   0  0  0  0  0  0  0  0  0  0  0  0
  146.1779  138.4862  150.3382 H   0  0  0  0  0  0  0  0  0  0  0  0
  144.3366  135.9030  152.4172 H   0  0  0  0  0  0  0  0  0  0  0  0
  144.4436  136.5570  150.7999 H   0  0  0  0  0  0  0  0  0  0  0  0
  146.7754  135.5220  150.5952 H   0  0  0  0  0  0  0  0  0  0  0  0
  147.5432  134.9481  152.4280 H   0  0  0  0  0  0  0  0  0  0  0  0
  144.7992  134.2995  149.6454 H   0  0  0  0  0  0  0  0  0  0  0  0
  144.6661  133.1212  152.4576 H   0  0  0  0  0  0  0  0  0  0  0  0
  143.3142  133.7039  151.4865 H   0  0  0  0  0  0  0  0  0  0  0  0
  144.2236  131.0470  151.5685 H   0  0  0  0  0  0  0  0  0  0  0  0
  143.3026  131.7066  150.2161 H   0  0  0  0  0  0  0  0  0  0  0  0
  146.0356  130.8588  150.0633 H   0  0  0  0  0  0  0  0  0  0  0  0
  145.1605  131.8055  148.8553 H   0  0  0  0  0  0  0  0  0  0  0  0
  151.1010  138.6832  153.4849 H   0  0  0  0  0  0  0  0  0  0  0  0
  152.2624  139.3911  154.6666 H   0  0  0  0  0  0  0  0  0  0  0  0
  151.2199  136.7005  154.9160 H   0  0  0  0  0  0  0  0  0  0  0  0
  151.6673  137.7024  156.3527 H   0  0  0  0  0  0  0  0  0  0  0  0
  149.2422  137.9844  156.6034 H   0  0  0  0  0  0  0  0  0  0  0  0
  148.9986  137.6557  154.8463 H   0  0  0  0  0  0  0  0  0  0  0  0
  1  2  1  0  0  0  0
  1 29  1  0  0  0  0
  1 30  1  0  0  0  0
  1 31  1  0  0  0  0
  2  3  1  0  0  0  0
  3 25  1  0  0  0  0
  3  4  1  0  0  0  0
  3 32  1  0  0  0  0
  4  5  1  0  0  0  0
  4 33  1  0  0  0  0
  4 34  1  0  0  0  0
  5  6  1  0  0  0  0
  5 25  1  0  0  0  0
  5 35  1  0  0  0  0
  6  7  1  0  0  0  0
  6  8  1  0  0  0  0
  7 36  1  0  0  0  0
  7 37  1  0  0  0  0
  7 38  1  0  0  0  0
  8 13  1  0  0  0  0
  8  9  2  0  0  0  0
  9 10  1  0  0  0  0
 10 11  2  0  0  0  0
 10 39  1  0  0  0  0
 11 12  1  0  0  0  0
 12 16  1  0  0  0  0
 12 13  2  0  0  0  0
 13 14  1  0  0  0  0
 14 15  2  0  0  0  0
 15 16  1  0  0  0  0
 15 40  1  0  0  0  0
 16 17  1  0  0  0  0
 17 18  1  0  0  0  0
 17 41  1  0  0  0  0
 17 42  1  0  0  0  0
 18 19  1  0  0  0  0
 18 20  1  0  0  0  0
 18 43  1  0  0  0  0
 19 44  1  0  0  0  0
 20 24  1  0  0  0  0
 20 21  1  0  0  0  0
 20 45  1  0  0  0  0
 21 22  1  0  0  0  0
 21 46  1  0  0  0  0
 21 47  1  0  0  0  0
 22 23  1  0  0  0  0
 22 48  1  0  0  0  0
 22 49  1  0  0  0  0
 23 24  1  0  0  0  0
 23 50  1  0  0  0  0
 23 51  1  0  0  0  0
 25 28  1  0  0  0  0
 25 26  1  0  0  0  0
 26 27  1  0  0  0  0
 26 52  1  0  0  0  0
 26 53  1  0  0  0  0
 27 28  1  0  0  0  0
 27 54  1  0  0  0  0
 27 55  1  0  0  0  0
 28 56  1  0  0  0  0
 28 57  1  0  0  0  0
M  END
> <s_m_source_file>
AV-unprocessed.smi

> <i_m_source_file_index>
276

> <i_lp_mmshare_version>
43012

> <i_f3d_flags>
0

> <s_epik_input>
W0NIMl0xW0NIMl1bQ0gyXUMxMltDQEhdKE9bQ0gzXSlbQ0gyXVtDQEhdMk4oW0NIM10pYyhuW2NIXW4zKWMoYzM0KW5bY0hdbjRbQ0gyXVtDQEhdKFtPSF0pW0NAQEhdNVtDSDJdW0NIMl1bQ0gyXU81

> <s_epik_cmdline>
J2VwaWtfcHl0aG9uJywgJy1waCcsICc3LjAnLCAnLXRuJywgJzgnLCAnLW1hJywgJzIwMCcsICctbWV0YWxfYmluZGluZycsICctaW1hZScsICc8aW5maWxlLm1hZT4nLCAnLW9tYWUnLCAnPG91dGZpbGUubWFlPic=

> <r_lp_tautomer_probability>
1

> <r_epik_Ionization_Penalty>
0.00204117

> <r_epik_Ionization_Penalty_Charging>
0

> <r_epik_Ionization_Penalty_Neutral>
0.00204117

> <r_epik_State_Penalty>
0.00127401

> <r_epik_Charging_Adjusted_Penalty>
0.00127401

> <i_epik_Tot_Q>
0

> <i_epik_Tot_abs_Q>
0

> <r_epik_Metal_State_Penalty>
-0

> <b_epik_Metal_Only>
0

> <s_lp_Force_Field>
OPLS_2005

> <r_lp_Energy>
57.0409

> <b_lp_Chiralities_Consistent>
1

> <s_lp_Variant>
AV-unprocessed.smi:276-8

> <Gold.Version>
5.8.1

> <Gold.Id.Protein>
6NUR|6NUR_protein|mol2

> <Gold.PLP.Fitness>
44.8598

> <Gold.PLP.PLP>
-41.3695

> <Gold.PLP.part.hbond>
-1.0000

> <Gold.PLP.part.metal>
0.0000

> <Gold.PLP.part.buried>
-3.0056

> <Gold.PLP.part.nonpolar>
-38.5137

> <Gold.PLP.part.repulsive>
1.5622

> <Gold.PLP.ligand.clash>
0.0057

> <Gold.PLP.ligand.torsion>
0.9672

> <Gold.PLP.Chemscore.Hbond>
1.0000

> <Gold.PLP.Chemscore.CHOScore>
0.5788

> <Gold.PLP.Chemscore.Metal>
0.0000

> <Gold.Chemscore.Hbonds>
donor molecule, donor type, donor heavy atom, donor atom, acceptor molecule, acceptor atom, score
      L1  H    19    44       P1  7948  1.00
      L1  C    15    40       P1 10171  0.56

> <Gold.PLP.Chemscore.Internal.Correction>
0.6941

> <Gold.Rescore>
     Score         DG    S(hbond)    S(metal)    S(lipo)     H(rot)  DE(clash)    DE(int)     intcor
     10.86     -13.81       0.92        0.00     104.32       2.72       0.91       2.04       ----

> <Gold.Chemscore.Fitness>
10.8589

> <Gold.Chemscore.DG>
-13.8079

> <Gold.Chemscore.ZeroCoef>
-5.4800

> <Gold.Chemscore.Hbond>
0.9217

> <Gold.Chemscore.Metal>
0.0000

> <Gold.Chemscore.Lipo>
104.3212

> <Gold.Chemscore.Internal_Hbond>
0.0000

> <Gold.Chemscore.DEClash>
0.9064

> <Gold.Chemscore.DEInternal>
2.0427

> <Gold.Chemscore.Rot>
2.7172

> <Gold.Chemscore.Internal.Correction>
   9.000000E+99

> <Gold.Chemscore.Hbonds>
donor molecule, donor type, donor heavy atom, donor atom, acceptor molecule, acceptor atom, score
      L1  H    19    44       P1  7948  0.92

> <Gold.Chemscore.Hbond.Weighted>
-3.0783

> <Gold.Chemscore.Metal.Weighted>
-0.0000

> <Gold.Chemscore.Lipo.Weighted>
-12.2056

> <Gold.Chemscore.Internal_Hbond.Weighted>
0.0000

> <Gold.Chemscore.DEClash.Weighted>
0.9064

> <Gold.Chemscore.DEInternal.Weighted>
2.0427

> <Gold.Chemscore.Rot.Weighted>
6.9560

> <Gold.Chemscore.Internal.Correction.Weighted>
   9.000000E+99

> <Gold.Protein.RotatedTorsions>
[ 6907 6896 6895 6894 ] final  138.77 input  -60.11 | X-H torsion
[ 7974 7965 7964 7962 ] final -142.05 input  175.53 | X-H torsion
[ 8008 7997 7996 7995 ] final   97.18 input   59.86 | X-H torsion
[ 10167 10162 10161 10158 ] final  108.84 input  -65.29 | X-H torsion
[ 10718 10713 10712 10709 ] final -174.69 input   66.30 | X-H torsion
[ 10763 10752 10751 10750 ] final  166.07 input  -60.55 | X-H torsion
[ 11005 11000 10999 10996 ] final  -57.69 input  -57.11 | X-H torsion

> <Gold.Protein.ActiveResidues>
 VAL166  LYS551  ARG553  GLY616  TRP617  ASP618  TYR619  PRO620  LYS621  CYS622 
 ASP623  PHE694  ASN695  SER759  ASP760  ASP761  ALA762  ILE779  LEU786  VAL792 
 PHE793  MET794  SER795  GLU796  ALA797  LYS798  CYS799  TRP800  GLU811  SER814 

> <Gold.Protein.RotatedAtoms>
  152.2627  133.5312  159.5391 H   0  0  0  0  0  0  0  0  0  0  0  0  # atno 6907 bound_to 6896
  150.7131  134.0807  159.3906 H   0  0  0  0  0  0  0  0  0  0  0  0  # atno 6908 bound_to 6896
  151.8724  135.0484  160.0531 H   0  0  0  0  0  0  0  0  0  0  0  0  # atno 6909 bound_to 6896
  144.8473  140.6005  143.5413 H   0  0  0  0  0  0  0  0  0  0  0  0  # atno 7974 bound_to 7965
  156.0875  140.3262  155.7772 H   0  0  0  0  0  0  0  0  0  0  0  0  # atno 8008 bound_to 7997
  155.5052  140.0572  157.2950 H   0  0  0  0  0  0  0  0  0  0  0  0  # atno 8009 bound_to 7997
  154.4618  140.1970  156.0241 H   0  0  0  0  0  0  0  0  0  0  0  0  # atno 8010 bound_to 7997
  139.6814  144.7118  151.1509 H   0  0  0  0  0  0  0  0  0  0  0  0  # atno 10167 bound_to 10162
  156.7888  130.9510  151.3120 H   0  0  0  0  0  0  0  0  0  0  0  0  # atno 10718 bound_to 10713
  154.3335  135.2754  155.2460 H   0  0  0  0  0  0  0  0  0  0  0  0  # atno 10763 bound_to 10752
  154.4761  135.5870  153.6360 H   0  0  0  0  0  0  0  0  0  0  0  0  # atno 10764 bound_to 10752
  152.9864  135.6100  154.3529 H   0  0  0  0  0  0  0  0  0  0  0  0  # atno 10765 bound_to 10752
  141.1175  133.6611  156.4807 H   0  0  0  0  0  0  0  0  0  0  0  0  # atno 11005 bound_to 11000
  145.4572  139.1517  143.3886 LP  0  0  0  0  0  0  0  0  0  0  0  0  # atno 17320 bound_to 7965
  146.2755  140.4700  142.8797 LP  0  0  0  0  0  0  0  0  0  0  0  0  # atno 17321 bound_to 7965
  140.7653  143.5694  150.9012 LP  0  0  0  0  0  0  0  0  0  0  0  0  # atno 17342 bound_to 10162
  139.9366  143.6431  152.3064 LP  0  0  0  0  0  0  0  0  0  0  0  0  # atno 17343 bound_to 10162
  157.6611  130.8966  149.9831 LP  0  0  0  0  0  0  0  0  0  0  0  0  # atno 17370 bound_to 10713
  156.1172  130.3647  149.9948 LP  0  0  0  0  0  0  0  0  0  0  0  0  # atno 17371 bound_to 10713
  140.4603  134.6847  157.5082 LP  0  0  0  0  0  0  0  0  0  0  0  0  # atno 17394 bound_to 11000
  140.0108  134.6694  155.9384 LP  0  0  0  0  0  0  0  0  0  0  0  0  # atno 17395 bound_to 11000

$$$$
