AV-unprocessed.smi:2498|AV-procd|sdf|9830|dock4
  -GOLD-   2272013463D 1   1.00000     0.00000
 Structure written by MMmdl.
 36 36  0  0  0  0  0  0  0  0  2 V2000
  154.2026  137.6622  158.2901 C   0  0  0  0  0  0  0  0  0  0  0  0
  153.1940  138.7694  158.4107 C   0  0  0  0  0  0  0  0  0  0  0  0
  153.5746  139.9205  158.9378 N   0  0  0  0  0  0  0  0  0  0  0  0
  152.4845  140.7122  158.8688 N   0  0  0  0  0  0  0  0  0  0  0  0
  152.5459  142.0666  159.3906 C   0  0  0  0  0  0  0  0  0  0  0  0
  153.7597  142.3046  159.8869 F   0  0  0  0  0  0  0  0  0  0  0  0
  152.2644  142.9546  158.4355 F   0  0  0  0  0  0  0  0  0  0  0  0
  151.4007  140.0430  158.3338 C   0  0  0  0  0  0  0  0  0  0  0  0
  150.0660  140.6948  158.1698 C   0  0  0  0  0  0  0  0  0  0  0  0
  151.8220  138.7788  158.0176 C   0  0  0  0  0  0  0  0  0  0  0  0
  151.0316  137.6586  157.3859 C   0  0  0  0  0  0  0  0  0  0  0  0
  150.3266  136.8510  158.4755 C   0  0  0  0  0  0  0  0  0  0  0  0
  150.9566  136.5043  159.4736 O   0  0  0  0  0  0  0  0  0  0  0  0
  149.0290  136.5787  158.2427 N   0  0  0  0  0  0  0  0  0  0  0  0
  147.9901  135.9563  159.0752 C   0  0  0  0  0  0  0  0  0  0  0  0
  146.6756  135.9541  158.2645 C   0  0  0  0  0  0  0  0  0  0  0  0
  148.3032  134.5062  159.5304 C   0  0  0  0  0  0  0  0  0  0  0  0
  147.8536  136.8685  160.3168 C   0  0  0  0  0  0  0  0  0  0  0  0
  148.8524  137.0064  161.0585 O   0  0  0  0  0  0  0  0  0  0  0  0
  146.7633  137.4593  160.4880 O   0  5  0  0  0  0  0  0  0  0  0  0
  153.7458  136.7348  157.9463 H   0  0  0  0  0  0  0  0  0  0  0  0
  154.6807  137.4584  159.2484 H   0  0  0  0  0  0  0  0  0  0  0  0
  154.9841  137.9253  157.5766 H   0  0  0  0  0  0  0  0  0  0  0  0
  151.8162  142.2000  160.1893 H   0  0  0  0  0  0  0  0  0  0  0  0
  149.3097  139.9778  157.8519 H   0  0  0  0  0  0  0  0  0  0  0  0
  150.1126  141.4829  157.4183 H   0  0  0  0  0  0  0  0  0  0  0  0
  149.7317  141.1384  159.1078 H   0  0  0  0  0  0  0  0  0  0  0  0
  150.2867  138.0353  156.6847 H   0  0  0  0  0  0  0  0  0  0  0  0
  151.6737  136.9954  156.8057 H   0  0  0  0  0  0  0  0  0  0  0  0
  148.6752  136.9331  157.3661 H   0  0  0  0  0  0  0  0  0  0  0  0
  145.8362  135.6051  158.8674 H   0  0  0  0  0  0  0  0  0  0  0  0
  146.7523  135.2936  157.4004 H   0  0  0  0  0  0  0  0  0  0  0  0
  146.4227  136.9457  157.8859 H   0  0  0  0  0  0  0  0  0  0  0  0
  147.5398  134.1367  160.2165 H   0  0  0  0  0  0  0  0  0  0  0  0
  149.2631  134.4291  160.0431 H   0  0  0  0  0  0  0  0  0  0  0  0
  148.3236  133.8184  158.6848 H   0  0  0  0  0  0  0  0  0  0  0  0
  1  2  1  0  0  0  0
  1 21  1  0  0  0  0
  1 22  1  0  0  0  0
  1 23  1  0  0  0  0
  2 10  1  0  0  0  0
  2  3  2  0  0  0  0
  3  4  1  0  0  0  0
  4  5  1  0  0  0  0
  4  8  1  0  0  0  0
  5  6  1  0  0  0  0
  5  7  1  0  0  0  0
  5 24  1  0  0  0  0
  8  9  1  0  0  0  0
  8 10  2  0  0  0  0
  9 25  1  0  0  0  0
  9 26  1  0  0  0  0
  9 27  1  0  0  0  0
 10 11  1  0  0  0  0
 11 12  1  0  0  0  0
 11 28  1  0  0  0  0
 11 29  1  0  0  0  0
 12 13  2  0  0  0  0
 12 14  1  0  0  0  0
 14 15  1  0  0  0  0
 14 30  1  0  0  0  0
 15 16  1  0  0  0  0
 15 17  1  0  0  0  0
 15 18  1  0  0  0  0
 16 31  1  0  0  0  0
 16 32  1  0  0  0  0
 16 33  1  0  0  0  0
 17 34  1  0  0  0  0
 17 35  1  0  0  0  0
 17 36  1  0  0  0  0
 18 19  2  0  0  0  0
 18 20  1  0  0  0  0
M  CHG  1  20  -1
M  END
> <s_m_source_file>
AV-unprocessed.smi

> <i_m_source_file_index>
2498

> <i_lp_mmshare_version>
43012

> <i_f3d_flags>
0

> <s_epik_input>
W0NIM11jMW5uKFtDSF0oRilGKWMoW0NIM10pYzFbQ0gyXUMoPU8pW05IXUMoW0NIM10pKFtDSDNdKUMoPU8pW09IXQ==

> <s_epik_cmdline>
J2VwaWtfcHl0aG9uJywgJy1waCcsICc3LjAnLCAnLXRuJywgJzgnLCAnLW1hJywgJzIwMCcsICctbWV0YWxfYmluZGluZycsICctaW1hZScsICc8aW5maWxlLm1hZT4nLCAnLW9tYWUnLCAnPG91dGZpbGUubWFlPic=

> <r_lp_tautomer_probability>
1

> <r_epik_Ionization_Penalty>
0.000275972

> <r_epik_Ionization_Penalty_Charging>
0.000275542

> <r_epik_Ionization_Penalty_Neutral>
4.29922e-07

> <r_epik_State_Penalty>
-0

> <r_epik_Charging_Adjusted_Penalty>
0.000275542

> <i_epik_Tot_Q>
-1

> <i_epik_Tot_abs_Q>
1

> <r_epik_Metal_State_Penalty>
-0

> <b_epik_Metal_Only>
0

> <s_lp_Force_Field>
OPLS_2005

> <r_lp_Energy>
1.362

> <b_lp_Chiralities_Consistent>
1

> <s_lp_Variant>
AV-unprocessed.smi:2498-1

> <Gold.Version>
5.8.1

> <Gold.Id.Protein>
6NUR|6NUR_protein|mol2

> <Gold.PLP.Fitness>
41.4336

> <Gold.PLP.PLP>
-25.4832

> <Gold.PLP.part.hbond>
-4.0000

> <Gold.PLP.part.metal>
0.0000

> <Gold.PLP.part.buried>
-3.9597

> <Gold.PLP.part.nonpolar>
-17.8750

> <Gold.PLP.part.repulsive>
0.0578

> <Gold.PLP.ligand.clash>
0.0000

> <Gold.PLP.ligand.torsion>
0.5514

> <Gold.PLP.Chemscore.Hbond>
5.6560

> <Gold.PLP.Chemscore.CHOScore>
0.0000

> <Gold.PLP.Chemscore.Metal>
0.0000

> <Gold.Chemscore.Hbonds>
donor molecule, donor type, donor heavy atom, donor atom, acceptor molecule, acceptor atom, score
      P1  H  6896  6908       L1    13  0.99
      P1  H  6931  6943       L1    19  1.87
      P1  H  6934  6947       L1    20  2.00
      P1  H  7997  8009       L1     3  0.20

> <Gold.PLP.Chemscore.Internal.Correction>
0.0852

> <Gold.Rescore>
     Score         DG    S(hbond)    S(metal)    S(lipo)     H(rot)  DE(clash)    DE(int)     intcor
     12.63     -15.05       3.13        0.00      39.45       2.15       0.06       2.36       ----

> <Gold.Chemscore.Fitness>
12.6288

> <Gold.Chemscore.DG>
-15.0503

> <Gold.Chemscore.ZeroCoef>
-5.4800

> <Gold.Chemscore.Hbond>
3.1314

> <Gold.Chemscore.Metal>
0.0000

> <Gold.Chemscore.Lipo>
39.4500

> <Gold.Chemscore.Internal_Hbond>
0.0000

> <Gold.Chemscore.DEClash>
0.0592

> <Gold.Chemscore.DEInternal>
2.3623

> <Gold.Chemscore.Rot>
2.1501

> <Gold.Chemscore.Internal.Correction>
   9.000000E+99

> <Gold.Chemscore.Hbonds>
donor molecule, donor type, donor heavy atom, donor atom, acceptor molecule, acceptor atom, score
      P1  H  6896  6908       L1    13  0.82
      P1  H  6931  6943       L1    19  0.84
      P1  H  6934  6947       L1    20  0.55

> <Gold.Chemscore.Hbond.Weighted>
-10.4590

> <Gold.Chemscore.Metal.Weighted>
-0.0000

> <Gold.Chemscore.Lipo.Weighted>
-4.6156

> <Gold.Chemscore.Internal_Hbond.Weighted>
0.0000

> <Gold.Chemscore.DEClash.Weighted>
0.0592

> <Gold.Chemscore.DEInternal.Weighted>
2.3623

> <Gold.Chemscore.Rot.Weighted>
5.5043

> <Gold.Chemscore.Internal.Correction.Weighted>
   9.000000E+99

> <Gold.Protein.RotatedTorsions>
[ 6907 6896 6895 6894 ] final -157.77 input  -60.11 | X-H torsion
[ 7974 7965 7964 7962 ] final  117.96 input  175.53 | X-H torsion
[ 8008 7997 7996 7995 ] final  126.95 input   59.86 | X-H torsion
[ 10167 10162 10161 10158 ] final   33.90 input  -65.29 | X-H torsion
[ 10718 10713 10712 10709 ] final  -22.70 input   66.30 | X-H torsion
[ 10763 10752 10751 10750 ] final  -19.06 input  -60.55 | X-H torsion
[ 11005 11000 10999 10996 ] final  -46.48 input  -57.11 | X-H torsion

> <Gold.Protein.ActiveResidues>
 VAL166  LYS551  ARG553  GLY616  TRP617  ASP618  TYR619  PRO620  LYS621  CYS622 
 ASP623  PHE694  ASN695  SER759  ASP760  ASP761  ALA762  ILE779  LEU786  VAL792 
 PHE793  MET794  SER795  GLU796  ALA797  LYS798  CYS799  TRP800  GLU811  SER814 

> <Gold.Protein.RotatedAtoms>
  151.3079  133.4093  159.2644 H   0  0  0  0  0  0  0  0  0  0  0  0  # atno 6907 bound_to 6896
  151.0140  134.9419  159.8033 H   0  0  0  0  0  0  0  0  0  0  0  0  # atno 6908 bound_to 6896
  152.5308  134.3043  159.9142 H   0  0  0  0  0  0  0  0  0  0  0  0  # atno 6909 bound_to 6896
  145.1610  139.3155  143.4517 H   0  0  0  0  0  0  0  0  0  0  0  0  # atno 7974 bound_to 7965
  156.2878  140.2680  156.2193 H   0  0  0  0  0  0  0  0  0  0  0  0  # atno 8008 bound_to 7997
  155.0184  140.0387  157.2445 H   0  0  0  0  0  0  0  0  0  0  0  0  # atno 8009 bound_to 7997
  154.7457  140.2733  155.6340 H   0  0  0  0  0  0  0  0  0  0  0  0  # atno 8010 bound_to 7997
  140.4365  144.1250  150.6167 H   0  0  0  0  0  0  0  0  0  0  0  0  # atno 10167 bound_to 10162
  156.5010  130.4588  149.6701 H   0  0  0  0  0  0  0  0  0  0  0  0  # atno 10718 bound_to 10713
  153.5990  135.7000  153.5392 H   0  0  0  0  0  0  0  0  0  0  0  0  # atno 10763 bound_to 10752
  153.3113  135.4100  155.1338 H   0  0  0  0  0  0  0  0  0  0  0  0  # atno 10764 bound_to 10752
  154.8586  135.3673  154.5525 H   0  0  0  0  0  0  0  0  0  0  0  0  # atno 10765 bound_to 10752
  141.0581  133.6718  156.3160 H   0  0  0  0  0  0  0  0  0  0  0  0  # atno 11005 bound_to 11000
  146.3482  140.1720  142.8589 LP  0  0  0  0  0  0  0  0  0  0  0  0  # atno 17320 bound_to 7965
  145.0331  140.8887  143.5097 LP  0  0  0  0  0  0  0  0  0  0  0  0  # atno 17321 bound_to 7965
  140.4368  143.2544  151.9525 LP  0  0  0  0  0  0  0  0  0  0  0  0  # atno 17342 bound_to 10162
  139.4787  144.5692  151.8115 LP  0  0  0  0  0  0  0  0  0  0  0  0  # atno 17343 bound_to 10162
  156.3333  130.7343  151.2276 LP  0  0  0  0  0  0  0  0  0  0  0  0  # atno 17370 bound_to 10713
  157.7463  131.0424  150.4692 LP  0  0  0  0  0  0  0  0  0  0  0  0  # atno 17371 bound_to 10713
  140.5923  134.5638  157.5502 LP  0  0  0  0  0  0  0  0  0  0  0  0  # atno 17394 bound_to 11000
  139.9408  134.7791  156.0684 LP  0  0  0  0  0  0  0  0  0  0  0  0  # atno 17395 bound_to 11000

$$$$
