#       Name:                AV-unprocessed.smi:2339
#       Creating user name   scv26
#       Creation time:       Fri Mar 27 12:55:55 2020


#       File generated by GOLD software.
#

@<TRIPOS>MOLECULE
AV-unprocessed.smi:2339
    55    58     1
SMALL
NO_CHARGES


@<TRIPOS>ATOM
      1 ****        -4.8486   3.5267  -2.8874 C.3            1 S1                 0.0000
      2 ****        -4.5475   2.0880  -3.3212 C.3            1 S1                 0.0000
      3 ****        -3.1190   1.8068  -3.3119 N.pl3          1 S1                 0.0000
      4 ****        -2.3481   1.9490  -4.4613 C.2            1 S1                 0.0000
      5 ****        -1.0431   1.6241  -4.5407 C.2            1 S1                 0.0000
      6 ****        -0.3598   1.0771  -3.3511 C.2            1 S1                 0.0000
      7 ****         0.8300   0.7634  -3.3884 O.2            1 S1                 0.0000
      8 ****        -1.1827   0.9302  -2.1222 C.2            1 S1                 0.0000
      9 ****        -0.5323   0.3989  -0.9986 N.am           1 S1                 0.0000
     10 ****        -0.9272   0.3904   0.2905 C.2            1 S1                 0.0000
     11 ****        -1.9498   0.9178   0.7229 O.2            1 S1                 0.0000
     12 ****        -0.0558  -0.2148   1.1158 N.am           1 S1                 0.0000
     13 ****        -0.1793  -0.3958   2.5678 C.3            1 S1                 0.0000
     14 ****        -0.7343  -1.7801   2.9836 C.3            1 S1                 0.0000
     15 ****        -1.3535  -2.7539   2.0095 C.3            1 S1                 0.0000
     16 ****        -0.1932  -3.7003   1.6892 C.3            1 S1                 0.0000
     17 ****         0.9800  -2.9632   2.0243 O.3            1 S1                 0.0000
     18 ****         0.7025  -2.2229   3.2100 C.3            1 S1                 0.0000
     19 ****         1.1737  -0.7544   3.2268 C.3            1 S1                 0.0000
     20 ****         2.4904  -0.4238   2.5236 C.3            1 S1                 0.0000
     21 ****         3.5985  -0.5952   3.5628 C.3            1 S1                 0.0000
     22 ****         2.9270  -0.3480   4.9168 C.3            1 S1                 0.0000
     23 ****         1.4337  -0.1752   4.6175 C.3            1 S1                 0.0000
     24 ****        -2.4898   1.2905  -2.1808 C.2            1 S1                 0.0000
     25 ****        -5.9210   3.7204  -2.9092 H              1 S1                 0.0000
     26 ****        -4.3665   4.2473  -3.5486 H              1 S1                 0.0000
     27 ****        -4.4978   3.7138  -1.8720 H              1 S1                 0.0000
     28 ****        -5.0612   1.3871  -2.6620 H              1 S1                 0.0000
     29 ****        -4.9456   1.9126  -4.3213 H              1 S1                 0.0000
     30 ****        -2.8823   2.3544  -5.3084 H              1 S1                 0.0000
     31 ****        -0.4839   1.7539  -5.4557 H              1 S1                 0.0000
     32 ****         0.3735  -0.0048  -1.1893 H              1 S1                 0.0000
     33 ****         0.8238  -0.5039   0.7122 H              1 S1                 0.0000
     34 ****        -0.6763   0.4320   3.0773 H              1 S1                 0.0000
     35 ****        -1.2722  -1.7082   3.9301 H              1 S1                 0.0000
     36 ****        -2.1920  -3.2965   2.4466 H              1 S1                 0.0000
     37 ****        -1.7219  -2.2638   1.1097 H              1 S1                 0.0000
     38 ****        -0.2421  -4.5915   2.3165 H              1 S1                 0.0000
     39 ****        -0.1832  -4.0167   0.6461 H              1 S1                 0.0000
     40 ****         0.8560  -2.7928   4.1277 H              1 S1                 0.0000
     41 ****         2.6711  -1.0451   1.6460 H              1 S1                 0.0000
     42 ****         2.4777   0.6113   2.1791 H              1 S1                 0.0000
     43 ****         3.9856  -1.6143   3.5259 H              1 S1                 0.0000
     44 ****         4.4342   0.0815   3.3826 H              1 S1                 0.0000
     45 ****         3.0915  -1.2000   5.5775 H              1 S1                 0.0000
     46 ****         3.3309   0.5350   5.4132 H              1 S1                 0.0000
     47 ****         1.1877   0.8876   4.6283 H              1 S1                 0.0000
     48 ****         0.8191  -0.6446   5.3868 H              1 S1                 0.0000
     49 ****        -3.1616   1.1946  -1.3423 H              1 S1                 0.0000
     50 ****         1.3508   0.8774  -4.2344 LP             1 S1                 0.0000
     51 ****         1.2756   0.3946  -2.5727 LP             1 S1                 0.0000
     52 ****        -2.5646   1.4018   0.1001 LP             1 S1                 0.0000
     53 ****        -2.1670   0.8629   1.6975 LP             1 S1                 0.0000
     54 ****         1.2140  -2.3383   1.2795 LP             1 S1                 0.0000
     55 ****         1.7421  -3.5905   2.1849 LP             1 S1                 0.0000
@<TRIPOS>BOND
    1    1    2 1     
    2    1   25 1     
    3    1   26 1     
    4    1   27 1     
    5    2    3 1     
    6    2   28 1     
    7    2   29 1     
    8    3   24 1     
    9    3    4 1     
   10    4    5 2     
   11    4   30 1     
   12    5    6 1     
   13    5   31 1     
   14    6    7 2     
   15    6    8 1     
   16    8    9 1     
   17    8   24 2     
   18    9   10 am    
   19    9   32 1     
   20   10   11 2     
   21   10   12 am    
   22   12   13 1     
   23   12   33 1     
   24   13   19 1     
   25   13   14 1     
   26   13   34 1     
   27   14   18 1     
   28   14   15 1     
   29   14   35 1     
   30   15   16 1     
   31   15   36 1     
   32   15   37 1     
   33   16   17 1     
   34   16   38 1     
   35   16   39 1     
   36   17   18 1     
   37   18   19 1     
   38   18   40 1     
   39   19   23 1     
   40   19   20 1     
   41   20   21 1     
   42   20   41 1     
   43   20   42 1     
   44   21   22 1     
   45   21   43 1     
   46   21   44 1     
   47   22   23 1     
   48   22   45 1     
   49   22   46 1     
   50   23   47 1     
   51   23   48 1     
   52   24   49 1     
   53    7   50 1     
   54    7   51 1     
   55   11   52 1     
   56   11   53 1     
   57   17   54 1     
   58   17   55 1     
@<TRIPOS>SUBSTRUCTURE
      1 S1             1
@<TRIPOS>SET
LONE_PAIRS      STATIC     ATOMS    <user>   **** ""
6 50 51 52 53 54 55
DONOR_HYDROGENS      STATIC     ATOMS    <user>   **** ""
2 32 33
ATOM$BLUE        STATIC     ATOMS    COLORGROUP SYSTEM
6 50 51 52 53 54 55
ATOM$RED        STATIC     ATOMS    COLORGROUP SYSTEM
2 32 33
