AV-unprocessed.smi:3303|AV-procd|sdf|12676|dock9
  -GOLD-   2272019 13D 1   1.00000     0.00000
 Structure written by MMmdl.
 44 45  0  0  0  0  0  0  0  0  2 V2000
  152.5985  138.4513  155.0976 C   0  0  0  0  0  0  0  0  0  0  0  0
  151.4189  139.3752  154.7531 C   0  0  1  0  0  0  0  0  0  0  0  0
  150.1130  138.5906  154.5240 C   0  0  0  0  0  0  0  0  0  0  0  0
  149.0369  139.4761  154.0696 N   0  0  0  0  0  0  0  0  0  0  0  0
  147.8749  138.6358  153.7913 C   0  0  0  0  0  0  0  0  0  0  0  0
  148.7412  140.5090  155.0786 C   0  0  2  0  0  0  0  0  0  0  0  0
  147.5987  141.4425  154.6300 C   0  0  0  0  0  0  0  0  0  0  0  0
  150.0100  141.3500  155.3533 C   0  0  0  0  0  0  0  0  0  0  0  0
  151.2064  140.4932  155.7913 C   0  0  1  0  0  0  0  0  0  0  0  0
  150.9815  139.9496  157.1517 N   0  3  0  0  0  0  0  0  0  0  0  0
  150.6575  140.9588  158.1795 C   0  0  0  0  0  0  0  0  0  0  0  0
  151.9243  141.4302  158.9059 C   0  0  0  0  0  0  0  0  0  0  0  0
  151.9138  142.9244  159.1657 C   0  0  0  0  0  0  0  0  0  0  0  0
  151.9901  143.8433  158.0975 C   0  0  0  0  0  0  0  0  0  0  0  0
  151.9711  145.2200  158.3948 C   0  0  0  0  0  0  0  0  0  0  0  0
  151.8764  145.6219  159.7411 C   0  0  0  0  0  0  0  0  0  0  0  0
  151.8029  144.6253  160.7347 C   0  0  0  0  0  0  0  0  0  0  0  0
  151.8184  143.3026  160.4602 N   0  0  0  0  0  0  0  0  0  0  0  0
  152.4171  137.8864  156.0122 H   0  0  0  0  0  0  0  0  0  0  0  0
  153.5173  139.0224  155.2337 H   0  0  0  0  0  0  0  0  0  0  0  0
  152.7756  137.7315  154.2980 H   0  0  0  0  0  0  0  0  0  0  0  0
  151.6736  139.8572  153.8071 H   0  0  0  0  0  0  0  0  0  0  0  0
  150.2897  137.8263  153.7656 H   0  0  0  0  0  0  0  0  0  0  0  0
  149.8137  138.0685  155.4343 H   0  0  0  0  0  0  0  0  0  0  0  0
  147.0747  139.2041  153.3186 H   0  0  0  0  0  0  0  0  0  0  0  0
  147.4849  138.1820  154.7038 H   0  0  0  0  0  0  0  0  0  0  0  0
  148.1357  137.8344  153.0990 H   0  0  0  0  0  0  0  0  0  0  0  0
  148.4371  140.0171  156.0040 H   0  0  0  0  0  0  0  0  0  0  0  0
  147.4844  142.2765  155.3230 H   0  0  0  0  0  0  0  0  0  0  0  0
  146.6359  140.9327  154.6015 H   0  0  0  0  0  0  0  0  0  0  0  0
  147.7904  141.8617  153.6414 H   0  0  0  0  0  0  0  0  0  0  0  0
  150.2788  141.8989  154.4490 H   0  0  0  0  0  0  0  0  0  0  0  0
  149.8040  142.1066  156.1118 H   0  0  0  0  0  0  0  0  0  0  0  0
  152.0929  141.1298  155.8037 H   0  0  0  0  0  0  0  0  0  0  0  0
  150.2224  139.2850  157.1065 H   0  0  0  0  0  0  0  0  0  0  0  0
  150.1642  141.8091  157.7065 H   0  0  0  0  0  0  0  0  0  0  0  0
  149.9523  140.5282  158.8920 H   0  0  0  0  0  0  0  0  0  0  0  0
  152.0265  140.9077  159.8583 H   0  0  0  0  0  0  0  0  0  0  0  0
  152.8078  141.1745  158.3192 H   0  0  0  0  0  0  0  0  0  0  0  0
  152.0615  143.5052  157.0740 H   0  0  0  0  0  0  0  0  0  0  0  0
  152.0289  145.9543  157.6048 H   0  0  0  0  0  0  0  0  0  0  0  0
  151.8609  146.6688  160.0065 H   0  0  0  0  0  0  0  0  0  0  0  0
  151.7293  144.8975  161.7771 H   0  0  0  0  0  0  0  0  0  0  0  0
  151.8179  139.4606  157.4365 H   0  0  0  0  0  0  0  0  0  0  0  0
  1  2  1  0  0  0  0
  1 19  1  0  0  0  0
  1 20  1  0  0  0  0
  1 21  1  0  0  0  0
  2  9  1  0  0  0  0
  2  3  1  0  0  0  0
  2 22  1  0  0  0  0
  3  4  1  0  0  0  0
  3 23  1  0  0  0  0
  3 24  1  0  0  0  0
  4  5  1  0  0  0  0
  4  6  1  0  0  0  0
  5 25  1  0  0  0  0
  5 26  1  0  0  0  0
  5 27  1  0  0  0  0
  6  7  1  0  0  0  0
  6  8  1  0  0  0  0
  6 28  1  0  0  0  0
  7 29  1  0  0  0  0
  7 30  1  0  0  0  0
  7 31  1  0  0  0  0
  8  9  1  0  0  0  0
  8 32  1  0  0  0  0
  8 33  1  0  0  0  0
  9 10  1  0  0  0  0
  9 34  1  0  0  0  0
 10 11  1  0  0  0  0
 10 35  1  0  0  0  0
 10 44  1  0  0  0  0
 11 12  1  0  0  0  0
 11 36  1  0  0  0  0
 11 37  1  0  0  0  0
 12 13  1  0  0  0  0
 12 38  1  0  0  0  0
 12 39  1  0  0  0  0
 13 18  1  0  0  0  0
 13 14  2  0  0  0  0
 14 15  1  0  0  0  0
 14 40  1  0  0  0  0
 15 16  2  0  0  0  0
 15 41  1  0  0  0  0
 16 17  1  0  0  0  0
 16 42  1  0  0  0  0
 17 18  2  0  0  0  0
 17 43  1  0  0  0  0
M  CHG  1  10   1
M  END
> <s_m_source_file>
AV-unprocessed.smi

> <i_m_source_file_index>
3303

> <i_lp_mmshare_version>
43012

> <i_f3d_flags>
0

> <s_epik_input>
W0NIM11bQ0BASF0xW0NIMl1OKFtDSDNdKVtDQEBIXShbQ0gzXSlbQ0gyXVtDQEhdMVtOSF1bQ0gyXVtDSDJdYzJbY0hdW2NIXVtjSF1bY0hdbjI=

> <s_epik_cmdline>
J2VwaWtfcHl0aG9uJywgJy1waCcsICc3LjAnLCAnLXRuJywgJzgnLCAnLW1hJywgJzIwMCcsICctbWV0YWxfYmluZGluZycsICctaW1hZScsICc8aW5maWxlLm1hZT4nLCAnLW9tYWUnLCAnPG91dGZpbGUubWFlPic=

> <r_epik_Ionization_Penalty>
1.37325

> <r_epik_Ionization_Penalty_Charging>
0.000251572

> <r_epik_Ionization_Penalty_Neutral>
1.373

> <r_epik_State_Penalty>
1.46343

> <r_epik_Charging_Adjusted_Penalty>
1.46368

> <i_epik_Tot_Q>
1

> <i_epik_Tot_abs_Q>
1

> <r_epik_Metal_State_Penalty>
1.46331

> <b_epik_Metal_Only>
0

> <s_lp_Force_Field>
OPLS_2005

> <r_lp_Energy>
25.9316

> <b_lp_Chiralities_Consistent>
1

> <s_lp_Variant>
AV-unprocessed.smi:3303-20

> <Gold.Version>
5.8.1

> <Gold.Id.Protein>
6NUR|6NUR_protein|mol2

> <Gold.PLP.Fitness>
42.9530

> <Gold.PLP.PLP>
-44.0903

> <Gold.PLP.part.hbond>
-0.3230

> <Gold.PLP.part.metal>
0.0000

> <Gold.PLP.part.buried>
-4.6434

> <Gold.PLP.part.nonpolar>
-40.9210

> <Gold.PLP.part.repulsive>
1.1081

> <Gold.PLP.ligand.clash>
0.0000

> <Gold.PLP.ligand.torsion>
0.5734

> <Gold.PLP.Chemscore.Hbond>
0.0000

> <Gold.PLP.Chemscore.CHOScore>
0.0000

> <Gold.PLP.Chemscore.Metal>
0.0000

> <Gold.PLP.Chemscore.Internal.Correction>
0.0095

> <Gold.Rescore>
     Score         DG    S(hbond)    S(metal)    S(lipo)     H(rot)  DE(clash)    DE(int)     intcor
     16.14     -16.73       0.00        0.00     125.25       1.33       0.04       0.55       ----

> <Gold.Chemscore.Fitness>
16.1365

> <Gold.Chemscore.DG>
-16.7294

> <Gold.Chemscore.ZeroCoef>
-5.4800

> <Gold.Chemscore.Hbond>
0.0000

> <Gold.Chemscore.Metal>
0.0000

> <Gold.Chemscore.Lipo>
125.2451

> <Gold.Chemscore.Internal_Hbond>
0.0000

> <Gold.Chemscore.DEClash>
0.0396

> <Gold.Chemscore.DEInternal>
0.5533

> <Gold.Chemscore.Rot>
1.3298

> <Gold.Chemscore.Internal.Correction>
   9.000000E+99

> <Gold.Chemscore.Hbond.Weighted>
-0.0000

> <Gold.Chemscore.Metal.Weighted>
-0.0000

> <Gold.Chemscore.Lipo.Weighted>
-14.6537

> <Gold.Chemscore.Internal_Hbond.Weighted>
0.0000

> <Gold.Chemscore.DEClash.Weighted>
0.0396

> <Gold.Chemscore.DEInternal.Weighted>
0.5533

> <Gold.Chemscore.Rot.Weighted>
3.4043

> <Gold.Chemscore.Internal.Correction.Weighted>
   9.000000E+99

> <Gold.Protein.RotatedTorsions>
[ 6907 6896 6895 6894 ] final  -35.72 input  -60.11 | X-H torsion
[ 7974 7965 7964 7962 ] final -139.95 input  175.53 | X-H torsion
[ 8008 7997 7996 7995 ] final   84.25 input   59.86 | X-H torsion
[ 10167 10162 10161 10158 ] final   12.97 input  -65.29 | X-H torsion
[ 10718 10713 10712 10709 ] final  130.30 input   66.30 | X-H torsion
[ 10763 10752 10751 10750 ] final  -39.63 input  -60.55 | X-H torsion
[ 11005 11000 10999 10996 ] final   65.82 input  -57.11 | X-H torsion

> <Gold.Protein.ActiveResidues>
 VAL166  LYS551  ARG553  GLY616  TRP617  ASP618  TYR619  PRO620  LYS621  CYS622 
 ASP623  PHE694  ASN695  SER759  ASP760  ASP761  ALA762  ILE779  LEU786  VAL792 
 PHE793  MET794  SER795  GLU796  ALA797  LYS798  CYS799  TRP800  GLU811  SER814 

> <Gold.Protein.RotatedAtoms>
  151.0362  134.9575  159.8137 H   0  0  0  0  0  0  0  0  0  0  0  0  # atno 6907 bound_to 6896
  152.5355  134.2716  159.8984 H   0  0  0  0  0  0  0  0  0  0  0  0  # atno 6908 bound_to 6896
  151.2727  133.4205  159.2656 H   0  0  0  0  0  0  0  0  0  0  0  0  # atno 6909 bound_to 6896
  144.8636  140.6258  143.5312 H   0  0  0  0  0  0  0  0  0  0  0  0  # atno 7974 bound_to 7965
  155.9346  140.3412  155.6277 H   0  0  0  0  0  0  0  0  0  0  0  0  # atno 8008 bound_to 7997
  155.7115  140.0772  157.2387 H   0  0  0  0  0  0  0  0  0  0  0  0  # atno 8009 bound_to 7997
  154.4091  140.1622  156.2289 H   0  0  0  0  0  0  0  0  0  0  0  0  # atno 8010 bound_to 7997
  140.6033  143.8559  150.6988 H   0  0  0  0  0  0  0  0  0  0  0  0  # atno 10167 bound_to 10162
  157.5075  131.1096  150.9340 H   0  0  0  0  0  0  0  0  0  0  0  0  # atno 10718 bound_to 10713
  153.9326  135.6770  153.4745 H   0  0  0  0  0  0  0  0  0  0  0  0  # atno 10763 bound_to 10752
  153.0972  135.4845  154.8797 H   0  0  0  0  0  0  0  0  0  0  0  0  # atno 10764 bound_to 10752
  154.7420  135.3163  154.8669 H   0  0  0  0  0  0  0  0  0  0  0  0  # atno 10765 bound_to 10752
  139.9870  134.6651  156.0158 H   0  0  0  0  0  0  0  0  0  0  0  0  # atno 11005 bound_to 11000
  145.4265  139.1555  143.4045 LP  0  0  0  0  0  0  0  0  0  0  0  0  # atno 17320 bound_to 7965
  146.2879  140.4378  142.8751 LP  0  0  0  0  0  0  0  0  0  0  0  0  # atno 17321 bound_to 7965
  140.2111  143.3883  152.1718 LP  0  0  0  0  0  0  0  0  0  0  0  0  # atno 17342 bound_to 10162
  139.5307  144.7155  151.5068 LP  0  0  0  0  0  0  0  0  0  0  0  0  # atno 17343 bound_to 10162
  156.9991  130.5593  149.5310 LP  0  0  0  0  0  0  0  0  0  0  0  0  # atno 17370 bound_to 10713
  156.0267  130.5361  150.8427 LP  0  0  0  0  0  0  0  0  0  0  0  0  # atno 17371 bound_to 10713
  141.1533  133.6545  156.4083 LP  0  0  0  0  0  0  0  0  0  0  0  0  # atno 17394 bound_to 11000
  140.4982  134.6511  157.5238 LP  0  0  0  0  0  0  0  0  0  0  0  0  # atno 17395 bound_to 11000

$$$$
