AV-unprocessed.smi:1545|AV-procd|sdf|6216|dock8
  -GOLD-   22720 6383D 1   1.00000     0.00000
 Structure written by MMmdl.
 41 43  0  0  0  0  0  0  0  0  1 V2000
  150.9675  136.3993  158.1859 O   0  0  0  0  0  0  0  0  0  0  0  0
  150.8584  136.0289  156.8283 C   0  0  0  0  0  0  0  0  0  0  0  0
  151.8216  136.8606  155.9691 C   0  0  0  0  0  0  0  0  0  0  0  0
  151.3764  138.2344  155.8234 N   0  0  0  0  0  0  0  0  0  0  0  0
  150.3123  138.8027  155.1329 C   0  0  0  0  0  0  0  0  0  0  0  0
  149.4328  138.1073  154.4147 N   0  0  0  0  0  0  0  0  0  0  0  0
  148.5943  139.0976  153.9392 C   0  0  0  0  0  0  0  0  0  0  0  0
  147.4522  139.0126  153.1109 C   0  0  0  0  0  0  0  0  0  0  0  0
  146.7434  140.1772  152.7505 C   0  0  0  0  0  0  0  0  0  0  0  0
  147.1647  141.4413  153.2121 C   0  0  0  0  0  0  0  0  0  0  0  0
  148.2996  141.5496  154.0384 C   0  0  0  0  0  0  0  0  0  0  0  0
  149.0050  140.3845  154.3950 C   0  0  0  0  0  0  0  0  0  0  0  0
  150.1333  140.1440  155.1738 N   0  0  0  0  0  0  0  0  0  0  0  0
  150.9359  141.1348  155.8786 C   0  0  0  0  0  0  0  0  0  0  0  0
  150.3290  141.5263  157.2406 C   0  0  2  0  0  0  0  0  0  0  0  0
  149.1160  142.2277  157.0458 O   0  0  0  0  0  0  0  0  0  0  0  0
  151.3198  142.3115  158.0851 C   0  0  0  0  0  0  0  0  0  0  0  0
  151.6319  143.6457  157.7453 C   0  0  0  0  0  0  0  0  0  0  0  0
  152.5414  144.3837  158.5275 C   0  0  0  0  0  0  0  0  0  0  0  0
  153.1417  143.7930  159.6559 C   0  0  0  0  0  0  0  0  0  0  0  0
  152.8316  142.4639  160.0024 C   0  0  0  0  0  0  0  0  0  0  0  0
  153.4057  141.8963  161.0892 F   0  0  0  0  0  0  0  0  0  0  0  0
  151.9229  141.7250  159.2200 C   0  0  0  0  0  0  0  0  0  0  0  0
  150.7667  137.3193  158.2645 H   0  0  0  0  0  0  0  0  0  0  0  0
  151.0270  134.9579  156.7073 H   0  0  0  0  0  0  0  0  0  0  0  0
  149.8321  136.2285  156.5198 H   0  0  0  0  0  0  0  0  0  0  0  0
  152.7964  136.8946  156.4557 H   0  0  0  0  0  0  0  0  0  0  0  0
  151.9767  136.4037  154.9907 H   0  0  0  0  0  0  0  0  0  0  0  0
  151.9272  138.8929  156.3544 H   0  0  0  0  0  0  0  0  0  0  0  0
  147.1214  138.0489  152.7530 H   0  0  0  0  0  0  0  0  0  0  0  0
  145.8722  140.0996  152.1170 H   0  0  0  0  0  0  0  0  0  0  0  0
  146.6157  142.3282  152.9315 H   0  0  0  0  0  0  0  0  0  0  0  0
  148.6225  142.5166  154.3941 H   0  0  0  0  0  0  0  0  0  0  0  0
  151.9404  140.7319  156.0145 H   0  0  0  0  0  0  0  0  0  0  0  0
  151.0474  142.0138  155.2429 H   0  0  0  0  0  0  0  0  0  0  0  0
  150.0714  140.6173  157.7858 H   0  0  0  0  0  0  0  0  0  0  0  0
  149.2850  142.9717  156.4886 H   0  0  0  0  0  0  0  0  0  0  0  0
  151.1742  144.1090  156.8835 H   0  0  0  0  0  0  0  0  0  0  0  0
  152.7776  145.4038  158.2628 H   0  0  0  0  0  0  0  0  0  0  0  0
  153.8381  144.3599  160.2559 H   0  0  0  0  0  0  0  0  0  0  0  0
  151.6889  140.7073  159.4962 H   0  0  0  0  0  0  0  0  0  0  0  0
  1  2  1  0  0  0  0
  1 24  1  0  0  0  0
  2  3  1  0  0  0  0
  2 25  1  0  0  0  0
  2 26  1  0  0  0  0
  3  4  1  0  0  0  0
  3 27  1  0  0  0  0
  3 28  1  0  0  0  0
  4  5  1  0  0  0  0
  4 29  1  0  0  0  0
  5 13  1  0  0  0  0
  5  6  2  0  0  0  0
  6  7  1  0  0  0  0
  7 12  2  0  0  0  0
  7  8  1  0  0  0  0
  8  9  2  0  0  0  0
  8 30  1  0  0  0  0
  9 10  1  0  0  0  0
  9 31  1  0  0  0  0
 10 11  2  0  0  0  0
 10 32  1  0  0  0  0
 11 12  1  0  0  0  0
 11 33  1  0  0  0  0
 12 13  1  0  0  0  0
 13 14  1  0  0  0  0
 14 15  1  0  0  0  0
 14 34  1  0  0  0  0
 14 35  1  0  0  0  0
 15 16  1  0  0  0  0
 15 17  1  0  0  0  0
 15 36  1  0  0  0  0
 16 37  1  0  0  0  0
 17 23  1  0  0  0  0
 17 18  2  0  0  0  0
 18 19  1  0  0  0  0
 18 38  1  0  0  0  0
 19 20  2  0  0  0  0
 19 39  1  0  0  0  0
 20 21  1  0  0  0  0
 20 40  1  0  0  0  0
 21 22  1  0  0  0  0
 21 23  2  0  0  0  0
 23 41  1  0  0  0  0
M  END
> <s_m_source_file>
AV-unprocessed.smi

> <i_m_source_file_index>
1545

> <i_lp_mmshare_version>
43012

> <i_f3d_flags>
0

> <s_epik_input>
W09IXVtDSDJdW0NIMl1bTkhdYyhuMSluKGMoYzEyKVtjSF1bY0hdW2NIXVtjSF0yKVtDSDJdW0NASF0oW09IXSljM1tjSF1bY0hdW2NIXWMoRilbY0hdMw==

> <s_epik_cmdline>
J2VwaWtfcHl0aG9uJywgJy1waCcsICc3LjAnLCAnLXRuJywgJzgnLCAnLW1hJywgJzIwMCcsICctbWV0YWxfYmluZGluZycsICctaW1hZScsICc8aW5maWxlLm1hZT4nLCAnLW9tYWUnLCAnPG91dGZpbGUubWFlPic=

> <r_epik_Ionization_Penalty>
1.30972

> <r_epik_Ionization_Penalty_Charging>
0

> <r_epik_Ionization_Penalty_Neutral>
1.30972

> <r_epik_State_Penalty>
1.38438

> <r_epik_Charging_Adjusted_Penalty>
1.38438

> <i_epik_Tot_Q>
0

> <i_epik_Tot_abs_Q>
0

> <r_epik_Metal_State_Penalty>
0.00551145

> <b_epik_Metal_Only>
0

> <s_lp_Force_Field>
OPLS_2005

> <r_lp_Energy>
9.7293

> <b_lp_Chiralities_Consistent>
1

> <s_lp_Variant>
AV-unprocessed.smi:1545-3

> <Gold.Version>
5.8.1

> <Gold.Id.Protein>
6NUR|6NUR_protein|mol2

> <Gold.PLP.Fitness>
51.9060

> <Gold.PLP.PLP>
-47.5357

> <Gold.PLP.part.hbond>
-2.0000

> <Gold.PLP.part.metal>
0.0000

> <Gold.PLP.part.buried>
-2.4894

> <Gold.PLP.part.nonpolar>
-42.7394

> <Gold.PLP.part.repulsive>
0.2578

> <Gold.PLP.ligand.clash>
0.0000

> <Gold.PLP.ligand.torsion>
0.6558

> <Gold.PLP.Chemscore.Hbond>
1.8800

> <Gold.PLP.Chemscore.CHOScore>
0.0000

> <Gold.PLP.Chemscore.Metal>
0.0000

> <Gold.Chemscore.Hbonds>
donor molecule, donor type, donor heavy atom, donor atom, acceptor molecule, acceptor atom, score
      L1  H    16    37       P1  8028  1.00
      P1  H  6896  6907       L1     1  0.55

> <Gold.PLP.Chemscore.Internal.Correction>
0.0419

> <Gold.Rescore>
     Score         DG    S(hbond)    S(metal)    S(lipo)     H(rot)  DE(clash)    DE(int)     intcor
     17.16     -18.49       1.66        0.00     131.21       3.08       0.31       1.02       ----

> <Gold.Chemscore.Fitness>
17.1601

> <Gold.Chemscore.DG>
-18.4880

> <Gold.Chemscore.ZeroCoef>
-5.4800

> <Gold.Chemscore.Hbond>
1.6598

> <Gold.Chemscore.Metal>
0.0000

> <Gold.Chemscore.Lipo>
131.2145

> <Gold.Chemscore.Internal_Hbond>
0.0000

> <Gold.Chemscore.DEClash>
0.3113

> <Gold.Chemscore.DEInternal>
1.0166

> <Gold.Chemscore.Rot>
3.0812

> <Gold.Chemscore.Internal.Correction>
   9.000000E+99

> <Gold.Chemscore.Hbonds>
donor molecule, donor type, donor heavy atom, donor atom, acceptor molecule, acceptor atom, score
      L1  H    16    37       P1  8028  0.96
      P1  H  6896  6907       L1     1  0.54

> <Gold.Chemscore.Hbond.Weighted>
-5.5437

> <Gold.Chemscore.Metal.Weighted>
-0.0000

> <Gold.Chemscore.Lipo.Weighted>
-15.3521

> <Gold.Chemscore.Internal_Hbond.Weighted>
0.0000

> <Gold.Chemscore.DEClash.Weighted>
0.3113

> <Gold.Chemscore.DEInternal.Weighted>
1.0166

> <Gold.Chemscore.Rot.Weighted>
7.8878

> <Gold.Chemscore.Internal.Correction.Weighted>
   9.000000E+99

> <Gold.Protein.RotatedTorsions>
[ 6907 6896 6895 6894 ] final  -37.13 input  -60.11 | X-H torsion
[ 7974 7965 7964 7962 ] final -130.17 input  175.53 | X-H torsion
[ 8008 7997 7996 7995 ] final  113.40 input   59.86 | X-H torsion
[ 10167 10162 10161 10158 ] final -158.94 input  -65.29 | X-H torsion
[ 10718 10713 10712 10709 ] final   95.28 input   66.30 | X-H torsion
[ 10763 10752 10751 10750 ] final  -52.22 input  -60.55 | X-H torsion
[ 11005 11000 10999 10996 ] final  127.10 input  -57.11 | X-H torsion

> <Gold.Protein.ActiveResidues>
 VAL166  LYS551  ARG553  GLY616  TRP617  ASP618  TYR619  PRO620  LYS621  CYS622 
 ASP623  PHE694  ASN695  SER759  ASP760  ASP761  ALA762  ILE779  LEU786  VAL792 
 PHE793  MET794  SER795  GLU796  ALA797  LYS798  CYS799  TRP800  GLU811  SER814 

> <Gold.Protein.RotatedAtoms>
  151.0185  134.9451  159.8046 H   0  0  0  0  0  0  0  0  0  0  0  0  # atno 6907 bound_to 6896
  152.5319  134.2934  159.9061 H   0  0  0  0  0  0  0  0  0  0  0  0  # atno 6908 bound_to 6896
  151.2941  133.4110  159.2669 H   0  0  0  0  0  0  0  0  0  0  0  0  # atno 6909 bound_to 6896
  144.9501  140.7335  143.4793 H   0  0  0  0  0  0  0  0  0  0  0  0  # atno 7974 bound_to 7965
  156.2255  140.2980  156.0057 H   0  0  0  0  0  0  0  0  0  0  0  0  # atno 8008 bound_to 7997
  155.2367  140.0421  157.2986 H   0  0  0  0  0  0  0  0  0  0  0  0  # atno 8009 bound_to 7997
  154.5909  140.2401  155.7930 H   0  0  0  0  0  0  0  0  0  0  0  0  # atno 8010 bound_to 7997
  139.6653  143.9840  152.2251 H   0  0  0  0  0  0  0  0  0  0  0  0  # atno 10167 bound_to 10162
  157.6940  131.0540  150.4315 H   0  0  0  0  0  0  0  0  0  0  0  0  # atno 10718 bound_to 10713
  154.1393  135.6508  153.4938 H   0  0  0  0  0  0  0  0  0  0  0  0  # atno 10763 bound_to 10752
  153.0171  135.5311  154.6921 H   0  0  0  0  0  0  0  0  0  0  0  0  # atno 10764 bound_to 10752
  154.6178  135.2961  155.0331 H   0  0  0  0  0  0  0  0  0  0  0  0  # atno 10765 bound_to 10752
  139.9490  134.9625  156.8805 H   0  0  0  0  0  0  0  0  0  0  0  0  # atno 11005 bound_to 11000
  145.2857  139.1902  143.4767 LP  0  0  0  0  0  0  0  0  0  0  0  0  # atno 17320 bound_to 7965
  146.3318  140.2826  142.8611 LP  0  0  0  0  0  0  0  0  0  0  0  0  # atno 17321 bound_to 7965
  139.9590  144.6570  150.8098 LP  0  0  0  0  0  0  0  0  0  0  0  0  # atno 17342 bound_to 10162
  140.7597  143.3134  151.2791 LP  0  0  0  0  0  0  0  0  0  0  0  0  # atno 17343 bound_to 10162
  156.4681  130.4046  149.6534 LP  0  0  0  0  0  0  0  0  0  0  0  0  # atno 17370 bound_to 10713
  156.3625  130.7489  151.2462 LP  0  0  0  0  0  0  0  0  0  0  0  0  # atno 17371 bound_to 10713
  140.5764  134.0394  155.7448 LP  0  0  0  0  0  0  0  0  0  0  0  0  # atno 17394 bound_to 11000
  141.1148  133.9557  157.2842 LP  0  0  0  0  0  0  0  0  0  0  0  0  # atno 17395 bound_to 11000

$$$$
