AV-unprocessed.smi:1432|AV-procd|sdf|5831|dock5
  -GOLD-   22720 5493D 1   1.00000     0.00000
 Structure written by MMmdl.
 47 48  0  0  0  0  0  0  0  0  2 V2000
  148.8261  132.7058  153.2178 C   0  0  0  0  0  0  0  0  0  0  0  0
  147.4193  133.3310  153.1292 C   0  0  2  0  0  0  0  0  0  0  0  0
  146.7955  132.9739  151.7618 C   0  0  0  0  0  0  0  0  0  0  0  0
  145.4004  133.5823  151.5896 C   0  0  0  0  0  0  0  0  0  0  0  0
  145.4762  135.0962  151.7954 C   0  0  0  0  0  0  0  0  0  0  0  0
  146.0826  135.4209  153.1677 C   0  0  0  0  0  0  0  0  0  0  0  0
  147.4313  134.8141  153.3385 N   0  3  1  0  0  0  0  0  0  0  0  0
  148.0612  135.2471  154.6160 C   0  0  0  0  0  0  0  0  0  0  0  0
  147.6066  134.3673  155.7896 C   0  0  0  0  0  0  0  0  0  0  0  0
  147.5341  135.1500  157.0147 N   0  0  0  0  0  0  0  0  0  0  0  0
  148.5254  135.2535  157.9146 C   0  0  0  0  0  0  0  0  0  0  0  0
  149.6114  134.6944  157.7698 O   0  0  0  0  0  0  0  0  0  0  0  0
  148.2823  136.1009  159.1760 C   0  0  0  0  0  0  0  0  0  0  0  0
  147.9121  135.3337  160.3794 N   0  0  0  0  0  0  0  0  0  0  0  0
  147.8987  133.9297  160.2654 C   0  0  0  0  0  0  0  0  0  0  0  0
  147.5710  133.1144  161.2859 C   0  0  0  0  0  0  0  0  0  0  0  0
  147.6293  131.6011  161.1462 C   0  0  0  0  0  0  0  0  0  0  0  0
  147.9265  131.2432  159.8969 F   0  0  0  0  0  0  0  0  0  0  0  0
  148.5648  131.1064  161.9554 F   0  0  0  0  0  0  0  0  0  0  0  0
  146.4616  131.0464  161.4736 F   0  0  0  0  0  0  0  0  0  0  0  0
  147.2494  133.7554  162.5461 C   0  0  0  0  0  0  0  0  0  0  0  0
  147.2714  135.0964  162.6762 C   0  0  0  0  0  0  0  0  0  0  0  0
  147.6196  135.9699  161.5535 C   0  0  0  0  0  0  0  0  0  0  0  0
  147.6559  137.1953  161.6635 O   0  0  0  0  0  0  0  0  0  0  0  0
  148.7869  131.6352  153.0147 H   0  0  0  0  0  0  0  0  0  0  0  0
  149.2719  132.8177  154.2056 H   0  0  0  0  0  0  0  0  0  0  0  0
  149.5049  133.1511  152.4896 H   0  0  0  0  0  0  0  0  0  0  0  0
  146.8005  132.8890  153.9123 H   0  0  0  0  0  0  0  0  0  0  0  0
  147.4435  133.3261  150.9576 H   0  0  0  0  0  0  0  0  0  0  0  0
  146.7325  131.8906  151.6513 H   0  0  0  0  0  0  0  0  0  0  0  0
  145.0087  133.3544  150.5979 H   0  0  0  0  0  0  0  0  0  0  0  0
  144.7098  133.1413  152.3098 H   0  0  0  0  0  0  0  0  0  0  0  0
  146.0799  135.5485  151.0074 H   0  0  0  0  0  0  0  0  0  0  0  0
  144.4808  135.5337  151.7142 H   0  0  0  0  0  0  0  0  0  0  0  0
  146.1551  136.5046  153.2720 H   0  0  0  0  0  0  0  0  0  0  0  0
  145.4215  135.0685  153.9612 H   0  0  0  0  0  0  0  0  0  0  0  0
  149.1483  135.1785  154.5471 H   0  0  0  0  0  0  0  0  0  0  0  0
  147.8573  136.3004  154.8126 H   0  0  0  0  0  0  0  0  0  0  0  0
  146.6267  133.9308  155.5965 H   0  0  0  0  0  0  0  0  0  0  0  0
  148.3058  133.5395  155.9211 H   0  0  0  0  0  0  0  0  0  0  0  0
  146.6698  135.6376  157.2014 H   0  0  0  0  0  0  0  0  0  0  0  0
  149.1748  136.6990  159.3691 H   0  0  0  0  0  0  0  0  0  0  0  0
  147.5044  136.8300  158.9448 H   0  0  0  0  0  0  0  0  0  0  0  0
  148.1845  133.5552  159.2928 H   0  0  0  0  0  0  0  0  0  0  0  0
  146.9811  133.1517  163.4007 H   0  0  0  0  0  0  0  0  0  0  0  0
  147.0240  135.5397  163.6298 H   0  0  0  0  0  0  0  0  0  0  0  0
  148.0010  135.2010  152.5996 H   0  0  0  0  0  0  0  0  0  0  0  0
  1  2  1  0  0  0  0
  1 25  1  0  0  0  0
  1 26  1  0  0  0  0
  1 27  1  0  0  0  0
  2  7  1  0  0  0  0
  2  3  1  0  0  0  0
  2 28  1  0  0  0  0
  3  4  1  0  0  0  0
  3 29  1  0  0  0  0
  3 30  1  0  0  0  0
  4  5  1  0  0  0  0
  4 31  1  0  0  0  0
  4 32  1  0  0  0  0
  5  6  1  0  0  0  0
  5 33  1  0  0  0  0
  5 34  1  0  0  0  0
  6  7  1  0  0  0  0
  6 35  1  0  0  0  0
  6 36  1  0  0  0  0
  7  8  1  0  0  0  0
  7 47  1  0  0  0  0
  8  9  1  0  0  0  0
  8 37  1  0  0  0  0
  8 38  1  0  0  0  0
  9 10  1  0  0  0  0
  9 39  1  0  0  0  0
  9 40  1  0  0  0  0
 10 11  1  0  0  0  0
 10 41  1  0  0  0  0
 11 12  2  0  0  0  0
 11 13  1  0  0  0  0
 13 14  1  0  0  0  0
 13 42  1  0  0  0  0
 13 43  1  0  0  0  0
 14 23  1  0  0  0  0
 14 15  1  0  0  0  0
 15 16  2  0  0  0  0
 15 44  1  0  0  0  0
 16 17  1  0  0  0  0
 16 21  1  0  0  0  0
 17 18  1  0  0  0  0
 17 19  1  0  0  0  0
 17 20  1  0  0  0  0
 21 22  2  0  0  0  0
 21 45  1  0  0  0  0
 22 23  1  0  0  0  0
 22 46  1  0  0  0  0
 23 24  2  0  0  0  0
M  CHG  1   7   1
M  END
> <s_m_source_file>
AV-unprocessed.smi

> <i_m_source_file_index>
1432

> <i_lp_mmshare_version>
43012

> <i_f3d_flags>
0

> <s_epik_input>
W0NIM11bQ0BASF0xW0NIMl1bQ0gyXVtDSDJdW0NIMl1OMVtDSDJdW0NIMl1bTkhdQyg9TylbQ0gyXW4yW2NIXWMoQyhGKShGKUYpW2NIXVtjSF1jMj1P

> <s_epik_cmdline>
J2VwaWtfcHl0aG9uJywgJy1waCcsICc3LjAnLCAnLXRuJywgJzgnLCAnLW1hJywgJzIwMCcsICctbWV0YWxfYmluZGluZycsICctaW1hZScsICc8aW5maWxlLm1hZT4nLCAnLW9tYWUnLCAnPG91dGZpbGUubWFlPic=

> <r_lp_tautomer_probability>
1

> <r_epik_Ionization_Penalty>
0.00237222

> <r_epik_Ionization_Penalty_Charging>
0.00237213

> <r_epik_Ionization_Penalty_Neutral>
8.2065e-08

> <r_epik_State_Penalty>
0.00163922

> <r_epik_Charging_Adjusted_Penalty>
0.00401135

> <i_epik_Tot_Q>
1

> <i_epik_Tot_abs_Q>
1

> <r_epik_Metal_State_Penalty>
-0

> <b_epik_Metal_Only>
0

> <s_lp_Force_Field>
OPLS_2005

> <r_lp_Energy>
33.1317

> <b_lp_Chiralities_Consistent>
1

> <s_lp_Variant>
AV-unprocessed.smi:1432-1

> <Gold.Version>
5.8.1

> <Gold.Id.Protein>
6NUR|6NUR_protein|mol2

> <Gold.PLP.Fitness>
51.6952

> <Gold.PLP.PLP>
-40.6469

> <Gold.PLP.part.hbond>
-3.9669

> <Gold.PLP.part.metal>
0.0000

> <Gold.PLP.part.buried>
-2.8376

> <Gold.PLP.part.nonpolar>
-33.5213

> <Gold.PLP.part.repulsive>
0.0000

> <Gold.PLP.ligand.clash>
1.3795

> <Gold.PLP.ligand.torsion>
0.9546

> <Gold.PLP.Chemscore.Hbond>
4.7440

> <Gold.PLP.Chemscore.CHOScore>
0.0000

> <Gold.PLP.Chemscore.Metal>
0.0000

> <Gold.Chemscore.Hbonds>
donor molecule, donor type, donor heavy atom, donor atom, acceptor molecule, acceptor atom, score
      L1  H     7    47       P1  7948  2.00
      P1  H  6896  6908       L1    12  1.00
      P1  H  6931  6943       L1    24  1.00
      P1  H  6934  6947       L1    24  0.74

> <Gold.PLP.Chemscore.Internal.Correction>
0.1051

> <Gold.Rescore>
     Score         DG    S(hbond)    S(metal)    S(lipo)     H(rot)  DE(clash)    DE(int)     intcor
     19.95     -20.91       3.61        0.00      74.30       2.08       0.04       0.93       ----

> <Gold.Chemscore.Fitness>
19.9455

> <Gold.Chemscore.DG>
-20.9104

> <Gold.Chemscore.ZeroCoef>
-5.4800

> <Gold.Chemscore.Hbond>
3.6083

> <Gold.Chemscore.Metal>
0.0000

> <Gold.Chemscore.Lipo>
74.3048

> <Gold.Chemscore.Internal_Hbond>
0.0000

> <Gold.Chemscore.DEClash>
0.0387

> <Gold.Chemscore.DEInternal>
0.9262

> <Gold.Chemscore.Rot>
2.0762

> <Gold.Chemscore.Internal.Correction>
   9.000000E+99

> <Gold.Chemscore.Hbonds>
donor molecule, donor type, donor heavy atom, donor atom, acceptor molecule, acceptor atom, score
      L1  H     7    47       P1  7948  0.93
      P1  H  6896  6908       L1    12  0.92
      P1  H  6931  6943       L1    24  0.94
      P1  H  6934  6947       L1    24  0.70

> <Gold.Chemscore.Hbond.Weighted>
-12.0518

> <Gold.Chemscore.Metal.Weighted>
-0.0000

> <Gold.Chemscore.Lipo.Weighted>
-8.6937

> <Gold.Chemscore.Internal_Hbond.Weighted>
0.0000

> <Gold.Chemscore.DEClash.Weighted>
0.0387

> <Gold.Chemscore.DEInternal.Weighted>
0.9262

> <Gold.Chemscore.Rot.Weighted>
5.3150

> <Gold.Chemscore.Internal.Correction.Weighted>
   9.000000E+99

> <Gold.Protein.RotatedTorsions>
[ 6907 6896 6895 6894 ] final  145.12 input  -60.11 | X-H torsion
[ 7974 7965 7964 7962 ] final  -93.70 input  175.53 | X-H torsion
[ 8008 7997 7996 7995 ] final   99.56 input   59.86 | X-H torsion
[ 10167 10162 10161 10158 ] final   75.98 input  -65.29 | X-H torsion
[ 10718 10713 10712 10709 ] final  -61.96 input   66.30 | X-H torsion
[ 10763 10752 10751 10750 ] final  -80.18 input  -60.55 | X-H torsion
[ 11005 11000 10999 10996 ] final   -7.96 input  -57.11 | X-H torsion

> <Gold.Protein.ActiveResidues>
 VAL166  LYS551  ARG553  GLY616  TRP617  ASP618  TYR619  PRO620  LYS621  CYS622 
 ASP623  PHE694  ASN695  SER759  ASP760  ASP761  ALA762  ILE779  LEU786  VAL792 
 PHE793  MET794  SER795  GLU796  ALA797  LYS798  CYS799  TRP800  GLU811  SER814 

> <Gold.Protein.RotatedAtoms>
  152.1849  133.4733  159.4977 H   0  0  0  0  0  0  0  0  0  0  0  0  # atno 6907 bound_to 6896
  150.6941  134.1786  159.4249 H   0  0  0  0  0  0  0  0  0  0  0  0  # atno 6908 bound_to 6896
  151.9699  135.0081  160.0603 H   0  0  0  0  0  0  0  0  0  0  0  0  # atno 6909 bound_to 6896
  145.3830  140.9520  143.2383 H   0  0  0  0  0  0  0  0  0  0  0  0  # atno 7974 bound_to 7965
  156.1117  140.3227  155.8082 H   0  0  0  0  0  0  0  0  0  0  0  0  # atno 8008 bound_to 7997
  155.4661  140.0543  157.3002 H   0  0  0  0  0  0  0  0  0  0  0  0  # atno 8009 bound_to 7997
  154.4764  140.2034  155.9881 H   0  0  0  0  0  0  0  0  0  0  0  0  # atno 8010 bound_to 7997
  139.9972  144.5713  150.7768 H   0  0  0  0  0  0  0  0  0  0  0  0  # atno 10167 bound_to 10162
  156.0887  130.4204  150.1067 H   0  0  0  0  0  0  0  0  0  0  0  0  # atno 10718 bound_to 10713
  154.5479  135.5670  153.6896 H   0  0  0  0  0  0  0  0  0  0  0  0  # atno 10763 bound_to 10752
  152.9981  135.6243  154.2414 H   0  0  0  0  0  0  0  0  0  0  0  0  # atno 10764 bound_to 10752
  154.2347  135.2864  155.2856 H   0  0  0  0  0  0  0  0  0  0  0  0  # atno 10765 bound_to 10752
  140.7183  133.8850  155.8802 H   0  0  0  0  0  0  0  0  0  0  0  0  # atno 11005 bound_to 11000
  144.8494  139.5346  143.6863 LP  0  0  0  0  0  0  0  0  0  0  0  0  # atno 17320 bound_to 7965
  146.2833  139.6935  142.9213 LP  0  0  0  0  0  0  0  0  0  0  0  0  # atno 17321 bound_to 7965
  140.7433  143.2844  151.3507 LP  0  0  0  0  0  0  0  0  0  0  0  0  # atno 17342 bound_to 10162
  139.6298  144.0743  152.2466 LP  0  0  0  0  0  0  0  0  0  0  0  0  # atno 17343 bound_to 10162
  156.9082  130.9643  151.3567 LP  0  0  0  0  0  0  0  0  0  0  0  0  # atno 17370 bound_to 10713
  157.6030  130.8526  149.8831 LP  0  0  0  0  0  0  0  0  0  0  0  0  # atno 17371 bound_to 10713
  141.0025  134.1131  157.4303 LP  0  0  0  0  0  0  0  0  0  0  0  0  # atno 17394 bound_to 11000
  139.8854  135.0072  156.6434 LP  0  0  0  0  0  0  0  0  0  0  0  0  # atno 17395 bound_to 11000

$$$$
