AV-unprocessed.smi:276|AV-procd|sdf|2071|dock1
  -GOLD-   2262021323D 1   1.00000     0.00000
 Structure written by MMmdl.
 57 61  0  0  0  0  0  0  0  0  1 V2000
  149.4819  132.8112  153.9420 C   0  0  0  0  0  0  0  0  0  0  0  0
  149.2142  134.1301  154.3844 O   0  0  0  0  0  0  0  0  0  0  0  0
  148.5849  134.1692  155.6580 C   0  0  1  0  0  0  0  0  0  0  0  0
  149.5842  134.0436  156.8182 C   0  0  0  0  0  0  0  0  0  0  0  0
  149.7076  135.5801  156.8463 C   0  0  1  0  0  0  0  0  0  0  0  0
  150.8605  136.0433  156.0608 N   0  0  0  0  0  0  0  0  0  0  0  0
  152.1772  135.6837  156.5772 C   0  0  0  0  0  0  0  0  0  0  0  0
  150.8474  137.3465  155.7036 C   0  0  0  0  0  0  0  0  0  0  0  0
  150.7065  137.6219  154.3831 N   0  0  0  0  0  0  0  0  0  0  0  0
  150.6673  138.8907  153.9657 C   0  0  0  0  0  0  0  0  0  0  0  0
  150.7550  140.0107  154.6868 N   0  0  0  0  0  0  0  0  0  0  0  0
  150.9147  139.7348  156.0133 C   0  0  0  0  0  0  0  0  0  0  0  0
  150.9787  138.4418  156.6045 C   0  0  0  0  0  0  0  0  0  0  0  0
  151.1547  138.5579  157.9785 N   0  0  0  0  0  0  0  0  0  0  0  0
  151.1767  139.8452  158.1895 C   0  0  0  0  0  0  0  0  0  0  0  0
  151.0355  140.6253  157.0650 N   0  0  0  0  0  0  0  0  0  0  0  0
  151.0144  142.0772  157.0156 C   0  0  0  0  0  0  0  0  0  0  0  0
  150.8079  142.7132  158.4096 C   0  0  2  0  0  0  0  0  0  0  0  0
  149.6046  143.4588  158.3690 O   0  0  0  0  0  0  0  0  0  0  0  0
  151.9336  143.6847  158.8360 C   0  0  2  0  0  0  0  0  0  0  0  0
  153.3022  143.0330  159.1060 C   0  0  0  0  0  0  0  0  0  0  0  0
  153.2911  142.7918  160.5979 C   0  0  0  0  0  0  0  0  0  0  0  0
  152.5488  144.0251  161.0836 C   0  0  0  0  0  0  0  0  0  0  0  0
  151.5509  144.2458  160.0960 O   0  0  0  0  0  0  0  0  0  0  0  0
  148.3350  135.6146  156.1214 C   0  0  0  0  0  0  0  0  0  0  0  0
  147.0613  135.9026  156.9356 C   0  0  0  0  0  0  0  0  0  0  0  0
  146.4263  136.4519  155.6561 C   0  0  0  0  0  0  0  0  0  0  0  0
  147.8450  136.7031  155.1436 C   0  0  0  0  0  0  0  0  0  0  0  0
  149.9553  132.8446  152.9609 H   0  0  0  0  0  0  0  0  0  0  0  0
  148.5614  132.2336  153.8508 H   0  0  0  0  0  0  0  0  0  0  0  0
  150.1559  132.2893  154.6217 H   0  0  0  0  0  0  0  0  0  0  0  0
  147.7082  133.5241  155.7352 H   0  0  0  0  0  0  0  0  0  0  0  0
  149.1155  133.6535  157.7230 H   0  0  0  0  0  0  0  0  0  0  0  0
  150.4918  133.4885  156.5847 H   0  0  0  0  0  0  0  0  0  0  0  0
  149.6747  135.9744  157.8619 H   0  0  0  0  0  0  0  0  0  0  0  0
  152.9745  136.2696  156.1164 H   0  0  0  0  0  0  0  0  0  0  0  0
  152.3923  134.6348  156.3760 H   0  0  0  0  0  0  0  0  0  0  0  0
  152.2231  135.8410  157.6554 H   0  0  0  0  0  0  0  0  0  0  0  0
  150.5448  139.0281  152.9015 H   0  0  0  0  0  0  0  0  0  0  0  0
  151.2926  140.2640  159.1786 H   0  0  0  0  0  0  0  0  0  0  0  0
  151.9570  142.3962  156.5734 H   0  0  0  0  0  0  0  0  0  0  0  0
  150.2254  142.3933  156.3318 H   0  0  0  0  0  0  0  0  0  0  0  0
  150.6999  141.9225  159.1533 H   0  0  0  0  0  0  0  0  0  0  0  0
  149.5122  143.8337  157.5064 H   0  0  0  0  0  0  0  0  0  0  0  0
  152.0478  144.4763  158.0935 H   0  0  0  0  0  0  0  0  0  0  0  0
  153.5074  142.1294  158.5362 H   0  0  0  0  0  0  0  0  0  0  0  0
  154.0930  143.7456  158.8664 H   0  0  0  0  0  0  0  0  0  0  0  0
  152.7254  141.8892  160.8330 H   0  0  0  0  0  0  0  0  0  0  0  0
  154.2893  142.6973  161.0263 H   0  0  0  0  0  0  0  0  0  0  0  0
  152.1114  143.8932  162.0735 H   0  0  0  0  0  0  0  0  0  0  0  0
  153.2154  144.8880  161.1144 H   0  0  0  0  0  0  0  0  0  0  0  0
  146.5666  135.0238  157.3505 H   0  0  0  0  0  0  0  0  0  0  0  0
  147.2117  136.6730  157.6940 H   0  0  0  0  0  0  0  0  0  0  0  0
  145.8982  135.6884  155.0826 H   0  0  0  0  0  0  0  0  0  0  0  0
  145.8231  137.3498  155.7930 H   0  0  0  0  0  0  0  0  0  0  0  0
  148.1785  137.7101  155.3930 H   0  0  0  0  0  0  0  0  0  0  0  0
  147.9954  136.4819  154.0867 H   0  0  0  0  0  0  0  0  0  0  0  0
  1  2  1  0  0  0  0
  1 29  1  0  0  0  0
  1 30  1  0  0  0  0
  1 31  1  0  0  0  0
  2  3  1  0  0  0  0
  3 25  1  0  0  0  0
  3  4  1  0  0  0  0
  3 32  1  0  0  0  0
  4  5  1  0  0  0  0
  4 33  1  0  0  0  0
  4 34  1  0  0  0  0
  5  6  1  0  0  0  0
  5 25  1  0  0  0  0
  5 35  1  0  0  0  0
  6  7  1  0  0  0  0
  6  8  1  0  0  0  0
  7 36  1  0  0  0  0
  7 37  1  0  0  0  0
  7 38  1  0  0  0  0
  8 13  1  0  0  0  0
  8  9  2  0  0  0  0
  9 10  1  0  0  0  0
 10 11  2  0  0  0  0
 10 39  1  0  0  0  0
 11 12  1  0  0  0  0
 12 16  1  0  0  0  0
 12 13  2  0  0  0  0
 13 14  1  0  0  0  0
 14 15  2  0  0  0  0
 15 16  1  0  0  0  0
 15 40  1  0  0  0  0
 16 17  1  0  0  0  0
 17 18  1  0  0  0  0
 17 41  1  0  0  0  0
 17 42  1  0  0  0  0
 18 19  1  0  0  0  0
 18 20  1  0  0  0  0
 18 43  1  0  0  0  0
 19 44  1  0  0  0  0
 20 24  1  0  0  0  0
 20 21  1  0  0  0  0
 20 45  1  0  0  0  0
 21 22  1  0  0  0  0
 21 46  1  0  0  0  0
 21 47  1  0  0  0  0
 22 23  1  0  0  0  0
 22 48  1  0  0  0  0
 22 49  1  0  0  0  0
 23 24  1  0  0  0  0
 23 50  1  0  0  0  0
 23 51  1  0  0  0  0
 25 28  1  0  0  0  0
 25 26  1  0  0  0  0
 26 27  1  0  0  0  0
 26 52  1  0  0  0  0
 26 53  1  0  0  0  0
 27 28  1  0  0  0  0
 27 54  1  0  0  0  0
 27 55  1  0  0  0  0
 28 56  1  0  0  0  0
 28 57  1  0  0  0  0
M  END
> <s_m_source_file>
AV-unprocessed.smi

> <i_m_source_file_index>
276

> <i_lp_mmshare_version>
43012

> <i_f3d_flags>
0

> <s_epik_input>
W0NIMl0xW0NIMl1bQ0gyXUMxMltDQEhdKE9bQ0gzXSlbQ0gyXVtDQEhdMk4oW0NIM10pYyhuW2NIXW4zKWMoYzM0KW5bY0hdbjRbQ0gyXVtDQEhdKFtPSF0pW0NAQEhdNVtDSDJdW0NIMl1bQ0gyXU81

> <s_epik_cmdline>
J2VwaWtfcHl0aG9uJywgJy1waCcsICc3LjAnLCAnLXRuJywgJzgnLCAnLW1hJywgJzIwMCcsICctbWV0YWxfYmluZGluZycsICctaW1hZScsICc8aW5maWxlLm1hZT4nLCAnLW9tYWUnLCAnPG91dGZpbGUubWFlPic=

> <r_lp_tautomer_probability>
1

> <r_epik_Ionization_Penalty>
0.00204117

> <r_epik_Ionization_Penalty_Charging>
0

> <r_epik_Ionization_Penalty_Neutral>
0.00204117

> <r_epik_State_Penalty>
0.00127401

> <r_epik_Charging_Adjusted_Penalty>
0.00127401

> <i_epik_Tot_Q>
0

> <i_epik_Tot_abs_Q>
0

> <r_epik_Metal_State_Penalty>
-0

> <b_epik_Metal_Only>
0

> <s_lp_Force_Field>
OPLS_2005

> <r_lp_Energy>
58.0583

> <b_lp_Chiralities_Consistent>
1

> <s_lp_Variant>
AV-unprocessed.smi:276-2

> <Gold.Version>
5.8.1

> <Gold.Id.Protein>
6NUR|6NUR_protein|mol2

> <Gold.PLP.Fitness>
44.6405

> <Gold.PLP.PLP>
-37.1241

> <Gold.PLP.part.hbond>
-3.0000

> <Gold.PLP.part.metal>
0.0000

> <Gold.PLP.part.buried>
-6.7538

> <Gold.PLP.part.nonpolar>
-28.6569

> <Gold.PLP.part.repulsive>
0.5565

> <Gold.PLP.ligand.clash>
0.0000

> <Gold.PLP.ligand.torsion>
1.3407

> <Gold.PLP.Chemscore.Hbond>
2.0000

> <Gold.PLP.Chemscore.CHOScore>
0.9626

> <Gold.PLP.Chemscore.Metal>
0.0000

> <Gold.Chemscore.Hbonds>
donor molecule, donor type, donor heavy atom, donor atom, acceptor molecule, acceptor atom, score
      L1  H    19    44       P1  8028  0.78
      P1  H  7989  7998       L1    11  0.70
      L1  C    10    39       P1  7957  1.00

> <Gold.PLP.Chemscore.Internal.Correction>
1.3101

> <Gold.Rescore>
     Score         DG    S(hbond)    S(metal)    S(lipo)     H(rot)  DE(clash)    DE(int)     intcor
     12.57     -14.33       1.68        0.00      87.02       2.72       0.51       1.26       ----

> <Gold.Chemscore.Fitness>
12.5669

> <Gold.Chemscore.DG>
-14.3312

> <Gold.Chemscore.ZeroCoef>
-5.4800

> <Gold.Chemscore.Hbond>
1.6843

> <Gold.Chemscore.Metal>
0.0000

> <Gold.Chemscore.Lipo>
87.0218

> <Gold.Chemscore.Internal_Hbond>
0.0000

> <Gold.Chemscore.DEClash>
0.5079

> <Gold.Chemscore.DEInternal>
1.2564

> <Gold.Chemscore.Rot>
2.7172

> <Gold.Chemscore.Internal.Correction>
   9.000000E+99

> <Gold.Chemscore.Hbonds>
donor molecule, donor type, donor heavy atom, donor atom, acceptor molecule, acceptor atom, score
      L1  H    19    44       P1  8028  0.30
      P1  H  7989  7998       L1    11  0.07

> <Gold.Chemscore.Hbond.Weighted>
-5.6257

> <Gold.Chemscore.Metal.Weighted>
-0.0000

> <Gold.Chemscore.Lipo.Weighted>
-10.1816

> <Gold.Chemscore.Internal_Hbond.Weighted>
0.0000

> <Gold.Chemscore.DEClash.Weighted>
0.5079

> <Gold.Chemscore.DEInternal.Weighted>
1.2564

> <Gold.Chemscore.Rot.Weighted>
6.9560

> <Gold.Chemscore.Internal.Correction.Weighted>
   9.000000E+99

> <Gold.Protein.RotatedTorsions>
[ 6907 6896 6895 6894 ] final  120.94 input  -60.11 | X-H torsion
[ 7974 7965 7964 7962 ] final -103.44 input  175.53 | X-H torsion
[ 8008 7997 7996 7995 ] final -133.20 input   59.86 | X-H torsion
[ 10167 10162 10161 10158 ] final  -19.64 input  -65.29 | X-H torsion
[ 10718 10713 10712 10709 ] final  166.71 input   66.30 | X-H torsion
[ 10763 10752 10751 10750 ] final  -29.81 input  -60.55 | X-H torsion
[ 11005 11000 10999 10996 ] final  -73.83 input  -57.11 | X-H torsion

> <Gold.Protein.ActiveResidues>
 VAL166  LYS551  ARG553  GLY616  TRP617  ASP618  TYR619  PRO620  LYS621  CYS622 
 ASP623  PHE694  ASN695  SER759  ASP760  ASP761  ALA762  ILE779  LEU786  VAL792 
 PHE793  MET794  SER795  GLU796  ALA797  LYS798  CYS799  TRP800  GLU811  SER814 

> <Gold.Protein.RotatedAtoms>
  152.4360  133.7361  159.6614 H   0  0  0  0  0  0  0  0  0  0  0  0  # atno 6907 bound_to 6896
  150.8244  133.8187  159.3131 H   0  0  0  0  0  0  0  0  0  0  0  0  # atno 6908 bound_to 6896
  151.5860  135.1058  160.0080 H   0  0  0  0  0  0  0  0  0  0  0  0  # atno 6909 bound_to 6896
  145.2559  140.9253  143.3068 H   0  0  0  0  0  0  0  0  0  0  0  0  # atno 7974 bound_to 7965
  155.3415  140.0472  157.3045 H   0  0  0  0  0  0  0  0  0  0  0  0  # atno 8008 bound_to 7997
  154.5275  140.2246  155.8829 H   0  0  0  0  0  0  0  0  0  0  0  0  # atno 8009 bound_to 7997
  156.1754  140.3086  155.9056 H   0  0  0  0  0  0  0  0  0  0  0  0  # atno 8010 bound_to 7997
  140.7270  143.4799  151.0131 H   0  0  0  0  0  0  0  0  0  0  0  0  # atno 10167 bound_to 10162
  157.0619  131.0342  151.2644 H   0  0  0  0  0  0  0  0  0  0  0  0  # atno 10718 bound_to 10713
  153.7708  135.6912  153.4907 H   0  0  0  0  0  0  0  0  0  0  0  0  # atno 10763 bound_to 10752
  153.1876  135.4483  155.0107 H   0  0  0  0  0  0  0  0  0  0  0  0  # atno 10764 bound_to 10752
  154.8118  135.3381  154.7217 H   0  0  0  0  0  0  0  0  0  0  0  0  # atno 10765 bound_to 10752
  141.1628  133.6891  156.7272 H   0  0  0  0  0  0  0  0  0  0  0  0  # atno 11005 bound_to 11000
  144.9461  139.4134  143.6425 LP  0  0  0  0  0  0  0  0  0  0  0  0  # atno 17320 bound_to 7965
  146.3289  139.8445  142.8884 LP  0  0  0  0  0  0  0  0  0  0  0  0  # atno 17321 bound_to 7965
  139.8497  143.7454  152.3178 LP  0  0  0  0  0  0  0  0  0  0  0  0  # atno 17342 bound_to 10162
  139.7632  144.7500  151.0333 LP  0  0  0  0  0  0  0  0  0  0  0  0  # atno 17343 bound_to 10162
  157.4948  130.7844  149.7544 LP  0  0  0  0  0  0  0  0  0  0  0  0  # atno 17370 bound_to 10713
  155.9976  130.3899  150.2734 LP  0  0  0  0  0  0  0  0  0  0  0  0  # atno 17371 bound_to 10713
  140.2772  134.8345  157.3901 LP  0  0  0  0  0  0  0  0  0  0  0  0  # atno 17394 bound_to 11000
  140.1466  134.4903  155.7991 LP  0  0  0  0  0  0  0  0  0  0  0  0  # atno 17395 bound_to 11000

$$$$
