AV-unprocessed.smi:241|AV-procd|sdf|1841|dock3
  -GOLD-   2262020453D 1   1.00000     0.00000
 Structure written by MMmdl.
 54 57  0  0  0  0  0  0  0  0  1 V2000
  149.3652  144.5681  159.9684 C   0  0  0  0  0  0  0  0  0  0  0  0
  150.4864  143.7058  159.8941 O   0  0  0  0  0  0  0  0  0  0  0  0
  151.2059  143.8489  158.6811 C   0  0  0  0  0  0  0  0  0  0  0  0
  152.4634  142.9590  158.6897 C   0  0  1  0  0  0  0  0  0  0  0  0
  153.2485  143.0760  159.9986 C   0  0  0  0  0  0  0  0  0  0  0  0
  154.0470  141.7732  160.0272 C   0  0  1  0  0  0  0  0  0  0  0  0
  154.4373  141.3753  161.3333 O   0  0  0  0  0  0  0  0  0  0  0  0
  155.0604  140.1017  161.3749 C   0  0  0  0  0  0  0  0  0  0  0  0
  153.0682  140.7632  159.4227 C   0  0  0  0  0  0  0  0  0  0  0  0
  152.1544  141.5322  158.5843 N   0  0  0  0  0  0  0  0  0  0  0  0
  151.8241  140.9614  157.3980 C   0  0  0  0  0  0  0  0  0  0  0  0
  152.7537  140.2710  156.6863 N   0  0  0  0  0  0  0  0  0  0  0  0
  152.4279  139.6980  155.5243 C   0  0  0  0  0  0  0  0  0  0  0  0
  151.2471  139.6844  154.9036 N   0  0  0  0  0  0  0  0  0  0  0  0
  150.3071  140.3698  155.6152 C   0  0  0  0  0  0  0  0  0  0  0  0
  150.5100  141.0363  156.8566 C   0  0  0  0  0  0  0  0  0  0  0  0
  149.3287  141.6436  157.2661 N   0  0  0  0  0  0  0  0  0  0  0  0
  148.4767  141.3519  156.3215 C   0  0  0  0  0  0  0  0  0  0  0  0
  148.9723  140.5640  155.3071 N   0  0  0  0  0  0  0  0  0  0  0  0
  148.2701  140.1244  154.1378 C   0  0  0  0  0  0  0  0  0  0  0  0
  146.7480  140.2402  154.0361 C   0  0  0  0  0  0  0  0  0  0  0  0
  146.7119  138.9470  153.1904 C   0  0  0  0  0  0  0  0  0  0  0  0
  145.5926  137.9459  153.5247 C   0  0  0  0  0  0  0  0  0  0  0  0
  145.4966  137.7159  154.9147 O   0  0  0  0  0  0  0  0  0  0  0  0
  146.7961  139.1245  151.6601 C   0  0  0  0  0  0  0  0  0  0  0  0
  147.0754  137.9093  150.9954 O   0  0  0  0  0  0  0  0  0  0  0  0
  148.0697  138.6335  153.8569 C   0  0  0  0  0  0  0  0  0  0  0  0
  153.1293  143.2537  157.8772 H   0  0  0  0  0  0  0  0  0  0  0  0
  154.9152  141.8564  159.3706 H   0  0  0  0  0  0  0  0  0  0  0  0
  148.8500  144.4175  160.9168 H   0  0  0  0  0  0  0  0  0  0  0  0
  148.6568  144.3652  159.1643 H   0  0  0  0  0  0  0  0  0  0  0  0
  149.6687  145.6145  159.9131 H   0  0  0  0  0  0  0  0  0  0  0  0
  150.5549  143.5473  157.8588 H   0  0  0  0  0  0  0  0  0  0  0  0
  151.4783  144.8922  158.5109 H   0  0  0  0  0  0  0  0  0  0  0  0
  153.8779  143.9656  160.0346 H   0  0  0  0  0  0  0  0  0  0  0  0
  152.5650  143.1090  160.8489 H   0  0  0  0  0  0  0  0  0  0  0  0
  155.3036  139.8491  162.4069 H   0  0  0  0  0  0  0  0  0  0  0  0
  155.9881  140.0902  160.8021 H   0  0  0  0  0  0  0  0  0  0  0  0
  154.3992  139.3256  160.9871 H   0  0  0  0  0  0  0  0  0  0  0  0
  153.5975  139.9839  158.8720 H   0  0  0  0  0  0  0  0  0  0  0  0
  152.4827  140.2807  160.2062 H   0  0  0  0  0  0  0  0  0  0  0  0
  153.2266  139.1723  155.0225 H   0  0  0  0  0  0  0  0  0  0  0  0
  147.4544  141.7004  156.3451 H   0  0  0  0  0  0  0  0  0  0  0  0
  148.7525  140.6174  153.2921 H   0  0  0  0  0  0  0  0  0  0  0  0
  146.2534  140.1250  155.0025 H   0  0  0  0  0  0  0  0  0  0  0  0
  146.3977  141.1372  153.5244 H   0  0  0  0  0  0  0  0  0  0  0  0
  144.6271  138.2912  153.1547 H   0  0  0  0  0  0  0  0  0  0  0  0
  145.7763  136.9826  153.0481 H   0  0  0  0  0  0  0  0  0  0  0  0
  146.2175  137.1619  155.1745 H   0  0  0  0  0  0  0  0  0  0  0  0
  145.8590  139.5091  151.2573 H   0  0  0  0  0  0  0  0  0  0  0  0
  147.5610  139.8538  151.3914 H   0  0  0  0  0  0  0  0  0  0  0  0
  147.4722  137.3138  151.6129 H   0  0  0  0  0  0  0  0  0  0  0  0
  148.8179  138.1963  153.1950 H   0  0  0  0  0  0  0  0  0  0  0  0
  147.9769  138.0506  154.7752 H   0  0  0  0  0  0  0  0  0  0  0  0
  1  2  1  0  0  0  0
  1 30  1  0  0  0  0
  1 31  1  0  0  0  0
  1 32  1  0  0  0  0
  2  3  1  0  0  0  0
  3  4  1  0  0  0  0
  3 33  1  0  0  0  0
  3 34  1  0  0  0  0
  4 28  1  0  0  0  0
  4 10  1  0  0  0  0
  4  5  1  0  0  0  0
  5  6  1  0  0  0  0
  5 35  1  0  0  0  0
  5 36  1  0  0  0  0
  6 29  1  0  0  0  0
  6  7  1  0  0  0  0
  6  9  1  0  0  0  0
  7  8  1  0  0  0  0
  8 37  1  0  0  0  0
  8 38  1  0  0  0  0
  8 39  1  0  0  0  0
  9 10  1  0  0  0  0
  9 40  1  0  0  0  0
  9 41  1  0  0  0  0
 10 11  1  0  0  0  0
 11 16  1  0  0  0  0
 11 12  2  0  0  0  0
 12 13  1  0  0  0  0
 13 14  2  0  0  0  0
 13 42  1  0  0  0  0
 14 15  1  0  0  0  0
 15 19  1  0  0  0  0
 15 16  2  0  0  0  0
 16 17  1  0  0  0  0
 17 18  2  0  0  0  0
 18 19  1  0  0  0  0
 18 43  1  0  0  0  0
 19 20  1  0  0  0  0
 20 27  1  0  0  0  0
 20 21  1  0  0  0  0
 20 44  1  0  0  0  0
 21 22  1  0  0  0  0
 21 45  1  0  0  0  0
 21 46  1  0  0  0  0
 22 23  1  0  0  0  0
 22 25  1  0  0  0  0
 22 27  1  0  0  0  0
 23 24  1  0  0  0  0
 23 47  1  0  0  0  0
 23 48  1  0  0  0  0
 24 49  1  0  0  0  0
 25 26  1  0  0  0  0
 25 50  1  0  0  0  0
 25 51  1  0  0  0  0
 26 52  1  0  0  0  0
 27 53  1  0  0  0  0
 27 54  1  0  0  0  0
M  END
> <s_m_source_file>
AV-unprocessed.smi

> <i_m_source_file_index>
241

> <i_lp_mmshare_version>
43012

> <i_f3d_flags>
0

> <s_epik_input>
W0NIM11PW0NIMl1bQ0BASF0xW0NIMl1bQ0BASF0oT1tDSDNdKVtDSDJdTjFjKG5bY0hdbjIpYyhjMjMpbltjSF1uM1tDSF0oW0NIMl00KVtDSDJdQzQoW0NIMl1bT0hdKVtDSDJdW09IXQ==

> <s_epik_cmdline>
J2VwaWtfcHl0aG9uJywgJy1waCcsICc3LjAnLCAnLXRuJywgJzgnLCAnLW1hJywgJzIwMCcsICctbWV0YWxfYmluZGluZycsICctaW1hZScsICc8aW5maWxlLm1hZT4nLCAnLW9tYWUnLCAnPG91dGZpbGUubWFlPic=

> <r_lp_tautomer_probability>
1

> <r_epik_Ionization_Penalty>
0.00568677

> <r_epik_Ionization_Penalty_Charging>
0

> <r_epik_Ionization_Penalty_Neutral>
0.00568677

> <r_epik_State_Penalty>
0.00400877

> <r_epik_Charging_Adjusted_Penalty>
0.00400877

> <i_epik_Tot_Q>
0

> <i_epik_Tot_abs_Q>
0

> <r_epik_Metal_State_Penalty>
-0

> <b_epik_Metal_Only>
0

> <s_lp_Force_Field>
OPLS_2005

> <r_lp_Energy>
53.235

> <b_lp_Chiralities_Consistent>
1

> <s_lp_Variant>
AV-unprocessed.smi:241-2

> <Gold.Version>
5.8.1

> <Gold.Id.Protein>
6NUR|6NUR_protein|mol2

> <Gold.PLP.Fitness>
56.4052

> <Gold.PLP.PLP>
-46.2128

> <Gold.PLP.part.hbond>
-5.3660

> <Gold.PLP.part.metal>
0.0000

> <Gold.PLP.part.buried>
-0.3022

> <Gold.PLP.part.nonpolar>
-40.0989

> <Gold.PLP.part.repulsive>
0.2641

> <Gold.PLP.ligand.clash>
0.0000

> <Gold.PLP.ligand.torsion>
0.9659

> <Gold.PLP.Chemscore.Hbond>
3.7520

> <Gold.PLP.Chemscore.CHOScore>
0.0000

> <Gold.PLP.Chemscore.Metal>
0.0000

> <Gold.Chemscore.Hbonds>
donor molecule, donor type, donor heavy atom, donor atom, acceptor molecule, acceptor atom, score
      L1  H    26    52       P1  7948  0.82
      P1  H  7954  7966       L1    26  0.95
      P1  H  7989  7998       L1    14  0.95
      P1  H  7997  8009       L1    12  0.91

> <Gold.PLP.Chemscore.Internal.Correction>
0.8682

> <Gold.Rescore>
     Score         DG    S(hbond)    S(metal)    S(lipo)     H(rot)  DE(clash)    DE(int)     intcor
     12.98     -14.22       1.92        0.00     106.91       3.97       0.15       1.09       ----

> <Gold.Chemscore.Fitness>
12.9829

> <Gold.Chemscore.DG>
-14.2221

> <Gold.Chemscore.ZeroCoef>
-5.4800

> <Gold.Chemscore.Hbond>
1.9173

> <Gold.Chemscore.Metal>
0.0000

> <Gold.Chemscore.Lipo>
106.9112

> <Gold.Chemscore.Internal_Hbond>
0.0000

> <Gold.Chemscore.DEClash>
0.1522

> <Gold.Chemscore.DEInternal>
1.0870

> <Gold.Chemscore.Rot>
3.9727

> <Gold.Chemscore.Internal.Correction>
   9.000000E+99

> <Gold.Chemscore.Hbonds>
donor molecule, donor type, donor heavy atom, donor atom, acceptor molecule, acceptor atom, score
      L1  H    26    52       P1  7948  0.81
      P1  H  7954  7966       L1    26  0.20
      P1  H  7989  7998       L1    14  0.09
      P1  H  7997  8009       L1    12  0.20

> <Gold.Chemscore.Hbond.Weighted>
-6.4037

> <Gold.Chemscore.Metal.Weighted>
-0.0000

> <Gold.Chemscore.Lipo.Weighted>
-12.5086

> <Gold.Chemscore.Internal_Hbond.Weighted>
0.0000

> <Gold.Chemscore.DEClash.Weighted>
0.1522

> <Gold.Chemscore.DEInternal.Weighted>
1.0870

> <Gold.Chemscore.Rot.Weighted>
10.1702

> <Gold.Chemscore.Internal.Correction.Weighted>
   9.000000E+99

> <Gold.Protein.RotatedTorsions>
[ 6907 6896 6895 6894 ] final -114.48 input  -60.11 | X-H torsion
[ 7974 7965 7964 7962 ] final -133.70 input  175.53 | X-H torsion
[ 8008 7997 7996 7995 ] final -179.37 input   59.86 | X-H torsion
[ 10167 10162 10161 10158 ] final  -27.92 input  -65.29 | X-H torsion
[ 10718 10713 10712 10709 ] final -127.65 input   66.30 | X-H torsion
[ 10763 10752 10751 10750 ] final   87.31 input  -60.55 | X-H torsion
[ 11005 11000 10999 10996 ] final  -13.29 input  -57.11 | X-H torsion

> <Gold.Protein.ActiveResidues>
 VAL166  LYS551  ARG553  GLY616  TRP617  ASP618  TYR619  PRO620  LYS621  CYS622 
 ASP623  PHE694  ASN695  SER759  ASP760  ASP761  ALA762  ILE779  LEU786  VAL792 
 PHE793  MET794  SER795  GLU796  ALA797  LYS798  CYS799  TRP800  GLU811  SER814 

> <Gold.Protein.RotatedAtoms>
  150.7905  133.8795  159.3281 H   0  0  0  0  0  0  0  0  0  0  0  0  # atno 6907 bound_to 6896
  151.6634  135.0984  160.0193 H   0  0  0  0  0  0  0  0  0  0  0  0  # atno 6908 bound_to 6896
  152.3978  133.6734  159.6326 H   0  0  0  0  0  0  0  0  0  0  0  0  # atno 6909 bound_to 6896
  144.9169  140.6966  143.4989 H   0  0  0  0  0  0  0  0  0  0  0  0  # atno 7974 bound_to 7965
  156.0298  140.1279  157.0270 H   0  0  0  0  0  0  0  0  0  0  0  0  # atno 8008 bound_to 7997
  154.4345  140.1052  156.6153 H   0  0  0  0  0  0  0  0  0  0  0  0  # atno 8009 bound_to 7997
  155.5824  140.3468  155.4546 H   0  0  0  0  0  0  0  0  0  0  0  0  # atno 8010 bound_to 7997
  140.7274  143.4053  151.1196 H   0  0  0  0  0  0  0  0  0  0  0  0  # atno 10167 bound_to 10162
  156.1877  130.6774  151.0385 H   0  0  0  0  0  0  0  0  0  0  0  0  # atno 10718 bound_to 10713
  153.1656  135.4548  154.9832 H   0  0  0  0  0  0  0  0  0  0  0  0  # atno 10763 bound_to 10752
  154.7929  135.3227  154.7738 H   0  0  0  0  0  0  0  0  0  0  0  0  # atno 10764 bound_to 10752
  153.8221  135.6946  153.4880 H   0  0  0  0  0  0  0  0  0  0  0  0  # atno 10765 bound_to 10752
  140.7746  133.8411  155.9237 H   0  0  0  0  0  0  0  0  0  0  0  0  # atno 11005 bound_to 11000
  145.3360  139.1746  143.4511 LP  0  0  0  0  0  0  0  0  0  0  0  0  # atno 17320 bound_to 7965
  146.3186  140.3395  142.8647 LP  0  0  0  0  0  0  0  0  0  0  0  0  # atno 17321 bound_to 7965
  139.7679  143.8538  152.3114 LP  0  0  0  0  0  0  0  0  0  0  0  0  # atno 17342 bound_to 10162
  139.8447  144.7193  150.9288 LP  0  0  0  0  0  0  0  0  0  0  0  0  # atno 17343 bound_to 10162
  157.6909  131.0810  150.7110 LP  0  0  0  0  0  0  0  0  0  0  0  0  # atno 17370 bound_to 10713
  156.7166  130.4668  149.5533 LP  0  0  0  0  0  0  0  0  0  0  0  0  # atno 17371 bound_to 10713
  140.9541  134.1740  157.4705 LP  0  0  0  0  0  0  0  0  0  0  0  0  # atno 17394 bound_to 11000
  139.8751  134.9920  156.5577 LP  0  0  0  0  0  0  0  0  0  0  0  0  # atno 17395 bound_to 11000

$$$$
