AV-unprocessed.smi:193|AV-procd|sdf|1515|dock6
  -GOLD-   2262019353D 1   1.00000     0.00000
 Structure written by MMmdl.
 61 65  0  0  0  0  0  0  0  0  1 V2000
  153.0542  138.7077  155.0423 C   0  0  0  0  0  0  0  0  0  0  0  0
  152.0019  139.7244  155.5113 C   0  0  1  0  0  0  0  0  0  0  0  0
  150.5907  139.1710  155.2184 C   0  0  0  0  0  0  0  0  0  0  0  0
  149.5263  140.1760  155.2286 N   0  0  0  0  0  0  0  0  0  0  0  0
  148.4479  139.9828  154.4211 C   0  0  0  0  0  0  0  0  0  0  0  0
  148.0005  141.0202  153.6637 N   0  0  0  0  0  0  0  0  0  0  0  0
  146.9466  140.8706  152.8568 C   0  0  0  0  0  0  0  0  0  0  0  0
  146.1981  139.7855  152.6556 N   0  0  0  0  0  0  0  0  0  0  0  0
  146.6353  138.7383  153.4111 C   0  0  0  0  0  0  0  0  0  0  0  0
  147.7421  138.7469  154.3088 C   0  0  0  0  0  0  0  0  0  0  0  0
  147.8681  137.4951  154.9028 N   0  0  0  0  0  0  0  0  0  0  0  0
  146.9014  136.7902  154.3833 C   0  0  0  0  0  0  0  0  0  0  0  0
  146.1051  137.4619  153.4851 N   0  0  0  0  0  0  0  0  0  0  0  0
  144.9537  136.9276  152.7736 C   0  0  0  0  0  0  0  0  0  0  0  0
  145.3246  135.9468  151.6334 C   0  0  0  0  0  0  0  0  0  0  0  0
  145.8824  136.7092  150.5764 O   0  0  0  0  0  0  0  0  0  0  0  0
  146.3601  134.8881  152.0721 C   0  0  0  0  0  0  0  0  0  0  0  0
  146.5708  133.8052  150.9993 C   0  0  0  0  0  0  0  0  0  0  0  0
  145.3268  133.2073  150.6546 O   0  0  0  0  0  0  0  0  0  0  0  0
  144.4108  134.1330  150.0823 C   0  0  0  0  0  0  0  0  0  0  0  0
  144.0656  135.2320  151.1034 C   0  0  0  0  0  0  0  0  0  0  0  0
  149.6734  141.4406  155.9505 C   0  0  0  0  0  0  0  0  0  0  0  0
  150.1684  141.2436  157.3897 C   0  0  0  0  0  0  0  0  0  0  0  0
  151.6265  141.2899  157.4451 N   0  0  0  0  0  0  0  0  0  0  0  0
  152.0241  141.5241  158.8269 C   0  0  1  0  0  0  0  0  0  0  0  0
  153.4474  141.9665  159.0856 C   0  0  0  0  0  0  0  0  0  0  0  0
  152.3137  142.9469  159.2706 C   0  0  1  0  0  0  0  0  0  0  0  0
  152.1779  144.1391  158.3429 C   0  0  0  0  0  0  0  0  0  0  0  0
  152.2095  140.0205  157.0133 C   0  0  0  0  0  0  0  0  0  0  0  0
  152.9561  137.7614  155.5755 H   0  0  0  0  0  0  0  0  0  0  0  0
  154.0655  139.0806  155.2079 H   0  0  0  0  0  0  0  0  0  0  0  0
  152.9559  138.5010  153.9762 H   0  0  0  0  0  0  0  0  0  0  0  0
  152.1689  140.6332  154.9307 H   0  0  0  0  0  0  0  0  0  0  0  0
  150.6077  138.7085  154.2305 H   0  0  0  0  0  0  0  0  0  0  0  0
  150.3446  138.3803  155.9277 H   0  0  0  0  0  0  0  0  0  0  0  0
  146.6610  141.7471  152.2939 H   0  0  0  0  0  0  0  0  0  0  0  0
  146.7339  135.7570  154.6508 H   0  0  0  0  0  0  0  0  0  0  0  0
  144.3091  136.4297  153.4992 H   0  0  0  0  0  0  0  0  0  0  0  0
  144.3758  137.7656  152.3811 H   0  0  0  0  0  0  0  0  0  0  0  0
  145.2712  137.3917  150.3438 H   0  0  0  0  0  0  0  0  0  0  0  0
  147.3164  135.3528  152.3147 H   0  0  0  0  0  0  0  0  0  0  0  0
  146.0140  134.4054  152.9871 H   0  0  0  0  0  0  0  0  0  0  0  0
  147.0463  134.2210  150.1097 H   0  0  0  0  0  0  0  0  0  0  0  0
  147.2378  133.0312  151.3789 H   0  0  0  0  0  0  0  0  0  0  0  0
  144.8299  134.5595  149.1697 H   0  0  0  0  0  0  0  0  0  0  0  0
  143.5069  133.5972  149.7921 H   0  0  0  0  0  0  0  0  0  0  0  0
  143.5336  134.7723  151.9375 H   0  0  0  0  0  0  0  0  0  0  0  0
  143.3745  135.9507  150.6609 H   0  0  0  0  0  0  0  0  0  0  0  0
  150.3194  142.1219  155.3952 H   0  0  0  0  0  0  0  0  0  0  0  0
  148.7034  141.9340  156.0205 H   0  0  0  0  0  0  0  0  0  0  0  0
  149.7846  142.0797  157.9761 H   0  0  0  0  0  0  0  0  0  0  0  0
  149.7655  140.3383  157.8469 H   0  0  0  0  0  0  0  0  0  0  0  0
  151.5996  140.8810  159.5964 H   0  0  0  0  0  0  0  0  0  0  0  0
  153.9348  141.5879  159.9815 H   0  0  0  0  0  0  0  0  0  0  0  0
  154.1011  142.1058  158.2264 H   0  0  0  0  0  0  0  0  0  0  0  0
  152.0464  143.1750  160.3005 H   0  0  0  0  0  0  0  0  0  0  0  0
  152.5049  143.8911  157.3326 H   0  0  0  0  0  0  0  0  0  0  0  0
  152.7883  144.9652  158.7074 H   0  0  0  0  0  0  0  0  0  0  0  0
  151.1389  144.4661  158.3025 H   0  0  0  0  0  0  0  0  0  0  0  0
  151.8356  139.1971  157.6241 H   0  0  0  0  0  0  0  0  0  0  0  0
  153.2822  140.0771  157.2033 H   0  0  0  0  0  0  0  0  0  0  0  0
  1  2  1  0  0  0  0
  1 30  1  0  0  0  0
  1 31  1  0  0  0  0
  1 32  1  0  0  0  0
  2 29  1  0  0  0  0
  2  3  1  0  0  0  0
  2 33  1  0  0  0  0
  3  4  1  0  0  0  0
  3 34  1  0  0  0  0
  3 35  1  0  0  0  0
  4  5  1  0  0  0  0
  4 22  1  0  0  0  0
  5 10  1  0  0  0  0
  5  6  2  0  0  0  0
  6  7  1  0  0  0  0
  7  8  2  0  0  0  0
  7 36  1  0  0  0  0
  8  9  1  0  0  0  0
  9 13  1  0  0  0  0
  9 10  2  0  0  0  0
 10 11  1  0  0  0  0
 11 12  2  0  0  0  0
 12 13  1  0  0  0  0
 12 37  1  0  0  0  0
 13 14  1  0  0  0  0
 14 15  1  0  0  0  0
 14 38  1  0  0  0  0
 14 39  1  0  0  0  0
 15 21  1  0  0  0  0
 15 16  1  0  0  0  0
 15 17  1  0  0  0  0
 16 40  1  0  0  0  0
 17 18  1  0  0  0  0
 17 41  1  0  0  0  0
 17 42  1  0  0  0  0
 18 19  1  0  0  0  0
 18 43  1  0  0  0  0
 18 44  1  0  0  0  0
 19 20  1  0  0  0  0
 20 21  1  0  0  0  0
 20 45  1  0  0  0  0
 20 46  1  0  0  0  0
 21 47  1  0  0  0  0
 21 48  1  0  0  0  0
 22 23  1  0  0  0  0
 22 49  1  0  0  0  0
 22 50  1  0  0  0  0
 23 24  1  0  0  0  0
 23 51  1  0  0  0  0
 23 52  1  0  0  0  0
 24 25  1  0  0  0  0
 24 29  1  0  0  0  0
 25 27  1  0  0  0  0
 25 26  1  0  0  0  0
 25 53  1  0  0  0  0
 26 27  1  0  0  0  0
 26 54  1  0  0  0  0
 26 55  1  0  0  0  0
 27 28  1  0  0  0  0
 27 56  1  0  0  0  0
 28 57  1  0  0  0  0
 28 58  1  0  0  0  0
 28 59  1  0  0  0  0
 29 60  1  0  0  0  0
 29 61  1  0  0  0  0
M  END
> <s_m_source_file>
AV-unprocessed.smi

> <i_m_source_file_index>
193

> <i_lp_mmshare_version>
43012

> <i_f3d_flags>
0

> <s_epik_input>
W0NIM11bQ0BASF0xW0NIMl1bQ0BIXTFOKFtDSDJdMilbQ0gyXVtDSDJdTihbQ0gyXVtDQEhdMltDSDNdKWMobltjSF1uMyljKGMzNCluW2NIXW40W0NIMl1DNShbT0hdKVtDSDJdW0NIMl1PW0NIMl1bQ0gyXTU=

> <s_epik_cmdline>
J2VwaWtfcHl0aG9uJywgJy1waCcsICc3LjAnLCAnLXRuJywgJzgnLCAnLW1hJywgJzIwMCcsICctbWV0YWxfYmluZGluZycsICctaW1hZScsICc8aW5maWxlLm1hZT4nLCAnLW9tYWUnLCAnPG91dGZpbGUubWFlPic=

> <r_lp_tautomer_probability>
1

> <r_epik_Ionization_Penalty>
1.45227

> <r_epik_Ionization_Penalty_Charging>
0

> <r_epik_Ionization_Penalty_Neutral>
1.45227

> <r_epik_State_Penalty>
2.02377

> <r_epik_Charging_Adjusted_Penalty>
2.02377

> <i_epik_Tot_Q>
0

> <i_epik_Tot_abs_Q>
0

> <r_epik_Metal_State_Penalty>
2.01937

> <b_epik_Metal_Only>
0

> <s_lp_Force_Field>
OPLS_2005

> <r_lp_Energy>
52.058

> <b_lp_Chiralities_Consistent>
1

> <s_lp_Variant>
AV-unprocessed.smi:193-20

> <Gold.Version>
5.8.1

> <Gold.Id.Protein>
6NUR|6NUR_protein|mol2

> <Gold.PLP.Fitness>
44.6333

> <Gold.PLP.PLP>
-43.5592

> <Gold.PLP.part.hbond>
-1.3755

> <Gold.PLP.part.metal>
0.0000

> <Gold.PLP.part.buried>
-4.0435

> <Gold.PLP.part.nonpolar>
-41.4783

> <Gold.PLP.part.repulsive>
4.0690

> <Gold.PLP.ligand.clash>
0.0000

> <Gold.PLP.ligand.torsion>
1.5615

> <Gold.PLP.Chemscore.Hbond>
1.0000

> <Gold.PLP.Chemscore.CHOScore>
0.0000

> <Gold.PLP.Chemscore.Metal>
0.0000

> <Gold.Chemscore.Hbonds>
donor molecule, donor type, donor heavy atom, donor atom, acceptor molecule, acceptor atom, score
      L1  H    16    40       P1 10171  1.00

> <Gold.PLP.Chemscore.Internal.Correction>
1.1972

> <Gold.Rescore>
     Score         DG    S(hbond)    S(metal)    S(lipo)     H(rot)  DE(clash)    DE(int)     intcor
     14.14     -17.30       1.00        0.00     114.37       1.91       1.74       1.42       ----

> <Gold.Chemscore.Fitness>
14.1443

> <Gold.Chemscore.DG>
-17.3044

> <Gold.Chemscore.ZeroCoef>
-5.4800

> <Gold.Chemscore.Hbond>
0.9954

> <Gold.Chemscore.Metal>
0.0000

> <Gold.Chemscore.Lipo>
114.3700

> <Gold.Chemscore.Internal_Hbond>
0.0000

> <Gold.Chemscore.DEClash>
1.7448

> <Gold.Chemscore.DEInternal>
1.4153

> <Gold.Chemscore.Rot>
1.9068

> <Gold.Chemscore.Internal.Correction>
   9.000000E+99

> <Gold.Chemscore.Hbonds>
donor molecule, donor type, donor heavy atom, donor atom, acceptor molecule, acceptor atom, score
      L1  H    16    40       P1 10171  1.00

> <Gold.Chemscore.Hbond.Weighted>
-3.3245

> <Gold.Chemscore.Metal.Weighted>
-0.0000

> <Gold.Chemscore.Lipo.Weighted>
-13.3813

> <Gold.Chemscore.Internal_Hbond.Weighted>
0.0000

> <Gold.Chemscore.DEClash.Weighted>
1.7448

> <Gold.Chemscore.DEInternal.Weighted>
1.4153

> <Gold.Chemscore.Rot.Weighted>
4.8814

> <Gold.Chemscore.Internal.Correction.Weighted>
   9.000000E+99

> <Gold.Protein.RotatedTorsions>
[ 6907 6896 6895 6894 ] final -125.01 input  -60.11 | X-H torsion
[ 7974 7965 7964 7962 ] final  -46.69 input  175.53 | X-H torsion
[ 8008 7997 7996 7995 ] final  131.37 input   59.86 | X-H torsion
[ 10167 10162 10161 10158 ] final  -26.94 input  -65.29 | X-H torsion
[ 10718 10713 10712 10709 ] final  -39.54 input   66.30 | X-H torsion
[ 10763 10752 10751 10750 ] final   31.31 input  -60.55 | X-H torsion
[ 11005 11000 10999 10996 ] final  144.56 input  -57.11 | X-H torsion

> <Gold.Protein.ActiveResidues>
 VAL166  LYS551  ARG553  GLY616  TRP617  ASP618  TYR619  PRO620  LYS621  CYS622 
 ASP623  PHE694  ASN695  SER759  ASP760  ASP761  ALA762  ILE779  LEU786  VAL792 
 PHE793  MET794  SER795  GLU796  ALA797  LYS798  CYS799  TRP800  GLU811  SER814 

> <Gold.Protein.RotatedAtoms>
  150.8825  133.7353  159.2927 H   0  0  0  0  0  0  0  0  0  0  0  0  # atno 6907 bound_to 6896
  151.4929  135.1057  159.9818 H   0  0  0  0  0  0  0  0  0  0  0  0  # atno 6908 bound_to 6896
  152.4769  133.8113  159.7060 H   0  0  0  0  0  0  0  0  0  0  0  0  # atno 6909 bound_to 6896
  145.9693  140.7400  142.9418 H   0  0  0  0  0  0  0  0  0  0  0  0  # atno 7974 bound_to 7965
  156.2969  140.2573  156.2915 H   0  0  0  0  0  0  0  0  0  0  0  0  # atno 8008 bound_to 7997
  154.9505  140.0394  157.2160 H   0  0  0  0  0  0  0  0  0  0  0  0  # atno 8009 bound_to 7997
  154.8041  140.2833  155.5905 H   0  0  0  0  0  0  0  0  0  0  0  0  # atno 8010 bound_to 7997
  140.7280  143.4135  151.1067 H   0  0  0  0  0  0  0  0  0  0  0  0  # atno 10167 bound_to 10162
  156.2913  130.4228  149.8236 H   0  0  0  0  0  0  0  0  0  0  0  0  # atno 10718 bound_to 10713
  153.0322  135.6442  154.1180 H   0  0  0  0  0  0  0  0  0  0  0  0  # atno 10763 bound_to 10752
  154.0900  135.2867  155.3275 H   0  0  0  0  0  0  0  0  0  0  0  0  # atno 10764 bound_to 10752
  154.6471  135.5439  153.7921 H   0  0  0  0  0  0  0  0  0  0  0  0  # atno 10765 bound_to 10752
  140.0642  134.9188  157.1236 H   0  0  0  0  0  0  0  0  0  0  0  0  # atno 11005 bound_to 11000
  144.6833  140.2722  143.7304 LP  0  0  0  0  0  0  0  0  0  0  0  0  # atno 17320 bound_to 7965
  145.7929  139.1934  143.2092 LP  0  0  0  0  0  0  0  0  0  0  0  0  # atno 17321 bound_to 7965
  139.7771  143.8409  152.3131 LP  0  0  0  0  0  0  0  0  0  0  0  0  # atno 17342 bound_to 10162
  139.8347  144.7237  150.9406 LP  0  0  0  0  0  0  0  0  0  0  0  0  # atno 17343 bound_to 10162
  156.5648  130.8399  151.3339 LP  0  0  0  0  0  0  0  0  0  0  0  0  # atno 17370 bound_to 10713
  157.7343  130.9744  150.2022 LP  0  0  0  0  0  0  0  0  0  0  0  0  # atno 17371 bound_to 10713
  140.3724  134.2376  155.7177 LP  0  0  0  0  0  0  0  0  0  0  0  0  # atno 17394 bound_to 11000
  141.1986  133.8032  157.0576 LP  0  0  0  0  0  0  0  0  0  0  0  0  # atno 17395 bound_to 11000

$$$$
