#       Name:                AV-unprocessed.smi:3185
#       Creating user name   scv26
#       Creation time:       Fri Mar 27 18:00:46 2020


#       File generated by GOLD software.
#

@<TRIPOS>MOLECULE
AV-unprocessed.smi:3185
    40    41     1
SMALL
NO_CHARGES


@<TRIPOS>ATOM
      1 ****        -6.1905   2.5388  -1.3555 N.1            1 S1                 0.0000
      2 ****        -5.0376   2.6262  -1.3134 C.1            1 S1                 0.0000
      3 ****        -3.5722   2.7375  -1.2603 C.3            1 S1                 0.0000
      4 ****        -2.8937   1.4316  -0.8331 C.3            1 S1                 0.0000
      5 ****        -1.3668   1.5650  -0.7901 C.3            1 S1                 0.0000
      6 ****        -0.7809   0.2972  -0.3804 N.3            1 S1                 0.0000
      7 ****         0.6801   0.3251  -0.4022 C.3            1 S1                 0.0000
      8 ****         1.2618   1.1207   0.7898 C.3            1 S1                 0.0000
      9 ****         2.7988   1.1210   0.7566 C.3            1 S1                 0.0000
     10 ****         3.3723  -0.3036   0.7227 C.3            1 S1                 0.0000
     11 ****         2.7862  -1.1200  -0.4444 C.3            1 S1                 0.0000
     12 ****         1.2401  -1.1232  -0.4853 C.3            1 S1                 0.0000
     13 ****         0.6533  -2.0623   0.4757 N.pl3          1 S1                 0.0000
     14 ****        -0.1191  -3.1714   0.1929 C.2            1 S1                 0.0000
     15 ****        -0.4548  -3.7591   1.3786 C.2            1 S1                 0.0000
     16 ****         0.1649  -2.9283   2.3514 C.2            1 S1                 0.0000
     17 ****         0.8240  -1.9185   1.8097 N.2            1 S1                 0.0000
     18 ****        -3.2254   3.0415  -2.2480 H              1 S1                 0.0000
     19 ****        -3.3234   3.5412  -0.5670 H              1 S1                 0.0000
     20 ****        -3.2659   1.1370   0.1492 H              1 S1                 0.0000
     21 ****        -3.1756   0.6363  -1.5245 H              1 S1                 0.0000
     22 ****        -0.9925   1.8434  -1.7761 H              1 S1                 0.0000
     23 ****        -1.0879   2.3570  -0.0957 H              1 S1                 0.0000
     24 ****        -1.1053  -0.4269  -1.0051 H              1 S1                 0.0000
     25 ****         0.9885   0.8280  -1.3202 H              1 S1                 0.0000
     26 ****         0.9199   2.1549   0.7655 H              1 S1                 0.0000
     27 ****         0.9108   0.7129   1.7373 H              1 S1                 0.0000
     28 ****         3.1406   1.6686  -0.1225 H              1 S1                 0.0000
     29 ****         3.1885   1.6561   1.6229 H              1 S1                 0.0000
     30 ****         4.4573  -0.2582   0.6263 H              1 S1                 0.0000
     31 ****         3.1809  -0.8011   1.6726 H              1 S1                 0.0000
     32 ****         3.1564  -0.6949  -1.3781 H              1 S1                 0.0000
     33 ****         3.1643  -2.1425  -0.4117 H              1 S1                 0.0000
     34 ****         0.9645  -1.5061  -1.4692 H              1 S1                 0.0000
     35 ****        -0.3650  -3.4491  -0.8215 H              1 S1                 0.0000
     36 ****        -1.0518  -4.6464   1.5278 H              1 S1                 0.0000
     37 ****         0.1562  -3.0279   3.4267 H              1 S1                 0.0000
     38 ****        -7.1870   2.4632  -1.3919 LP             1 S1                 0.0000
     39 ****        -1.0650   0.1190   0.5616 LP             1 S1                 0.0000
     40 ****         1.3376  -1.2032   2.2836 LP             1 S1                 0.0000
@<TRIPOS>BOND
    1    1    2 3     
    2    2    3 1     
    3    3    4 1     
    4    3   18 1     
    5    3   19 1     
    6    4    5 1     
    7    4   20 1     
    8    4   21 1     
    9    5    6 1     
   10    5   22 1     
   11    5   23 1     
   12    6    7 1     
   13    6   24 1     
   14    7   12 1     
   15    7    8 1     
   16    7   25 1     
   17    8    9 1     
   18    8   26 1     
   19    8   27 1     
   20    9   10 1     
   21    9   28 1     
   22    9   29 1     
   23   10   11 1     
   24   10   30 1     
   25   10   31 1     
   26   11   12 1     
   27   11   32 1     
   28   11   33 1     
   29   12   13 1     
   30   12   34 1     
   31   13   17 1     
   32   13   14 1     
   33   14   15 2     
   34   14   35 1     
   35   15   16 1     
   36   15   36 1     
   37   16   17 2     
   38   16   37 1     
   39    1   38 1     
   40    6   39 1     
   41   17   40 1     
@<TRIPOS>SUBSTRUCTURE
      1 S1             1
@<TRIPOS>SET
LONE_PAIRS      STATIC     ATOMS    <user>   **** ""
3 38 39 40
DONOR_HYDROGENS      STATIC     ATOMS    <user>   **** ""
1 24
ATOM$BLUE        STATIC     ATOMS    COLORGROUP SYSTEM
3 38 39 40
ATOM$RED        STATIC     ATOMS    COLORGROUP SYSTEM
1 24
