#       Name:                AV-unprocessed.smi:1740
#       Creating user name   scv26
#       Creation time:       Fri Mar 27 08:22:00 2020


#       File generated by GOLD software.
#

@<TRIPOS>MOLECULE
AV-unprocessed.smi:1740
    58    60     1
SMALL
NO_CHARGES


@<TRIPOS>ATOM
      1 ****        -7.2590  -3.0331   1.4006 N.am           1 S1                 0.0000
      2 ****        -6.0363  -2.9740   0.8685 C.2            1 S1                 0.0000
      3 ****        -5.1995  -3.8568   1.0489 O.2            1 S1                 0.0000
      4 ****        -5.7190  -1.7562  -0.0053 C.3            1 S1                 0.0000
      5 ****        -4.2619  -1.4896  -0.1154 N.4            1 S1                 1.0000
      6 ****        -3.6915  -0.8501   1.1003 C.3            1 S1                 0.0000
      7 ****        -2.1621  -0.7337   0.9972 C.3            1 S1                 0.0000
      8 ****        -1.7466   0.0416  -0.2634 C.3            1 S1                 0.0000
      9 ****        -0.2918   0.0515  -0.3771 N.am           1 S1                 0.0000
     10 ****         0.4252   0.9557  -1.0591 C.2            1 S1                 0.0000
     11 ****        -0.0761   1.8945  -1.6774 O.2            1 S1                 0.0000
     12 ****         1.7404   0.7023  -0.9582 N.am           1 S1                 0.0000
     13 ****         2.8320   1.4500  -1.4843 C.ar           1 S1                 0.0000
     14 ****         2.7228   2.1867  -2.6894 C.ar           1 S1                 0.0000
     15 ****         3.8536   2.8489  -3.1978 C.ar           1 S1                 0.0000
     16 ****         5.0624   2.7386  -2.4910 C.ar           1 S1                 0.0000
     17 ****         5.1866   2.0315  -1.3502 N.ar           1 S1                 0.0000
     18 ****         4.1013   1.3994  -0.8397 C.ar           1 S1                 0.0000
     19 ****         4.2841   0.6881   0.3683 N.3            1 S1                 0.0000
     20 ****         3.4527   1.0631   1.5085 C.3            1 S1                 0.0000
     21 ****         4.3363   0.9276   2.7531 C.3            1 S1                 0.0000
     22 ****         5.4474  -0.0176   2.3065 C.3            1 S1                 0.0000
     23 ****         5.6257   0.3601   0.8389 C.3            1 S1                 0.0000
     24 ****        -2.3887  -0.6069  -1.5039 C.3            1 S1                 0.0000
     25 ****        -3.9131  -0.7312  -1.3436 C.3            1 S1                 0.0000
     26 ****        -7.5135  -3.8194   1.9815 H              1 S1                 0.0000
     27 ****        -7.9287  -2.2983   1.2226 H              1 S1                 0.0000
     28 ****        -6.1292  -1.9681  -0.9935 H              1 S1                 0.0000
     29 ****        -6.2356  -0.8692   0.3656 H              1 S1                 0.0000
     30 ****        -4.1347   0.1379   1.2360 H              1 S1                 0.0000
     31 ****        -3.9446  -1.4324   1.9867 H              1 S1                 0.0000
     32 ****        -1.7696  -0.2398   1.8870 H              1 S1                 0.0000
     33 ****        -1.7253  -1.7336   0.9805 H              1 S1                 0.0000
     34 ****        -2.1059   1.0685  -0.1692 H              1 S1                 0.0000
     35 ****         0.2081  -0.6815   0.1048 H              1 S1                 0.0000
     36 ****         1.9994  -0.0576  -0.3462 H              1 S1                 0.0000
     37 ****         1.7997   2.2367  -3.2457 H              1 S1                 0.0000
     38 ****         3.7981   3.4165  -4.1147 H              1 S1                 0.0000
     39 ****         5.9554   3.2259  -2.8536 H              1 S1                 0.0000
     40 ****         3.0531   2.0737   1.4121 H              1 S1                 0.0000
     41 ****         2.6124   0.3716   1.5730 H              1 S1                 0.0000
     42 ****         4.7633   1.8989   3.0069 H              1 S1                 0.0000
     43 ****         3.7896   0.5632   3.6231 H              1 S1                 0.0000
     44 ****         6.3630   0.0919   2.8882 H              1 S1                 0.0000
     45 ****         5.1123  -1.0525   2.3890 H              1 S1                 0.0000
     46 ****         6.0614  -0.4550   0.2604 H              1 S1                 0.0000
     47 ****         6.2864   1.2248   0.7659 H              1 S1                 0.0000
     48 ****        -2.1615  -0.0224  -2.3964 H              1 S1                 0.0000
     49 ****        -1.9608  -1.5974  -1.6671 H              1 S1                 0.0000
     50 ****        -4.3231  -1.2372  -2.2186 H              1 S1                 0.0000
     51 ****        -4.3711   0.2585  -1.3051 H              1 S1                 0.0000
     52 ****        -3.8213  -2.3944  -0.2062 H              1 S1                 0.0000
     53 ****        -5.4256  -4.6528   1.6103 LP             1 S1                 0.0000
     54 ****        -4.2930  -3.7787   0.6341 LP             1 S1                 0.0000
     55 ****        -1.0691   2.0127  -1.6883 LP             1 S1                 0.0000
     56 ****         0.5095   2.5390  -2.1690 LP             1 S1                 0.0000
     57 ****         6.0700   1.9738  -0.8853 LP             1 S1                 0.0000
     58 ****         3.9337  -0.1611  -0.0268 LP             1 S1                 0.0000
@<TRIPOS>BOND
    1    1    2 am    
    2    1   26 1     
    3    1   27 1     
    4    2    3 2     
    5    2    4 1     
    6    4    5 1     
    7    4   28 1     
    8    4   29 1     
    9    5   25 1     
   10    5    6 1     
   11    5   52 1     
   12    6    7 1     
   13    6   30 1     
   14    6   31 1     
   15    7    8 1     
   16    7   32 1     
   17    7   33 1     
   18    8    9 1     
   19    8   24 1     
   20    8   34 1     
   21    9   10 am    
   22    9   35 1     
   23   10   11 2     
   24   10   12 am    
   25   12   13 1     
   26   12   36 1     
   27   13   18 ar    
   28   13   14 ar    
   29   14   15 ar    
   30   14   37 1     
   31   15   16 ar    
   32   15   38 1     
   33   16   17 ar    
   34   16   39 1     
   35   17   18 ar    
   36   18   19 1     
   37   19   23 1     
   38   19   20 1     
   39   20   21 1     
   40   20   40 1     
   41   20   41 1     
   42   21   22 1     
   43   21   42 1     
   44   21   43 1     
   45   22   23 1     
   46   22   44 1     
   47   22   45 1     
   48   23   46 1     
   49   23   47 1     
   50   24   25 1     
   51   24   48 1     
   52   24   49 1     
   53   25   50 1     
   54   25   51 1     
   55    3   53 1     
   56    3   54 1     
   57   11   55 1     
   58   11   56 1     
   59   17   57 1     
   60   19   58 1     
@<TRIPOS>SUBSTRUCTURE
      1 S1             1
@<TRIPOS>SET
LONE_PAIRS      STATIC     ATOMS    <user>   **** ""
6 53 54 55 56 57 58
DONOR_HYDROGENS      STATIC     ATOMS    <user>   **** ""
5 26 27 52 35 36
ATOM$BLUE        STATIC     ATOMS    COLORGROUP SYSTEM
6 53 54 55 56 57 58
ATOM$RED        STATIC     ATOMS    COLORGROUP SYSTEM
5 26 27 52 35 36
