AV-unprocessed.smi:1118|AV-procd|sdf|4814|dock8
  -GOLD-   22720 3363D 1   1.00000     0.00000
 Structure written by MMmdl.
 45 46  0  0  0  0  0  0  0  0  2 V2000
  152.7349  142.5671  159.4220 C   0  0  0  0  0  0  0  0  0  0  0  0
  152.4311  141.4783  158.5677 O   0  0  0  0  0  0  0  0  0  0  0  0
  151.0391  141.2190  158.4904 C   0  0  0  0  0  0  0  0  0  0  0  0
  150.3341  142.4590  157.9197 C   0  0  0  0  0  0  0  0  0  0  0  0
  149.6041  142.1672  156.6598 N   0  3  2  0  0  0  0  0  0  0  0  0
  148.2298  141.6637  156.9102 C   0  0  0  0  0  0  0  0  0  0  0  0
  147.4466  141.5107  155.5961 C   0  0  0  0  0  0  0  0  0  0  0  0
  148.1745  140.5820  154.6087 C   0  0  1  0  0  0  0  0  0  0  0  0
  147.3816  140.4447  153.2920 C   0  0  0  0  0  0  0  0  0  0  0  0
  146.3640  139.4027  153.3780 N   0  0  0  0  0  0  0  0  0  0  0  0
  146.1857  138.4103  152.4921 C   0  0  0  0  0  0  0  0  0  0  0  0
  146.8298  138.3022  151.4487 O   0  0  0  0  0  0  0  0  0  0  0  0
  145.1453  137.3539  152.8614 C   0  0  0  0  0  0  0  0  0  0  0  0
  145.4666  136.0841  152.2348 N   0  0  0  0  0  0  0  0  0  0  0  0
  145.4631  135.7672  150.8923 C   0  0  0  0  0  0  0  0  0  0  0  0
  145.8524  134.4632  150.7817 C   0  0  0  0  0  0  0  0  0  0  0  0
  146.0758  134.0612  152.1283 C   0  0  0  0  0  0  0  0  0  0  0  0
  145.8464  135.0337  152.9958 N   0  0  0  0  0  0  0  0  0  0  0  0
  149.6123  141.1019  154.4030 C   0  0  0  0  0  0  0  0  0  0  0  0
  150.3508  141.2683  155.7410 C   0  0  0  0  0  0  0  0  0  0  0  0
  153.8135  142.7228  159.4479 H   0  0  0  0  0  0  0  0  0  0  0  0
  152.3982  142.3744  160.4417 H   0  0  0  0  0  0  0  0  0  0  0  0
  152.2704  143.4883  159.0679 H   0  0  0  0  0  0  0  0  0  0  0  0
  150.8446  140.3320  157.8872 H   0  0  0  0  0  0  0  0  0  0  0  0
  150.6536  141.0141  159.4904 H   0  0  0  0  0  0  0  0  0  0  0  0
  149.6443  142.8778  158.6538 H   0  0  0  0  0  0  0  0  0  0  0  0
  151.0915  143.2237  157.7410 H   0  0  0  0  0  0  0  0  0  0  0  0
  148.2796  140.7079  157.4346 H   0  0  0  0  0  0  0  0  0  0  0  0
  147.6965  142.3562  157.5624 H   0  0  0  0  0  0  0  0  0  0  0  0
  146.4504  141.1210  155.8097 H   0  0  0  0  0  0  0  0  0  0  0  0
  147.3024  142.4927  155.1427 H   0  0  0  0  0  0  0  0  0  0  0  0
  148.2366  139.5924  155.0645 H   0  0  0  0  0  0  0  0  0  0  0  0
  146.8707  141.3825  153.0719 H   0  0  0  0  0  0  0  0  0  0  0  0
  148.0593  140.2667  152.4552 H   0  0  0  0  0  0  0  0  0  0  0  0
  145.7845  139.4019  154.2053 H   0  0  0  0  0  0  0  0  0  0  0  0
  145.0971  137.2255  153.9441 H   0  0  0  0  0  0  0  0  0  0  0  0
  144.1561  137.6723  152.5296 H   0  0  0  0  0  0  0  0  0  0  0  0
  145.1897  136.4894  150.1369 H   0  0  0  0  0  0  0  0  0  0  0  0
  145.9614  133.8843  149.8765 H   0  0  0  0  0  0  0  0  0  0  0  0
  146.3971  133.0989  152.4987 H   0  0  0  0  0  0  0  0  0  0  0  0
  150.1805  140.4161  153.7741 H   0  0  0  0  0  0  0  0  0  0  0  0
  149.5889  142.0567  153.8755 H   0  0  0  0  0  0  0  0  0  0  0  0
  151.3458  141.6656  155.5444 H   0  0  0  0  0  0  0  0  0  0  0  0
  150.4884  140.2948  156.2143 H   0  0  0  0  0  0  0  0  0  0  0  0
  149.4955  143.0526  156.1852 H   0  0  0  0  0  0  0  0  0  0  0  0
  1  2  1  0  0  0  0
  1 21  1  0  0  0  0
  1 22  1  0  0  0  0
  1 23  1  0  0  0  0
  2  3  1  0  0  0  0
  3  4  1  0  0  0  0
  3 24  1  0  0  0  0
  3 25  1  0  0  0  0
  4  5  1  0  0  0  0
  4 26  1  0  0  0  0
  4 27  1  0  0  0  0
  5 20  1  0  0  0  0
  5  6  1  0  0  0  0
  5 45  1  0  0  0  0
  6  7  1  0  0  0  0
  6 28  1  0  0  0  0
  6 29  1  0  0  0  0
  7  8  1  0  0  0  0
  7 30  1  0  0  0  0
  7 31  1  0  0  0  0
  8  9  1  0  0  0  0
  8 19  1  0  0  0  0
  8 32  1  0  0  0  0
  9 10  1  0  0  0  0
  9 33  1  0  0  0  0
  9 34  1  0  0  0  0
 10 11  1  0  0  0  0
 10 35  1  0  0  0  0
 11 12  2  0  0  0  0
 11 13  1  0  0  0  0
 13 14  1  0  0  0  0
 13 36  1  0  0  0  0
 13 37  1  0  0  0  0
 14 18  1  0  0  0  0
 14 15  1  0  0  0  0
 15 16  2  0  0  0  0
 15 38  1  0  0  0  0
 16 17  1  0  0  0  0
 16 39  1  0  0  0  0
 17 18  2  0  0  0  0
 17 40  1  0  0  0  0
 19 20  1  0  0  0  0
 19 41  1  0  0  0  0
 19 42  1  0  0  0  0
 20 43  1  0  0  0  0
 20 44  1  0  0  0  0
M  CHG  1   5   1
M  END
> <s_m_source_file>
AV-unprocessed.smi

> <i_m_source_file_index>
1118

> <i_lp_mmshare_version>
43012

> <i_f3d_flags>
0

> <s_epik_input>
W0NIM11PW0NIMl1bQ0gyXU4xW0NIMl1bQ0gyXVtDSF0oW0NIMl1bQ0gyXTEpW0NIMl1bTkhdQyg9TylbQ0gyXW4yW2NIXVtjSF1bY0hdbjI=

> <s_epik_cmdline>
J2VwaWtfcHl0aG9uJywgJy1waCcsICc3LjAnLCAnLXRuJywgJzgnLCAnLW1hJywgJzIwMCcsICctbWV0YWxfYmluZGluZycsICctaW1hZScsICc8aW5maWxlLm1hZT4nLCAnLW9tYWUnLCAnPG91dGZpbGUubWFlPic=

> <r_lp_tautomer_probability>
1

> <r_epik_Ionization_Penalty>
0.00991549

> <r_epik_Ionization_Penalty_Charging>
0.00990284

> <r_epik_Ionization_Penalty_Neutral>
1.26554e-05

> <r_epik_State_Penalty>
0.00754525

> <r_epik_Charging_Adjusted_Penalty>
0.0174481

> <i_epik_Tot_Q>
1

> <i_epik_Tot_abs_Q>
1

> <r_epik_Metal_State_Penalty>
0.00754527

> <b_epik_Metal_Only>
0

> <s_lp_Force_Field>
OPLS_2005

> <r_lp_Energy>
19.0863

> <b_lp_Chiralities_Consistent>
1

> <s_lp_Variant>
AV-unprocessed.smi:1118-1

> <Gold.Version>
5.8.1

> <Gold.Id.Protein>
6NUR|6NUR_protein|mol2

> <Gold.PLP.Fitness>
42.2275

> <Gold.PLP.PLP>
-32.8689

> <Gold.PLP.part.hbond>
-3.0000

> <Gold.PLP.part.metal>
0.0000

> <Gold.PLP.part.buried>
-2.1739

> <Gold.PLP.part.nonpolar>
-30.1366

> <Gold.PLP.part.repulsive>
1.7902

> <Gold.PLP.ligand.clash>
0.0000

> <Gold.PLP.ligand.torsion>
1.3805

> <Gold.PLP.Chemscore.Hbond>
3.0000

> <Gold.PLP.Chemscore.CHOScore>
1.0000

> <Gold.PLP.Chemscore.Metal>
0.0000

> <Gold.Chemscore.Hbonds>
donor molecule, donor type, donor heavy atom, donor atom, acceptor molecule, acceptor atom, score
      L1  H     5    45       P1  8028  2.00
      P1  H  7954  7966       L1    12  0.84
      L1  C    15    38       P1 10171  1.00

> <Gold.PLP.Chemscore.Internal.Correction>
0.1196

> <Gold.Rescore>
     Score         DG    S(hbond)    S(metal)    S(lipo)     H(rot)  DE(clash)    DE(int)     intcor
     11.91     -15.97       1.99        0.00      81.37       2.22       1.42       2.64       ----

> <Gold.Chemscore.Fitness>
11.9140

> <Gold.Chemscore.DG>
-15.9675

> <Gold.Chemscore.ZeroCoef>
-5.4800

> <Gold.Chemscore.Hbond>
1.9885

> <Gold.Chemscore.Metal>
0.0000

> <Gold.Chemscore.Lipo>
81.3723

> <Gold.Chemscore.Internal_Hbond>
0.0000

> <Gold.Chemscore.DEClash>
1.4169

> <Gold.Chemscore.DEInternal>
2.6366

> <Gold.Chemscore.Rot>
2.2166

> <Gold.Chemscore.Internal.Correction>
   9.000000E+99

> <Gold.Chemscore.Hbonds>
donor molecule, donor type, donor heavy atom, donor atom, acceptor molecule, acceptor atom, score
      L1  H     5    45       P1  8028  1.00
      P1  H  7954  7966       L1    12  0.82

> <Gold.Chemscore.Hbond.Weighted>
-6.6414

> <Gold.Chemscore.Metal.Weighted>
-0.0000

> <Gold.Chemscore.Lipo.Weighted>
-9.5206

> <Gold.Chemscore.Internal_Hbond.Weighted>
0.0000

> <Gold.Chemscore.DEClash.Weighted>
1.4169

> <Gold.Chemscore.DEInternal.Weighted>
2.6366

> <Gold.Chemscore.Rot.Weighted>
5.6745

> <Gold.Chemscore.Internal.Correction.Weighted>
   9.000000E+99

> <Gold.Protein.RotatedTorsions>
[ 6907 6896 6895 6894 ] final    4.80 input  -60.11 | X-H torsion
[ 7974 7965 7964 7962 ] final  -41.02 input  175.53 | X-H torsion
[ 8008 7997 7996 7995 ] final  107.55 input   59.86 | X-H torsion
[ 10167 10162 10161 10158 ] final  132.41 input  -65.29 | X-H torsion
[ 10718 10713 10712 10709 ] final  161.20 input   66.30 | X-H torsion
[ 10763 10752 10751 10750 ] final -150.25 input  -60.55 | X-H torsion
[ 11005 11000 10999 10996 ] final   42.79 input  -57.11 | X-H torsion

> <Gold.Protein.ActiveResidues>
 VAL166  LYS551  ARG553  GLY616  TRP617  ASP618  TYR619  PRO620  LYS621  CYS622 
 ASP623  PHE694  ASN695  SER759  ASP760  ASP761  ALA762  ILE779  LEU786  VAL792 
 PHE793  MET794  SER795  GLU796  ALA797  LYS798  CYS799  TRP800  GLU811  SER814 

> <Gold.Protein.RotatedAtoms>
  151.6472  135.1006  160.0153 H   0  0  0  0  0  0  0  0  0  0  0  0  # atno 6907 bound_to 6896
  152.4021  133.6829  159.6334 H   0  0  0  0  0  0  0  0  0  0  0  0  # atno 6908 bound_to 6896
  150.7920  133.8689  159.3294 H   0  0  0  0  0  0  0  0  0  0  0  0  # atno 6909 bound_to 6896
  146.0250  140.6803  142.9160 H   0  0  0  0  0  0  0  0  0  0  0  0  # atno 7974 bound_to 7965
  156.1833  140.3092  155.9190 H   0  0  0  0  0  0  0  0  0  0  0  0  # atno 8008 bound_to 7997
  155.3336  140.0462  157.3060 H   0  0  0  0  0  0  0  0  0  0  0  0  # atno 8009 bound_to 7997
  154.5367  140.2248  155.8720 H   0  0  0  0  0  0  0  0  0  0  0  0  # atno 8010 bound_to 7997
  139.5341  144.6663  151.4848 H   0  0  0  0  0  0  0  0  0  0  0  0  # atno 10167 bound_to 10162
  157.1398  131.0537  151.2332 H   0  0  0  0  0  0  0  0  0  0  0  0  # atno 10718 bound_to 10713
  154.8130  135.3289  154.7254 H   0  0  0  0  0  0  0  0  0  0  0  0  # atno 10763 bound_to 10752
  153.7900  135.6912  153.4877 H   0  0  0  0  0  0  0  0  0  0  0  0  # atno 10764 bound_to 10752
  153.1923  135.4546  155.0111 H   0  0  0  0  0  0  0  0  0  0  0  0  # atno 10765 bound_to 10752
  140.1706  134.4227  155.8259 H   0  0  0  0  0  0  0  0  0  0  0  0  # atno 11005 bound_to 11000
  144.7006  140.3634  143.7159 LP  0  0  0  0  0  0  0  0  0  0  0  0  # atno 17320 bound_to 7965
  145.7132  139.1690  143.2527 LP  0  0  0  0  0  0  0  0  0  0  0  0  # atno 17321 bound_to 7965
  140.6537  143.8644  150.6812 LP  0  0  0  0  0  0  0  0  0  0  0  0  # atno 17342 bound_to 10162
  140.2017  143.3954  152.1787 LP  0  0  0  0  0  0  0  0  0  0  0  0  # atno 17343 bound_to 10162
  157.4317  130.7494  149.6996 LP  0  0  0  0  0  0  0  0  0  0  0  0  # atno 17370 bound_to 10713
  155.9791  130.4044  150.3609 LP  0  0  0  0  0  0  0  0  0  0  0  0  # atno 17371 bound_to 10713
  141.2217  133.6954  156.7757 LP  0  0  0  0  0  0  0  0  0  0  0  0  # atno 17394 bound_to 11000
  140.2382  134.8634  157.3546 LP  0  0  0  0  0  0  0  0  0  0  0  0  # atno 17395 bound_to 11000

$$$$
