#       Name:                AV-unprocessed.smi:3012
#       Creating user name   scv26
#       Creation time:       Fri Mar 27 16:40:00 2020


#       File generated by GOLD software.
#

@<TRIPOS>MOLECULE
AV-unprocessed.smi:3012
    25    25     1
SMALL
NO_CHARGES


@<TRIPOS>ATOM
      1 ****        -2.2662   0.6101  -3.0696 O.co2          1 S1                 0.0000
      2 ****        -1.8921   0.1011  -1.9894 C.2            1 S1                 0.0000
      3 ****        -2.6530  -0.2421  -1.0569 O.co2          1 S1                -1.0000
      4 ****        -0.3839  -0.1340  -1.8281 C.3            1 S1                 0.0000
      5 ****         0.1217  -0.1500  -0.3858 C.2            1 S1                 0.0000
      6 ****         0.1486   1.0215   0.3598 C.2            1 S1                 0.0000
      7 ****         0.6660   0.9842   1.7230 C.2            1 S1                 0.0000
      8 ****         0.7257   1.9596   2.4695 O.2            1 S1                 0.0000
      9 ****         1.0921  -0.2419   2.1156 N.am           1 S1                 0.0000
     10 ****         1.0793  -1.3800   1.3743 C.2            1 S1                 0.0000
     11 ****         1.5155  -2.4019   1.9002 O.2            1 S1                 0.0000
     12 ****         0.5927  -1.3292   0.1006 N.pl3          1 S1                -1.0000
     13 ****         1.4582  -0.3170   3.0529 H              1 S1                 0.0000
     14 ****        -0.1420  -1.0730  -2.3280 H              1 S1                 0.0000
     15 ****         0.1474   0.6413  -2.3817 H              1 S1                 0.0000
     16 ****        -0.2105   1.9516  -0.0558 H              1 S1                 0.0000
     17 ****        -3.2391   0.7700  -3.2366 LP             1 S1                 0.0000
     18 ****        -1.5922   0.8570  -3.7659 LP             1 S1                 0.0000
     19 ****        -3.6410  -0.1154  -1.1454 LP             1 S1                 0.0000
     20 ****        -2.2730  -0.6430  -0.2233 LP             1 S1                 0.0000
     21 ****         0.4066   2.8525   2.1519 LP             1 S1                 0.0000
     22 ****         1.0934   1.8598   3.3941 LP             1 S1                 0.0000
     23 ****         1.8612  -2.3732   2.8381 LP             1 S1                 0.0000
     24 ****         1.5247  -3.2620   1.3901 LP             1 S1                 0.0000
     25 ****         0.5826  -2.1508  -0.4694 LP             1 S1                 0.0000
@<TRIPOS>BOND
    1    1    2 ar    
    2    2    3 ar    
    3    2    4 1     
    4    4    5 1     
    5    4   14 1     
    6    4   15 1     
    7    5   12 1     
    8    5    6 2     
    9    6    7 1     
   10    6   16 1     
   11    7    8 2     
   12    7    9 am    
   13    9   13 1     
   14    9   10 am    
   15   10   11 2     
   16   10   12 1     
   17    1   17 1     
   18    1   18 1     
   19    3   19 1     
   20    3   20 1     
   21    8   21 1     
   22    8   22 1     
   23   11   23 1     
   24   11   24 1     
   25   12   25 1     
@<TRIPOS>SUBSTRUCTURE
      1 S1             1
@<TRIPOS>SET
LONE_PAIRS      STATIC     ATOMS    <user>   **** ""
9 17 18 19 20 21 22 23 24 25
DONOR_HYDROGENS      STATIC     ATOMS    <user>   **** ""
1 13
ATOM$BLUE        STATIC     ATOMS    COLORGROUP SYSTEM
9 17 18 19 20 21 22 23 24 25
ATOM$RED        STATIC     ATOMS    COLORGROUP SYSTEM
1 13
