#       Name:                AV-unprocessed.smi:1510
#       Creating user name   scv26
#       Creation time:       Fri Mar 27 06:22:23 2020


#       File generated by GOLD software.
#

@<TRIPOS>MOLECULE
AV-unprocessed.smi:1510
    41    42     1
SMALL
NO_CHARGES


@<TRIPOS>ATOM
      1 ****        -0.1961   0.7180   0.7549 O.2            1 S1                 0.0000
      2 ****         0.5121  -0.2663   0.5371 C.2            1 S1                 0.0000
      3 ****         2.0443  -0.1504   0.5093 C.3            1 S1                 0.0000
      4 ****         2.5682   1.0169   1.2339 N.am           1 S1                 0.0000
      5 ****         3.0527   2.0846   0.3632 N.pl3          1 S1                -1.0000
      6 ****         3.5397   3.2246   0.9211 C.2            1 S1                 0.0000
      7 ****         3.9477   4.1719   0.2530 O.2            1 S1                 0.0000
      8 ****         3.5793   3.3142   2.3713 C.2            1 S1                 0.0000
      9 ****         3.1505   2.3018   3.1506 C.2            1 S1                 0.0000
     10 ****         2.6173   1.0635   2.5961 C.2            1 S1                 0.0000
     11 ****         2.2361   0.1295   3.3021 O.2            1 S1                 0.0000
     12 ****         0.0155  -1.4886   0.2922 N.am           1 S1                 0.0000
     13 ****        -1.4007  -1.8392   0.2607 C.3            1 S1                 0.0000
     14 ****        -1.9557  -1.8513  -1.1738 C.3            1 S1                 0.0000
     15 ****        -1.9984  -0.4877  -1.8657 C.3            1 S1                 0.0000
     16 ****        -3.0970  -0.6966  -2.8820 C.3            1 S1                 0.0000
     17 ****        -4.0868  -1.5490  -2.0939 C.3            1 S1                 0.0000
     18 ****        -3.3061  -2.3086  -1.1743 O.3            1 S1                 0.0000
     19 ****         2.4836  -1.0588   0.9256 H              1 S1                 0.0000
     20 ****         2.3592  -0.1252  -0.5354 H              1 S1                 0.0000
     21 ****         3.9636   4.2114   2.8339 H              1 S1                 0.0000
     22 ****         3.2001   2.4110   4.2237 H              1 S1                 0.0000
     23 ****         0.6720  -2.2354   0.1177 H              1 S1                 0.0000
     24 ****        -1.5027  -2.8333   0.6961 H              1 S1                 0.0000
     25 ****        -1.9868  -1.1700   0.8929 H              1 S1                 0.0000
     26 ****        -1.3803  -2.5458  -1.7883 H              1 S1                 0.0000
     27 ****        -2.2879   0.2938  -1.1615 H              1 S1                 0.0000
     28 ****        -1.0456  -0.2073  -2.3155 H              1 S1                 0.0000
     29 ****        -3.5304   0.2353  -3.2459 H              1 S1                 0.0000
     30 ****        -2.7146  -1.2552  -3.7373 H              1 S1                 0.0000
     31 ****        -4.7674  -0.9139  -1.5256 H              1 S1                 0.0000
     32 ****        -4.6844  -2.1948  -2.7377 H              1 S1                 0.0000
     33 ****         0.2245   1.6106   0.9173 LP             1 S1                 0.0000
     34 ****        -1.1916   0.6244   0.7694 LP             1 S1                 0.0000
     35 ****         3.0265   1.9785  -0.6308 LP             1 S1                 0.0000
     36 ****         3.9300   4.1238  -0.7456 LP             1 S1                 0.0000
     37 ****         4.2974   4.9909   0.7081 LP             1 S1                 0.0000
     38 ****         1.8743  -0.7014   2.8795 LP             1 S1                 0.0000
     39 ****         2.2882   0.2019   4.2982 LP             1 S1                 0.0000
     40 ****        -3.6885  -2.2082  -0.2557 LP             1 S1                 0.0000
     41 ****        -3.3278  -3.2721  -1.4408 LP             1 S1                 0.0000
@<TRIPOS>BOND
    1    1    2 2     
    2    2    3 1     
    3    2   12 am    
    4    3   19 1     
    5    3   20 1     
    6    3    4 1     
    7    4    5 1     
    8    4   10 am    
    9    5    6 1     
   10    6    7 2     
   11    6    8 1     
   12    8   21 1     
   13    8    9 2     
   14    9   22 1     
   15    9   10 1     
   16   10   11 2     
   17   12   13 1     
   18   12   23 1     
   19   13   14 1     
   20   13   24 1     
   21   13   25 1     
   22   14   18 1     
   23   14   15 1     
   24   14   26 1     
   25   15   16 1     
   26   15   27 1     
   27   15   28 1     
   28   16   17 1     
   29   16   29 1     
   30   16   30 1     
   31   17   18 1     
   32   17   31 1     
   33   17   32 1     
   34    1   33 1     
   35    1   34 1     
   36    5   35 1     
   37    7   36 1     
   38    7   37 1     
   39   11   38 1     
   40   11   39 1     
   41   18   40 1     
   42   18   41 1     
@<TRIPOS>SUBSTRUCTURE
      1 S1             1
@<TRIPOS>SET
LONE_PAIRS      STATIC     ATOMS    <user>   **** ""
9 33 34 35 36 37 38 39 40 41
DONOR_HYDROGENS      STATIC     ATOMS    <user>   **** ""
1 23
ATOM$BLUE        STATIC     ATOMS    COLORGROUP SYSTEM
9 33 34 35 36 37 38 39 40 41
ATOM$RED        STATIC     ATOMS    COLORGROUP SYSTEM
1 23
