AV-unprocessed.smi:21|AV-procd|sdf|164|dock5
  -GOLD-   2262015403D 1   1.00000     0.00000
 Structure written by MMmdl.
 61 64  0  0  0  0  0  0  0  0  1 V2000
  153.0232  129.5780  154.8039 C   0  0  0  0  0  0  0  0  0  0  0  0
  151.9798  129.6109  155.7649 O   0  0  0  0  0  0  0  0  0  0  0  0
  150.9185  130.4908  155.4187 C   0  0  2  0  0  0  0  0  0  0  0  0
  151.3636  131.9633  155.4614 C   0  0  0  0  0  0  0  0  0  0  0  0
  150.3626  132.6444  156.4072 C   0  0  2  0  0  0  0  0  0  0  0  0
  150.9229  133.9132  157.0918 C   0  0  0  0  0  0  0  0  0  0  0  0
  150.3414  135.1562  156.5822 N   0  0  0  0  0  0  0  0  0  0  0  0
  149.8573  135.1494  155.2038 C   0  0  0  0  0  0  0  0  0  0  0  0
  150.7528  136.3415  157.1128 C   0  0  0  0  0  0  0  0  0  0  0  0
  151.1955  136.3668  158.3994 N   0  0  0  0  0  0  0  0  0  0  0  0
  151.5733  137.5135  158.9698 C   0  0  0  0  0  0  0  0  0  0  0  0
  151.5922  138.7385  158.4443 N   0  0  0  0  0  0  0  0  0  0  0  0
  151.1663  138.7250  157.1496 C   0  0  0  0  0  0  0  0  0  0  0  0
  150.7390  137.5838  156.4102 C   0  0  0  0  0  0  0  0  0  0  0  0
  150.4002  137.9704  155.1178 N   0  0  0  0  0  0  0  0  0  0  0  0
  150.5950  139.2598  155.1004 C   0  0  0  0  0  0  0  0  0  0  0  0
  151.0598  139.7952  156.2786 N   0  0  0  0  0  0  0  0  0  0  0  0
  151.3560  141.1945  156.5344 C   0  0  0  0  0  0  0  0  0  0  0  0
  150.6744  141.7428  157.8132 C   0  0  2  0  0  0  0  0  0  0  0  0
  149.1491  141.4664  157.7934 C   0  0  0  0  0  0  0  0  0  0  0  0
  148.5391  141.9783  156.6276 O   0  0  0  0  0  0  0  0  0  0  0  0
  150.9994  143.2519  157.9888 C   0  0  1  0  0  0  0  0  0  0  0  0
  150.3982  143.9202  159.2136 C   0  0  0  0  0  0  0  0  0  0  0  0
  151.2464  145.1790  159.3469 C   0  0  0  0  0  0  0  0  0  0  0  0
  152.5443  144.8108  158.8983 O   0  0  0  0  0  0  0  0  0  0  0  0
  152.4851  143.5643  158.2126 C   0  0  0  0  0  0  0  0  0  0  0  0
  149.9773  131.5876  157.3290 N   0  0  0  0  0  0  0  0  0  0  0  0
  148.7695  131.8761  158.0913 C   0  0  0  0  0  0  0  0  0  0  0  0
  149.8225  130.4156  156.4873 C   0  0  0  0  0  0  0  0  0  0  0  0
  150.4977  130.2229  154.4481 H   0  0  0  0  0  0  0  0  0  0  0  0
  149.4844  132.9206  155.8208 H   0  0  0  0  0  0  0  0  0  0  0  0
  153.7956  128.8811  155.1288 H   0  0  0  0  0  0  0  0  0  0  0  0
  153.4880  130.5565  154.6779 H   0  0  0  0  0  0  0  0  0  0  0  0
  152.6545  129.2407  153.8346 H   0  0  0  0  0  0  0  0  0  0  0  0
  152.3719  132.0368  155.8709 H   0  0  0  0  0  0  0  0  0  0  0  0
  151.3726  132.4179  154.4705 H   0  0  0  0  0  0  0  0  0  0  0  0
  150.6977  133.8792  158.1572 H   0  0  0  0  0  0  0  0  0  0  0  0
  152.0088  133.9178  157.0403 H   0  0  0  0  0  0  0  0  0  0  0  0
  149.1042  135.9239  155.0528 H   0  0  0  0  0  0  0  0  0  0  0  0
  149.3972  134.1911  154.9617 H   0  0  0  0  0  0  0  0  0  0  0  0
  150.6759  135.3178  154.5030 H   0  0  0  0  0  0  0  0  0  0  0  0
  151.9037  137.4384  159.9954 H   0  0  0  0  0  0  0  0  0  0  0  0
  150.4075  139.8590  154.2213 H   0  0  0  0  0  0  0  0  0  0  0  0
  152.4399  141.2800  156.6042 H   0  0  0  0  0  0  0  0  0  0  0  0
  151.0573  141.7837  155.6665 H   0  0  0  0  0  0  0  0  0  0  0  0
  151.1014  141.2027  158.6598 H   0  0  0  0  0  0  0  0  0  0  0  0
  148.9480  140.3979  157.8740 H   0  0  0  0  0  0  0  0  0  0  0  0
  148.6432  141.9434  158.6315 H   0  0  0  0  0  0  0  0  0  0  0  0
  148.8423  142.8634  156.4937 H   0  0  0  0  0  0  0  0  0  0  0  0
  150.6630  143.7963  157.1047 H   0  0  0  0  0  0  0  0  0  0  0  0
  149.3381  144.1495  159.1038 H   0  0  0  0  0  0  0  0  0  0  0  0
  150.5250  143.2890  160.0944 H   0  0  0  0  0  0  0  0  0  0  0  0
  150.8640  145.9660  158.6959 H   0  0  0  0  0  0  0  0  0  0  0  0
  151.2691  145.5624  160.3670 H   0  0  0  0  0  0  0  0  0  0  0  0
  152.9491  142.8068  158.8456 H   0  0  0  0  0  0  0  0  0  0  0  0
  153.0457  143.6119  157.2789 H   0  0  0  0  0  0  0  0  0  0  0  0
  148.5009  131.0245  158.7170 H   0  0  0  0  0  0  0  0  0  0  0  0
  147.9270  132.0910  157.4325 H   0  0  0  0  0  0  0  0  0  0  0  0
  148.9146  132.7320  158.7497 H   0  0  0  0  0  0  0  0  0  0  0  0
  148.8498  130.4426  155.9929 H   0  0  0  0  0  0  0  0  0  0  0  0
  149.8657  129.4948  157.0704 H   0  0  0  0  0  0  0  0  0  0  0  0
  1  2  1  0  0  0  0
  1 32  1  0  0  0  0
  1 33  1  0  0  0  0
  1 34  1  0  0  0  0
  2  3  1  0  0  0  0
  3 30  1  0  0  0  0
  3 29  1  0  0  0  0
  3  4  1  0  0  0  0
  4  5  1  0  0  0  0
  4 35  1  0  0  0  0
  4 36  1  0  0  0  0
  5 31  1  0  0  0  0
  5  6  1  0  0  0  0
  5 27  1  0  0  0  0
  6  7  1  0  0  0  0
  6 37  1  0  0  0  0
  6 38  1  0  0  0  0
  7  8  1  0  0  0  0
  7  9  1  0  0  0  0
  8 39  1  0  0  0  0
  8 40  1  0  0  0  0
  8 41  1  0  0  0  0
  9 14  1  0  0  0  0
  9 10  2  0  0  0  0
 10 11  1  0  0  0  0
 11 12  2  0  0  0  0
 11 42  1  0  0  0  0
 12 13  1  0  0  0  0
 13 17  1  0  0  0  0
 13 14  2  0  0  0  0
 14 15  1  0  0  0  0
 15 16  2  0  0  0  0
 16 17  1  0  0  0  0
 16 43  1  0  0  0  0
 17 18  1  0  0  0  0
 18 19  1  0  0  0  0
 18 44  1  0  0  0  0
 18 45  1  0  0  0  0
 19 20  1  0  0  0  0
 19 22  1  0  0  0  0
 19 46  1  0  0  0  0
 20 21  1  0  0  0  0
 20 47  1  0  0  0  0
 20 48  1  0  0  0  0
 21 49  1  0  0  0  0
 22 26  1  0  0  0  0
 22 23  1  0  0  0  0
 22 50  1  0  0  0  0
 23 24  1  0  0  0  0
 23 51  1  0  0  0  0
 23 52  1  0  0  0  0
 24 25  1  0  0  0  0
 24 53  1  0  0  0  0
 24 54  1  0  0  0  0
 25 26  1  0  0  0  0
 26 55  1  0  0  0  0
 26 56  1  0  0  0  0
 27 28  1  0  0  0  0
 27 29  1  0  0  0  0
 28 57  1  0  0  0  0
 28 58  1  0  0  0  0
 28 59  1  0  0  0  0
 29 60  1  0  0  0  0
 29 61  1  0  0  0  0
M  END
> <s_m_source_file>
AV-unprocessed.smi

> <i_m_source_file_index>
21

> <i_lp_mmshare_version>
43012

> <i_f3d_flags>
0

> <s_epik_input>
W0NIM11PW0NASF0xW0NIMl1bQ0BIXShOKFtDSDNdKVtDSDJdMSlbQ0gyXU4oW0NIM10pYyhuW2NIXW4yKWMoYzIzKW5bY0hdbjNbQ0gyXVtDQEhdKFtDSDJdW09IXSlbQ0BASF00W0NIMl1bQ0gyXU9bQ0gyXTQ=

> <s_epik_cmdline>
J2VwaWtfcHl0aG9uJywgJy1waCcsICc3LjAnLCAnLXRuJywgJzgnLCAnLW1hJywgJzIwMCcsICctbWV0YWxfYmluZGluZycsICctaW1hZScsICc8aW5maWxlLm1hZT4nLCAnLW9tYWUnLCAnPG91dGZpbGUubWFlPic=

> <r_lp_tautomer_probability>
1

> <r_epik_Ionization_Penalty>
2.17574

> <r_epik_Ionization_Penalty_Charging>
0

> <r_epik_Ionization_Penalty_Neutral>
2.17574

> <r_epik_State_Penalty>
2.31336

> <r_epik_Charging_Adjusted_Penalty>
2.31336

> <i_epik_Tot_Q>
0

> <i_epik_Tot_abs_Q>
0

> <r_epik_Metal_State_Penalty>
2.31025

> <b_epik_Metal_Only>
0

> <s_lp_Force_Field>
OPLS_2005

> <r_lp_Energy>
70.4108

> <b_lp_Chiralities_Consistent>
1

> <s_lp_Variant>
AV-unprocessed.smi:21-44

> <Gold.Version>
5.8.1

> <Gold.Id.Protein>
6NUR|6NUR_protein|mol2

> <Gold.PLP.Fitness>
42.1852

> <Gold.PLP.PLP>
-38.0982

> <Gold.PLP.part.hbond>
-2.0000

> <Gold.PLP.part.metal>
0.0000

> <Gold.PLP.part.buried>
-7.0895

> <Gold.PLP.part.nonpolar>
-30.6851

> <Gold.PLP.part.repulsive>
0.1659

> <Gold.PLP.ligand.clash>
0.0000

> <Gold.PLP.ligand.torsion>
1.1802

> <Gold.PLP.Chemscore.Hbond>
1.8406

> <Gold.PLP.Chemscore.CHOScore>
0.0000

> <Gold.PLP.Chemscore.Metal>
0.0000

> <Gold.Chemscore.Hbonds>
donor molecule, donor type, donor heavy atom, donor atom, acceptor molecule, acceptor atom, score
      L1  H    21    49       P1  8028  0.99
      P1  H  6896  6907       L1    10  0.59

> <Gold.PLP.Chemscore.Internal.Correction>
0.9257

> <Gold.Rescore>
     Score         DG    S(hbond)    S(metal)    S(lipo)     H(rot)  DE(clash)    DE(int)     intcor
     11.39     -14.12       1.58        0.00      94.39       3.00       0.17       2.56       ----

> <Gold.Chemscore.Fitness>
11.3871

> <Gold.Chemscore.DG>
-14.1164

> <Gold.Chemscore.ZeroCoef>
-5.4800

> <Gold.Chemscore.Hbond>
1.5812

> <Gold.Chemscore.Metal>
0.0000

> <Gold.Chemscore.Lipo>
94.3864

> <Gold.Chemscore.Internal_Hbond>
0.0000

> <Gold.Chemscore.DEClash>
0.1665

> <Gold.Chemscore.DEInternal>
2.5628

> <Gold.Chemscore.Rot>
3.0031

> <Gold.Chemscore.Internal.Correction>
   9.000000E+99

> <Gold.Chemscore.Hbonds>
donor molecule, donor type, donor heavy atom, donor atom, acceptor molecule, acceptor atom, score
      L1  H    21    49       P1  8028  0.91
      P1  H  6896  6907       L1    10  0.49

> <Gold.Chemscore.Hbond.Weighted>
-5.2812

> <Gold.Chemscore.Metal.Weighted>
-0.0000

> <Gold.Chemscore.Lipo.Weighted>
-11.0432

> <Gold.Chemscore.Internal_Hbond.Weighted>
0.0000

> <Gold.Chemscore.DEClash.Weighted>
0.1665

> <Gold.Chemscore.DEInternal.Weighted>
2.5628

> <Gold.Chemscore.Rot.Weighted>
7.6880

> <Gold.Chemscore.Internal.Correction.Weighted>
   9.000000E+99

> <Gold.Protein.RotatedTorsions>
[ 6907 6896 6895 6894 ] final  -42.40 input  -60.11 | X-H torsion
[ 7974 7965 7964 7962 ] final -102.13 input  175.53 | X-H torsion
[ 8008 7997 7996 7995 ] final   64.16 input   59.86 | X-H torsion
[ 10167 10162 10161 10158 ] final   37.75 input  -65.29 | X-H torsion
[ 10718 10713 10712 10709 ] final -157.62 input   66.30 | X-H torsion
[ 10763 10752 10751 10750 ] final  -19.36 input  -60.55 | X-H torsion
[ 11005 11000 10999 10996 ] final   23.33 input  -57.11 | X-H torsion

> <Gold.Protein.ActiveResidues>
 VAL166  LYS551  ARG553  GLY616  TRP617  ASP618  TYR619  PRO620  LYS621  CYS622 
 ASP623  PHE694  ASN695  SER759  ASP760  ASP761  ALA762  ILE779  LEU786  VAL792 
 PHE793  MET794  SER795  GLU796  ALA797  LYS798  CYS799  TRP800  GLU811  SER814 

> <Gold.Protein.RotatedAtoms>
  150.9557  134.8952  159.7699 H   0  0  0  0  0  0  0  0  0  0  0  0  # atno 6907 bound_to 6896
  152.5137  134.3743  159.9339 H   0  0  0  0  0  0  0  0  0  0  0  0  # atno 6908 bound_to 6896
  151.3757  133.3798  159.2739 H   0  0  0  0  0  0  0  0  0  0  0  0  # atno 6909 bound_to 6896
  145.2727  140.9303  143.2977 H   0  0  0  0  0  0  0  0  0  0  0  0  # atno 7974 bound_to 7965
  155.6416  140.3497  155.4717 H   0  0  0  0  0  0  0  0  0  0  0  0  # atno 8008 bound_to 7997
  155.9921  140.1196  157.0652 H   0  0  0  0  0  0  0  0  0  0  0  0  # atno 8009 bound_to 7997
  154.4222  140.1117  156.5566 H   0  0  0  0  0  0  0  0  0  0  0  0  # atno 8010 bound_to 7997
  140.4002  144.1733  150.6133 H   0  0  0  0  0  0  0  0  0  0  0  0  # atno 10167 bound_to 10162
  156.5428  130.8571  151.2754 H   0  0  0  0  0  0  0  0  0  0  0  0  # atno 10718 bound_to 10713
  153.6036  135.6998  153.5375 H   0  0  0  0  0  0  0  0  0  0  0  0  # atno 10763 bound_to 10752
  153.3076  135.4110  155.1307 H   0  0  0  0  0  0  0  0  0  0  0  0  # atno 10764 bound_to 10752
  154.8578  135.3664  154.5572 H   0  0  0  0  0  0  0  0  0  0  0  0  # atno 10765 bound_to 10752
  140.3708  134.2025  155.7667 H   0  0  0  0  0  0  0  0  0  0  0  0  # atno 11005 bound_to 11000
  144.9321  139.4286  143.6490 LP  0  0  0  0  0  0  0  0  0  0  0  0  # atno 17320 bound_to 7965
  146.3241  139.8237  142.8922 LP  0  0  0  0  0  0  0  0  0  0  0  0  # atno 17321 bound_to 7965
  140.4747  143.2400  151.9039 LP  0  0  0  0  0  0  0  0  0  0  0  0  # atno 17342 bound_to 10162
  139.4785  144.5332  151.8636 LP  0  0  0  0  0  0  0  0  0  0  0  0  # atno 17343 bound_to 10162
  157.7402  130.9846  150.2363 LP  0  0  0  0  0  0  0  0  0  0  0  0  # atno 17370 bound_to 10713
  156.2956  130.3751  149.7800 LP  0  0  0  0  0  0  0  0  0  0  0  0  # atno 17371 bound_to 10713
  141.1955  133.8104  157.0712 LP  0  0  0  0  0  0  0  0  0  0  0  0  # atno 17394 bound_to 11000
  140.0553  134.9783  157.1210 LP  0  0  0  0  0  0  0  0  0  0  0  0  # atno 17395 bound_to 11000

$$$$
