AV-unprocessed.smi:3002|AV-procd|sdf|11434|dock7
  -GOLD-   2272016363D 1   1.00000     0.00000
 Structure written by MMmdl.
 34 35  0  0  0  0  0  0  0  0  1 V2000
  148.2638  138.8159  156.8845 C   0  0  0  0  0  0  0  0  0  0  0  0
  149.1224  138.7258  155.6067 C   0  0  1  0  0  0  0  0  0  0  0  0
  149.9500  139.9976  155.3643 C   0  0  0  0  0  0  0  0  0  0  0  0
  150.5578  140.1588  154.3055 O   0  0  0  0  0  0  0  0  0  0  0  0
  149.9660  140.8972  156.3607 N   0  0  0  0  0  0  0  0  0  0  0  0
  150.6843  142.1668  156.3327 C   0  0  0  0  0  0  0  0  0  0  0  0
  150.9170  142.7447  157.7435 C   0  0  2  0  0  0  0  0  0  0  0  0
  151.7927  144.0156  157.7528 C   0  0  0  0  0  0  0  0  0  0  0  0
  152.1951  144.3207  159.1987 C   0  0  0  0  0  0  0  0  0  0  0  0
  152.4026  142.6900  160.0046 S   0  0  0  0  0  0  0  0  0  0  0  0
  153.8283  142.3294  160.0187 O   0  0  0  0  0  0  0  0  0  0  0  0
  151.6005  142.6572  161.2368 O   0  0  0  0  0  0  0  0  0  0  0  0
  151.5602  141.7220  158.6943 C   0  0  0  0  0  0  0  0  0  0  0  0
  149.9880  137.5526  155.6032 N   0  0  0  0  0  0  0  0  0  0  0  0
  150.6450  136.9752  154.5946 C   0  0  0  0  0  0  0  0  0  0  0  0
  151.3863  135.9378  154.9571 N   0  0  0  0  0  0  0  0  0  0  0  0
  151.1332  135.9353  156.2996 C   0  0  0  0  0  0  0  0  0  0  0  0
  150.3115  136.8874  156.7405 N   0  0  0  0  0  0  0  0  0  0  0  0
  147.5875  139.6703  156.8433 H   0  0  0  0  0  0  0  0  0  0  0  0
  148.8726  138.9206  157.7835 H   0  0  0  0  0  0  0  0  0  0  0  0
  147.6519  137.9213  157.0041 H   0  0  0  0  0  0  0  0  0  0  0  0
  148.4343  138.6166  154.7666 H   0  0  0  0  0  0  0  0  0  0  0  0
  149.4396  140.6895  157.1967 H   0  0  0  0  0  0  0  0  0  0  0  0
  151.6366  142.0390  155.8149 H   0  0  0  0  0  0  0  0  0  0  0  0
  150.1022  142.8680  155.7340 H   0  0  0  0  0  0  0  0  0  0  0  0
  149.9519  143.0160  158.1741 H   0  0  0  0  0  0  0  0  0  0  0  0
  152.6942  143.8344  157.1661 H   0  0  0  0  0  0  0  0  0  0  0  0
  151.2824  144.8658  157.2990 H   0  0  0  0  0  0  0  0  0  0  0  0
  153.1138  144.9024  159.2767 H   0  0  0  0  0  0  0  0  0  0  0  0
  151.3979  144.8541  159.7171 H   0  0  0  0  0  0  0  0  0  0  0  0
  150.8325  141.0428  159.1389 H   0  0  0  0  0  0  0  0  0  0  0  0
  152.3185  141.1286  158.1828 H   0  0  0  0  0  0  0  0  0  0  0  0
  150.5824  137.3230  153.5739 H   0  0  0  0  0  0  0  0  0  0  0  0
  151.5729  135.2142  156.9730 H   0  0  0  0  0  0  0  0  0  0  0  0
  1  2  1  0  0  0  0
  1 19  1  0  0  0  0
  1 20  1  0  0  0  0
  1 21  1  0  0  0  0
  2  3  1  0  0  0  0
  2 14  1  0  0  0  0
  2 22  1  0  0  0  0
  3  4  2  0  0  0  0
  3  5  1  0  0  0  0
  5  6  1  0  0  0  0
  5 23  1  0  0  0  0
  6  7  1  0  0  0  0
  6 24  1  0  0  0  0
  6 25  1  0  0  0  0
  7 13  1  0  0  0  0
  7  8  1  0  0  0  0
  7 26  1  0  0  0  0
  8  9  1  0  0  0  0
  8 27  1  0  0  0  0
  8 28  1  0  0  0  0
  9 10  1  0  0  0  0
  9 29  1  0  0  0  0
  9 30  1  0  0  0  0
 10 11  2  0  0  0  0
 10 12  2  0  0  0  0
 10 13  1  0  0  0  0
 13 31  1  0  0  0  0
 13 32  1  0  0  0  0
 14 18  1  0  0  0  0
 14 15  1  0  0  0  0
 15 16  2  0  0  0  0
 15 33  1  0  0  0  0
 16 17  1  0  0  0  0
 17 18  2  0  0  0  0
 17 34  1  0  0  0  0
M  END
> <s_m_source_file>
AV-unprocessed.smi

> <i_m_source_file_index>
3002

> <i_lp_mmshare_version>
43012

> <i_f3d_flags>
0

> <s_epik_input>
bjFbY0hdbltjSF1uMVtDQEhdKFtDSDNdKUMoPU8pW05IXVtDSDJdW0NAQEhdKFtDSDJdMilbQ0gyXVtDSDJdUzIoPU8pPU8=

> <s_epik_cmdline>
J2VwaWtfcHl0aG9uJywgJy1waCcsICc3LjAnLCAnLXRuJywgJzgnLCAnLW1hJywgJzIwMCcsICctbWV0YWxfYmluZGluZycsICctaW1hZScsICc8aW5maWxlLm1hZT4nLCAnLW9tYWUnLCAnPG91dGZpbGUubWFlPic=

> <r_lp_tautomer_probability>
1

> <r_epik_Ionization_Penalty>
1.1748e-05

> <r_epik_Ionization_Penalty_Charging>
0

> <r_epik_Ionization_Penalty_Neutral>
1.1748e-05

> <r_epik_State_Penalty>
-0

> <r_epik_Charging_Adjusted_Penalty>
0

> <i_epik_Tot_Q>
0

> <i_epik_Tot_abs_Q>
0

> <r_epik_Metal_State_Penalty>
-0

> <b_epik_Metal_Only>
0

> <s_lp_Force_Field>
OPLS_2005

> <r_lp_Energy>
11.4636

> <b_lp_Chiralities_Consistent>
1

> <s_lp_Variant>
AV-unprocessed.smi:3002-2

> <Gold.Version>
5.8.1

> <Gold.Id.Protein>
6NUR|6NUR_protein|mol2

> <Gold.PLP.Fitness>
38.7616

> <Gold.PLP.PLP>
-29.9043

> <Gold.PLP.part.hbond>
-2.9663

> <Gold.PLP.part.metal>
0.0000

> <Gold.PLP.part.buried>
-5.6232

> <Gold.PLP.part.nonpolar>
-23.2688

> <Gold.PLP.part.repulsive>
0.3896

> <Gold.PLP.ligand.clash>
0.3892

> <Gold.PLP.ligand.torsion>
0.6233

> <Gold.PLP.Chemscore.Hbond>
2.4373

> <Gold.PLP.Chemscore.CHOScore>
1.0261

> <Gold.PLP.Chemscore.Metal>
0.0000

> <Gold.Chemscore.Hbonds>
donor molecule, donor type, donor heavy atom, donor atom, acceptor molecule, acceptor atom, score
      P1  H  6933  6945       L1    12  0.43
      P1  H  7989  7998       L1     4  0.96
      P1  H 10752 10765       L1    16  1.00
      L1  C    15    33       P1  7948  0.48
      L1  C    15    33       P1  7949  0.56

> <Gold.PLP.Chemscore.Internal.Correction>
0.1029

> <Gold.Rescore>
     Score         DG    S(hbond)    S(metal)    S(lipo)     H(rot)  DE(clash)    DE(int)     intcor
     13.81     -14.15       2.58        0.00      52.88       2.39       0.00       0.34       ----

> <Gold.Chemscore.Fitness>
13.8083

> <Gold.Chemscore.DG>
-14.1484

> <Gold.Chemscore.ZeroCoef>
-5.4800

> <Gold.Chemscore.Hbond>
2.5782

> <Gold.Chemscore.Metal>
0.0000

> <Gold.Chemscore.Lipo>
52.8820

> <Gold.Chemscore.Internal_Hbond>
0.0000

> <Gold.Chemscore.DEClash>
0.0015

> <Gold.Chemscore.DEInternal>
0.3386

> <Gold.Chemscore.Rot>
2.3946

> <Gold.Chemscore.Internal.Correction>
   9.000000E+99

> <Gold.Chemscore.Hbonds>
donor molecule, donor type, donor heavy atom, donor atom, acceptor molecule, acceptor atom, score
      P1  H  6933  6945       L1    12  0.40
      P1  H  7989  7998       L1     4  0.91
      P1  H 10752 10765       L1    16  0.95

> <Gold.Chemscore.Hbond.Weighted>
-8.6113

> <Gold.Chemscore.Metal.Weighted>
-0.0000

> <Gold.Chemscore.Lipo.Weighted>
-6.1872

> <Gold.Chemscore.Internal_Hbond.Weighted>
0.0000

> <Gold.Chemscore.DEClash.Weighted>
0.0015

> <Gold.Chemscore.DEInternal.Weighted>
0.3386

> <Gold.Chemscore.Rot.Weighted>
6.1301

> <Gold.Chemscore.Internal.Correction.Weighted>
   9.000000E+99

> <Gold.Protein.RotatedTorsions>
[ 6907 6896 6895 6894 ] final  -88.88 input  -60.11 | X-H torsion
[ 7974 7965 7964 7962 ] final   -1.12 input  175.53 | X-H torsion
[ 8008 7997 7996 7995 ] final  -77.23 input   59.86 | X-H torsion
[ 10167 10162 10161 10158 ] final   72.06 input  -65.29 | X-H torsion
[ 10718 10713 10712 10709 ] final   72.04 input   66.30 | X-H torsion
[ 10763 10752 10751 10750 ] final  172.17 input  -60.55 | X-H torsion
[ 11005 11000 10999 10996 ] final  -84.37 input  -57.11 | X-H torsion

> <Gold.Protein.ActiveResidues>
 VAL166  LYS551  ARG553  GLY616  TRP617  ASP618  TYR619  PRO620  LYS621  CYS622 
 ASP623  PHE694  ASN695  SER759  ASP760  ASP761  ALA762  ILE779  LEU786  VAL792 
 PHE793  MET794  SER795  GLU796  ALA797  LYS798  CYS799  TRP800  GLU811  SER814 

> <Gold.Protein.RotatedAtoms>
  150.6870  134.2674  159.4573 H   0  0  0  0  0  0  0  0  0  0  0  0  # atno 6907 bound_to 6896
  152.0599  134.9598  160.0584 H   0  0  0  0  0  0  0  0  0  0  0  0  # atno 6908 bound_to 6896
  152.1030  133.4225  159.4632 H   0  0  0  0  0  0  0  0  0  0  0  0  # atno 6909 bound_to 6896
  146.2420  140.1373  142.8336 H   0  0  0  0  0  0  0  0  0  0  0  0  # atno 7974 bound_to 7965
  154.5577  140.0714  156.8770 H   0  0  0  0  0  0  0  0  0  0  0  0  # atno 8008 bound_to 7997
  155.2871  140.3375  155.4236 H   0  0  0  0  0  0  0  0  0  0  0  0  # atno 8009 bound_to 7997
  156.2016  140.1724  156.7873 H   0  0  0  0  0  0  0  0  0  0  0  0  # atno 8010 bound_to 7997
  140.0393  144.5402  150.7446 H   0  0  0  0  0  0  0  0  0  0  0  0  # atno 10167 bound_to 10162
  157.6482  130.9559  150.0874 H   0  0  0  0  0  0  0  0  0  0  0  0  # atno 10718 bound_to 10713
  154.4223  135.2758  155.1967 H   0  0  0  0  0  0  0  0  0  0  0  0  # atno 10763 bound_to 10752
  154.3908  135.6066  153.5845 H   0  0  0  0  0  0  0  0  0  0  0  0  # atno 10764 bound_to 10752
  152.9833  135.5903  154.4521 H   0  0  0  0  0  0  0  0  0  0  0  0  # atno 10765 bound_to 10752
  141.1651  133.7342  156.8858 H   0  0  0  0  0  0  0  0  0  0  0  0  # atno 11005 bound_to 11000
  145.0276  140.8845  143.5129 LP  0  0  0  0  0  0  0  0  0  0  0  0  # atno 17320 bound_to 7965
  145.1431  139.2560  143.5479 LP  0  0  0  0  0  0  0  0  0  0  0  0  # atno 17321 bound_to 7965
  140.7267  143.2644  151.4095 LP  0  0  0  0  0  0  0  0  0  0  0  0  # atno 17342 bound_to 10162
  139.6024  144.1268  152.2212 LP  0  0  0  0  0  0  0  0  0  0  0  0  # atno 17343 bound_to 10162
  156.1832  130.3651  149.9007 LP  0  0  0  0  0  0  0  0  0  0  0  0  # atno 17370 bound_to 10713
  156.6954  130.8912  151.3593 LP  0  0  0  0  0  0  0  0  0  0  0  0  # atno 17371 bound_to 10713
  140.1683  134.9118  157.2801 LP  0  0  0  0  0  0  0  0  0  0  0  0  # atno 17394 bound_to 11000
  140.2531  134.3659  155.7434 LP  0  0  0  0  0  0  0  0  0  0  0  0  # atno 17395 bound_to 11000

$$$$
