AV-unprocessed.smi:1762|AV-procd|sdf|7126|dock1
  -GOLD-   22720 8363D 1   1.00000     0.00000
 Structure written by MMmdl.
 52 53  0  0  0  0  0  0  0  0  3 V2000
  147.7783  133.2631  152.5801 C   0  0  0  0  0  0  0  0  0  0  0  0
  146.5221  133.7768  153.3062 C   0  0  1  0  0  0  0  0  0  0  0  0
  146.8046  134.9402  154.2737 C   0  0  0  0  0  0  0  0  0  0  0  0
  147.0927  136.2100  153.5450 N   0  3  2  0  0  0  0  0  0  0  0  0
  147.4725  137.3410  154.4586 C   0  0  1  0  0  0  0  0  0  0  0  0
  148.4472  136.8513  155.5579 C   0  0  0  0  0  0  0  0  0  0  0  0
  149.5415  136.3913  155.2129 O   0  0  0  0  0  0  0  0  0  0  0  0
  147.8999  136.9764  156.7988 N   0  5  0  0  0  0  0  0  0  0  0  0
  147.9677  135.9416  157.8291 C   0  0  0  0  0  0  0  0  0  0  0  0
  148.6070  136.5101  159.1174 C   0  0  0  0  0  0  0  0  0  0  0  0
  147.9301  136.0585  160.4074 C   0  0  0  0  0  0  0  0  0  0  0  0
  147.7908  134.6828  160.7019 C   0  0  0  0  0  0  0  0  0  0  0  0
  147.1739  134.3103  161.9118 C   0  0  0  0  0  0  0  0  0  0  0  0
  146.7238  135.3205  162.7831 C   0  0  0  0  0  0  0  0  0  0  0  0
  146.9133  136.6645  162.4051 C   0  0  0  0  0  0  0  0  0  0  0  0
  147.5050  137.0330  161.2486 N   0  0  0  0  0  0  0  0  0  0  0  0
  148.0339  138.6097  153.7301 C   0  0  0  0  0  0  0  0  0  0  0  0
  149.0709  139.4115  154.5451 C   0  0  0  0  0  0  0  0  0  0  0  0
  146.9245  139.5487  153.2170 C   0  0  0  0  0  0  0  0  0  0  0  0
  145.9643  136.4983  152.6182 C   0  0  0  0  0  0  0  0  0  0  0  0
  145.7211  135.3186  151.6592 C   0  0  2  0  0  0  0  0  0  0  0  0
  144.5099  135.5575  150.7508 C   0  0  0  0  0  0  0  0  0  0  0  0
  145.4767  134.1320  152.4053 O   0  0  0  0  0  0  0  0  0  0  0  0
  148.5020  132.8696  153.2946 H   0  0  0  0  0  0  0  0  0  0  0  0
  148.2803  134.0466  152.0130 H   0  0  0  0  0  0  0  0  0  0  0  0
  147.5265  132.4576  151.8901 H   0  0  0  0  0  0  0  0  0  0  0  0
  146.1381  132.9432  153.8952 H   0  0  0  0  0  0  0  0  0  0  0  0
  145.9399  135.0943  154.9215 H   0  0  0  0  0  0  0  0  0  0  0  0
  147.6271  134.6474  154.9257 H   0  0  0  0  0  0  0  0  0  0  0  0
  146.5364  137.6559  154.9272 H   0  0  0  0  0  0  0  0  0  0  0  0
  146.9852  135.5288  158.0616 H   0  0  0  0  0  0  0  0  0  0  0  0
  148.5642  135.0961  157.4860 H   0  0  0  0  0  0  0  0  0  0  0  0
  149.6589  136.2240  159.1622 H   0  0  0  0  0  0  0  0  0  0  0  0
  148.5953  137.6009  159.0871 H   0  0  0  0  0  0  0  0  0  0  0  0
  148.1461  133.9298  160.0136 H   0  0  0  0  0  0  0  0  0  0  0  0
  147.0496  133.2683  162.1674 H   0  0  0  0  0  0  0  0  0  0  0  0
  146.2460  135.0721  163.7192 H   0  0  0  0  0  0  0  0  0  0  0  0
  146.5831  137.4652  163.0503 H   0  0  0  0  0  0  0  0  0  0  0  0
  148.5303  138.2728  152.8210 H   0  0  0  0  0  0  0  0  0  0  0  0
  148.6153  139.9118  155.3993 H   0  0  0  0  0  0  0  0  0  0  0  0
  149.5294  140.1854  153.9294 H   0  0  0  0  0  0  0  0  0  0  0  0
  149.8746  138.7806  154.9227 H   0  0  0  0  0  0  0  0  0  0  0  0
  146.3943  140.0400  154.0335 H   0  0  0  0  0  0  0  0  0  0  0  0
  146.1901  139.0024  152.6245 H   0  0  0  0  0  0  0  0  0  0  0  0
  147.3394  140.3321  152.5823 H   0  0  0  0  0  0  0  0  0  0  0  0
  145.0649  136.7149  153.1969 H   0  0  0  0  0  0  0  0  0  0  0  0
  146.1684  137.3713  152.0019 H   0  0  0  0  0  0  0  0  0  0  0  0
  146.5949  135.1801  151.0222 H   0  0  0  0  0  0  0  0  0  0  0  0
  144.6492  136.4470  150.1357 H   0  0  0  0  0  0  0  0  0  0  0  0
  143.5984  135.6927  151.3340 H   0  0  0  0  0  0  0  0  0  0  0  0
  144.3536  134.7123  150.0802 H   0  0  0  0  0  0  0  0  0  0  0  0
  147.9046  136.0378  152.9695 H   0  0  0  0  0  0  0  0  0  0  0  0
  1  2  1  0  0  0  0
  1 24  1  0  0  0  0
  1 25  1  0  0  0  0
  1 26  1  0  0  0  0
  2 23  1  0  0  0  0
  2  3  1  0  0  0  0
  2 27  1  0  0  0  0
  3  4  1  0  0  0  0
  3 28  1  0  0  0  0
  3 29  1  0  0  0  0
  4  5  1  0  0  0  0
  4 20  1  0  0  0  0
  4 52  1  0  0  0  0
  5  6  1  0  0  0  0
  5 17  1  0  0  0  0
  5 30  1  0  0  0  0
  6  7  2  0  0  0  0
  6  8  1  0  0  0  0
  8  9  1  0  0  0  0
  9 10  1  0  0  0  0
  9 31  1  0  0  0  0
  9 32  1  0  0  0  0
 10 11  1  0  0  0  0
 10 33  1  0  0  0  0
 10 34  1  0  0  0  0
 11 16  1  0  0  0  0
 11 12  2  0  0  0  0
 12 13  1  0  0  0  0
 12 35  1  0  0  0  0
 13 14  2  0  0  0  0
 13 36  1  0  0  0  0
 14 15  1  0  0  0  0
 14 37  1  0  0  0  0
 15 16  2  0  0  0  0
 15 38  1  0  0  0  0
 17 18  1  0  0  0  0
 17 19  1  0  0  0  0
 17 39  1  0  0  0  0
 18 40  1  0  0  0  0
 18 41  1  0  0  0  0
 18 42  1  0  0  0  0
 19 43  1  0  0  0  0
 19 44  1  0  0  0  0
 19 45  1  0  0  0  0
 20 21  1  0  0  0  0
 20 46  1  0  0  0  0
 20 47  1  0  0  0  0
 21 22  1  0  0  0  0
 21 23  1  0  0  0  0
 21 48  1  0  0  0  0
 22 49  1  0  0  0  0
 22 50  1  0  0  0  0
 22 51  1  0  0  0  0
M  CHG  1   4   1
M  CHG  1   8  -1
M  END
> <s_m_source_file>
AV-unprocessed.smi

> <i_m_source_file_index>
1762

> <i_lp_mmshare_version>
43012

> <i_f3d_flags>
0

> <s_epik_input>
W0NIM11bQ0BASF0xW0NIMl1OKFtDSDJdW0NASF0oTzEpW0NIM10pW0NAQEhdKFtDSF0oW0NIM10pW0NIM10pQyg9TylbTkhdW0NIMl1bQ0gyXWMyW2NIXVtjSF1bY0hdW2NIXW4y

> <s_epik_cmdline>
J2VwaWtfcHl0aG9uJywgJy1waCcsICc3LjAnLCAnLXRuJywgJzgnLCAnLW1hJywgJzIwMCcsICctbWV0YWxfYmluZGluZycsICctaW1hZScsICc8aW5maWxlLm1hZT4nLCAnLW9tYWUnLCAnPG91dGZpbGUubWFlPic=

> <r_epik_Ionization_Penalty>
7.82966

> <r_epik_Ionization_Penalty_Charging>
7.7461

> <r_epik_Ionization_Penalty_Neutral>
0.0835571

> <r_epik_State_Penalty>
8.52273

> <r_epik_Charging_Adjusted_Penalty>
16.2688

> <i_epik_Tot_Q>
0

> <i_epik_Tot_abs_Q>
2

> <r_epik_Metal_State_Penalty>
4.47451

> <b_epik_Metal_Only>
1

> <s_lp_Force_Field>
OPLS_2005

> <r_lp_Energy>
24.57

> <b_lp_Chiralities_Consistent>
1

> <s_lp_Variant>
AV-unprocessed.smi:1762-28

> <Gold.Version>
5.8.1

> <Gold.Id.Protein>
6NUR|6NUR_protein|mol2

> <Gold.PLP.Fitness>
44.3755

> <Gold.PLP.PLP>
-35.4673

> <Gold.PLP.part.hbond>
-3.0000

> <Gold.PLP.part.metal>
0.0000

> <Gold.PLP.part.buried>
-2.5080

> <Gold.PLP.part.nonpolar>
-30.3167

> <Gold.PLP.part.repulsive>
0.2179

> <Gold.PLP.ligand.clash>
0.0000

> <Gold.PLP.ligand.torsion>
1.6317

> <Gold.PLP.Chemscore.Hbond>
3.8720

> <Gold.PLP.Chemscore.CHOScore>
0.0000

> <Gold.PLP.Chemscore.Metal>
0.0000

> <Gold.Chemscore.Hbonds>
donor molecule, donor type, donor heavy atom, donor atom, acceptor molecule, acceptor atom, score
      L1  H     4    52       P1  7948  2.00
      P1  H  6931  6943       L1    16  0.90
      P1  H  6934  6947       L1    16  0.94

> <Gold.PLP.Chemscore.Internal.Correction>
0.5557

> <Gold.Rescore>
     Score         DG    S(hbond)    S(metal)    S(lipo)     H(rot)  DE(clash)    DE(int)     intcor
     17.46     -19.20       2.24        0.00      88.18       1.60       0.03       1.70       ----

> <Gold.Chemscore.Fitness>
17.4637

> <Gold.Chemscore.DG>
-19.1955

> <Gold.Chemscore.ZeroCoef>
-5.4800

> <Gold.Chemscore.Hbond>
2.2449

> <Gold.Chemscore.Metal>
0.0000

> <Gold.Chemscore.Lipo>
88.1756

> <Gold.Chemscore.Internal_Hbond>
0.0000

> <Gold.Chemscore.DEClash>
0.0303

> <Gold.Chemscore.DEInternal>
1.7015

> <Gold.Chemscore.Rot>
1.6012

> <Gold.Chemscore.Internal.Correction>
   9.000000E+99

> <Gold.Chemscore.Hbonds>
donor molecule, donor type, donor heavy atom, donor atom, acceptor molecule, acceptor atom, score
      L1  H     4    52       P1  7948  0.93
      P1  H  6931  6943       L1    16  0.24
      P1  H  6934  6947       L1    16  0.60

> <Gold.Chemscore.Hbond.Weighted>
-7.4979

> <Gold.Chemscore.Metal.Weighted>
-0.0000

> <Gold.Chemscore.Lipo.Weighted>
-10.3165

> <Gold.Chemscore.Internal_Hbond.Weighted>
0.0000

> <Gold.Chemscore.DEClash.Weighted>
0.0303

> <Gold.Chemscore.DEInternal.Weighted>
1.7015

> <Gold.Chemscore.Rot.Weighted>
4.0990

> <Gold.Chemscore.Internal.Correction.Weighted>
   9.000000E+99

> <Gold.Protein.RotatedTorsions>
[ 6907 6896 6895 6894 ] final  -93.67 input  -60.11 | X-H torsion
[ 7974 7965 7964 7962 ] final   56.91 input  175.53 | X-H torsion
[ 8008 7997 7996 7995 ] final   -1.38 input   59.86 | X-H torsion
[ 10167 10162 10161 10158 ] final -176.17 input  -65.29 | X-H torsion
[ 10718 10713 10712 10709 ] final  135.58 input   66.30 | X-H torsion
[ 10763 10752 10751 10750 ] final  -75.69 input  -60.55 | X-H torsion
[ 11005 11000 10999 10996 ] final -102.04 input  -57.11 | X-H torsion

> <Gold.Protein.ActiveResidues>
 VAL166  LYS551  ARG553  GLY616  TRP617  ASP618  TYR619  PRO620  LYS621  CYS622 
 ASP623  PHE694  ASN695  SER759  ASP760  ASP761  ALA762  ILE779  LEU786  VAL792 
 PHE793  MET794  SER795  GLU796  ALA797  LYS798  CYS799  TRP800  GLU811  SER814 

> <Gold.Protein.RotatedAtoms>
  150.6927  134.1931  159.4292 H   0  0  0  0  0  0  0  0  0  0  0  0  # atno 6907 bound_to 6896
  151.9901  134.9981  160.0570 H   0  0  0  0  0  0  0  0  0  0  0  0  # atno 6908 bound_to 6896
  152.1675  133.4587  159.4929 H   0  0  0  0  0  0  0  0  0  0  0  0  # atno 6909 bound_to 6896
  145.9347  139.3837  143.0400 H   0  0  0  0  0  0  0  0  0  0  0  0  # atno 7974 bound_to 7965
  154.6474  140.2561  155.7252 H   0  0  0  0  0  0  0  0  0  0  0  0  # atno 8008 bound_to 7997
  156.2559  140.2875  156.0814 H   0  0  0  0  0  0  0  0  0  0  0  0  # atno 8009 bound_to 7997
  155.1503  140.0382  157.2809 H   0  0  0  0  0  0  0  0  0  0  0  0  # atno 8010 bound_to 7997
  139.5543  144.2028  152.1132 H   0  0  0  0  0  0  0  0  0  0  0  0  # atno 10167 bound_to 10162
  157.4556  131.1069  150.9982 H   0  0  0  0  0  0  0  0  0  0  0  0  # atno 10718 bound_to 10713
  154.4899  135.5823  153.6451 H   0  0  0  0  0  0  0  0  0  0  0  0  # atno 10763 bound_to 10752
  152.9860  135.6110  154.3139 H   0  0  0  0  0  0  0  0  0  0  0  0  # atno 10764 bound_to 10752
  154.3037  135.2846  155.2578 H   0  0  0  0  0  0  0  0  0  0  0  0  # atno 10765 bound_to 10752
  141.1206  133.8526  157.1309 H   0  0  0  0  0  0  0  0  0  0  0  0  # atno 11005 bound_to 11000
  145.8379  140.9596  143.0814 LP  0  0  0  0  0  0  0  0  0  0  0  0  # atno 17320 bound_to 7965
  144.6770  140.0247  143.7483 LP  0  0  0  0  0  0  0  0  0  0  0  0  # atno 17321 bound_to 7965
  140.1529  144.5097  150.6676 LP  0  0  0  0  0  0  0  0  0  0  0  0  # atno 17342 bound_to 10162
  140.6813  143.2328  151.5377 LP  0  0  0  0  0  0  0  0  0  0  0  0  # atno 17343 bound_to 10162
  157.0797  130.5898  149.5418 LP  0  0  0  0  0  0  0  0  0  0  0  0  # atno 17370 bound_to 10713
  156.0006  130.5084  150.7647 LP  0  0  0  0  0  0  0  0  0  0  0  0  # atno 17371 bound_to 10713
  140.0160  134.9967  157.0494 LP  0  0  0  0  0  0  0  0  0  0  0  0  # atno 17394 bound_to 11000
  140.4519  134.1573  155.7182 LP  0  0  0  0  0  0  0  0  0  0  0  0  # atno 17395 bound_to 11000

$$$$
