AV-unprocessed.smi:110|AV-procd|sdf|1065|dock5
  -GOLD-   2262018143D 1   1.00000     0.00000
 Structure written by MMmdl.
 46 50  0  0  0  0  0  0  0  0  1 V2000
  146.6555  132.2142  155.5501 O   0  0  0  0  0  0  0  0  0  0  0  0
  147.8261  132.4397  156.3060 C   0  0  0  0  0  0  0  0  0  0  0  0
  148.3888  133.8372  156.0049 C   0  0  1  0  0  0  0  0  0  0  0  0
  149.5771  134.0539  156.7664 O   0  0  0  0  0  0  0  0  0  0  0  0
  150.4653  134.8778  156.0690 C   0  0  2  0  0  0  0  0  0  0  0  0
  150.7372  136.1176  156.8687 N   0  0  0  0  0  0  0  0  0  0  0  0
  150.2075  136.4426  158.0966 C   0  0  0  0  0  0  0  0  0  0  0  0
  150.5965  137.5861  158.5898 N   0  0  0  0  0  0  0  0  0  0  0  0
  151.4714  138.0918  157.6357 C   0  0  0  0  0  0  0  0  0  0  0  0
  152.2463  139.2822  157.5224 C   0  0  0  0  0  0  0  0  0  0  0  0
  152.2807  140.2712  158.4464 N   0  0  0  0  0  0  0  0  0  0  0  0
  152.9672  140.0307  159.7238 C   0  0  0  0  0  0  0  0  0  0  0  0
  153.2911  141.4030  160.3445 C   0  0  0  0  0  0  0  0  0  0  0  0
  152.6272  142.3206  159.3693 C   0  0  0  0  0  0  0  0  0  0  0  0
  152.5254  143.7201  159.4503 C   0  0  0  0  0  0  0  0  0  0  0  0
  151.8300  144.3967  158.4255 C   0  0  0  0  0  0  0  0  0  0  0  0
  151.2483  143.6732  157.3585 C   0  0  0  0  0  0  0  0  0  0  0  0
  151.3619  142.2667  157.2990 C   0  0  0  0  0  0  0  0  0  0  0  0
  152.0769  141.5991  158.3146 C   0  0  0  0  0  0  0  0  0  0  0  0
  152.9614  139.4610  156.3830 N   0  0  0  0  0  0  0  0  0  0  0  0
  152.9552  138.5228  155.4327 C   0  0  0  0  0  0  0  0  0  0  0  0
  152.3018  137.3607  155.4142 N   0  0  0  0  0  0  0  0  0  0  0  0
  151.5548  137.1829  156.5417 C   0  0  0  0  0  0  0  0  0  0  0  0
  149.8532  135.1639  154.6843 C   0  0  2  0  0  0  0  0  0  0  0  0
  149.2192  136.4305  154.5911 O   0  0  0  0  0  0  0  0  0  0  0  0
  148.8745  134.0045  154.5637 C   0  0  2  0  0  0  0  0  0  0  0  0
  147.8278  134.2491  153.6426 O   0  0  0  0  0  0  0  0  0  0  0  0
  147.6561  134.6131  156.2329 H   0  0  0  0  0  0  0  0  0  0  0  0
  151.4308  134.3743  156.0062 H   0  0  0  0  0  0  0  0  0  0  0  0
  150.6337  135.1162  153.9244 H   0  0  0  0  0  0  0  0  0  0  0  0
  149.4167  133.1098  154.2537 H   0  0  0  0  0  0  0  0  0  0  0  0
  146.1410  133.0068  155.5485 H   0  0  0  0  0  0  0  0  0  0  0  0
  147.6226  132.3137  157.3696 H   0  0  0  0  0  0  0  0  0  0  0  0
  148.5496  131.6752  156.0214 H   0  0  0  0  0  0  0  0  0  0  0  0
  149.5152  135.7993  158.6202 H   0  0  0  0  0  0  0  0  0  0  0  0
  152.3098  139.4607  160.3814 H   0  0  0  0  0  0  0  0  0  0  0  0
  153.8761  139.4464  159.5734 H   0  0  0  0  0  0  0  0  0  0  0  0
  152.8720  141.5155  161.3448 H   0  0  0  0  0  0  0  0  0  0  0  0
  154.3640  141.5944  160.3762 H   0  0  0  0  0  0  0  0  0  0  0  0
  152.9629  144.2620  160.2757 H   0  0  0  0  0  0  0  0  0  0  0  0
  151.7345  145.4719  158.4606 H   0  0  0  0  0  0  0  0  0  0  0  0
  150.7088  144.1995  156.5851 H   0  0  0  0  0  0  0  0  0  0  0  0
  150.9024  141.7197  156.4894 H   0  0  0  0  0  0  0  0  0  0  0  0
  153.5585  138.7334  154.5621 H   0  0  0  0  0  0  0  0  0  0  0  0
  148.9567  136.5689  153.6939 H   0  0  0  0  0  0  0  0  0  0  0  0
  148.1672  134.7739  152.9339 H   0  0  0  0  0  0  0  0  0  0  0  0
  1  2  1  0  0  0  0
  1 32  1  0  0  0  0
  2  3  1  0  0  0  0
  2 33  1  0  0  0  0
  2 34  1  0  0  0  0
  3 28  1  0  0  0  0
  3 26  1  0  0  0  0
  3  4  1  0  0  0  0
  4  5  1  0  0  0  0
  5 29  1  0  0  0  0
  5  6  1  0  0  0  0
  5 24  1  0  0  0  0
  6 23  1  0  0  0  0
  6  7  1  0  0  0  0
  7  8  2  0  0  0  0
  7 35  1  0  0  0  0
  8  9  1  0  0  0  0
  9 23  2  0  0  0  0
  9 10  1  0  0  0  0
 10 11  1  0  0  0  0
 10 20  2  0  0  0  0
 11 19  1  0  0  0  0
 11 12  1  0  0  0  0
 12 13  1  0  0  0  0
 12 36  1  0  0  0  0
 12 37  1  0  0  0  0
 13 14  1  0  0  0  0
 13 38  1  0  0  0  0
 13 39  1  0  0  0  0
 14 19  2  0  0  0  0
 14 15  1  0  0  0  0
 15 16  2  0  0  0  0
 15 40  1  0  0  0  0
 16 17  1  0  0  0  0
 16 41  1  0  0  0  0
 17 18  2  0  0  0  0
 17 42  1  0  0  0  0
 18 19  1  0  0  0  0
 18 43  1  0  0  0  0
 20 21  1  0  0  0  0
 21 22  2  0  0  0  0
 21 44  1  0  0  0  0
 22 23  1  0  0  0  0
 24 30  1  0  0  0  0
 24 25  1  0  0  0  0
 24 26  1  0  0  0  0
 25 45  1  0  0  0  0
 26 31  1  0  0  0  0
 26 27  1  0  0  0  0
 27 46  1  0  0  0  0
M  END
> <s_m_source_file>
AV-unprocessed.smi

> <i_m_source_file_index>
110

> <i_lp_mmshare_version>
43012

> <i_f3d_flags>
0

> <s_epik_input>
W09IXVtDSDJdW0NASF0xT1tDQEhdKFtDQEhdKFtPSF0pW0NAQEhdMVtPSF0pbihbY0hdbjIpYyhjMjMpbltjSF1uYzNOKFtDSDJdW0NIMl00KWMoYzQ1KVtjSF1bY0hdW2NIXVtjSF01

> <s_epik_cmdline>
J2VwaWtfcHl0aG9uJywgJy1waCcsICc3LjAnLCAnLXRuJywgJzgnLCAnLW1hJywgJzIwMCcsICctbWV0YWxfYmluZGluZycsICctaW1hZScsICc8aW5maWxlLm1hZT4nLCAnLW9tYWUnLCAnPG91dGZpbGUubWFlPic=

> <r_lp_tautomer_probability>
1

> <r_epik_Ionization_Penalty>
0.00068475

> <r_epik_Ionization_Penalty_Charging>
0

> <r_epik_Ionization_Penalty_Neutral>
0.00068475

> <r_epik_State_Penalty>
0.000417442

> <r_epik_Charging_Adjusted_Penalty>
0.000417442

> <i_epik_Tot_Q>
0

> <i_epik_Tot_abs_Q>
0

> <r_epik_Metal_State_Penalty>
-0

> <b_epik_Metal_Only>
0

> <s_epik_Chemistry_Notes>
This compound contains an acetal/aminal-like group ( X-CH(R)-Y where X, Y are N, S, or O) that may be acid/base labile, releasing an aldehyde.

> <s_lp_Force_Field>
OPLS_2005

> <r_lp_Energy>
69.6213

> <b_lp_Chiralities_Consistent>
1

> <s_lp_Variant>
AV-unprocessed.smi:110-3

> <Gold.Version>
5.8.1

> <Gold.Id.Protein>
6NUR|6NUR_protein|mol2

> <Gold.PLP.Fitness>
50.4452

> <Gold.PLP.PLP>
-41.3020

> <Gold.PLP.part.hbond>
-4.0000

> <Gold.PLP.part.metal>
0.0000

> <Gold.PLP.part.buried>
-2.9087

> <Gold.PLP.part.nonpolar>
-34.8084

> <Gold.PLP.part.repulsive>
0.0340

> <Gold.PLP.ligand.clash>
0.0000

> <Gold.PLP.ligand.torsion>
1.1277

> <Gold.PLP.Chemscore.Hbond>
3.7680

> <Gold.PLP.Chemscore.CHOScore>
0.0000

> <Gold.PLP.Chemscore.Metal>
0.0000

> <Gold.Chemscore.Hbonds>
donor molecule, donor type, donor heavy atom, donor atom, acceptor molecule, acceptor atom, score
      L1  H    25    45       P1  7948  1.00
      L1  H    27    46       P1  7948  1.00
      P1  H  7997  8009       L1    20  0.99
      P1  H 10752 10765       L1    22  0.74

> <Gold.PLP.Chemscore.Internal.Correction>
0.0946

> <Gold.Rescore>
     Score         DG    S(hbond)    S(metal)    S(lipo)     H(rot)  DE(clash)    DE(int)     intcor
     18.51     -20.09       3.56        0.00      97.26       3.38       0.39       1.18       ----

> <Gold.Chemscore.Fitness>
18.5144

> <Gold.Chemscore.DG>
-20.0860

> <Gold.Chemscore.ZeroCoef>
-5.4800

> <Gold.Chemscore.Hbond>
3.5597

> <Gold.Chemscore.Metal>
0.0000

> <Gold.Chemscore.Lipo>
97.2552

> <Gold.Chemscore.Internal_Hbond>
0.0000

> <Gold.Chemscore.DEClash>
0.3906

> <Gold.Chemscore.DEInternal>
1.1810

> <Gold.Chemscore.Rot>
3.3837

> <Gold.Chemscore.Internal.Correction>
   9.000000E+99

> <Gold.Chemscore.Hbonds>
donor molecule, donor type, donor heavy atom, donor atom, acceptor molecule, acceptor atom, score
      L1  H    25    45       P1  7948  0.97
      L1  H    27    46       P1  7948  0.74
      P1  H  7997  8009       L1    20  0.51
      P1  H 10752 10765       L1    22  0.57

> <Gold.Chemscore.Hbond.Weighted>
-11.8893

> <Gold.Chemscore.Metal.Weighted>
-0.0000

> <Gold.Chemscore.Lipo.Weighted>
-11.3789

> <Gold.Chemscore.Internal_Hbond.Weighted>
0.0000

> <Gold.Chemscore.DEClash.Weighted>
0.3906

> <Gold.Chemscore.DEInternal.Weighted>
1.1810

> <Gold.Chemscore.Rot.Weighted>
8.6622

> <Gold.Chemscore.Internal.Correction.Weighted>
   9.000000E+99

> <Gold.Protein.RotatedTorsions>
[ 6907 6896 6895 6894 ] final  -52.53 input  -60.11 | X-H torsion
[ 7974 7965 7964 7962 ] final -125.13 input  175.53 | X-H torsion
[ 8008 7997 7996 7995 ] final -159.74 input   59.86 | X-H torsion
[ 10167 10162 10161 10158 ] final -168.93 input  -65.29 | X-H torsion
[ 10718 10713 10712 10709 ] final   60.25 input   66.30 | X-H torsion
[ 10763 10752 10751 10750 ] final -176.81 input  -60.55 | X-H torsion
[ 11005 11000 10999 10996 ] final   96.54 input  -57.11 | X-H torsion

> <Gold.Protein.ActiveResidues>
 VAL166  LYS551  ARG553  GLY616  TRP617  ASP618  TYR619  PRO620  LYS621  CYS622 
 ASP623  PHE694  ASN695  SER759  ASP760  ASP761  ALA762  ILE779  LEU786  VAL792 
 PHE793  MET794  SER795  GLU796  ALA797  LYS798  CYS799  TRP800  GLU811  SER814 

> <Gold.Protein.RotatedAtoms>
  150.8510  134.7834  159.7008 H   0  0  0  0  0  0  0  0  0  0  0  0  # atno 6907 bound_to 6896
  152.4574  134.5257  159.9805 H   0  0  0  0  0  0  0  0  0  0  0  0  # atno 6908 bound_to 6896
  151.5378  133.3400  159.2965 H   0  0  0  0  0  0  0  0  0  0  0  0  # atno 6909 bound_to 6896
  145.0008  140.7819  143.4497 H   0  0  0  0  0  0  0  0  0  0  0  0  # atno 7974 bound_to 7965
  155.7670  140.0847  157.2127 H   0  0  0  0  0  0  0  0  0  0  0  0  # atno 8008 bound_to 7997
  154.3999  140.1532  156.2955 H   0  0  0  0  0  0  0  0  0  0  0  0  # atno 8009 bound_to 7997
  155.8784  140.3422  155.5873 H   0  0  0  0  0  0  0  0  0  0  0  0  # atno 8010 bound_to 7997
  139.5954  144.1123  152.1683 H   0  0  0  0  0  0  0  0  0  0  0  0  # atno 10167 bound_to 10162
  157.5738  130.8928  149.9313 H   0  0  0  0  0  0  0  0  0  0  0  0  # atno 10718 bound_to 10713
  154.5678  135.2825  155.0857 H   0  0  0  0  0  0  0  0  0  0  0  0  # atno 10763 bound_to 10752
  154.2241  135.6386  153.5158 H   0  0  0  0  0  0  0  0  0  0  0  0  # atno 10764 bound_to 10752
  153.0048  135.5521  154.6292 H   0  0  0  0  0  0  0  0  0  0  0  0  # atno 10765 bound_to 10752
  139.8781  134.8956  156.4173 H   0  0  0  0  0  0  0  0  0  0  0  0  # atno 11005 bound_to 11000
  145.2155  139.2184  143.5120 LP  0  0  0  0  0  0  0  0  0  0  0  0  # atno 17320 bound_to 7965
  146.3451  140.2002  142.8589 LP  0  0  0  0  0  0  0  0  0  0  0  0  # atno 17321 bound_to 7965
  140.0707  144.5781  150.7194 LP  0  0  0  0  0  0  0  0  0  0  0  0  # atno 17342 bound_to 10162
  140.7208  143.2586  151.4286 LP  0  0  0  0  0  0  0  0  0  0  0  0  # atno 17343 bound_to 10162
  156.0783  130.3676  150.0632 LP  0  0  0  0  0  0  0  0  0  0  0  0  # atno 17370 bound_to 10713
  156.8781  130.9547  151.3602 LP  0  0  0  0  0  0  0  0  0  0  0  0  # atno 17371 bound_to 10713
  140.9158  133.7679  155.9846 LP  0  0  0  0  0  0  0  0  0  0  0  0  # atno 17394 bound_to 11000
  140.8495  134.2971  157.5281 LP  0  0  0  0  0  0  0  0  0  0  0  0  # atno 17395 bound_to 11000

$$$$
