AV-unprocessed.smi:3113|AV-procd|sdf|11854|dock6
  -GOLD-   2272017233D 1   1.00000     0.00000
 Structure written by MMmdl.
 34 35  0  0  0  0  0  0  0  0  1 V2000
  153.0108  142.9831  161.8443 C   0  0  0  0  0  0  0  0  0  0  0  0
  153.2037  142.0937  160.7504 C   0  0  0  0  0  0  0  0  0  0  0  0
  152.8544  142.6275  159.5910 N   0  0  0  0  0  0  0  0  0  0  0  0
  152.4275  143.8698  159.9053 N   0  0  0  0  0  0  0  0  0  0  0  0
  151.9547  144.7552  158.8590 C   0  0  0  0  0  0  0  0  0  0  0  0
  151.9731  144.0658  157.4877 C   0  0  0  0  0  0  0  0  0  0  0  0
  150.7303  143.3412  157.2475 N   0  0  0  0  0  0  0  0  0  0  0  0
  150.9289  142.0721  156.5553 C   0  0  0  0  0  0  0  0  0  0  0  0
  149.6163  141.5639  155.9418 C   0  0  2  0  0  0  0  0  0  0  0  0
  148.5670  141.2513  157.0263 C   0  0  0  0  0  0  0  0  0  0  0  0
  147.3000  140.6607  156.3971 C   0  0  0  0  0  0  0  0  0  0  0  0
  147.6702  139.4593  155.5211 C   0  0  0  0  0  0  0  0  0  0  0  0
  148.7707  139.8468  154.5206 C   0  0  0  0  0  0  0  0  0  0  0  0
  149.8986  140.3672  155.2180 O   0  0  0  0  0  0  0  0  0  0  0  0
  152.5124  144.1125  161.2600 C   0  0  0  0  0  0  0  0  0  0  0  0
  153.2077  142.8173  162.8931 H   0  0  0  0  0  0  0  0  0  0  0  0
  153.5841  141.0830  160.7645 H   0  0  0  0  0  0  0  0  0  0  0  0
  150.9432  145.0778  159.1091 H   0  0  0  0  0  0  0  0  0  0  0  0
  152.5802  145.6494  158.8494 H   0  0  0  0  0  0  0  0  0  0  0  0
  152.1238  144.8125  156.7068 H   0  0  0  0  0  0  0  0  0  0  0  0
  152.8196  143.3801  157.4337 H   0  0  0  0  0  0  0  0  0  0  0  0
  150.0933  143.9221  156.7115 H   0  0  0  0  0  0  0  0  0  0  0  0
  151.6863  142.1730  155.7769 H   0  0  0  0  0  0  0  0  0  0  0  0
  151.3066  141.3340  157.2638 H   0  0  0  0  0  0  0  0  0  0  0  0
  149.2166  142.3203  155.2634 H   0  0  0  0  0  0  0  0  0  0  0  0
  148.9809  140.5439  157.7464 H   0  0  0  0  0  0  0  0  0  0  0  0
  148.3176  142.1549  157.5836 H   0  0  0  0  0  0  0  0  0  0  0  0
  146.5922  140.3647  157.1716 H   0  0  0  0  0  0  0  0  0  0  0  0
  146.8037  141.4193  155.7906 H   0  0  0  0  0  0  0  0  0  0  0  0
  148.0228  138.6415  156.1506 H   0  0  0  0  0  0  0  0  0  0  0  0
  146.7902  139.0917  154.9927 H   0  0  0  0  0  0  0  0  0  0  0  0
  149.0828  138.9722  153.9498 H   0  0  0  0  0  0  0  0  0  0  0  0
  148.4036  140.5812  153.8022 H   0  0  0  0  0  0  0  0  0  0  0  0
  152.2132  145.0568  161.6906 H   0  0  0  0  0  0  0  0  0  0  0  0
  1 15  2  0  0  0  0
  1  2  1  0  0  0  0
  1 16  1  0  0  0  0
  2  3  2  0  0  0  0
  2 17  1  0  0  0  0
  3  4  1  0  0  0  0
  4  5  1  0  0  0  0
  4 15  1  0  0  0  0
  5  6  1  0  0  0  0
  5 18  1  0  0  0  0
  5 19  1  0  0  0  0
  6  7  1  0  0  0  0
  6 20  1  0  0  0  0
  6 21  1  0  0  0  0
  7  8  1  0  0  0  0
  7 22  1  0  0  0  0
  8  9  1  0  0  0  0
  8 23  1  0  0  0  0
  8 24  1  0  0  0  0
  9 14  1  0  0  0  0
  9 10  1  0  0  0  0
  9 25  1  0  0  0  0
 10 11  1  0  0  0  0
 10 26  1  0  0  0  0
 10 27  1  0  0  0  0
 11 12  1  0  0  0  0
 11 28  1  0  0  0  0
 11 29  1  0  0  0  0
 12 13  1  0  0  0  0
 12 30  1  0  0  0  0
 12 31  1  0  0  0  0
 13 14  1  0  0  0  0
 13 32  1  0  0  0  0
 13 33  1  0  0  0  0
 15 34  1  0  0  0  0
M  END
> <s_m_source_file>
AV-unprocessed.smi

> <i_m_source_file_index>
3113

> <i_lp_mmshare_version>
43012

> <i_f3d_flags>
0

> <s_epik_input>
W2NIXTFbY0hdW2NIXW5uMVtDSDJdW0NIMl1bTkhdW0NIMl1bQ0BASF0yW0NIMl1bQ0gyXVtDSDJdW0NIMl1PMg==

> <s_epik_cmdline>
J2VwaWtfcHl0aG9uJywgJy1waCcsICc3LjAnLCAnLXRuJywgJzgnLCAnLW1hJywgJzIwMCcsICctbWV0YWxfYmluZGluZycsICctaW1hZScsICc8aW5maWxlLm1hZT4nLCAnLW9tYWUnLCAnPG91dGZpbGUubWFlPic=

> <r_lp_tautomer_probability>
1

> <r_epik_Ionization_Penalty>
2.521

> <r_epik_Ionization_Penalty_Charging>
0

> <r_epik_Ionization_Penalty_Neutral>
2.521

> <r_epik_State_Penalty>
2.68614

> <r_epik_Charging_Adjusted_Penalty>
2.68614

> <i_epik_Tot_Q>
0

> <i_epik_Tot_abs_Q>
0

> <r_epik_Metal_State_Penalty>
2.68493

> <b_epik_Metal_Only>
0

> <s_lp_Force_Field>
OPLS_2005

> <r_lp_Energy>
11.6104

> <b_lp_Chiralities_Consistent>
1

> <s_lp_Variant>
AV-unprocessed.smi:3113-3

> <Gold.Version>
5.8.1

> <Gold.Id.Protein>
6NUR|6NUR_protein|mol2

> <Gold.PLP.Fitness>
42.5088

> <Gold.PLP.PLP>
-37.7362

> <Gold.PLP.part.hbond>
-2.0000

> <Gold.PLP.part.metal>
0.0000

> <Gold.PLP.part.buried>
-4.7761

> <Gold.PLP.part.nonpolar>
-30.5487

> <Gold.PLP.part.repulsive>
0.0819

> <Gold.PLP.ligand.clash>
0.0000

> <Gold.PLP.ligand.torsion>
0.5168

> <Gold.PLP.Chemscore.Hbond>
1.9272

> <Gold.PLP.Chemscore.CHOScore>
0.0000

> <Gold.PLP.Chemscore.Metal>
0.0000

> <Gold.Chemscore.Hbonds>
donor molecule, donor type, donor heavy atom, donor atom, acceptor molecule, acceptor atom, score
      L1  H     7    22       P1  8028  1.00

> <Gold.PLP.Chemscore.Internal.Correction>
0.0246

> <Gold.Rescore>
     Score         DG    S(hbond)    S(metal)    S(lipo)     H(rot)  DE(clash)    DE(int)     intcor
     15.94     -16.60       1.47        0.00      88.63       1.62       0.07       0.59       ----

> <Gold.Chemscore.Fitness>
15.9387

> <Gold.Chemscore.DG>
-16.5981

> <Gold.Chemscore.ZeroCoef>
-5.4800

> <Gold.Chemscore.Hbond>
1.4666

> <Gold.Chemscore.Metal>
0.0000

> <Gold.Chemscore.Lipo>
88.6347

> <Gold.Chemscore.Internal_Hbond>
0.0000

> <Gold.Chemscore.DEClash>
0.0727

> <Gold.Chemscore.DEInternal>
0.5867

> <Gold.Chemscore.Rot>
1.6213

> <Gold.Chemscore.Internal.Correction>
   9.000000E+99

> <Gold.Chemscore.Hbonds>
donor molecule, donor type, donor heavy atom, donor atom, acceptor molecule, acceptor atom, score
      L1  H     7    22       P1  8028  1.00
      P1  H  7989  7998       L1    14  0.01

> <Gold.Chemscore.Hbond.Weighted>
-4.8984

> <Gold.Chemscore.Metal.Weighted>
-0.0000

> <Gold.Chemscore.Lipo.Weighted>
-10.3703

> <Gold.Chemscore.Internal_Hbond.Weighted>
0.0000

> <Gold.Chemscore.DEClash.Weighted>
0.0727

> <Gold.Chemscore.DEInternal.Weighted>
0.5867

> <Gold.Chemscore.Rot.Weighted>
4.1505

> <Gold.Chemscore.Internal.Correction.Weighted>
   9.000000E+99

> <Gold.Protein.RotatedTorsions>
[ 6907 6896 6895 6894 ] final   38.47 input  -60.11 | X-H torsion
[ 7974 7965 7964 7962 ] final -173.43 input  175.53 | X-H torsion
[ 8008 7997 7996 7995 ] final  -33.63 input   59.86 | X-H torsion
[ 10167 10162 10161 10158 ] final  102.52 input  -65.29 | X-H torsion
[ 10718 10713 10712 10709 ] final  129.16 input   66.30 | X-H torsion
[ 10763 10752 10751 10750 ] final -147.71 input  -60.55 | X-H torsion
[ 11005 11000 10999 10996 ] final  -13.11 input  -57.11 | X-H torsion

> <Gold.Protein.ActiveResidues>
 VAL166  LYS551  ARG553  GLY616  TRP617  ASP618  TYR619  PRO620  LYS621  CYS622 
 ASP623  PHE694  ASN695  SER759  ASP760  ASP761  ALA762  ILE779  LEU786  VAL792 
 PHE793  MET794  SER795  GLU796  ALA797  LYS798  CYS799  TRP800  GLU811  SER814 

> <Gold.Protein.RotatedAtoms>
  152.1569  134.8943  160.0544 H   0  0  0  0  0  0  0  0  0  0  0  0  # atno 6907 bound_to 6896
  151.9954  133.3801  159.4169 H   0  0  0  0  0  0  0  0  0  0  0  0  # atno 6908 bound_to 6896
  150.6882  134.3814  159.5079 H   0  0  0  0  0  0  0  0  0  0  0  0  # atno 6909 bound_to 6896
  144.7138  140.1623  143.6375 H   0  0  0  0  0  0  0  0  0  0  0  0  # atno 7974 bound_to 7965
  154.4143  140.1705  156.1919 H   0  0  0  0  0  0  0  0  0  0  0  0  # atno 8008 bound_to 7997
  155.9596  140.3394  155.6455 H   0  0  0  0  0  0  0  0  0  0  0  0  # atno 8009 bound_to 7997
  155.6765  140.0717  157.2491 H   0  0  0  0  0  0  0  0  0  0  0  0  # atno 8010 bound_to 7997
  139.7343  144.7028  151.0673 H   0  0  0  0  0  0  0  0  0  0  0  0  # atno 10167 bound_to 10162
  157.5179  131.1098  150.9197 H   0  0  0  0  0  0  0  0  0  0  0  0  # atno 10718 bound_to 10713
  154.8272  135.3353  154.6860 H   0  0  0  0  0  0  0  0  0  0  0  0  # atno 10763 bound_to 10752
  153.7484  135.6941  153.4955 H   0  0  0  0  0  0  0  0  0  0  0  0  # atno 10764 bound_to 10752
  153.2194  135.4454  155.0422 H   0  0  0  0  0  0  0  0  0  0  0  0  # atno 10765 bound_to 10752
  140.7727  133.8426  155.9221 H   0  0  0  0  0  0  0  0  0  0  0  0  # atno 11005 bound_to 11000
  145.9019  139.2435  143.1489 LP  0  0  0  0  0  0  0  0  0  0  0  0  # atno 17320 bound_to 7965
  145.9802  140.8688  143.0118 LP  0  0  0  0  0  0  0  0  0  0  0  0  # atno 17321 bound_to 7965
  140.7776  143.5004  150.9779 LP  0  0  0  0  0  0  0  0  0  0  0  0  # atno 17342 bound_to 10162
  139.8692  143.7214  152.3167 LP  0  0  0  0  0  0  0  0  0  0  0  0  # atno 17343 bound_to 10162
  156.9816  130.5529  149.5297 LP  0  0  0  0  0  0  0  0  0  0  0  0  # atno 17370 bound_to 10713
  156.0333  130.5423  150.8590 LP  0  0  0  0  0  0  0  0  0  0  0  0  # atno 17371 bound_to 10713
  140.9559  134.1719  157.4692 LP  0  0  0  0  0  0  0  0  0  0  0  0  # atno 17394 bound_to 11000
  139.8753  134.9926  156.5607 LP  0  0  0  0  0  0  0  0  0  0  0  0  # atno 17395 bound_to 11000

$$$$
