#       Name:                AV-unprocessed.smi:1244
#       Creating user name   scv26
#       Creation time:       Fri Mar 27 04:32:59 2020


#       File generated by GOLD software.
#

@<TRIPOS>MOLECULE
AV-unprocessed.smi:1244
    61    63     1
SMALL
NO_CHARGES


@<TRIPOS>ATOM
      1 ****        -5.1094   0.1617   0.3320 C.3            1 S1                 0.0000
      2 ****        -3.6795   0.3720   0.8407 C.3            1 S1                 0.0000
      3 ****        -3.1129  -0.8918   1.5118 C.3            1 S1                 0.0000
      4 ****        -1.7875  -0.6635   2.0716 N.3            1 S1                 0.0000
      5 ****        -1.2466  -1.8895   2.6596 C.3            1 S1                 0.0000
      6 ****         0.2330  -1.8216   3.0917 C.3            1 S1                 0.0000
      7 ****         1.0999  -1.3178   2.0311 N.am           1 S1                 0.0000
      8 ****         1.4228  -1.9853   0.9152 C.2            1 S1                 0.0000
      9 ****         1.0499  -3.1331   0.6731 O.2            1 S1                 0.0000
     10 ****         2.1783  -1.2305   0.1006 N.am           1 S1                 0.0000
     11 ****         2.5965  -1.5356  -1.2244 C.ar           1 S1                 0.0000
     12 ****         2.9801  -2.8532  -1.5834 C.ar           1 S1                 0.0000
     13 ****         3.4555  -3.1178  -2.8813 C.ar           1 S1                 0.0000
     14 ****         3.5572  -2.0569  -3.7972 C.ar           1 S1                 0.0000
     15 ****         3.1975  -0.8123  -3.4213 N.pl3          1 S1                 1.0000
     16 ****         2.7174  -0.4962  -2.1922 C.ar           1 S1                 0.0000
     17 ****         2.3711   0.8528  -1.9476 N.3            1 S1                 0.0000
     18 ****         2.6841   1.8857  -2.9280 C.3            1 S1                 0.0000
     19 ****         1.8831   3.1071  -2.4852 C.3            1 S1                 0.0000
     20 ****         0.6125   2.4801  -1.9188 C.3            1 S1                 0.0000
     21 ****         1.0987   1.1637  -1.3028 C.3            1 S1                 0.0000
     22 ****        -1.8581   0.4361   3.0302 C.3            1 S1                 0.0000
     23 ****        -2.4445   1.7215   2.4129 C.3            1 S1                 0.0000
     24 ****        -1.4730   2.4322   1.4554 C.3            1 S1                 0.0000
     25 ****        -3.6967   1.4423   1.7839 O.3            1 S1                 0.0000
     26 ****        -5.1490  -0.6396  -0.4064 H              1 S1                 0.0000
     27 ****        -5.4924   1.0670  -0.1394 H              1 S1                 0.0000
     28 ****        -5.7842  -0.1005   1.1473 H              1 S1                 0.0000
     29 ****        -3.0512   0.6466  -0.0070 H              1 S1                 0.0000
     30 ****        -3.7928  -1.2241   2.2981 H              1 S1                 0.0000
     31 ****        -3.0691  -1.6975   0.7780 H              1 S1                 0.0000
     32 ****        -1.8561  -2.1890   3.5135 H              1 S1                 0.0000
     33 ****        -1.3438  -2.6978   1.9334 H              1 S1                 0.0000
     34 ****         0.3468  -1.1748   3.9612 H              1 S1                 0.0000
     35 ****         0.5739  -2.8092   3.4057 H              1 S1                 0.0000
     36 ****         1.4512  -0.3783   2.1442 H              1 S1                 0.0000
     37 ****         2.3407  -0.2807   0.4013 H              1 S1                 0.0000
     38 ****         2.9376  -3.6645  -0.8722 H              1 S1                 0.0000
     39 ****         3.7497  -4.1178  -3.1643 H              1 S1                 0.0000
     40 ****         3.9177  -2.1628  -4.8103 H              1 S1                 0.0000
     41 ****         3.7541   2.0938  -2.9615 H              1 S1                 0.0000
     42 ****         2.3610   1.5760  -3.9228 H              1 S1                 0.0000
     43 ****         2.4181   3.6400  -1.6976 H              1 S1                 0.0000
     44 ****         1.6898   3.8071  -3.2984 H              1 S1                 0.0000
     45 ****         0.1053   3.1229  -1.1989 H              1 S1                 0.0000
     46 ****        -0.0854   2.2699  -2.7306 H              1 S1                 0.0000
     47 ****         0.3631   0.3690  -1.4346 H              1 S1                 0.0000
     48 ****         1.2697   1.2952  -0.2340 H              1 S1                 0.0000
     49 ****        -2.4766   0.1373   3.8780 H              1 S1                 0.0000
     50 ****        -0.8698   0.6555   3.4331 H              1 S1                 0.0000
     51 ****        -2.6574   2.4169   3.2251 H              1 S1                 0.0000
     52 ****        -0.5671   2.7391   1.9783 H              1 S1                 0.0000
     53 ****        -1.9293   3.3268   1.0311 H              1 S1                 0.0000
     54 ****        -1.1697   1.7885   0.6305 H              1 S1                 0.0000
     55 ****         3.2851  -0.0634  -4.1084 H              1 S1                 0.0000
     56 ****        -1.1524  -0.4028   1.3444 LP             1 S1                 0.0000
     57 ****         0.4722  -3.6199   1.3284 LP             1 S1                 0.0000
     58 ****         1.3246  -3.5789  -0.1789 LP             1 S1                 0.0000
     59 ****         3.0842   0.9093  -1.2488 LP             1 S1                 0.0000
     60 ****        -4.3574   1.2135   2.4988 LP             1 S1                 0.0000
     61 ****        -3.9943   2.2695   1.3073 LP             1 S1                 0.0000
@<TRIPOS>BOND
    1    1    2 1     
    2    1   26 1     
    3    1   27 1     
    4    1   28 1     
    5    2   25 1     
    6    2    3 1     
    7    2   29 1     
    8    3    4 1     
    9    3   30 1     
   10    3   31 1     
   11    4    5 1     
   12    4   22 1     
   13    5    6 1     
   14    5   32 1     
   15    5   33 1     
   16    6    7 1     
   17    6   34 1     
   18    6   35 1     
   19    7    8 am    
   20    7   36 1     
   21    8    9 2     
   22    8   10 am    
   23   10   11 1     
   24   10   37 1     
   25   11   16 ar    
   26   11   12 ar    
   27   12   13 ar    
   28   12   38 1     
   29   13   14 ar    
   30   13   39 1     
   31   14   15 ar    
   32   14   40 1     
   33   15   16 ar    
   34   15   55 1     
   35   16   17 1     
   36   17   21 1     
   37   17   18 1     
   38   18   19 1     
   39   18   41 1     
   40   18   42 1     
   41   19   20 1     
   42   19   43 1     
   43   19   44 1     
   44   20   21 1     
   45   20   45 1     
   46   20   46 1     
   47   21   47 1     
   48   21   48 1     
   49   22   23 1     
   50   22   49 1     
   51   22   50 1     
   52   23   24 1     
   53   23   25 1     
   54   23   51 1     
   55   24   52 1     
   56   24   53 1     
   57   24   54 1     
   58    4   56 1     
   59    9   57 1     
   60    9   58 1     
   61   17   59 1     
   62   25   60 1     
   63   25   61 1     
@<TRIPOS>SUBSTRUCTURE
      1 S1             1
@<TRIPOS>SET
LONE_PAIRS      STATIC     ATOMS    <user>   **** ""
6 56 57 58 59 60 61
DONOR_HYDROGENS      STATIC     ATOMS    <user>   **** ""
3 36 37 55
ATOM$BLUE        STATIC     ATOMS    COLORGROUP SYSTEM
6 56 57 58 59 60 61
ATOM$RED        STATIC     ATOMS    COLORGROUP SYSTEM
3 36 37 55
