AV-unprocessed.smi:2510|AV-procd|sdf|9885|dock4
  -GOLD-   2272013523D 1   1.00000     0.00000
 Structure written by MMmdl.
 48 49  0  0  0  0  0  0  0  0  1 V2000
  147.4370  141.5260  154.4875 C   0  0  0  0  0  0  0  0  0  0  0  0
  147.3886  139.9889  154.5113 C   0  0  0  0  0  0  0  0  0  0  0  0
  148.4231  139.3113  155.4424 C   0  0  0  0  0  0  0  0  0  0  0  0
  147.8805  139.3575  156.8960 C   0  0  0  0  0  0  0  0  0  0  0  0
  147.5000  140.7555  157.4085 C   0  0  0  0  0  0  0  0  0  0  0  0
  148.9550  137.9494  154.8998 C   0  0  2  0  0  0  0  0  0  0  0  0
  149.3947  137.0318  155.9499 N   0  0  0  0  0  0  0  0  0  0  0  0
  148.5827  136.3995  156.8097 C   0  0  0  0  0  0  0  0  0  0  0  0
  147.3548  136.4239  156.7313 O   0  0  0  0  0  0  0  0  0  0  0  0
  149.2663  135.6599  157.9595 C   0  0  0  0  0  0  0  0  0  0  0  0
  148.6305  136.0339  159.2607 C   0  0  0  0  0  0  0  0  0  0  0  0
  148.1538  135.2659  160.2864 C   0  0  0  0  0  0  0  0  0  0  0  0
  147.7262  136.2107  161.2645 C   0  0  0  0  0  0  0  0  0  0  0  0
  147.1384  135.9412  162.6181 C   0  0  0  0  0  0  0  0  0  0  0  0
  147.9073  137.4628  160.8720 N   0  0  0  0  0  0  0  0  0  0  0  0
  148.4555  137.3428  159.6489 N   0  0  0  0  0  0  0  0  0  0  0  0
  150.1388  138.6902  154.2544 C   0  0  2  0  0  0  0  0  0  0  0  0
  151.5171  138.0407  154.1455 C   0  0  0  0  0  0  0  0  0  0  0  0
  149.8721  139.8362  155.2477 C   0  0  2  0  0  0  0  0  0  0  0  0
  150.6479  139.7152  156.4357 O   0  0  0  0  0  0  0  0  0  0  0  0
  151.9830  140.1630  156.2779 C   0  0  0  0  0  0  0  0  0  0  0  0
  148.7153  138.1523  159.1031 H   0  0  0  0  0  0  0  0  0  0  0  0
  146.5975  141.9250  153.9179 H   0  0  0  0  0  0  0  0  0  0  0  0
  148.3463  141.8967  154.0154 H   0  0  0  0  0  0  0  0  0  0  0  0
  147.3826  141.9473  155.4913 H   0  0  0  0  0  0  0  0  0  0  0  0
  146.3804  139.7061  154.8138 H   0  0  0  0  0  0  0  0  0  0  0  0
  147.4762  139.6106  153.4933 H   0  0  0  0  0  0  0  0  0  0  0  0
  147.0356  138.6808  157.0189 H   0  0  0  0  0  0  0  0  0  0  0  0
  148.6280  138.9776  157.5906 H   0  0  0  0  0  0  0  0  0  0  0  0
  147.2611  140.7172  158.4713 H   0  0  0  0  0  0  0  0  0  0  0  0
  146.6242  141.1539  156.8974 H   0  0  0  0  0  0  0  0  0  0  0  0
  148.3200  141.4627  157.2819 H   0  0  0  0  0  0  0  0  0  0  0  0
  148.3098  137.4835  154.1533 H   0  0  0  0  0  0  0  0  0  0  0  0
  150.3912  136.9545  156.0947 H   0  0  0  0  0  0  0  0  0  0  0  0
  149.1974  134.5830  157.7994 H   0  0  0  0  0  0  0  0  0  0  0  0
  150.3275  135.9104  157.9715 H   0  0  0  0  0  0  0  0  0  0  0  0
  148.1347  134.1875  160.3402 H   0  0  0  0  0  0  0  0  0  0  0  0
  146.8653  134.8917  162.7269 H   0  0  0  0  0  0  0  0  0  0  0  0
  146.2403  136.5365  162.7849 H   0  0  0  0  0  0  0  0  0  0  0  0
  147.8510  136.1820  163.4072 H   0  0  0  0  0  0  0  0  0  0  0  0
  149.8256  139.0217  153.2631 H   0  0  0  0  0  0  0  0  0  0  0  0
  151.9161  137.7590  155.1201 H   0  0  0  0  0  0  0  0  0  0  0  0
  152.2343  138.7179  153.6819 H   0  0  0  0  0  0  0  0  0  0  0  0
  151.4774  137.1388  153.5349 H   0  0  0  0  0  0  0  0  0  0  0  0
  149.9067  140.8341  154.8062 H   0  0  0  0  0  0  0  0  0  0  0  0
  152.5343  139.9991  157.2036 H   0  0  0  0  0  0  0  0  0  0  0  0
  152.0115  141.2301  156.0542 H   0  0  0  0  0  0  0  0  0  0  0  0
  152.4964  139.6265  155.4800 H   0  0  0  0  0  0  0  0  0  0  0  0
  1  2  1  0  0  0  0
  1 23  1  0  0  0  0
  1 24  1  0  0  0  0
  1 25  1  0  0  0  0
  2  3  1  0  0  0  0
  2 26  1  0  0  0  0
  2 27  1  0  0  0  0
  3 19  1  0  0  0  0
  3  4  1  0  0  0  0
  3  6  1  0  0  0  0
  4  5  1  0  0  0  0
  4 28  1  0  0  0  0
  4 29  1  0  0  0  0
  5 30  1  0  0  0  0
  5 31  1  0  0  0  0
  5 32  1  0  0  0  0
  6  7  1  0  0  0  0
  6 17  1  0  0  0  0
  6 33  1  0  0  0  0
  7  8  1  0  0  0  0
  7 34  1  0  0  0  0
  8  9  2  0  0  0  0
  8 10  1  0  0  0  0
 10 35  1  0  0  0  0
 10 36  1  0  0  0  0
 10 11  1  0  0  0  0
 11 16  1  0  0  0  0
 11 12  2  0  0  0  0
 12 13  1  0  0  0  0
 12 37  1  0  0  0  0
 13 14  1  0  0  0  0
 13 15  2  0  0  0  0
 14 38  1  0  0  0  0
 14 39  1  0  0  0  0
 14 40  1  0  0  0  0
 15 16  1  0  0  0  0
 16 22  1  0  0  0  0
 17 18  1  0  0  0  0
 17 19  1  0  0  0  0
 17 41  1  0  0  0  0
 18 42  1  0  0  0  0
 18 43  1  0  0  0  0
 18 44  1  0  0  0  0
 19 20  1  0  0  0  0
 19 45  1  0  0  0  0
 20 21  1  0  0  0  0
 21 46  1  0  0  0  0
 21 47  1  0  0  0  0
 21 48  1  0  0  0  0
M  END
> <s_m_source_file>
AV-unprocessed.smi

> <i_m_source_file_index>
2510

> <i_lp_mmshare_version>
43012

> <i_f3d_flags>
0

> <s_epik_input>
W0NIM11PW0NAQEhdMVtDQEhdKFtDSDNdKVtDQEBIXShDMShbQ0gyXVtDSDNdKVtDSDJdW0NIM10pW05IXUMoPU8pW0NIMl1jMltjSF1jKFtDSDNdKVtuSF1uMg==

> <s_epik_cmdline>
J2VwaWtfcHl0aG9uJywgJy1waCcsICc3LjAnLCAnLXRuJywgJzgnLCAnLW1hJywgJzIwMCcsICctbWV0YWxfYmluZGluZycsICctaW1hZScsICc8aW5maWxlLm1hZT4nLCAnLW9tYWUnLCAnPG91dGZpbGUubWFlPic=

> <r_lp_tautomer_probability>
0.5

> <r_epik_Ionization_Penalty>
0.000134763

> <r_epik_Ionization_Penalty_Charging>
0

> <r_epik_Ionization_Penalty_Neutral>
0.000134763

> <r_epik_State_Penalty>
0.41068

> <r_epik_Charging_Adjusted_Penalty>
0.41068

> <i_epik_Tot_Q>
0

> <i_epik_Tot_abs_Q>
0

> <r_epik_Metal_State_Penalty>
0.410661

> <b_epik_Metal_Only>
0

> <s_lp_Force_Field>
OPLS_2005

> <r_lp_Energy>
25.7229

> <b_lp_Chiralities_Consistent>
1

> <s_lp_Variant>
AV-unprocessed.smi:2510-16

> <Gold.Version>
5.8.1

> <Gold.Id.Protein>
6NUR|6NUR_protein|mol2

> <Gold.PLP.Fitness>
31.4182

> <Gold.PLP.PLP>
-27.1741

> <Gold.PLP.part.hbond>
-2.0000

> <Gold.PLP.part.metal>
0.0000

> <Gold.PLP.part.buried>
-5.2062

> <Gold.PLP.part.nonpolar>
-21.0821

> <Gold.PLP.part.repulsive>
0.2109

> <Gold.PLP.ligand.clash>
0.0000

> <Gold.PLP.ligand.torsion>
0.8118

> <Gold.PLP.Chemscore.Hbond>
1.7440

> <Gold.PLP.Chemscore.CHOScore>
0.0000

> <Gold.PLP.Chemscore.Metal>
0.0000

> <Gold.Chemscore.Hbonds>
donor molecule, donor type, donor heavy atom, donor atom, acceptor molecule, acceptor atom, score
      P1  H  6931  6943       L1    15  0.75
      P1  H  6934  6947       L1    15  0.74

> <Gold.PLP.Chemscore.Internal.Correction>
0.6357

> <Gold.Rescore>
     Score         DG    S(hbond)    S(metal)    S(lipo)     H(rot)  DE(clash)    DE(int)     intcor
     13.00     -13.82       1.31        0.00      73.61       1.81       0.00       0.82       ----

> <Gold.Chemscore.Fitness>
12.9980

> <Gold.Chemscore.DG>
-13.8205

> <Gold.Chemscore.ZeroCoef>
-5.4800

> <Gold.Chemscore.Hbond>
1.3060

> <Gold.Chemscore.Metal>
0.0000

> <Gold.Chemscore.Lipo>
73.6121

> <Gold.Chemscore.Internal_Hbond>
0.0000

> <Gold.Chemscore.DEClash>
0.0009

> <Gold.Chemscore.DEInternal>
0.8216

> <Gold.Chemscore.Rot>
1.8102

> <Gold.Chemscore.Internal.Correction>
   9.000000E+99

> <Gold.Chemscore.Hbonds>
donor molecule, donor type, donor heavy atom, donor atom, acceptor molecule, acceptor atom, score
      P1  H  6931  6943       L1    15  0.38
      P1  H  6934  6947       L1    15  0.41

> <Gold.Chemscore.Hbond.Weighted>
-4.3620

> <Gold.Chemscore.Metal.Weighted>
-0.0000

> <Gold.Chemscore.Lipo.Weighted>
-8.6126

> <Gold.Chemscore.Internal_Hbond.Weighted>
0.0000

> <Gold.Chemscore.DEClash.Weighted>
0.0009

> <Gold.Chemscore.DEInternal.Weighted>
0.8216

> <Gold.Chemscore.Rot.Weighted>
4.6341

> <Gold.Chemscore.Internal.Correction.Weighted>
   9.000000E+99

> <Gold.Protein.RotatedTorsions>
[ 6907 6896 6895 6894 ] final -176.16 input  -60.11 | X-H torsion
[ 7974 7965 7964 7962 ] final  141.83 input  175.53 | X-H torsion
[ 8008 7997 7996 7995 ] final  -56.13 input   59.86 | X-H torsion
[ 10167 10162 10161 10158 ] final -175.48 input  -65.29 | X-H torsion
[ 10718 10713 10712 10709 ] final  -16.72 input   66.30 | X-H torsion
[ 10763 10752 10751 10750 ] final   87.61 input  -60.55 | X-H torsion
[ 11005 11000 10999 10996 ] final  -92.74 input  -57.11 | X-H torsion

> <Gold.Protein.ActiveResidues>
 VAL166  LYS551  ARG553  GLY616  TRP617  ASP618  TYR619  PRO620  LYS621  CYS622 
 ASP623  PHE694  ASN695  SER759  ASP760  ASP761  ALA762  ILE779  LEU786  VAL792 
 PHE793  MET794  SER795  GLU796  ALA797  LYS798  CYS799  TRP800  GLU811  SER814 

> <Gold.Protein.RotatedAtoms>
  151.6003  133.3357  159.3045 H   0  0  0  0  0  0  0  0  0  0  0  0  # atno 6907 bound_to 6896
  150.8211  134.7423  159.6785 H   0  0  0  0  0  0  0  0  0  0  0  0  # atno 6908 bound_to 6896
  152.4305  134.5793  159.9995 H   0  0  0  0  0  0  0  0  0  0  0  0  # atno 6909 bound_to 6896
  144.9061  139.5356  143.5731 H   0  0  0  0  0  0  0  0  0  0  0  0  # atno 7974 bound_to 7965
  154.4219  140.1137  156.5589 H   0  0  0  0  0  0  0  0  0  0  0  0  # atno 8008 bound_to 7997
  155.6332  140.3496  155.4671 H   0  0  0  0  0  0  0  0  0  0  0  0  # atno 8009 bound_to 7997
  155.9931  140.1183  157.0609 H   0  0  0  0  0  0  0  0  0  0  0  0  # atno 8010 bound_to 7997
  139.5579  144.1944  152.1189 H   0  0  0  0  0  0  0  0  0  0  0  0  # atno 10167 bound_to 10162
  156.5836  130.4780  149.6309 H   0  0  0  0  0  0  0  0  0  0  0  0  # atno 10718 bound_to 10713
  153.1685  135.4537  154.9870 H   0  0  0  0  0  0  0  0  0  0  0  0  # atno 10763 bound_to 10752
  154.7949  135.3234  154.7693 H   0  0  0  0  0  0  0  0  0  0  0  0  # atno 10764 bound_to 10752
  153.8172  135.6950  153.4887 H   0  0  0  0  0  0  0  0  0  0  0  0  # atno 10765 bound_to 10752
  141.1514  133.7841  157.0062 H   0  0  0  0  0  0  0  0  0  0  0  0  # atno 11005 bound_to 11000
  146.3134  139.7830  142.9002 LP  0  0  0  0  0  0  0  0  0  0  0  0  # atno 17320 bound_to 7965
  145.3533  141.0312  143.3326 LP  0  0  0  0  0  0  0  0  0  0  0  0  # atno 17321 bound_to 7965
  140.1451  144.5166  150.6720 LP  0  0  0  0  0  0  0  0  0  0  0  0  # atno 17342 bound_to 10162
  140.6854  143.2347  151.5274 LP  0  0  0  0  0  0  0  0  0  0  0  0  # atno 17343 bound_to 10162
  156.2610  130.6962  151.1730 LP  0  0  0  0  0  0  0  0  0  0  0  0  # atno 17370 bound_to 10713
  157.7320  131.0603  150.5647 LP  0  0  0  0  0  0  0  0  0  0  0  0  # atno 17371 bound_to 10713
  140.0907  134.9594  157.1772 LP  0  0  0  0  0  0  0  0  0  0  0  0  # atno 17394 bound_to 11000
  140.3449  134.2662  155.7206 LP  0  0  0  0  0  0  0  0  0  0  0  0  # atno 17395 bound_to 11000

$$$$
