AV-unprocessed.smi:649|AV-procd|sdf|3179|dock1
  -GOLD-   22720 0103D 1   1.00000     0.00000
 Structure written by MMmdl.
 35 36  0  0  0  0  0  0  0  0  1 V2000
  154.1457  140.0531  160.1742 C   0  0  0  0  0  0  0  0  0  0  0  0
  153.2695  141.2717  159.9710 C   0  0  0  0  0  0  0  0  0  0  0  0
  153.3353  142.3477  160.8756 C   0  0  0  0  0  0  0  0  0  0  0  0
  152.5125  143.4733  160.6900 C   0  0  0  0  0  0  0  0  0  0  0  0
  151.6190  143.5392  159.5995 C   0  0  0  0  0  0  0  0  0  0  0  0
  150.7406  144.7703  159.4543 C   0  0  0  0  0  0  0  0  0  0  0  0
  151.5559  142.4623  158.6755 C   0  0  0  0  0  0  0  0  0  0  0  0
  150.5982  142.4831  157.4839 C   0  0  1  0  0  0  0  0  0  0  0  0
  150.8172  143.6170  156.6668 O   0  0  0  0  0  0  0  0  0  0  0  0
  150.7597  141.2068  156.6278 C   0  0  0  0  0  0  0  0  0  0  0  0
  149.6614  140.9879  155.7164 N   0  0  0  0  0  0  0  0  0  0  0  0
  148.4591  141.6696  155.8300 C   0  0  0  0  0  0  0  0  0  0  0  0
  147.4226  141.4971  154.9747 C   0  0  0  0  0  0  0  0  0  0  0  0
  145.9562  142.3857  155.1841 Cl  0  0  0  0  0  0  0  0  0  0  0  0
  147.5413  140.5553  153.8623 C   0  0  0  0  0  0  0  0  0  0  0  0
  146.6662  140.3208  153.0313 O   0  0  0  0  0  0  0  0  0  0  0  0
  148.7716  139.8958  153.7827 N   0  0  0  0  0  0  0  0  0  0  0  0
  149.8443  140.0683  154.6581 C   0  0  0  0  0  0  0  0  0  0  0  0
  150.8850  139.4352  154.4826 O   0  0  0  0  0  0  0  0  0  0  0  0
  152.3796  141.3310  158.8806 C   0  0  0  0  0  0  0  0  0  0  0  0
  148.8947  139.2392  153.0256 H   0  0  0  0  0  0  0  0  0  0  0  0
  155.1009  140.3324  160.6199 H   0  0  0  0  0  0  0  0  0  0  0  0
  154.3490  139.5560  159.2252 H   0  0  0  0  0  0  0  0  0  0  0  0
  153.6521  139.3417  160.8365 H   0  0  0  0  0  0  0  0  0  0  0  0
  154.0124  142.3111  161.7166 H   0  0  0  0  0  0  0  0  0  0  0  0
  152.5695  144.2889  161.3959 H   0  0  0  0  0  0  0  0  0  0  0  0
  149.6922  144.4866  159.3632 H   0  0  0  0  0  0  0  0  0  0  0  0
  151.0270  145.3407  158.5704 H   0  0  0  0  0  0  0  0  0  0  0  0
  150.8306  145.4279  160.3194 H   0  0  0  0  0  0  0  0  0  0  0  0
  149.5720  142.5609  157.8404 H   0  0  0  0  0  0  0  0  0  0  0  0
  150.0113  143.8248  156.2192 H   0  0  0  0  0  0  0  0  0  0  0  0
  151.7032  141.1558  156.0793 H   0  0  0  0  0  0  0  0  0  0  0  0
  150.7522  140.3240  157.2702 H   0  0  0  0  0  0  0  0  0  0  0  0
  148.3380  142.3765  156.6385 H   0  0  0  0  0  0  0  0  0  0  0  0
  152.3284  140.4962  158.1967 H   0  0  0  0  0  0  0  0  0  0  0  0
  1  2  1  0  0  0  0
  1 22  1  0  0  0  0
  1 23  1  0  0  0  0
  1 24  1  0  0  0  0
  2 20  1  0  0  0  0
  2  3  2  0  0  0  0
  3  4  1  0  0  0  0
  3 25  1  0  0  0  0
  4  5  2  0  0  0  0
  4 26  1  0  0  0  0
  5  6  1  0  0  0  0
  5  7  1  0  0  0  0
  6 27  1  0  0  0  0
  6 28  1  0  0  0  0
  6 29  1  0  0  0  0
  7  8  1  0  0  0  0
  7 20  2  0  0  0  0
  8  9  1  0  0  0  0
  8 10  1  0  0  0  0
  8 30  1  0  0  0  0
  9 31  1  0  0  0  0
 10 11  1  0  0  0  0
 10 32  1  0  0  0  0
 10 33  1  0  0  0  0
 11 18  1  0  0  0  0
 11 12  1  0  0  0  0
 12 13  2  0  0  0  0
 12 34  1  0  0  0  0
 13 14  1  0  0  0  0
 13 15  1  0  0  0  0
 15 16  2  0  0  0  0
 15 17  1  0  0  0  0
 17 21  1  0  0  0  0
 17 18  1  0  0  0  0
 18 19  2  0  0  0  0
 20 35  1  0  0  0  0
M  END
> <s_m_source_file>
AV-unprocessed.smi

> <i_m_source_file_index>
649

> <i_lp_mmshare_version>
43012

> <i_f3d_flags>
0

> <s_epik_input>
W0NIM11jMVtjSF1bY0hdYyhbQ0gzXSljKFtjSF0xKVtDQEhdKFtPSF0pW0NIMl1uMltjSF1jKENsKWMoPU8pW25IXWMyPU8=

> <s_epik_cmdline>
J2VwaWtfcHl0aG9uJywgJy1waCcsICc3LjAnLCAnLXRuJywgJzgnLCAnLW1hJywgJzIwMCcsICctbWV0YWxfYmluZGluZycsICctaW1hZScsICc8aW5maWxlLm1hZT4nLCAnLW9tYWUnLCAnPG91dGZpbGUubWFlPic=

> <r_lp_tautomer_probability>
0.999537

> <r_epik_Ionization_Penalty>
0.0292058

> <r_epik_Ionization_Penalty_Charging>
0.0292057

> <r_epik_Ionization_Penalty_Neutral>
4.85868e-08

> <r_epik_State_Penalty>
0.0240115

> <r_epik_Charging_Adjusted_Penalty>
0.0532172

> <i_epik_Tot_Q>
0

> <i_epik_Tot_abs_Q>
0

> <r_epik_Metal_State_Penalty>
2.21956

> <b_epik_Metal_Only>
0

> <s_lp_Force_Field>
OPLS_2005

> <r_lp_Energy>
13.8297

> <b_lp_Chiralities_Consistent>
1

> <s_lp_Variant>
AV-unprocessed.smi:649-2

> <Gold.Version>
5.8.1

> <Gold.Id.Protein>
6NUR|6NUR_protein|mol2

> <Gold.PLP.Fitness>
51.5655

> <Gold.PLP.PLP>
-44.9534

> <Gold.PLP.part.hbond>
-2.9347

> <Gold.PLP.part.metal>
0.0000

> <Gold.PLP.part.buried>
-3.0386

> <Gold.PLP.part.nonpolar>
-40.6723

> <Gold.PLP.part.repulsive>
0.4988

> <Gold.PLP.ligand.clash>
0.0000

> <Gold.PLP.ligand.torsion>
0.3106

> <Gold.PLP.Chemscore.Hbond>
1.8160

> <Gold.PLP.Chemscore.CHOScore>
0.5873

> <Gold.PLP.Chemscore.Metal>
0.0000

> <Gold.Chemscore.Hbonds>
donor molecule, donor type, donor heavy atom, donor atom, acceptor molecule, acceptor atom, score
      L1  H     9    31       P1  8028  1.00
      L1  H    17    21       P1  7957  0.25
      P1  H  7989  7998       L1    19  0.55
      L1  C    12    34       P1  8028  0.46

> <Gold.PLP.Chemscore.Internal.Correction>
0.0231

> <Gold.Rescore>
     Score         DG    S(hbond)    S(metal)    S(lipo)     H(rot)  DE(clash)    DE(int)     intcor
     16.30     -16.69       1.09        0.00     111.30       2.14       0.12       0.26       ----

> <Gold.Chemscore.Fitness>
16.3029

> <Gold.Chemscore.DG>
-16.6852

> <Gold.Chemscore.ZeroCoef>
-5.4800

> <Gold.Chemscore.Hbond>
1.0924

> <Gold.Chemscore.Metal>
0.0000

> <Gold.Chemscore.Lipo>
111.3040

> <Gold.Chemscore.Internal_Hbond>
0.0000

> <Gold.Chemscore.DEClash>
0.1206

> <Gold.Chemscore.DEInternal>
0.2617

> <Gold.Chemscore.Rot>
2.1351

> <Gold.Chemscore.Internal.Correction>
   9.000000E+99

> <Gold.Chemscore.Hbonds>
donor molecule, donor type, donor heavy atom, donor atom, acceptor molecule, acceptor atom, score
      L1  H     9    31       P1  8028  0.92
      L1  H    17    21       P1  7957  0.24
      P1  H  7989  7998       L1    19  0.03

> <Gold.Chemscore.Hbond.Weighted>
-3.6486

> <Gold.Chemscore.Metal.Weighted>
-0.0000

> <Gold.Chemscore.Lipo.Weighted>
-13.0226

> <Gold.Chemscore.Internal_Hbond.Weighted>
0.0000

> <Gold.Chemscore.DEClash.Weighted>
0.1206

> <Gold.Chemscore.DEInternal.Weighted>
0.2617

> <Gold.Chemscore.Rot.Weighted>
5.4660

> <Gold.Chemscore.Internal.Correction.Weighted>
   9.000000E+99

> <Gold.Protein.RotatedTorsions>
[ 6907 6896 6895 6894 ] final -162.60 input  -60.11 | X-H torsion
[ 7974 7965 7964 7962 ] final   17.55 input  175.53 | X-H torsion
[ 8008 7997 7996 7995 ] final  -44.75 input   59.86 | X-H torsion
[ 10167 10162 10161 10158 ] final  154.23 input  -65.29 | X-H torsion
[ 10718 10713 10712 10709 ] final   19.42 input   66.30 | X-H torsion
[ 10763 10752 10751 10750 ] final   32.36 input  -60.55 | X-H torsion
[ 11005 11000 10999 10996 ] final   -6.18 input  -57.11 | X-H torsion

> <Gold.Protein.ActiveResidues>
 VAL166  LYS551  ARG553  GLY616  TRP617  ASP618  TYR619  PRO620  LYS621  CYS622 
 ASP623  PHE694  ASN695  SER759  ASP760  ASP761  ALA762  ILE779  LEU786  VAL792 
 PHE793  MET794  SER795  GLU796  ALA797  LYS798  CYS799  TRP800  GLU811  SER814 

> <Gold.Protein.RotatedAtoms>
  151.3829  133.3815  159.2711 H   0  0  0  0  0  0  0  0  0  0  0  0  # atno 6907 bound_to 6896
  150.9564  134.8958  159.7714 H   0  0  0  0  0  0  0  0  0  0  0  0  # atno 6908 bound_to 6896
  152.5132  134.3786  159.9395 H   0  0  0  0  0  0  0  0  0  0  0  0  # atno 6909 bound_to 6896
  146.2214  139.8586  142.8609 H   0  0  0  0  0  0  0  0  0  0  0  0  # atno 7974 bound_to 7965
  154.3998  140.1414  156.3735 H   0  0  0  0  0  0  0  0  0  0  0  0  # atno 8008 bound_to 7997
  155.8071  140.3474  155.5415 H   0  0  0  0  0  0  0  0  0  0  0  0  # atno 8009 bound_to 7997
  155.8425  140.0929  157.1716 H   0  0  0  0  0  0  0  0  0  0  0  0  # atno 8010 bound_to 7997
  139.4824  144.5204  151.7885 H   0  0  0  0  0  0  0  0  0  0  0  0  # atno 10167 bound_to 10162
  157.1102  130.6505  149.5895 H   0  0  0  0  0  0  0  0  0  0  0  0  # atno 10718 bound_to 10713
  153.0267  135.6415  154.1342 H   0  0  0  0  0  0  0  0  0  0  0  0  # atno 10763 bound_to 10752
  154.1070  135.2855  155.3240 H   0  0  0  0  0  0  0  0  0  0  0  0  # atno 10764 bound_to 10752
  154.6358  135.5477  153.7795 H   0  0  0  0  0  0  0  0  0  0  0  0  # atno 10765 bound_to 10752
  140.6992  133.9005  155.8671 H   0  0  0  0  0  0  0  0  0  0  0  0  # atno 11005 bound_to 11000
  145.2728  141.0114  143.3762 LP  0  0  0  0  0  0  0  0  0  0  0  0  # atno 17320 bound_to 7965
  144.9210  139.4412  143.6541 LP  0  0  0  0  0  0  0  0  0  0  0  0  # atno 17321 bound_to 7965
  140.4718  144.1576  150.5919 LP  0  0  0  0  0  0  0  0  0  0  0  0  # atno 17342 bound_to 10162
  140.4374  143.2541  151.9517 LP  0  0  0  0  0  0  0  0  0  0  0  0  # atno 17343 bound_to 10162
  155.9852  130.4881  150.7021 LP  0  0  0  0  0  0  0  0  0  0  0  0  # atno 17370 bound_to 10713
  157.4565  131.0878  151.0790 LP  0  0  0  0  0  0  0  0  0  0  0  0  # atno 17371 bound_to 10713
  141.0178  134.0931  157.4153 LP  0  0  0  0  0  0  0  0  0  0  0  0  # atno 17394 bound_to 11000
  139.8901  135.0110  156.6720 LP  0  0  0  0  0  0  0  0  0  0  0  0  # atno 17395 bound_to 11000

$$$$
