AV-unprocessed.smi:1433|AV-procd|sdf|5835|dock2
  -GOLD-   22720 5493D 1   1.00000     0.00000
 Structure written by MMmdl.
 44 45  0  0  0  0  0  0  0  0  1 V2000
  149.8883  141.4113  156.8142 C   0  0  0  0  0  0  0  0  0  0  0  0
  150.0924  141.2781  155.2951 C   0  0  2  0  0  0  0  0  0  0  0  0
  148.8588  140.7125  154.5628 C   0  0  0  0  0  0  0  0  0  0  0  0
  148.6626  139.2778  154.7859 N   0  0  0  0  0  0  0  0  0  0  0  0
  147.4762  138.7417  154.0837 C   0  0  2  0  0  0  0  0  0  0  0  0
  146.1655  139.4883  154.4230 C   0  0  0  0  0  0  0  0  0  0  0  0
  147.2399  137.2271  154.3197 C   0  0  0  0  0  0  0  0  0  0  0  0
  146.6798  136.5755  153.1378 N   0  0  0  0  0  0  0  0  0  0  0  0
  145.4139  136.6829  152.7040 C   0  0  0  0  0  0  0  0  0  0  0  0
  144.5441  137.3287  153.2878 O   0  0  0  0  0  0  0  0  0  0  0  0
  145.0782  135.9624  151.3971 C   0  0  0  0  0  0  0  0  0  0  0  0
  145.3087  134.5321  151.5028 N   0  0  0  0  0  0  0  0  0  0  0  0
  145.1455  133.5641  150.5336 C   0  0  0  0  0  0  0  0  0  0  0  0
  145.4819  132.3659  151.0953 C   0  0  0  0  0  0  0  0  0  0  0  0
  145.8441  132.7072  152.4283 C   0  0  0  0  0  0  0  0  0  0  0  0
  145.7394  134.0040  152.6697 N   0  0  0  0  0  0  0  0  0  0  0  0
  149.8987  138.5899  154.4090 C   0  0  0  0  0  0  0  0  0  0  0  0
  151.1189  139.1078  155.1900 C   0  0  1  0  0  0  0  0  0  0  0  0
  152.4186  138.4317  154.7416 C   0  0  0  0  0  0  0  0  0  0  0  0
  151.2534  140.5106  154.9814 O   0  0  0  0  0  0  0  0  0  0  0  0
  149.0708  142.0975  157.0361 H   0  0  0  0  0  0  0  0  0  0  0  0
  150.7858  141.8010  157.2948 H   0  0  0  0  0  0  0  0  0  0  0  0
  149.6457  140.4570  157.2813 H   0  0  0  0  0  0  0  0  0  0  0  0
  150.2776  142.2818  154.9111 H   0  0  0  0  0  0  0  0  0  0  0  0
  147.9896  141.2787  154.8942 H   0  0  0  0  0  0  0  0  0  0  0  0
  148.9629  140.9010  153.4933 H   0  0  0  0  0  0  0  0  0  0  0  0
  147.6357  138.8679  153.0118 H   0  0  0  0  0  0  0  0  0  0  0  0
  145.3015  138.9924  153.9798 H   0  0  0  0  0  0  0  0  0  0  0  0
  146.1612  140.5055  154.0326 H   0  0  0  0  0  0  0  0  0  0  0  0
  145.9998  139.5396  155.4997 H   0  0  0  0  0  0  0  0  0  0  0  0
  148.1888  136.7384  154.5422 H   0  0  0  0  0  0  0  0  0  0  0  0
  146.6318  137.0527  155.2073 H   0  0  0  0  0  0  0  0  0  0  0  0
  147.3167  136.0193  152.5854 H   0  0  0  0  0  0  0  0  0  0  0  0
  144.0317  136.1278  151.1368 H   0  0  0  0  0  0  0  0  0  0  0  0
  145.6799  136.3736  150.5847 H   0  0  0  0  0  0  0  0  0  0  0  0
  144.8056  133.8067  149.5374 H   0  0  0  0  0  0  0  0  0  0  0  0
  145.4711  131.3936  150.6257 H   0  0  0  0  0  0  0  0  0  0  0  0
  146.1778  132.0557  153.2225 H   0  0  0  0  0  0  0  0  0  0  0  0
  149.8207  137.5221  154.6001 H   0  0  0  0  0  0  0  0  0  0  0  0
  150.0720  138.7027  153.3377 H   0  0  0  0  0  0  0  0  0  0  0  0
  150.9802  138.9089  156.2531 H   0  0  0  0  0  0  0  0  0  0  0  0
  152.3715  137.3527  154.8924 H   0  0  0  0  0  0  0  0  0  0  0  0
  153.2696  138.8091  155.3092 H   0  0  0  0  0  0  0  0  0  0  0  0
  152.6149  138.6144  153.6848 H   0  0  0  0  0  0  0  0  0  0  0  0
  1  2  1  0  0  0  0
  1 21  1  0  0  0  0
  1 22  1  0  0  0  0
  1 23  1  0  0  0  0
  2 20  1  0  0  0  0
  2  3  1  0  0  0  0
  2 24  1  0  0  0  0
  3  4  1  0  0  0  0
  3 25  1  0  0  0  0
  3 26  1  0  0  0  0
  4  5  1  0  0  0  0
  4 17  1  0  0  0  0
  5  6  1  0  0  0  0
  5  7  1  0  0  0  0
  5 27  1  0  0  0  0
  6 28  1  0  0  0  0
  6 29  1  0  0  0  0
  6 30  1  0  0  0  0
  7  8  1  0  0  0  0
  7 31  1  0  0  0  0
  7 32  1  0  0  0  0
  8  9  1  0  0  0  0
  8 33  1  0  0  0  0
  9 10  2  0  0  0  0
  9 11  1  0  0  0  0
 11 12  1  0  0  0  0
 11 34  1  0  0  0  0
 11 35  1  0  0  0  0
 12 16  1  0  0  0  0
 12 13  1  0  0  0  0
 13 14  2  0  0  0  0
 13 36  1  0  0  0  0
 14 15  1  0  0  0  0
 14 37  1  0  0  0  0
 15 16  2  0  0  0  0
 15 38  1  0  0  0  0
 17 18  1  0  0  0  0
 17 39  1  0  0  0  0
 17 40  1  0  0  0  0
 18 19  1  0  0  0  0
 18 20  1  0  0  0  0
 18 41  1  0  0  0  0
 19 42  1  0  0  0  0
 19 43  1  0  0  0  0
 19 44  1  0  0  0  0
M  END
> <s_m_source_file>
AV-unprocessed.smi

> <i_m_source_file_index>
1433

> <i_lp_mmshare_version>
43012

> <i_f3d_flags>
0

> <s_epik_input>
W0NIM11bQ0BASF0xW0NIMl1OKFtDSDJdW0NASF0oTzEpW0NIM10pW0NASF0oW0NIM10pW0NIMl1bTkhdQyg9TylbQ0gyXW4yW2NIXVtjSF1bY0hdbjI=

> <s_epik_cmdline>
J2VwaWtfcHl0aG9uJywgJy1waCcsICc3LjAnLCAnLXRuJywgJzgnLCAnLW1hJywgJzIwMCcsICctbWV0YWxfYmluZGluZycsICctaW1hZScsICc8aW5maWxlLm1hZT4nLCAnLW9tYWUnLCAnPG91dGZpbGUubWFlPic=

> <r_lp_tautomer_probability>
1

> <r_epik_Ionization_Penalty>
0.196927

> <r_epik_Ionization_Penalty_Charging>
0

> <r_epik_Ionization_Penalty_Neutral>
0.196927

> <r_epik_State_Penalty>
0.186684

> <r_epik_Charging_Adjusted_Penalty>
0.186684

> <i_epik_Tot_Q>
0

> <i_epik_Tot_abs_Q>
0

> <r_epik_Metal_State_Penalty>
0.186682

> <b_epik_Metal_Only>
0

> <s_lp_Force_Field>
OPLS_2005

> <r_lp_Energy>
34.3038

> <b_lp_Chiralities_Consistent>
1

> <s_lp_Variant>
AV-unprocessed.smi:1433-1

> <Gold.Version>
5.8.1

> <Gold.Id.Protein>
6NUR|6NUR_protein|mol2

> <Gold.PLP.Fitness>
38.1611

> <Gold.PLP.PLP>
-30.8799

> <Gold.PLP.part.hbond>
-1.6268

> <Gold.PLP.part.metal>
0.0000

> <Gold.PLP.part.buried>
-2.3510

> <Gold.PLP.part.nonpolar>
-26.6924

> <Gold.PLP.part.repulsive>
0.4263

> <Gold.PLP.ligand.clash>
0.0000

> <Gold.PLP.ligand.torsion>
0.4830

> <Gold.PLP.Chemscore.Hbond>
1.7120

> <Gold.PLP.Chemscore.CHOScore>
1.0000

> <Gold.PLP.Chemscore.Metal>
0.0000

> <Gold.Chemscore.Hbonds>
donor molecule, donor type, donor heavy atom, donor atom, acceptor molecule, acceptor atom, score
      L1  H     8    33       P1  7948  0.75
      P1  H  7989  7998       L1    20  0.98
      L1  C    13    36       P1  7921  0.97

> <Gold.PLP.Chemscore.Internal.Correction>
0.1113

> <Gold.Rescore>
     Score         DG    S(hbond)    S(metal)    S(lipo)     H(rot)  DE(clash)    DE(int)     intcor
     12.52     -14.83       1.51        0.00      76.27       1.80       0.37       1.93       ----

> <Gold.Chemscore.Fitness>
12.5229

> <Gold.Chemscore.DG>
-14.8279

> <Gold.Chemscore.ZeroCoef>
-5.4800

> <Gold.Chemscore.Hbond>
1.5097

> <Gold.Chemscore.Metal>
0.0000

> <Gold.Chemscore.Lipo>
76.2681

> <Gold.Chemscore.Internal_Hbond>
0.0000

> <Gold.Chemscore.DEClash>
0.3730

> <Gold.Chemscore.DEInternal>
1.9320

> <Gold.Chemscore.Rot>
1.8038

> <Gold.Chemscore.Internal.Correction>
   9.000000E+99

> <Gold.Chemscore.Hbonds>
donor molecule, donor type, donor heavy atom, donor atom, acceptor molecule, acceptor atom, score
      L1  H     8    33       P1  7948  0.76
      P1  H  7989  7998       L1    20  0.43

> <Gold.Chemscore.Hbond.Weighted>
-5.0423

> <Gold.Chemscore.Metal.Weighted>
-0.0000

> <Gold.Chemscore.Lipo.Weighted>
-8.9234

> <Gold.Chemscore.Internal_Hbond.Weighted>
0.0000

> <Gold.Chemscore.DEClash.Weighted>
0.3730

> <Gold.Chemscore.DEInternal.Weighted>
1.9320

> <Gold.Chemscore.Rot.Weighted>
4.6178

> <Gold.Chemscore.Internal.Correction.Weighted>
   9.000000E+99

> <Gold.Protein.RotatedTorsions>
[ 6907 6896 6895 6894 ] final   54.02 input  -60.11 | X-H torsion
[ 7974 7965 7964 7962 ] final -135.49 input  175.53 | X-H torsion
[ 8008 7997 7996 7995 ] final  119.89 input   59.86 | X-H torsion
[ 10167 10162 10161 10158 ] final  118.01 input  -65.29 | X-H torsion
[ 10718 10713 10712 10709 ] final -105.28 input   66.30 | X-H torsion
[ 10763 10752 10751 10750 ] final  -97.42 input  -60.55 | X-H torsion
[ 11005 11000 10999 10996 ] final -137.49 input  -57.11 | X-H torsion

> <Gold.Protein.ActiveResidues>
 VAL166  LYS551  ARG553  GLY616  TRP617  ASP618  TYR619  PRO620  LYS621  CYS622 
 ASP623  PHE694  ASN695  SER759  ASP760  ASP761  ALA762  ILE779  LEU786  VAL792 
 PHE793  MET794  SER795  GLU796  ALA797  LYS798  CYS799  TRP800  GLU811  SER814 

> <Gold.Protein.RotatedAtoms>
  152.3397  134.7151  160.0266 H   0  0  0  0  0  0  0  0  0  0  0  0  # atno 6907 bound_to 6896
  151.7540  133.3324  159.3407 H   0  0  0  0  0  0  0  0  0  0  0  0  # atno 6908 bound_to 6896
  150.7472  134.6098  159.6125 H   0  0  0  0  0  0  0  0  0  0  0  0  # atno 6909 bound_to 6896
  144.9009  140.6770  143.5085 H   0  0  0  0  0  0  0  0  0  0  0  0  # atno 7974 bound_to 7965
  156.2617  140.2843  156.1062 H   0  0  0  0  0  0  0  0  0  0  0  0  # atno 8008 bound_to 7997
  155.1306  140.0394  157.2791 H   0  0  0  0  0  0  0  0  0  0  0  0  # atno 8009 bound_to 7997
  154.6602  140.2565  155.7123 H   0  0  0  0  0  0  0  0  0  0  0  0  # atno 8010 bound_to 7997
  139.6140  144.7088  151.2780 H   0  0  0  0  0  0  0  0  0  0  0  0  # atno 10167 bound_to 10162
  156.0339  130.5556  150.7516 H   0  0  0  0  0  0  0  0  0  0  0  0  # atno 10718 bound_to 10713
  154.7326  135.5047  153.8989 H   0  0  0  0  0  0  0  0  0  0  0  0  # atno 10763 bound_to 10752
  153.0964  135.6673  153.9763 H   0  0  0  0  0  0  0  0  0  0  0  0  # atno 10764 bound_to 10752
  153.9560  135.3053  155.3415 H   0  0  0  0  0  0  0  0  0  0  0  0  # atno 10765 bound_to 10752
  140.8706  134.2055  157.4653 H   0  0  0  0  0  0  0  0  0  0  0  0  # atno 11005 bound_to 11000
  145.3618  139.1680  143.4379 LP  0  0  0  0  0  0  0  0  0  0  0  0  # atno 17320 bound_to 7965
  146.3108  140.3681  142.8671 LP  0  0  0  0  0  0  0  0  0  0  0  0  # atno 17321 bound_to 7965
  140.7338  143.6783  150.8023 LP  0  0  0  0  0  0  0  0  0  0  0  0  # atno 17342 bound_to 10162
  140.0382  143.5373  152.2729 LP  0  0  0  0  0  0  0  0  0  0  0  0  # atno 17343 bound_to 10162
  157.5059  131.0922  151.0258 LP  0  0  0  0  0  0  0  0  0  0  0  0  # atno 17370 bound_to 10713
  157.0626  130.5832  149.5388 LP  0  0  0  0  0  0  0  0  0  0  0  0  # atno 17371 bound_to 10713
  139.8712  134.9772  156.4951 LP  0  0  0  0  0  0  0  0  0  0  0  0  # atno 17394 bound_to 11000
  140.8578  133.8083  155.9233 LP  0  0  0  0  0  0  0  0  0  0  0  0  # atno 17395 bound_to 11000

$$$$
