AV-unprocessed.smi:3078|AV-procd|sdf|11731|dock3
  -GOLD-   2272017123D 1   1.00000     0.00000
 Structure written by MMmdl.
 23 23  0  0  0  0  0  0  0  0  2 V2000
  151.6551  138.8137  155.0211 C   0  0  0  0  0  0  0  0  0  0  0  0
  150.4513  139.5314  154.6602 N   0  0  0  0  0  0  0  0  0  0  0  0
  149.3459  139.0714  153.9780 C   0  0  0  0  0  0  0  0  0  0  0  0
  148.4622  140.1111  153.8763 C   0  0  0  0  0  0  0  0  0  0  0  0
  147.1086  140.1539  153.2174 C   0  0  2  0  0  0  0  0  0  0  0  0
  146.0738  140.4262  154.1992 N   0  0  0  0  0  0  0  0  0  0  0  0
  146.7976  138.8150  152.5245 C   0  0  0  0  0  0  0  0  0  0  0  0
  145.3556  138.6513  152.2719 N   0  3  0  0  0  0  0  0  0  0  0  0
  149.1372  141.1790  154.5349 C   0  0  0  0  0  0  0  0  0  0  0  0
  150.3234  140.8290  155.0037 N   0  0  0  0  0  0  0  0  0  0  0  0
  151.6323  137.8081  154.6001 H   0  0  0  0  0  0  0  0  0  0  0  0
  151.7298  138.7429  156.1064 H   0  0  0  0  0  0  0  0  0  0  0  0
  152.5292  139.3393  154.6350 H   0  0  0  0  0  0  0  0  0  0  0  0
  149.2794  138.0532  153.6233 H   0  0  0  0  0  0  0  0  0  0  0  0
  147.0804  140.9552  152.4776 H   0  0  0  0  0  0  0  0  0  0  0  0
  145.1658  140.3531  153.7617 H   0  0  0  0  0  0  0  0  0  0  0  0
  146.0968  139.7234  154.9248 H   0  0  0  0  0  0  0  0  0  0  0  0
  147.3063  138.7691  151.5608 H   0  0  0  0  0  0  0  0  0  0  0  0
  147.1615  137.9729  153.1152 H   0  0  0  0  0  0  0  0  0  0  0  0
  144.8617  139.4732  152.5885 H   0  0  0  0  0  0  0  0  0  0  0  0
  145.0157  137.8400  152.7680 H   0  0  0  0  0  0  0  0  0  0  0  0
  148.8006  142.1942  154.6854 H   0  0  0  0  0  0  0  0  0  0  0  0
  145.2054  138.5279  151.2805 H   0  0  0  0  0  0  0  0  0  0  0  0
  1  2  1  0  0  0  0
  1 11  1  0  0  0  0
  1 12  1  0  0  0  0
  1 13  1  0  0  0  0
  2 10  1  0  0  0  0
  2  3  1  0  0  0  0
  3  4  2  0  0  0  0
  3 14  1  0  0  0  0
  4  5  1  0  0  0  0
  4  9  1  0  0  0  0
  5  6  1  0  0  0  0
  5  7  1  0  0  0  0
  5 15  1  0  0  0  0
  6 16  1  0  0  0  0
  6 17  1  0  0  0  0
  7  8  1  0  0  0  0
  7 18  1  0  0  0  0
  7 19  1  0  0  0  0
  8 20  1  0  0  0  0
  8 21  1  0  0  0  0
  8 23  1  0  0  0  0
  9 10  2  0  0  0  0
  9 22  1  0  0  0  0
M  CHG  1   8   1
M  END
> <s_m_source_file>
AV-unprocessed.smi

> <i_m_source_file_index>
3078

> <i_lp_mmshare_version>
43012

> <i_f3d_flags>
0

> <s_epik_input>
W0NIM11uMVtjSF1jKFtjSF1uMSlbQ0BIXShbTkgyXSlbQ0gyXVtOSDJd

> <s_epik_cmdline>
J2VwaWtfcHl0aG9uJywgJy1waCcsICc3LjAnLCAnLXRuJywgJzgnLCAnLW1hJywgJzIwMCcsICctbWV0YWxfYmluZGluZycsICctaW1hZScsICc8aW5maWxlLm1hZT4nLCAnLW9tYWUnLCAnPG91dGZpbGUubWFlPic=

> <r_lp_tautomer_probability>
1

> <r_epik_Ionization_Penalty>
0.0498714

> <r_epik_Ionization_Penalty_Charging>
0.00651912

> <r_epik_Ionization_Penalty_Neutral>
0.0433523

> <r_epik_State_Penalty>
0.141593

> <r_epik_Charging_Adjusted_Penalty>
0.148112

> <i_epik_Tot_Q>
1

> <i_epik_Tot_abs_Q>
1

> <r_epik_Metal_State_Penalty>
0.141584

> <b_epik_Metal_Only>
0

> <s_lp_Force_Field>
OPLS_2005

> <r_lp_Energy>
-1.23343

> <b_lp_Chiralities_Consistent>
1

> <s_lp_Variant>
AV-unprocessed.smi:3078-1

> <Gold.Version>
5.8.1

> <Gold.Id.Protein>
6NUR|6NUR_protein|mol2

> <Gold.PLP.Fitness>
38.3785

> <Gold.PLP.PLP>
-22.3496

> <Gold.PLP.part.hbond>
-3.8807

> <Gold.PLP.part.metal>
0.0000

> <Gold.PLP.part.buried>
2.0459

> <Gold.PLP.part.nonpolar>
-20.0205

> <Gold.PLP.part.repulsive>
0.1052

> <Gold.PLP.ligand.clash>
0.0000

> <Gold.PLP.ligand.torsion>
0.2173

> <Gold.PLP.Chemscore.Hbond>
3.9120

> <Gold.PLP.Chemscore.CHOScore>
1.5749

> <Gold.PLP.Chemscore.Metal>
0.0000

> <Gold.Chemscore.Hbonds>
donor molecule, donor type, donor heavy atom, donor atom, acceptor molecule, acceptor atom, score
      L1  H     6    16       P1 10175  1.00
      L1  H     8    20       P1 10175  1.98
      L1  H     8    23       P1 10171  0.91
      L1  C     3    14       P1  7948  1.00
      L1  C     9    22       P1  8028  0.60

> <Gold.PLP.Chemscore.Internal.Correction>
0.0027

> <Gold.Rescore>
     Score         DG    S(hbond)    S(metal)    S(lipo)     H(rot)  DE(clash)    DE(int)     intcor
     15.72     -16.27       2.79        0.00      43.31       1.41       0.26       0.29       ----

> <Gold.Chemscore.Fitness>
15.7179

> <Gold.Chemscore.DG>
-16.2671

> <Gold.Chemscore.ZeroCoef>
-5.4800

> <Gold.Chemscore.Hbond>
2.7949

> <Gold.Chemscore.Metal>
0.0000

> <Gold.Chemscore.Lipo>
43.3121

> <Gold.Chemscore.Internal_Hbond>
0.0000

> <Gold.Chemscore.DEClash>
0.2563

> <Gold.Chemscore.DEInternal>
0.2929

> <Gold.Chemscore.Rot>
1.4123

> <Gold.Chemscore.Internal.Correction>
   9.000000E+99

> <Gold.Chemscore.Hbonds>
donor molecule, donor type, donor heavy atom, donor atom, acceptor molecule, acceptor atom, score
      L1  H     6    16       P1 10175  0.98
      L1  H     8    20       P1 10175  0.89
      L1  H     8    23       P1 10171  0.86

> <Gold.Chemscore.Hbond.Weighted>
-9.3349

> <Gold.Chemscore.Metal.Weighted>
-0.0000

> <Gold.Chemscore.Lipo.Weighted>
-5.0675

> <Gold.Chemscore.Internal_Hbond.Weighted>
0.0000

> <Gold.Chemscore.DEClash.Weighted>
0.2563

> <Gold.Chemscore.DEInternal.Weighted>
0.2929

> <Gold.Chemscore.Rot.Weighted>
3.6154

> <Gold.Chemscore.Internal.Correction.Weighted>
   9.000000E+99

> <Gold.Protein.RotatedTorsions>
[ 6907 6896 6895 6894 ] final    1.26 input  -60.11 | X-H torsion
[ 7974 7965 7964 7962 ] final  173.07 input  175.53 | X-H torsion
[ 8008 7997 7996 7995 ] final -175.38 input   59.86 | X-H torsion
[ 10167 10162 10161 10158 ] final -128.54 input  -65.29 | X-H torsion
[ 10718 10713 10712 10709 ] final -157.66 input   66.30 | X-H torsion
[ 10763 10752 10751 10750 ] final -125.15 input  -60.55 | X-H torsion
[ 11005 11000 10999 10996 ] final  -48.35 input  -57.11 | X-H torsion

> <Gold.Protein.ActiveResidues>
 VAL166  LYS551  ARG553  GLY616  TRP617  ASP618  TYR619  PRO620  LYS621  CYS622 
 ASP623  PHE694  ASN695  SER759  ASP760  ASP761  ALA762  ILE779  LEU786  VAL792 
 PHE793  MET794  SER795  GLU796  ALA797  LYS798  CYS799  TRP800  GLU811  SER814 

> <Gold.Protein.RotatedAtoms>
  151.5898  135.1054  160.0036 H   0  0  0  0  0  0  0  0  0  0  0  0  # atno 6907 bound_to 6896
  152.4312  133.7276  159.6580 H   0  0  0  0  0  0  0  0  0  0  0  0  # atno 6908 bound_to 6896
  150.8204  133.8191  159.3164 H   0  0  0  0  0  0  0  0  0  0  0  0  # atno 6909 bound_to 6896
  144.7252  139.9592  143.6434 H   0  0  0  0  0  0  0  0  0  0  0  0  # atno 7974 bound_to 7965
  155.9818  140.1183  157.0719 H   0  0  0  0  0  0  0  0  0  0  0  0  # atno 8008 bound_to 7997
  154.4185  140.1143  156.5514 H   0  0  0  0  0  0  0  0  0  0  0  0  # atno 8009 bound_to 7997
  155.6460  140.3473  155.4733 H   0  0  0  0  0  0  0  0  0  0  0  0  # atno 8010 bound_to 7997
  139.9493  143.6074  152.2480 H   0  0  0  0  0  0  0  0  0  0  0  0  # atno 10167 bound_to 10162
  156.5434  130.8573  151.2756 H   0  0  0  0  0  0  0  0  0  0  0  0  # atno 10718 bound_to 10713
  154.8732  135.4039  154.3221 H   0  0  0  0  0  0  0  0  0  0  0  0  # atno 10763 bound_to 10752
  153.4048  135.7019  153.6406 H   0  0  0  0  0  0  0  0  0  0  0  0  # atno 10764 bound_to 10752
  153.5133  135.3702  155.2568 H   0  0  0  0  0  0  0  0  0  0  0  0  # atno 10765 bound_to 10752
  141.0695  133.6683  156.3428 H   0  0  0  0  0  0  0  0  0  0  0  0  # atno 11005 bound_to 11000
  146.0650  139.3642  143.0558 LP  0  0  0  0  0  0  0  0  0  0  0  0  # atno 17320 bound_to 7965
  145.8042  140.9756  143.0982 LP  0  0  0  0  0  0  0  0  0  0  0  0  # atno 17321 bound_to 7965
  139.6642  144.7662  151.1906 LP  0  0  0  0  0  0  0  0  0  0  0  0  # atno 17342 bound_to 10162
  140.7588  143.5964  150.8744 LP  0  0  0  0  0  0  0  0  0  0  0  0  # atno 17343 bound_to 10162
  157.7401  130.9844  150.2356 LP  0  0  0  0  0  0  0  0  0  0  0  0  # atno 17370 bound_to 10713
  156.2950  130.3751  149.7804 LP  0  0  0  0  0  0  0  0  0  0  0  0  # atno 17371 bound_to 10713
  140.5703  134.5847  157.5456 LP  0  0  0  0  0  0  0  0  0  0  0  0  # atno 17394 bound_to 11000
  139.9509  134.7618  156.0450 LP  0  0  0  0  0  0  0  0  0  0  0  0  # atno 17395 bound_to 11000

$$$$
