AV-unprocessed.smi:62|AV-procd|sdf|606|dock9
  -GOLD-   2262016503D 1   1.00000     0.00000
 Structure written by MMmdl.
 30 31  0  0  0  0  0  0  0  0  2 V2000
  148.5433  141.2213  153.6979 C   0  0  0  0  0  0  0  0  0  0  0  0
  149.5140  140.8749  154.7136 N   0  0  0  0  0  0  0  0  0  0  0  0
  149.6903  141.4291  155.9605 C   0  0  0  0  0  0  0  0  0  0  0  0
  150.7261  140.7774  156.5703 C   0  0  0  0  0  0  0  0  0  0  0  0
  151.2505  141.0547  157.9596 C   0  0  0  0  0  0  0  0  0  0  0  0
  151.7587  142.4153  158.1061 N   0  0  0  0  0  0  0  0  0  0  0  0
  152.3240  142.7017  159.4140 C   0  0  0  0  0  0  0  0  0  0  0  0
  152.3349  144.2299  159.5584 C   0  0  0  0  0  0  0  0  0  0  0  0
  151.3797  144.7167  158.4562 C   0  0  2  0  0  0  0  0  0  0  0  0
  150.4153  145.6323  158.9315 O   0  0  0  0  0  0  0  0  0  0  0  0
  150.7383  143.4281  157.9389 C   0  0  0  0  0  0  0  0  0  0  0  0
  151.1314  139.8163  155.5822 C   0  0  0  0  0  0  0  0  0  0  0  0
  152.2692  138.8543  155.8037 C   0  0  0  0  0  0  0  0  0  0  0  0
  152.3819  137.8361  155.0863 O   0  0  0  0  0  0  0  0  0  0  0  0
  153.0775  139.1097  156.7239 O   0  5  0  0  0  0  0  0  0  0  0  0
  150.3949  139.8848  154.4802 N   0  0  0  0  0  0  0  0  0  0  0  0
  147.9892  142.1112  153.9979 H   0  0  0  0  0  0  0  0  0  0  0  0
  147.8440  140.3960  153.5614 H   0  0  0  0  0  0  0  0  0  0  0  0
  149.0506  141.4220  152.7536 H   0  0  0  0  0  0  0  0  0  0  0  0
  149.0653  142.2352  156.3149 H   0  0  0  0  0  0  0  0  0  0  0  0
  150.4679  140.8831  158.6988 H   0  0  0  0  0  0  0  0  0  0  0  0
  152.0387  140.3458  158.2173 H   0  0  0  0  0  0  0  0  0  0  0  0
  151.6921  142.2750  160.1945 H   0  0  0  0  0  0  0  0  0  0  0  0
  153.3194  142.2698  159.5220 H   0  0  0  0  0  0  0  0  0  0  0  0
  152.0099  144.5240  160.5573 H   0  0  0  0  0  0  0  0  0  0  0  0
  153.3358  144.6331  159.4009 H   0  0  0  0  0  0  0  0  0  0  0  0
  151.9545  145.1851  157.6561 H   0  0  0  0  0  0  0  0  0  0  0  0
  149.6255  145.5248  158.4241 H   0  0  0  0  0  0  0  0  0  0  0  0
  150.4183  143.5103  156.8996 H   0  0  0  0  0  0  0  0  0  0  0  0
  149.8634  143.1761  158.5412 H   0  0  0  0  0  0  0  0  0  0  0  0
  1  2  1  0  0  0  0
  1 17  1  0  0  0  0
  1 18  1  0  0  0  0
  1 19  1  0  0  0  0
  2 16  1  0  0  0  0
  2  3  1  0  0  0  0
  3  4  2  0  0  0  0
  3 20  1  0  0  0  0
  4  5  1  0  0  0  0
  4 12  1  0  0  0  0
  5  6  1  0  0  0  0
  5 21  1  0  0  0  0
  5 22  1  0  0  0  0
  6 11  1  0  0  0  0
  6  7  1  0  0  0  0
  7  8  1  0  0  0  0
  7 23  1  0  0  0  0
  7 24  1  0  0  0  0
  8  9  1  0  0  0  0
  8 25  1  0  0  0  0
  8 26  1  0  0  0  0
  9 10  1  0  0  0  0
  9 11  1  0  0  0  0
  9 27  1  0  0  0  0
 10 28  1  0  0  0  0
 11 29  1  0  0  0  0
 11 30  1  0  0  0  0
 12 13  1  0  0  0  0
 12 16  2  0  0  0  0
 13 14  2  0  0  0  0
 13 15  1  0  0  0  0
M  CHG  1  15  -1
M  END
> <s_m_source_file>
AV-unprocessed.smi

> <i_m_source_file_index>
62

> <i_lp_mmshare_version>
43012

> <i_f3d_flags>
0

> <s_epik_input>
W0NIM11uMVtjSF1jKGMobjEpQyg9TylbT0hdKVtDSDJdTjJbQ0gyXVtDSDJdW0NAQEhdKFtPSF0pW0NIMl0y

> <s_epik_cmdline>
J2VwaWtfcHl0aG9uJywgJy1waCcsICc3LjAnLCAnLXRuJywgJzgnLCAnLW1hJywgJzIwMCcsICctbWV0YWxfYmluZGluZycsICctaW1hZScsICc8aW5maWxlLm1hZT4nLCAnLW9tYWUnLCAnPG91dGZpbGUubWFlPic=

> <r_epik_Ionization_Penalty>
1.46526

> <r_epik_Ionization_Penalty_Charging>
0.000523675

> <r_epik_Ionization_Penalty_Neutral>
1.46474

> <r_epik_State_Penalty>
1.55202

> <r_epik_Charging_Adjusted_Penalty>
1.55254

> <i_epik_Tot_Q>
-1

> <i_epik_Tot_abs_Q>
1

> <r_epik_Metal_State_Penalty>
1.552

> <b_epik_Metal_Only>
0

> <s_lp_Force_Field>
OPLS_2005

> <r_lp_Energy>
37.4103

> <b_lp_Chiralities_Consistent>
1

> <s_lp_Variant>
AV-unprocessed.smi:62-6

> <Gold.Version>
5.8.1

> <Gold.Id.Protein>
6NUR|6NUR_protein|mol2

> <Gold.PLP.Fitness>
47.9973

> <Gold.PLP.PLP>
-34.2595

> <Gold.PLP.part.hbond>
-5.6202

> <Gold.PLP.part.metal>
0.0000

> <Gold.PLP.part.buried>
0.6455

> <Gold.PLP.part.nonpolar>
-30.1857

> <Gold.PLP.part.repulsive>
0.1721

> <Gold.PLP.ligand.clash>
0.0000

> <Gold.PLP.ligand.torsion>
0.1433

> <Gold.PLP.Chemscore.Hbond>
3.8389

> <Gold.PLP.Chemscore.CHOScore>
0.8331

> <Gold.PLP.Chemscore.Metal>
0.0000

> <Gold.Chemscore.Hbonds>
donor molecule, donor type, donor heavy atom, donor atom, acceptor molecule, acceptor atom, score
      L1  H    10    28       P1  8029  0.81
      P1  H  7989  7998       L1    16  0.72
      P1  H  7997  8008       L1    15  2.00
      P1  H 10752 10765       L1    14  0.28
      L1  C     3    20       P1  8028  0.89

> <Gold.PLP.Chemscore.Internal.Correction>
0.0085

> <Gold.Rescore>
     Score         DG    S(hbond)    S(metal)    S(lipo)     H(rot)  DE(clash)    DE(int)     intcor
     14.04     -16.66       2.06        0.00      75.34       1.77       0.15       2.46       ----

> <Gold.Chemscore.Fitness>
14.0437

> <Gold.Chemscore.DG>
-16.6559

> <Gold.Chemscore.ZeroCoef>
-5.4800

> <Gold.Chemscore.Hbond>
2.0617

> <Gold.Chemscore.Metal>
0.0000

> <Gold.Chemscore.Lipo>
75.3351

> <Gold.Chemscore.Internal_Hbond>
0.0000

> <Gold.Chemscore.DEClash>
0.1523

> <Gold.Chemscore.DEInternal>
2.4599

> <Gold.Chemscore.Rot>
1.7674

> <Gold.Chemscore.Internal.Correction>
   9.000000E+99

> <Gold.Chemscore.Hbonds>
donor molecule, donor type, donor heavy atom, donor atom, acceptor molecule, acceptor atom, score
      L1  H    10    28       P1  8029  0.63
      P1  H  7989  7998       L1    16  0.02
      P1  H  7997  8008       L1    15  0.95
      P1  H 10752 10765       L1    14  0.14

> <Gold.Chemscore.Hbond.Weighted>
-6.8862

> <Gold.Chemscore.Metal.Weighted>
-0.0000

> <Gold.Chemscore.Lipo.Weighted>
-8.8142

> <Gold.Chemscore.Internal_Hbond.Weighted>
0.0000

> <Gold.Chemscore.DEClash.Weighted>
0.1523

> <Gold.Chemscore.DEInternal.Weighted>
2.4599

> <Gold.Chemscore.Rot.Weighted>
4.5245

> <Gold.Chemscore.Internal.Correction.Weighted>
   9.000000E+99

> <Gold.Protein.RotatedTorsions>
[ 6907 6896 6895 6894 ] final -169.69 input  -60.11 | X-H torsion
[ 7974 7965 7964 7962 ] final  -32.65 input  175.53 | X-H torsion
[ 8008 7997 7996 7995 ] final  -45.23 input   59.86 | X-H torsion
[ 10167 10162 10161 10158 ] final -150.50 input  -65.29 | X-H torsion
[ 10718 10713 10712 10709 ] final  125.53 input   66.30 | X-H torsion
[ 10763 10752 10751 10750 ] final -179.08 input  -60.55 | X-H torsion
[ 11005 11000 10999 10996 ] final -145.02 input  -57.11 | X-H torsion

> <Gold.Protein.ActiveResidues>
 VAL166  LYS551  ARG553  GLY616  TRP617  ASP618  TYR619  PRO620  LYS621  CYS622 
 ASP623  PHE694  ASN695  SER759  ASP760  ASP761  ALA762  ILE779  LEU786  VAL792 
 PHE793  MET794  SER795  GLU796  ALA797  LYS798  CYS799  TRP800  GLU811  SER814 

> <Gold.Protein.RotatedAtoms>
  151.4957  133.3515  159.2860 H   0  0  0  0  0  0  0  0  0  0  0  0  # atno 6907 bound_to 6896
  150.8805  134.8197  159.7232 H   0  0  0  0  0  0  0  0  0  0  0  0  # atno 6908 bound_to 6896
  152.4759  134.4854  159.9730 H   0  0  0  0  0  0  0  0  0  0  0  0  # atno 6909 bound_to 6896
  146.0973  140.5818  142.8837 H   0  0  0  0  0  0  0  0  0  0  0  0  # atno 7974 bound_to 7965
  154.4000  140.1402  156.3814 H   0  0  0  0  0  0  0  0  0  0  0  0  # atno 8008 bound_to 7997
  155.8000  140.3476  155.5377 H   0  0  0  0  0  0  0  0  0  0  0  0  # atno 8009 bound_to 7997
  155.8493  140.0939  157.1675 H   0  0  0  0  0  0  0  0  0  0  0  0  # atno 8010 bound_to 7997
  139.7348  143.8752  152.2545 H   0  0  0  0  0  0  0  0  0  0  0  0  # atno 10167 bound_to 10162
  157.5496  131.1094  150.8725 H   0  0  0  0  0  0  0  0  0  0  0  0  # atno 10718 bound_to 10713
  154.5395  135.2805  155.1108 H   0  0  0  0  0  0  0  0  0  0  0  0  # atno 10763 bound_to 10752
  154.2596  135.6324  153.5273 H   0  0  0  0  0  0  0  0  0  0  0  0  # atno 10764 bound_to 10752
  152.9975  135.5602  154.5931 H   0  0  0  0  0  0  0  0  0  0  0  0  # atno 10765 bound_to 10752
  140.7965  134.2907  157.4994 H   0  0  0  0  0  0  0  0  0  0  0  0  # atno 11005 bound_to 11000
  144.7405  140.4930  143.6872 LP  0  0  0  0  0  0  0  0  0  0  0  0  # atno 17320 bound_to 7965
  145.5922  139.1496  143.3176 LP  0  0  0  0  0  0  0  0  0  0  0  0  # atno 17321 bound_to 7965
  139.8685  144.7080  150.9015 LP  0  0  0  0  0  0  0  0  0  0  0  0  # atno 17342 bound_to 10162
  140.7777  143.3757  151.1567 LP  0  0  0  0  0  0  0  0  0  0  0  0  # atno 17343 bound_to 10162
  156.9254  130.5330  149.5279 LP  0  0  0  0  0  0  0  0  0  0  0  0  # atno 17370 bound_to 10713
  156.0565  130.5625  150.9102 LP  0  0  0  0  0  0  0  0  0  0  0  0  # atno 17371 bound_to 10713
  139.8726  134.9405  156.3771 LP  0  0  0  0  0  0  0  0  0  0  0  0  # atno 17394 bound_to 11000
  140.9337  133.7561  156.0058 LP  0  0  0  0  0  0  0  0  0  0  0  0  # atno 17395 bound_to 11000

$$$$
