#       Name:                AV-unprocessed.smi:1983
#       Creating user name   scv26
#       Creation time:       Fri Mar 27 10:23:30 2020


#       File generated by GOLD software.
#

@<TRIPOS>MOLECULE
AV-unprocessed.smi:1983
    57    58     1
SMALL
NO_CHARGES


@<TRIPOS>ATOM
      1 ****        -5.4822   1.0973   4.5471 C.3            1 S1                 0.0000
      2 ****        -4.4359   1.3767   3.4573 C.3            1 S1                 0.0000
      3 ****        -4.9795   1.1040   2.0410 C.3            1 S1                 0.0000
      4 ****        -5.9410   2.0748   1.6861 O.3            1 S1                 0.0000
      5 ****        -3.2529   0.5585   3.7104 N.am           1 S1                 0.0000
      6 ****        -2.0032   0.8657   3.3351 C.2            1 S1                 0.0000
      7 ****        -1.6950   1.8876   2.7217 O.2            1 S1                 0.0000
      8 ****        -1.1277  -0.0831   3.6962 N.am           1 S1                 0.0000
      9 ****         0.3095  -0.0317   3.4421 C.3            1 S1                 0.0000
     10 ****         0.7136  -0.2215   1.9850 C.ar           1 S1                 0.0000
     11 ****        -0.0767  -0.9599   1.0760 C.ar           1 S1                 0.0000
     12 ****         0.3438  -1.0984  -0.2627 C.ar           1 S1                 0.0000
     13 ****         1.5603  -0.5060  -0.6865 C.ar           1 S1                 0.0000
     14 ****         2.0563  -0.5825  -2.0068 N.3            1 S1                 0.0000
     15 ****         3.4874  -0.8363  -2.1551 C.3            1 S1                 0.0000
     16 ****         3.9509  -0.5008  -3.5833 C.3            1 S1                 0.0000
     17 ****         5.4130  -0.8955  -3.8172 C.3            1 S1                 0.0000
     18 ****         3.1475  -1.2091  -4.5249 O.3            1 S1                 0.0000
     19 ****         1.7476  -0.9369  -4.4399 C.3            1 S1                 0.0000
     20 ****         1.3979   0.4780  -4.9355 C.3            1 S1                 0.0000
     21 ****         1.2309  -1.2355  -3.0187 C.3            1 S1                 0.0000
     22 ****         2.2856   0.1829   0.2283 N.pl3          1 S1                 1.0000
     23 ****         1.9175   0.3422   1.5177 C.ar           1 S1                 0.0000
     24 ****        -6.3642   1.7248   4.4172 H              1 S1                 0.0000
     25 ****        -5.0794   1.3022   5.5396 H              1 S1                 0.0000
     26 ****        -5.8091   0.0571   4.5277 H              1 S1                 0.0000
     27 ****        -4.1481   2.4277   3.5291 H              1 S1                 0.0000
     28 ****        -4.1772   1.1496   1.3035 H              1 S1                 0.0000
     29 ****        -5.4209   0.1090   1.9745 H              1 S1                 0.0000
     30 ****        -6.2448   1.8918   0.8102 H              1 S1                 0.0000
     31 ****        -3.4006  -0.3060   4.2105 H              1 S1                 0.0000
     32 ****        -1.4750  -0.8871   4.1988 H              1 S1                 0.0000
     33 ****         0.7046   0.9167   3.8104 H              1 S1                 0.0000
     34 ****         0.7860  -0.8142   4.0329 H              1 S1                 0.0000
     35 ****        -1.0017  -1.4188   1.3923 H              1 S1                 0.0000
     36 ****        -0.2766  -1.6674  -0.9380 H              1 S1                 0.0000
     37 ****         4.0756  -0.2497  -1.4497 H              1 S1                 0.0000
     38 ****         3.6790  -1.8870  -1.9330 H              1 S1                 0.0000
     39 ****         3.8616   0.5721  -3.7544 H              1 S1                 0.0000
     40 ****         6.0762  -0.3769  -3.1244 H              1 S1                 0.0000
     41 ****         5.7276  -0.6422  -4.8300 H              1 S1                 0.0000
     42 ****         5.5593  -1.9676  -3.6819 H              1 S1                 0.0000
     43 ****         1.2613  -1.6359  -5.1209 H              1 S1                 0.0000
     44 ****         0.3172   0.6093  -4.9963 H              1 S1                 0.0000
     45 ****         1.8064   0.6524  -5.9311 H              1 S1                 0.0000
     46 ****         1.7800   1.2560  -4.2753 H              1 S1                 0.0000
     47 ****         1.2465  -2.3113  -2.8392 H              1 S1                 0.0000
     48 ****         0.1938  -0.9073  -2.9431 H              1 S1                 0.0000
     49 ****         2.5930   0.9199   2.1320 H              1 S1                 0.0000
     50 ****         3.1595   0.6120  -0.0761 H              1 S1                 0.0000
     51 ****        -5.5278   2.9850   1.7162 LP             1 S1                 0.0000
     52 ****        -6.7099   2.0365   2.3243 LP             1 S1                 0.0000
     53 ****        -2.3990   2.5524   2.4719 LP             1 S1                 0.0000
     54 ****        -0.7405   2.0529   2.4732 LP             1 S1                 0.0000
     55 ****         1.9490   0.3827  -2.2454 LP             1 S1                 0.0000
     56 ****         3.2840  -2.1885  -4.3762 LP             1 S1                 0.0000
     57 ****         3.4570  -0.9652  -5.4440 LP             1 S1                 0.0000
@<TRIPOS>BOND
    1    1    2 1     
    2    1   24 1     
    3    1   25 1     
    4    1   26 1     
    5    2    3 1     
    6    2    5 1     
    7    2   27 1     
    8    3    4 1     
    9    3   28 1     
   10    3   29 1     
   11    4   30 1     
   12    5    6 am    
   13    5   31 1     
   14    6    7 2     
   15    6    8 am    
   16    8    9 1     
   17    8   32 1     
   18    9   10 1     
   19    9   33 1     
   20    9   34 1     
   21   10   23 ar    
   22   10   11 ar    
   23   11   12 ar    
   24   11   35 1     
   25   12   13 ar    
   26   12   36 1     
   27   13   14 1     
   28   13   22 ar    
   29   14   21 1     
   30   14   15 1     
   31   15   16 1     
   32   15   37 1     
   33   15   38 1     
   34   16   17 1     
   35   16   18 1     
   36   16   39 1     
   37   17   40 1     
   38   17   41 1     
   39   17   42 1     
   40   18   19 1     
   41   19   20 1     
   42   19   21 1     
   43   19   43 1     
   44   20   44 1     
   45   20   45 1     
   46   20   46 1     
   47   21   47 1     
   48   21   48 1     
   49   22   23 ar    
   50   22   50 1     
   51   23   49 1     
   52    4   51 1     
   53    4   52 1     
   54    7   53 1     
   55    7   54 1     
   56   14   55 1     
   57   18   56 1     
   58   18   57 1     
@<TRIPOS>SUBSTRUCTURE
      1 S1             1
@<TRIPOS>SET
LONE_PAIRS      STATIC     ATOMS    <user>   **** ""
7 51 52 53 54 55 56 57
DONOR_HYDROGENS      STATIC     ATOMS    <user>   **** ""
4 30 31 32 50
ATOM$BLUE        STATIC     ATOMS    COLORGROUP SYSTEM
7 51 52 53 54 55 56 57
ATOM$RED        STATIC     ATOMS    COLORGROUP SYSTEM
4 30 31 32 50
