#       Name:                AV-unprocessed.smi:2492
#       Creating user name   scv26
#       Creation time:       Fri Mar 27 13:44:50 2020


#       File generated by GOLD software.
#

@<TRIPOS>MOLECULE
AV-unprocessed.smi:2492
    39    40     1
SMALL
NO_CHARGES


@<TRIPOS>ATOM
      1 ****        -4.0619  -1.8863   3.5314 C.3            1 S1                 0.0000
      2 ****        -3.2372  -2.9141   2.2873 S.3            1 S1                 0.0000
      3 ****        -2.9408  -1.6751   0.9929 C.3            1 S1                 0.0000
      4 ****        -2.3763  -2.2889  -0.2856 C.3            1 S1                 0.0000
      5 ****        -1.7536  -1.1042  -1.0250 C.3            1 S1                 0.0000
      6 ****        -1.2822  -0.1220   0.0667 C.3            1 S1                 0.0000
      7 ****         0.1756  -0.0755   0.1592 N.am           1 S1                 0.0000
      8 ****         0.9944   0.5995  -0.6607 C.2            1 S1                 0.0000
      9 ****         0.5262   1.2497  -1.5981 O.2            1 S1                 0.0000
     10 ****         2.3038   0.4767  -0.3454 N.pl3          1 S1                -1.0000
     11 ****         3.2340   1.0923  -1.0935 C.2            1 S1                 0.0000
     12 ****         3.7971   2.2725  -0.8310 N.2            1 S1                 0.0000
     13 ****         4.6520   2.4133  -1.8791 C.2            1 S1                 0.0000
     14 ****         5.5328   3.6026  -2.0530 C.3            1 S1                 0.0000
     15 ****         4.6674   1.4155  -2.7501 N.2            1 S1                 0.0000
     16 ****         3.7207   0.5233  -2.2272 O.3            1 S1                 0.0000
     17 ****        -1.8979  -0.6241   1.3865 C.3            1 S1                 0.0000
     18 ****        -4.3492  -2.4943   4.3892 H              1 S1                 0.0000
     19 ****        -4.9598  -1.4299   3.1143 H              1 S1                 0.0000
     20 ****        -3.3968  -1.0958   3.8787 H              1 S1                 0.0000
     21 ****        -3.8829  -1.1784   0.7568 H              1 S1                 0.0000
     22 ****        -1.5983  -3.0139  -0.0414 H              1 S1                 0.0000
     23 ****        -3.1353  -2.7997  -0.8785 H              1 S1                 0.0000
     24 ****        -0.9573  -1.4204  -1.7005 H              1 S1                 0.0000
     25 ****        -2.5164  -0.6201  -1.6361 H              1 S1                 0.0000
     26 ****        -1.6650   0.8763  -0.1527 H              1 S1                 0.0000
     27 ****         0.6014  -0.5962   0.9118 H              1 S1                 0.0000
     28 ****         6.5607   3.3500  -1.7923 H              1 S1                 0.0000
     29 ****         5.2040   4.4215  -1.4125 H              1 S1                 0.0000
     30 ****         5.5097   3.9455  -3.0880 H              1 S1                 0.0000
     31 ****        -2.3354   0.1887   1.9667 H              1 S1                 0.0000
     32 ****        -1.1321  -1.0884   2.0105 H              1 S1                 0.0000
     33 ****        -0.4626   1.2732  -1.7458 LP             1 S1                 0.0000
     34 ****         1.1353   1.7537  -2.2106 LP             1 S1                 0.0000
     35 ****         2.5791  -0.0720   0.4439 LP             1 S1                 0.0000
     36 ****         3.6333   2.8922  -0.0635 LP             1 S1                 0.0000
     37 ****         5.2195   1.3214  -3.5786 LP             1 S1                 0.0000
     38 ****         2.9818   0.3797  -2.8856 LP             1 S1                 0.0000
     39 ****         4.1531  -0.3530  -2.0150 LP             1 S1                 0.0000
@<TRIPOS>BOND
    1    1    2 1     
    2    1   18 1     
    3    1   19 1     
    4    1   20 1     
    5    2    3 1     
    6    3   17 1     
    7    3    4 1     
    8    3   21 1     
    9    4    5 1     
   10    4   22 1     
   11    4   23 1     
   12    5    6 1     
   13    5   24 1     
   14    5   25 1     
   15    6    7 1     
   16    6   17 1     
   17    6   26 1     
   18    7    8 am    
   19    7   27 1     
   20    8    9 2     
   21    8   10 1     
   22   10   11 1     
   23   11   16 1     
   24   11   12 2     
   25   12   13 1     
   26   13   14 1     
   27   13   15 2     
   28   14   28 1     
   29   14   29 1     
   30   14   30 1     
   31   15   16 1     
   32   17   31 1     
   33   17   32 1     
   34    9   33 1     
   35    9   34 1     
   36   10   35 1     
   37   12   36 1     
   38   15   37 1     
   39   16   38 1     
   40   16   39 1     
@<TRIPOS>SUBSTRUCTURE
      1 S1             1
@<TRIPOS>SET
LONE_PAIRS      STATIC     ATOMS    <user>   **** ""
7 33 34 35 36 37 38 39
DONOR_HYDROGENS      STATIC     ATOMS    <user>   **** ""
1 27
ATOM$BLUE        STATIC     ATOMS    COLORGROUP SYSTEM
7 33 34 35 36 37 38 39
ATOM$RED        STATIC     ATOMS    COLORGROUP SYSTEM
1 27
