AV-unprocessed.smi:3331|AV-procd|sdf|12826|dock8
  -GOLD-   2272019203D 1   1.00000     0.00000
 Structure written by MMmdl.
 46 47  0  0  0  0  0  0  0  0  1 V2000
  145.9418  129.2132  152.0534 C   0  0  0  0  0  0  0  0  0  0  0  0
  145.7272  130.7296  151.9548 C   0  0  2  0  0  0  0  0  0  0  0  0
  145.5436  131.1800  150.4877 C   0  0  0  0  0  0  0  0  0  0  0  0
  145.4618  132.7155  150.3353 C   0  0  1  0  0  0  0  0  0  0  0  0
  144.0860  133.2676  150.7491 C   0  0  0  0  0  0  0  0  0  0  0  0
  146.6270  133.3849  151.0970 C   0  0  0  0  0  0  0  0  0  0  0  0
  146.6185  132.9503  152.5025 N   0  0  0  0  0  0  0  0  0  0  0  0
  146.3200  133.7201  153.5811 C   0  0  0  0  0  0  0  0  0  0  0  0
  146.3138  133.2592  154.7242 O   0  0  0  0  0  0  0  0  0  0  0  0
  145.9871  135.2152  153.3870 C   0  0  1  0  0  0  0  0  0  0  0  0
  144.7922  135.6498  154.2651 C   0  0  0  0  0  0  0  0  0  0  0  0
  147.1814  136.0297  153.6655 N   0  0  0  0  0  0  0  0  0  0  0  0
  146.8747  137.4432  153.8481 C   0  0  0  0  0  0  0  0  0  0  0  0
  148.1369  138.2099  154.2771 C   0  0  0  0  0  0  0  0  0  0  0  0
  148.0045  139.6437  154.0860 N   0  0  0  0  0  0  0  0  0  0  0  0
  146.9335  140.3429  153.5702 C   0  0  0  0  0  0  0  0  0  0  0  0
  147.2668  141.6670  153.5858 C   0  0  0  0  0  0  0  0  0  0  0  0
  148.5805  141.6780  154.1323 C   0  0  0  0  0  0  0  0  0  0  0  0
  149.0204  140.4656  154.4282 N   0  0  0  0  0  0  0  0  0  0  0  0
  146.8852  131.5094  152.6115 C   0  0  0  0  0  0  0  0  0  0  0  0
  146.8477  128.9061  151.5301 H   0  0  0  0  0  0  0  0  0  0  0  0
  145.1035  128.6694  151.6172 H   0  0  0  0  0  0  0  0  0  0  0  0
  146.0343  128.8970  153.0928 H   0  0  0  0  0  0  0  0  0  0  0  0
  144.8124  130.9637  152.5012 H   0  0  0  0  0  0  0  0  0  0  0  0
  146.3923  130.8218  149.9034 H   0  0  0  0  0  0  0  0  0  0  0  0
  144.6614  130.7084  150.0528 H   0  0  0  0  0  0  0  0  0  0  0  0
  145.5838  132.9471  149.2764 H   0  0  0  0  0  0  0  0  0  0  0  0
  143.8697  133.0809  151.8009 H   0  0  0  0  0  0  0  0  0  0  0  0
  143.2890  132.8093  150.1631 H   0  0  0  0  0  0  0  0  0  0  0  0
  144.0334  134.3444  150.5866 H   0  0  0  0  0  0  0  0  0  0  0  0
  147.5745  133.0826  150.6483 H   0  0  0  0  0  0  0  0  0  0  0  0
  146.5919  134.4641  150.9637 H   0  0  0  0  0  0  0  0  0  0  0  0
  145.6808  135.3538  152.3504 H   0  0  0  0  0  0  0  0  0  0  0  0
  143.9481  134.9682  154.1520 H   0  0  0  0  0  0  0  0  0  0  0  0
  144.4276  136.6392  153.9909 H   0  0  0  0  0  0  0  0  0  0  0  0
  145.0591  135.6764  155.3224 H   0  0  0  0  0  0  0  0  0  0  0  0
  147.8567  135.9481  152.9186 H   0  0  0  0  0  0  0  0  0  0  0  0
  146.5080  137.8558  152.9073 H   0  0  0  0  0  0  0  0  0  0  0  0
  146.0893  137.5829  154.5903 H   0  0  0  0  0  0  0  0  0  0  0  0
  148.3794  138.0008  155.3206 H   0  0  0  0  0  0  0  0  0  0  0  0
  148.9900  137.8725  153.6876 H   0  0  0  0  0  0  0  0  0  0  0  0
  146.0328  139.8453  153.2419 H   0  0  0  0  0  0  0  0  0  0  0  0
  146.6643  142.5005  153.2571 H   0  0  0  0  0  0  0  0  0  0  0  0
  149.2238  142.5249  154.3201 H   0  0  0  0  0  0  0  0  0  0  0  0
  147.0149  131.1813  153.6437 H   0  0  0  0  0  0  0  0  0  0  0  0
  147.8275  131.2784  152.1121 H   0  0  0  0  0  0  0  0  0  0  0  0
  1  2  1  0  0  0  0
  1 21  1  0  0  0  0
  1 22  1  0  0  0  0
  1 23  1  0  0  0  0
  2 20  1  0  0  0  0
  2  3  1  0  0  0  0
  2 24  1  0  0  0  0
  3  4  1  0  0  0  0
  3 25  1  0  0  0  0
  3 26  1  0  0  0  0
  4  5  1  0  0  0  0
  4  6  1  0  0  0  0
  4 27  1  0  0  0  0
  5 28  1  0  0  0  0
  5 29  1  0  0  0  0
  5 30  1  0  0  0  0
  6  7  1  0  0  0  0
  6 31  1  0  0  0  0
  6 32  1  0  0  0  0
  7  8  1  0  0  0  0
  7 20  1  0  0  0  0
  8  9  2  0  0  0  0
  8 10  1  0  0  0  0
 10 11  1  0  0  0  0
 10 12  1  0  0  0  0
 10 33  1  0  0  0  0
 11 34  1  0  0  0  0
 11 35  1  0  0  0  0
 11 36  1  0  0  0  0
 12 13  1  0  0  0  0
 12 37  1  0  0  0  0
 13 14  1  0  0  0  0
 13 38  1  0  0  0  0
 13 39  1  0  0  0  0
 14 15  1  0  0  0  0
 14 40  1  0  0  0  0
 14 41  1  0  0  0  0
 15 19  1  0  0  0  0
 15 16  1  0  0  0  0
 16 17  2  0  0  0  0
 16 42  1  0  0  0  0
 17 18  1  0  0  0  0
 17 43  1  0  0  0  0
 18 19  2  0  0  0  0
 18 44  1  0  0  0  0
 20 45  1  0  0  0  0
 20 46  1  0  0  0  0
M  END
> <s_m_source_file>
AV-unprocessed.smi

> <i_m_source_file_index>
3331

> <i_lp_mmshare_version>
43012

> <i_f3d_flags>
0

> <s_epik_input>
W0NIM11bQ0BASF0xW0NIMl1bQ0BASF0oW0NIM10pW0NIMl1OKFtDSDJdMSlDKD1PKVtDQEhdKFtDSDNdKVtOSF1bQ0gyXVtDSDJdbjJbY0hdW2NIXVtjSF1uMg==

> <s_epik_cmdline>
J2VwaWtfcHl0aG9uJywgJy1waCcsICc3LjAnLCAnLXRuJywgJzgnLCAnLW1hJywgJzIwMCcsICctbWV0YWxfYmluZGluZycsICctaW1hZScsICc8aW5maWxlLm1hZT4nLCAnLW9tYWUnLCAnPG91dGZpbGUubWFlPic=

> <r_lp_tautomer_probability>
1

> <r_epik_Ionization_Penalty>
0.767994

> <r_epik_Ionization_Penalty_Charging>
0

> <r_epik_Ionization_Penalty_Neutral>
0.767994

> <r_epik_State_Penalty>
0.795453

> <r_epik_Charging_Adjusted_Penalty>
0.795453

> <i_epik_Tot_Q>
0

> <i_epik_Tot_abs_Q>
0

> <r_epik_Metal_State_Penalty>
0.794784

> <b_epik_Metal_Only>
0

> <s_lp_Force_Field>
OPLS_2005

> <r_lp_Energy>
31.6007

> <b_lp_Chiralities_Consistent>
1

> <s_lp_Variant>
AV-unprocessed.smi:3331-10

> <Gold.Version>
5.8.1

> <Gold.Id.Protein>
6NUR|6NUR_protein|mol2

> <Gold.PLP.Fitness>
39.6529

> <Gold.PLP.PLP>
-32.1444

> <Gold.PLP.part.hbond>
-1.0000

> <Gold.PLP.part.metal>
0.0000

> <Gold.PLP.part.buried>
-5.0564

> <Gold.PLP.part.nonpolar>
-26.4915

> <Gold.PLP.part.repulsive>
0.1751

> <Gold.PLP.ligand.clash>
0.0000

> <Gold.PLP.ligand.torsion>
0.7676

> <Gold.PLP.Chemscore.Hbond>
1.0000

> <Gold.PLP.Chemscore.CHOScore>
2.0000

> <Gold.PLP.Chemscore.Metal>
0.0000

> <Gold.Chemscore.Hbonds>
donor molecule, donor type, donor heavy atom, donor atom, acceptor molecule, acceptor atom, score
      L1  H    12    37       P1  7948  1.00
      L1  C    16    42       P1 10175  0.95
      L1  C    18    44       P1  8028  0.89

> <Gold.PLP.Chemscore.Internal.Correction>
0.0437

> <Gold.Rescore>
     Score         DG    S(hbond)    S(metal)    S(lipo)     H(rot)  DE(clash)    DE(int)     intcor
     14.71     -15.35       0.98        0.00      92.95       1.66       0.05       0.59       ----

> <Gold.Chemscore.Fitness>
14.7130

> <Gold.Chemscore.DG>
-15.3510

> <Gold.Chemscore.ZeroCoef>
-5.4800

> <Gold.Chemscore.Hbond>
0.9755

> <Gold.Chemscore.Metal>
0.0000

> <Gold.Chemscore.Lipo>
92.9482

> <Gold.Chemscore.Internal_Hbond>
0.0000

> <Gold.Chemscore.DEClash>
0.0529

> <Gold.Chemscore.DEInternal>
0.5851

> <Gold.Chemscore.Rot>
1.6649

> <Gold.Chemscore.Internal.Correction>
   9.000000E+99

> <Gold.Chemscore.Hbonds>
donor molecule, donor type, donor heavy atom, donor atom, acceptor molecule, acceptor atom, score
      L1  H    12    37       P1  7948  0.94

> <Gold.Chemscore.Hbond.Weighted>
-3.2581

> <Gold.Chemscore.Metal.Weighted>
-0.0000

> <Gold.Chemscore.Lipo.Weighted>
-10.8749

> <Gold.Chemscore.Internal_Hbond.Weighted>
0.0000

> <Gold.Chemscore.DEClash.Weighted>
0.0529

> <Gold.Chemscore.DEInternal.Weighted>
0.5851

> <Gold.Chemscore.Rot.Weighted>
4.2621

> <Gold.Chemscore.Internal.Correction.Weighted>
   9.000000E+99

> <Gold.Protein.RotatedTorsions>
[ 6907 6896 6895 6894 ] final   37.11 input  -60.11 | X-H torsion
[ 7974 7965 7964 7962 ] final -168.50 input  175.53 | X-H torsion
[ 8008 7997 7996 7995 ] final  -16.73 input   59.86 | X-H torsion
[ 10167 10162 10161 10158 ] final   62.17 input  -65.29 | X-H torsion
[ 10718 10713 10712 10709 ] final -111.16 input   66.30 | X-H torsion
[ 10763 10752 10751 10750 ] final  100.01 input  -60.55 | X-H torsion
[ 11005 11000 10999 10996 ] final  -52.89 input  -57.11 | X-H torsion

> <Gold.Protein.ActiveResidues>
 VAL166  LYS551  ARG553  GLY616  TRP617  ASP618  TYR619  PRO620  LYS621  CYS622 
 ASP623  PHE694  ASN695  SER759  ASP760  ASP761  ALA762  ILE779  LEU786  VAL792 
 PHE793  MET794  SER795  GLU796  ALA797  LYS798  CYS799  TRP800  GLU811  SER814 

> <Gold.Protein.RotatedAtoms>
  152.1387  134.9079  160.0554 H   0  0  0  0  0  0  0  0  0  0  0  0  # atno 6907 bound_to 6896
  152.0155  133.3873  159.4245 H   0  0  0  0  0  0  0  0  0  0  0  0  # atno 6908 bound_to 6896
  150.6863  134.3605  159.4992 H   0  0  0  0  0  0  0  0  0  0  0  0  # atno 6909 bound_to 6896
  144.7202  140.2360  143.6298 H   0  0  0  0  0  0  0  0  0  0  0  0  # atno 7974 bound_to 7965
  154.5031  140.2162  155.9305 H   0  0  0  0  0  0  0  0  0  0  0  0  # atno 8008 bound_to 7997
  156.1460  140.3171  155.8537 H   0  0  0  0  0  0  0  0  0  0  0  0  # atno 8009 bound_to 7997
  155.4031  140.0485  157.3026 H   0  0  0  0  0  0  0  0  0  0  0  0  # atno 8010 bound_to 7997
  140.1468  144.4501  150.6781 H   0  0  0  0  0  0  0  0  0  0  0  0  # atno 10167 bound_to 10162
  156.0631  130.5853  150.8335 H   0  0  0  0  0  0  0  0  0  0  0  0  # atno 10718 bound_to 10713
  153.3086  135.4093  155.1316 H   0  0  0  0  0  0  0  0  0  0  0  0  # atno 10763 bound_to 10752
  154.8569  135.3559  154.5754 H   0  0  0  0  0  0  0  0  0  0  0  0  # atno 10764 bound_to 10752
  153.6182  135.7065  153.5379 H   0  0  0  0  0  0  0  0  0  0  0  0  # atno 10765 bound_to 10752
  141.0947  133.6626  156.4090 H   0  0  0  0  0  0  0  0  0  0  0  0  # atno 11005 bound_to 11000
  145.8365  139.2110  143.1852 LP  0  0  0  0  0  0  0  0  0  0  0  0  # atno 17320 bound_to 7965
  146.0384  140.8189  142.9841 LP  0  0  0  0  0  0  0  0  0  0  0  0  # atno 17321 bound_to 7965
  140.6727  143.2292  151.5585 LP  0  0  0  0  0  0  0  0  0  0  0  0  # atno 17342 bound_to 10162
  139.5445  144.2558  152.1416 LP  0  0  0  0  0  0  0  0  0  0  0  0  # atno 17343 bound_to 10162
  157.5654  131.0946  150.9497 LP  0  0  0  0  0  0  0  0  0  0  0  0  # atno 17370 bound_to 10713
  156.9725  130.5496  149.5291 LP  0  0  0  0  0  0  0  0  0  0  0  0  # atno 17371 bound_to 10713
  140.5167  134.6343  157.5304 LP  0  0  0  0  0  0  0  0  0  0  0  0  # atno 17394 bound_to 11000
  139.9781  134.7181  155.9910 LP  0  0  0  0  0  0  0  0  0  0  0  0  # atno 17395 bound_to 11000

$$$$
