#       Name:                AV-unprocessed.smi:64
#       Creating user name   scv26
#       Creation time:       Thu Mar 26 16:50:30 2020


#       File generated by GOLD software.
#

@<TRIPOS>MOLECULE
AV-unprocessed.smi:64
    40    41     1
SMALL
NO_CHARGES


@<TRIPOS>ATOM
      1 ****        -2.6546   3.6071  -2.9575 C.3            1 S1                 0.0000
      2 ****        -2.9600   3.0153  -1.5871 C.2            1 S1                 0.0000
      3 ****        -3.4970   3.6859  -0.7052 O.2            1 S1                 0.0000
      4 ****        -2.5805   1.7320  -1.4814 O.3            1 S1                 0.0000
      5 ****        -2.7797   1.0415  -0.2581 C.3            1 S1                 0.0000
      6 ****        -2.2489  -0.3898  -0.3818 C.3            1 S1                 0.0000
      7 ****        -0.8317  -0.3632  -0.3442 O.3            1 S1                 0.0000
      8 ****        -0.2678  -1.6290  -0.4269 C.3            1 S1                 0.0000
      9 ****         1.1723  -1.4757  -0.3795 N.pl3          1 S1                 0.0000
     10 ****         2.0159  -1.3867  -1.4260 C.2            1 S1                 0.0000
     11 ****         3.3037  -1.2531  -1.1111 N.2            1 S1                 0.0000
     12 ****         3.2647  -1.2564   0.2790 C.2            1 S1                 0.0000
     13 ****         4.3378  -1.1460   1.2970 C.2            1 S1                 0.0000
     14 ****         5.5045  -1.0278   0.9269 O.2            1 S1                 0.0000
     15 ****         3.9194  -1.1877   2.5989 N.pl3          1 S1                -1.0000
     16 ****         2.5576  -1.3249   2.9035 C.2            1 S1                 0.0000
     17 ****         2.3138  -1.3453   4.2595 N.pl3          1 S1                 0.0000
     18 ****         1.5599  -1.4291   2.0598 N.2            1 S1                 0.0000
     19 ****         1.9844  -1.3885   0.7446 C.2            1 S1                 0.0000
     20 ****        -2.1525   2.8786  -3.5948 H              1 S1                 0.0000
     21 ****        -2.0073   4.4780  -2.8544 H              1 S1                 0.0000
     22 ****        -3.5770   3.9182  -3.4479 H              1 S1                 0.0000
     23 ****        -2.2867   1.5616   0.5644 H              1 S1                 0.0000
     24 ****        -3.8479   1.0174  -0.0380 H              1 S1                 0.0000
     25 ****        -2.6190  -0.9830   0.4555 H              1 S1                 0.0000
     26 ****        -2.6101  -0.8568  -1.2995 H              1 S1                 0.0000
     27 ****        -0.5839  -2.2529   0.4109 H              1 S1                 0.0000
     28 ****        -0.5399  -2.1137  -1.3658 H              1 S1                 0.0000
     29 ****         1.6751  -1.4218  -2.4503 H              1 S1                 0.0000
     30 ****         3.0384  -1.2696   4.9578 H              1 S1                 0.0000
     31 ****         1.3884  -1.4417   4.6510 H              1 S1                 0.0000
     32 ****        -3.7419   4.6393  -0.8813 LP             1 S1                 0.0000
     33 ****        -3.6883   3.2771   0.1871 LP             1 S1                 0.0000
     34 ****        -0.5427   0.0599   0.5145 LP             1 S1                 0.0000
     35 ****        -0.5019   0.1844  -1.1132 LP             1 S1                 0.0000
     36 ****         4.0943  -1.1715  -1.7179 LP             1 S1                 0.0000
     37 ****         5.7197  -1.0072  -0.0495 LP             1 S1                 0.0000
     38 ****         6.2381  -0.9524   1.6022 LP             1 S1                 0.0000
     39 ****         4.5893  -1.1199   3.3382 LP             1 S1                 0.0000
     40 ****         0.6035  -1.5266   2.3351 LP             1 S1                 0.0000
@<TRIPOS>BOND
    1    1    2 1     
    2    1   20 1     
    3    1   21 1     
    4    1   22 1     
    5    2    3 2     
    6    2    4 1     
    7    4    5 1     
    8    5    6 1     
    9    5   23 1     
   10    5   24 1     
   11    6    7 1     
   12    6   25 1     
   13    6   26 1     
   14    7    8 1     
   15    8    9 1     
   16    8   27 1     
   17    8   28 1     
   18    9   19 1     
   19    9   10 1     
   20   10   11 2     
   21   10   29 1     
   22   11   12 1     
   23   12   19 2     
   24   12   13 1     
   25   13   14 2     
   26   13   15 1     
   27   15   16 1     
   28   16   17 1     
   29   16   18 2     
   30   17   30 1     
   31   17   31 1     
   32   18   19 1     
   33    3   32 1     
   34    3   33 1     
   35    7   34 1     
   36    7   35 1     
   37   11   36 1     
   38   14   37 1     
   39   14   38 1     
   40   15   39 1     
   41   18   40 1     
@<TRIPOS>SUBSTRUCTURE
      1 S1             1
@<TRIPOS>SET
LONE_PAIRS      STATIC     ATOMS    <user>   **** ""
9 32 33 34 35 36 37 38 39 40
DONOR_HYDROGENS      STATIC     ATOMS    <user>   **** ""
2 30 31
ATOM$BLUE        STATIC     ATOMS    COLORGROUP SYSTEM
9 32 33 34 35 36 37 38 39 40
ATOM$RED        STATIC     ATOMS    COLORGROUP SYSTEM
2 30 31
