AV-unprocessed.smi:178|AV-procd|sdf|1446|dock1
  -GOLD-   2262019233D 1   1.00000     0.00000
 Structure written by MMmdl.
 50 52  0  0  0  0  0  0  0  0  1 V2000
  151.8602  144.8662  159.3539 C   0  0  0  0  0  0  0  0  0  0  0  0
  152.8535  143.8606  159.2573 O   0  0  0  0  0  0  0  0  0  0  0  0
  152.3242  142.5571  159.4261 C   0  0  0  0  0  0  0  0  0  0  0  0
  153.4558  141.5379  159.2221 C   0  0  0  0  0  0  0  0  0  0  0  0
  152.9881  140.2813  158.6318 N   0  0  0  0  0  0  0  0  0  0  0  0
  153.1929  139.0422  159.3780 C   0  0  0  0  0  0  0  0  0  0  0  0
  154.5413  139.0099  160.1096 C   0  0  0  0  0  0  0  0  0  0  0  0
  155.6612  139.3896  159.2365 C   0  0  0  0  0  0  0  0  0  0  0  0
  156.5426  139.6884  158.5493 N   0  0  0  0  0  0  0  0  0  0  0  0
  152.5123  140.2666  157.3521 C   0  0  0  0  0  0  0  0  0  0  0  0
  153.2627  139.6467  156.4015 N   0  0  0  0  0  0  0  0  0  0  0  0
  152.8631  139.6030  155.1287 C   0  0  0  0  0  0  0  0  0  0  0  0
  151.7559  140.1079  154.5866 N   0  0  0  0  0  0  0  0  0  0  0  0
  150.9863  140.7263  155.5259 C   0  0  0  0  0  0  0  0  0  0  0  0
  151.2819  140.8525  156.9161 C   0  0  0  0  0  0  0  0  0  0  0  0
  150.2452  141.5396  157.5414 N   0  0  0  0  0  0  0  0  0  0  0  0
  149.4026  141.8110  156.5842 C   0  0  0  0  0  0  0  0  0  0  0  0
  149.7676  141.3551  155.3400 N   0  0  0  0  0  0  0  0  0  0  0  0
  149.0205  141.5166  154.1020 C   0  0  0  0  0  0  0  0  0  0  0  0
  148.5688  140.1760  153.4758 C   0  0  2  0  0  0  0  0  0  0  0  0
  149.7102  139.5156  152.9514 O   0  0  0  0  0  0  0  0  0  0  0  0
  147.5427  140.3255  152.3626 C   0  0  0  0  0  0  0  0  0  0  0  0
  146.8578  138.9648  152.3605 C   0  0  0  0  0  0  0  0  0  0  0  0
  146.8075  138.5829  153.7289 O   0  0  0  0  0  0  0  0  0  0  0  0
  147.8184  139.2635  154.4715 C   0  0  1  0  0  0  0  0  0  0  0  0
  148.6725  138.2671  155.2721 C   0  0  0  0  0  0  0  0  0  0  0  0
  152.3158  145.8461  159.2123 H   0  0  0  0  0  0  0  0  0  0  0  0
  151.3827  144.8554  160.3346 H   0  0  0  0  0  0  0  0  0  0  0  0
  151.0931  144.7382  158.5892 H   0  0  0  0  0  0  0  0  0  0  0  0
  151.8948  142.4575  160.4239 H   0  0  0  0  0  0  0  0  0  0  0  0
  151.5229  142.3882  158.7062 H   0  0  0  0  0  0  0  0  0  0  0  0
  154.2086  141.9748  158.5654 H   0  0  0  0  0  0  0  0  0  0  0  0
  153.9690  141.3470  160.1652 H   0  0  0  0  0  0  0  0  0  0  0  0
  152.3906  138.9443  160.1099 H   0  0  0  0  0  0  0  0  0  0  0  0
  153.0813  138.1772  158.7254 H   0  0  0  0  0  0  0  0  0  0  0  0
  154.5410  139.6879  160.9626 H   0  0  0  0  0  0  0  0  0  0  0  0
  154.7474  138.0101  160.4906 H   0  0  0  0  0  0  0  0  0  0  0  0
  153.5268  139.0911  154.4476 H   0  0  0  0  0  0  0  0  0  0  0  0
  148.4828  142.3496  156.7611 H   0  0  0  0  0  0  0  0  0  0  0  0
  148.1546  142.1483  154.3041 H   0  0  0  0  0  0  0  0  0  0  0  0
  149.6438  142.0713  153.3996 H   0  0  0  0  0  0  0  0  0  0  0  0
  149.7769  139.7221  152.0314 H   0  0  0  0  0  0  0  0  0  0  0  0
  146.8118  141.0913  152.6256 H   0  0  0  0  0  0  0  0  0  0  0  0
  147.9746  140.5921  151.3968 H   0  0  0  0  0  0  0  0  0  0  0  0
  145.8628  138.9945  151.9163 H   0  0  0  0  0  0  0  0  0  0  0  0
  147.4544  138.2353  151.8114 H   0  0  0  0  0  0  0  0  0  0  0  0
  147.2795  139.8930  155.1809 H   0  0  0  0  0  0  0  0  0  0  0  0
  149.4521  138.7818  155.8340 H   0  0  0  0  0  0  0  0  0  0  0  0
  149.1508  137.5327  154.6238 H   0  0  0  0  0  0  0  0  0  0  0  0
  148.0563  137.7193  155.9854 H   0  0  0  0  0  0  0  0  0  0  0  0
  1  2  1  0  0  0  0
  1 27  1  0  0  0  0
  1 28  1  0  0  0  0
  1 29  1  0  0  0  0
  2  3  1  0  0  0  0
  3  4  1  0  0  0  0
  3 30  1  0  0  0  0
  3 31  1  0  0  0  0
  4  5  1  0  0  0  0
  4 32  1  0  0  0  0
  4 33  1  0  0  0  0
  5  6  1  0  0  0  0
  5 10  1  0  0  0  0
  6  7  1  0  0  0  0
  6 34  1  0  0  0  0
  6 35  1  0  0  0  0
  7  8  1  0  0  0  0
  7 36  1  0  0  0  0
  7 37  1  0  0  0  0
  8  9  3  0  0  0  0
 10 15  1  0  0  0  0
 10 11  2  0  0  0  0
 11 12  1  0  0  0  0
 12 13  2  0  0  0  0
 12 38  1  0  0  0  0
 13 14  1  0  0  0  0
 14 18  1  0  0  0  0
 14 15  2  0  0  0  0
 15 16  1  0  0  0  0
 16 17  2  0  0  0  0
 17 18  1  0  0  0  0
 17 39  1  0  0  0  0
 18 19  1  0  0  0  0
 19 20  1  0  0  0  0
 19 40  1  0  0  0  0
 19 41  1  0  0  0  0
 20 25  1  0  0  0  0
 20 21  1  0  0  0  0
 20 22  1  0  0  0  0
 21 42  1  0  0  0  0
 22 23  1  0  0  0  0
 22 43  1  0  0  0  0
 22 44  1  0  0  0  0
 23 24  1  0  0  0  0
 23 45  1  0  0  0  0
 23 46  1  0  0  0  0
 24 25  1  0  0  0  0
 25 26  1  0  0  0  0
 25 47  1  0  0  0  0
 26 48  1  0  0  0  0
 26 49  1  0  0  0  0
 26 50  1  0  0  0  0
M  END
> <s_m_source_file>
AV-unprocessed.smi

> <i_m_source_file_index>
178

> <i_lp_mmshare_version>
43012

> <i_f3d_flags>
0

> <s_epik_input>
W0NIM11PW0NIMl1bQ0gyXU4oW0NIMl1bQ0gyXUMjTiljKG5bY0hdbjEpYyhjMTIpbltjSF1uMltDSDJdW0NAQF0zKFtPSF0pW0NIMl1bQ0gyXU9bQ0BIXTNbQ0gzXQ==

> <s_epik_cmdline>
J2VwaWtfcHl0aG9uJywgJy1waCcsICc3LjAnLCAnLXRuJywgJzgnLCAnLW1hJywgJzIwMCcsICctbWV0YWxfYmluZGluZycsICctaW1hZScsICc8aW5maWxlLm1hZT4nLCAnLW9tYWUnLCAnPG91dGZpbGUubWFlPic=

> <r_lp_tautomer_probability>
1

> <r_epik_Ionization_Penalty>
0.000885317

> <r_epik_Ionization_Penalty_Charging>
0

> <r_epik_Ionization_Penalty_Neutral>
0.000885317

> <r_epik_State_Penalty>
0.00047273

> <r_epik_Charging_Adjusted_Penalty>
0.00047273

> <i_epik_Tot_Q>
0

> <i_epik_Tot_abs_Q>
0

> <r_epik_Metal_State_Penalty>
-0

> <b_epik_Metal_Only>
0

> <s_lp_Force_Field>
OPLS_2005

> <r_lp_Energy>
29.3608

> <b_lp_Chiralities_Consistent>
1

> <s_lp_Variant>
AV-unprocessed.smi:178-2

> <Gold.Version>
5.8.1

> <Gold.Id.Protein>
6NUR|6NUR_protein|mol2

> <Gold.PLP.Fitness>
53.2995

> <Gold.PLP.PLP>
-42.9582

> <Gold.PLP.part.hbond>
-4.2414

> <Gold.PLP.part.metal>
0.0000

> <Gold.PLP.part.buried>
-1.5613

> <Gold.PLP.part.nonpolar>
-37.3567

> <Gold.PLP.part.repulsive>
0.2667

> <Gold.PLP.ligand.clash>
0.0000

> <Gold.PLP.ligand.torsion>
1.8590

> <Gold.PLP.Chemscore.Hbond>
3.9920

> <Gold.PLP.Chemscore.CHOScore>
0.4803

> <Gold.PLP.Chemscore.Metal>
0.0000

> <Gold.Chemscore.Hbonds>
donor molecule, donor type, donor heavy atom, donor atom, acceptor molecule, acceptor atom, score
      P1  H  7989  7998       L1    13  0.49
      P1  H  7997  8009       L1     9  1.00
      P1  H  7997  8010       L1    11  0.10
      L1  C    17    39       P1  8028  0.37

> <Gold.PLP.Chemscore.Internal.Correction>
0.6425

> <Gold.Rescore>
     Score         DG    S(hbond)    S(metal)    S(lipo)     H(rot)  DE(clash)    DE(int)     intcor
     13.12     -15.21       2.75        0.00      78.40       3.37       0.19       1.90       ----

> <Gold.Chemscore.Fitness>
13.1227

> <Gold.Chemscore.DG>
-15.2121

> <Gold.Chemscore.ZeroCoef>
-5.4800

> <Gold.Chemscore.Hbond>
2.7528

> <Gold.Chemscore.Metal>
0.0000

> <Gold.Chemscore.Lipo>
78.4024

> <Gold.Chemscore.Internal_Hbond>
0.0000

> <Gold.Chemscore.DEClash>
0.1895

> <Gold.Chemscore.DEInternal>
1.8999

> <Gold.Chemscore.Rot>
3.3732

> <Gold.Chemscore.Internal.Correction>
   9.000000E+99

> <Gold.Chemscore.Hbonds>
donor molecule, donor type, donor heavy atom, donor atom, acceptor molecule, acceptor atom, score
      P1  H  7989  7998       L1    13  0.25
      P1  H  7997  8009       L1     9  0.52
      P1  H  7997  8010       L1    11  0.05

> <Gold.Chemscore.Hbond.Weighted>
-9.1943

> <Gold.Chemscore.Metal.Weighted>
-0.0000

> <Gold.Chemscore.Lipo.Weighted>
-9.1731

> <Gold.Chemscore.Internal_Hbond.Weighted>
0.0000

> <Gold.Chemscore.DEClash.Weighted>
0.1895

> <Gold.Chemscore.DEInternal.Weighted>
1.8999

> <Gold.Chemscore.Rot.Weighted>
8.6354

> <Gold.Chemscore.Internal.Correction.Weighted>
   9.000000E+99

> <Gold.Protein.RotatedTorsions>
[ 6907 6896 6895 6894 ] final   41.46 input  -60.11 | X-H torsion
[ 7974 7965 7964 7962 ] final   99.72 input  175.53 | X-H torsion
[ 8008 7997 7996 7995 ] final   72.18 input   59.86 | X-H torsion
[ 10167 10162 10161 10158 ] final   98.94 input  -65.29 | X-H torsion
[ 10718 10713 10712 10709 ] final -144.11 input   66.30 | X-H torsion
[ 10763 10752 10751 10750 ] final  123.48 input  -60.55 | X-H torsion
[ 11005 11000 10999 10996 ] final  -66.78 input  -57.11 | X-H torsion

> <Gold.Protein.ActiveResidues>
 VAL166  LYS551  ARG553  GLY616  TRP617  ASP618  TYR619  PRO620  LYS621  CYS622 
 ASP623  PHE694  ASN695  SER759  ASP760  ASP761  ALA762  ILE779  LEU786  VAL792 
 PHE793  MET794  SER795  GLU796  ALA797  LYS798  CYS799  TRP800  GLU811  SER814 

> <Gold.Protein.RotatedAtoms>
  152.1956  134.8633  160.0512 H   0  0  0  0  0  0  0  0  0  0  0  0  # atno 6907 bound_to 6896
  151.9506  133.3660  159.4007 H   0  0  0  0  0  0  0  0  0  0  0  0  # atno 6908 bound_to 6896
  150.6944  134.4268  159.5274 H   0  0  0  0  0  0  0  0  0  0  0  0  # atno 6909 bound_to 6896
  145.3951  139.2356  143.3330 H   0  0  0  0  0  0  0  0  0  0  0  0  # atno 7974 bound_to 7965
  155.7651  140.3485  155.5218 H   0  0  0  0  0  0  0  0  0  0  0  0  # atno 8008 bound_to 7997
  155.8877  140.1012  157.1462 H   0  0  0  0  0  0  0  0  0  0  0  0  # atno 8009 bound_to 7997
  154.4030  140.1310  156.4263 H   0  0  0  0  0  0  0  0  0  0  0  0  # atno 8010 bound_to 7997
  139.7662  144.6938  151.0220 H   0  0  0  0  0  0  0  0  0  0  0  0  # atno 10167 bound_to 10162
  156.3661  130.7764  151.1938 H   0  0  0  0  0  0  0  0  0  0  0  0  # atno 10718 bound_to 10713
  153.6462  135.3370  155.3086 H   0  0  0  0  0  0  0  0  0  0  0  0  # atno 10763 bound_to 10752
  154.8548  135.4330  154.1952 H   0  0  0  0  0  0  0  0  0  0  0  0  # atno 10764 bound_to 10752
  153.2883  135.7015  153.7392 H   0  0  0  0  0  0  0  0  0  0  0  0  # atno 10765 bound_to 10752
  141.1491  133.6706  156.6192 H   0  0  0  0  0  0  0  0  0  0  0  0  # atno 11005 bound_to 11000
  146.2779  140.4640  142.8788 LP  0  0  0  0  0  0  0  0  0  0  0  0  # atno 17320 bound_to 7965
  144.8413  140.6861  143.6228 LP  0  0  0  0  0  0  0  0  0  0  0  0  # atno 17321 bound_to 7965
  140.7811  143.4640  151.0238 LP  0  0  0  0  0  0  0  0  0  0  0  0  # atno 17342 bound_to 10162
  139.8325  143.7672  152.3180 LP  0  0  0  0  0  0  0  0  0  0  0  0  # atno 17343 bound_to 10162
  157.7479  131.0386  150.4509 LP  0  0  0  0  0  0  0  0  0  0  0  0  # atno 17370 bound_to 10713
  156.4728  130.4056  149.6507 LP  0  0  0  0  0  0  0  0  0  0  0  0  # atno 17371 bound_to 10713
  140.3554  134.7733  157.4496 LP  0  0  0  0  0  0  0  0  0  0  0  0  # atno 17394 bound_to 11000
  140.0827  134.5708  155.8523 LP  0  0  0  0  0  0  0  0  0  0  0  0  # atno 17395 bound_to 11000

$$$$
