AV-unprocessed.smi:3141|AV-procd|sdf|11967|dock10
  -GOLD-   2272017363D 1   1.00000     0.00000
 Structure written by MMmdl.
 35 37  0  0  0  0  0  0  0  0  1 V2000
  150.3414  141.8777  158.8624 O   0  0  0  0  0  0  0  0  0  0  0  0
  150.0512  142.6671  157.9631 C   0  0  0  0  0  0  0  0  0  0  0  0
  150.8026  143.7184  157.6114 N   0  0  0  0  0  0  0  0  0  0  0  0
  152.0539  144.0727  158.1982 C   0  0  0  0  0  0  0  0  0  0  0  0
  152.2094  143.8864  159.6919 C   0  0  0  0  0  0  0  0  0  0  0  0
  152.0789  145.2715  159.1214 C   0  0  0  0  0  0  0  0  0  0  0  0
  148.9540  142.5659  157.1988 N   0  0  0  0  0  0  0  0  0  0  0  0
  147.9539  141.4993  157.2857 C   0  0  1  0  0  0  0  0  0  0  0  0
  146.5416  142.0820  157.0622 C   0  0  0  0  0  0  0  0  0  0  0  0
  145.9639  141.3896  155.8200 C   0  0  0  0  0  0  0  0  0  0  0  0
  147.1744  140.8467  155.0648 C   0  0  0  0  0  0  0  0  0  0  0  0
  148.1206  140.4186  156.1902 C   0  0  1  0  0  0  0  0  0  0  0  0
  149.4928  140.1433  155.7755 N   0  0  0  0  0  0  0  0  0  0  0  0
  150.6215  139.9620  156.5706 C   0  0  0  0  0  0  0  0  0  0  0  0
  151.6658  139.6850  155.7183 C   0  0  0  0  0  0  0  0  0  0  0  0
  151.2082  139.6746  154.4039 N   0  0  0  0  0  0  0  0  0  0  0  0
  149.9148  139.9461  154.5182 C   0  0  0  0  0  0  0  0  0  0  0  0
  150.4752  144.3034  156.8567 H   0  0  0  0  0  0  0  0  0  0  0  0
  152.9499  143.9134  157.5999 H   0  0  0  0  0  0  0  0  0  0  0  0
  151.3615  143.4900  160.2472 H   0  0  0  0  0  0  0  0  0  0  0  0
  153.1882  143.5854  160.0600 H   0  0  0  0  0  0  0  0  0  0  0  0
  152.9702  145.8953  159.1087 H   0  0  0  0  0  0  0  0  0  0  0  0
  151.1437  145.8006  159.2952 H   0  0  0  0  0  0  0  0  0  0  0  0
  148.8088  143.2643  156.4846 H   0  0  0  0  0  0  0  0  0  0  0  0
  148.0013  141.0301  158.2702 H   0  0  0  0  0  0  0  0  0  0  0  0
  145.9009  141.9190  157.9294 H   0  0  0  0  0  0  0  0  0  0  0  0
  146.5807  143.1602  156.8983 H   0  0  0  0  0  0  0  0  0  0  0  0
  145.3271  140.5592  156.1286 H   0  0  0  0  0  0  0  0  0  0  0  0
  145.3578  142.0601  155.2103 H   0  0  0  0  0  0  0  0  0  0  0  0
  146.9179  140.0255  154.3948 H   0  0  0  0  0  0  0  0  0  0  0  0
  147.6075  141.6486  154.4669 H   0  0  0  0  0  0  0  0  0  0  0  0
  147.7231  139.4853  156.5940 H   0  0  0  0  0  0  0  0  0  0  0  0
  150.5974  140.0351  157.6472 H   0  0  0  0  0  0  0  0  0  0  0  0
  152.7016  139.4842  155.9495 H   0  0  0  0  0  0  0  0  0  0  0  0
  149.2547  139.9965  153.6647 H   0  0  0  0  0  0  0  0  0  0  0  0
  1  2  2  0  0  0  0
  2  3  1  0  0  0  0
  2  7  1  0  0  0  0
  3  4  1  0  0  0  0
  3 18  1  0  0  0  0
  4  6  1  0  0  0  0
  4  5  1  0  0  0  0
  4 19  1  0  0  0  0
  5  6  1  0  0  0  0
  5 20  1  0  0  0  0
  5 21  1  0  0  0  0
  6 22  1  0  0  0  0
  6 23  1  0  0  0  0
  7  8  1  0  0  0  0
  7 24  1  0  0  0  0
  8 12  1  0  0  0  0
  8  9  1  0  0  0  0
  8 25  1  0  0  0  0
  9 10  1  0  0  0  0
  9 26  1  0  0  0  0
  9 27  1  0  0  0  0
 10 11  1  0  0  0  0
 10 28  1  0  0  0  0
 10 29  1  0  0  0  0
 11 12  1  0  0  0  0
 11 30  1  0  0  0  0
 11 31  1  0  0  0  0
 12 13  1  0  0  0  0
 12 32  1  0  0  0  0
 13 17  1  0  0  0  0
 13 14  1  0  0  0  0
 14 15  2  0  0  0  0
 14 33  1  0  0  0  0
 15 16  1  0  0  0  0
 15 34  1  0  0  0  0
 16 17  2  0  0  0  0
 17 35  1  0  0  0  0
M  END
> <s_m_source_file>
AV-unprocessed.smi

> <i_m_source_file_index>
3141

> <i_lp_mmshare_version>
43012

> <i_f3d_flags>
0

> <s_epik_input>
W0NIMl0xW0NIMl1bQ0hdMVtOSF1DKD1PKVtOSF1bQ0BASF0yW0NIMl1bQ0gyXVtDSDJdW0NASF0ybjNbY0hdW2NIXW5bY0hdMw==

> <s_epik_cmdline>
J2VwaWtfcHl0aG9uJywgJy1waCcsICc3LjAnLCAnLXRuJywgJzgnLCAnLW1hJywgJzIwMCcsICctbWV0YWxfYmluZGluZycsICctaW1hZScsICc8aW5maWxlLm1hZT4nLCAnLW9tYWUnLCAnPG91dGZpbGUubWFlPic=

> <r_lp_tautomer_probability>
1

> <r_epik_Ionization_Penalty>
0.728419

> <r_epik_Ionization_Penalty_Charging>
0.728357

> <r_epik_Ionization_Penalty_Neutral>
6.27871e-05

> <r_epik_State_Penalty>
0.753408

> <r_epik_Charging_Adjusted_Penalty>
1.48176

> <i_epik_Tot_Q>
0

> <i_epik_Tot_abs_Q>
0

> <r_epik_Metal_State_Penalty>
0.332413

> <b_epik_Metal_Only>
0

> <s_lp_Force_Field>
OPLS_2005

> <r_lp_Energy>
36.0261

> <b_lp_Chiralities_Consistent>
1

> <s_lp_Variant>
AV-unprocessed.smi:3141-6

> <Gold.Version>
5.8.1

> <Gold.Id.Protein>
6NUR|6NUR_protein|mol2

> <Gold.PLP.Fitness>
40.9159

> <Gold.PLP.PLP>
-30.9896

> <Gold.PLP.part.hbond>
-3.6320

> <Gold.PLP.part.metal>
0.0000

> <Gold.PLP.part.buried>
-3.2405

> <Gold.PLP.part.nonpolar>
-24.6210

> <Gold.PLP.part.repulsive>
0.1695

> <Gold.PLP.ligand.clash>
0.0000

> <Gold.PLP.ligand.torsion>
0.9116

> <Gold.PLP.Chemscore.Hbond>
2.9120

> <Gold.PLP.Chemscore.CHOScore>
0.9844

> <Gold.PLP.Chemscore.Metal>
0.0000

> <Gold.Chemscore.Hbonds>
donor molecule, donor type, donor heavy atom, donor atom, acceptor molecule, acceptor atom, score
      L1  H     3    18       P1  8028  0.91
      L1  H     7    24       P1  8028  1.00
      P1  H  7989  7998       L1    16  1.00
      L1  C    17    35       P1  7957  1.00

> <Gold.PLP.Chemscore.Internal.Correction>
0.0604

> <Gold.Rescore>
     Score         DG    S(hbond)    S(metal)    S(lipo)     H(rot)  DE(clash)    DE(int)     intcor
     15.46     -17.11       2.55        0.00      61.09       1.57       0.01       1.64       ----

> <Gold.Chemscore.Fitness>
15.4650

> <Gold.Chemscore.DG>
-17.1082

> <Gold.Chemscore.ZeroCoef>
-5.4800

> <Gold.Chemscore.Hbond>
2.5453

> <Gold.Chemscore.Metal>
0.0000

> <Gold.Chemscore.Lipo>
61.0902

> <Gold.Chemscore.Internal_Hbond>
0.0000

> <Gold.Chemscore.DEClash>
0.0073

> <Gold.Chemscore.DEInternal>
1.6359

> <Gold.Chemscore.Rot>
1.5705

> <Gold.Chemscore.Internal.Correction>
   9.000000E+99

> <Gold.Chemscore.Hbonds>
donor molecule, donor type, donor heavy atom, donor atom, acceptor molecule, acceptor atom, score
      L1  H     3    18       P1  8028  0.82
      L1  H     7    24       P1  8028  0.92
      P1  H  7989  7998       L1    16  0.23

> <Gold.Chemscore.Hbond.Weighted>
-8.5013

> <Gold.Chemscore.Metal.Weighted>
-0.0000

> <Gold.Chemscore.Lipo.Weighted>
-7.1476

> <Gold.Chemscore.Internal_Hbond.Weighted>
0.0000

> <Gold.Chemscore.DEClash.Weighted>
0.0073

> <Gold.Chemscore.DEInternal.Weighted>
1.6359

> <Gold.Chemscore.Rot.Weighted>
4.0206

> <Gold.Chemscore.Internal.Correction.Weighted>
   9.000000E+99

> <Gold.Protein.RotatedTorsions>
[ 6907 6896 6895 6894 ] final  101.41 input  -60.11 | X-H torsion
[ 7974 7965 7964 7962 ] final  -78.84 input  175.53 | X-H torsion
[ 8008 7997 7996 7995 ] final  -52.69 input   59.86 | X-H torsion
[ 10167 10162 10161 10158 ] final  -56.06 input  -65.29 | X-H torsion
[ 10718 10713 10712 10709 ] final -162.67 input   66.30 | X-H torsion
[ 10763 10752 10751 10750 ] final  -38.05 input  -60.55 | X-H torsion
[ 11005 11000 10999 10996 ] final -130.27 input  -57.11 | X-H torsion

> <Gold.Protein.ActiveResidues>
 VAL166  LYS551  ARG553  GLY616  TRP617  ASP618  TYR619  PRO620  LYS621  CYS622 
 ASP623  PHE694  ASN695  SER759  ASP760  ASP761  ALA762  ILE779  LEU786  VAL792 
 PHE793  MET794  SER795  GLU796  ALA797  LYS798  CYS799  TRP800  GLU811  SER814 

> <Gold.Protein.RotatedAtoms>
  152.5350  134.0129  159.7946 H   0  0  0  0  0  0  0  0  0  0  0  0  # atno 6907 bound_to 6896
  151.0329  133.5767  159.2666 H   0  0  0  0  0  0  0  0  0  0  0  0  # atno 6908 bound_to 6896
  151.2765  135.0708  159.9207 H   0  0  0  0  0  0  0  0  0  0  0  0  # atno 6909 bound_to 6896
  145.5811  140.9448  143.1343 H   0  0  0  0  0  0  0  0  0  0  0  0  # atno 7974 bound_to 7965
  154.4113  140.1218  156.5033 H   0  0  0  0  0  0  0  0  0  0  0  0  # atno 8008 bound_to 7997
  155.6873  140.3495  155.4860 H   0  0  0  0  0  0  0  0  0  0  0  0  # atno 8009 bound_to 7997
  155.9499  140.1103  157.0975 H   0  0  0  0  0  0  0  0  0  0  0  0  # atno 8010 bound_to 7997
  140.6339  143.2472  151.5170 H   0  0  0  0  0  0  0  0  0  0  0  0  # atno 10167 bound_to 10162
  156.6137  130.8861  151.2942 H   0  0  0  0  0  0  0  0  0  0  0  0  # atno 10718 bound_to 10713
  153.9065  135.6797  153.4753 H   0  0  0  0  0  0  0  0  0  0  0  0  # atno 10763 bound_to 10752
  153.1101  135.4787  154.9018 H   0  0  0  0  0  0  0  0  0  0  0  0  # atno 10764 bound_to 10752
  154.7549  135.3194  154.8444 H   0  0  0  0  0  0  0  0  0  0  0  0  # atno 10765 bound_to 10752
  140.9360  134.1257  157.4193 H   0  0  0  0  0  0  0  0  0  0  0  0  # atno 11005 bound_to 11000
  144.7393  139.7494  143.7317 LP  0  0  0  0  0  0  0  0  0  0  0  0  # atno 17320 bound_to 7965
  146.1715  139.4868  142.9924 LP  0  0  0  0  0  0  0  0  0  0  0  0  # atno 17321 bound_to 7965
  139.5550  144.2298  152.1597 LP  0  0  0  0  0  0  0  0  0  0  0  0  # atno 17342 bound_to 10162
  140.1549  144.5080  150.6666 LP  0  0  0  0  0  0  0  0  0  0  0  0  # atno 17343 bound_to 10162
  157.7247  130.9606  150.1585 LP  0  0  0  0  0  0  0  0  0  0  0  0  # atno 17370 bound_to 10713
  156.2369  130.3687  149.8381 LP  0  0  0  0  0  0  0  0  0  0  0  0  # atno 17371 bound_to 10713
  139.8808  135.0021  156.6106 LP  0  0  0  0  0  0  0  0  0  0  0  0  # atno 17394 bound_to 11000
  140.7799  133.8669  155.8559 LP  0  0  0  0  0  0  0  0  0  0  0  0  # atno 17395 bound_to 11000

$$$$
