AV-unprocessed.smi:261|AV-procd|sdf|1997|dock3
  -GOLD-   2262021193D 1   1.00000     0.00000
 Structure written by MMmdl.
 51 54  0  0  0  0  0  0  0  0  1 V2000
  152.1915  141.5949  158.8842 C   0  0  0  0  0  0  0  0  0  0  0  0
  151.2413  140.5476  158.9937 O   0  0  0  0  0  0  0  0  0  0  0  0
  150.7860  140.0605  157.7396 C   0  0  1  0  0  0  0  0  0  0  0  0
  151.8746  139.3514  156.9286 C   0  0  0  0  0  0  0  0  0  0  0  0
  151.1020  138.3939  156.0049 C   0  0  2  0  0  0  0  0  0  0  0  0
  150.7491  139.0636  154.6641 C   0  0  0  0  0  0  0  0  0  0  0  0
  150.2990  138.2638  153.6947 N   0  0  0  0  0  0  0  0  0  0  0  0
  150.8881  140.2747  154.4983 O   0  0  0  0  0  0  0  0  0  0  0  0
  149.9102  138.0655  156.7875 N   0  0  0  0  0  0  0  0  0  0  0  0
  149.1116  136.9799  156.5889 C   0  0  0  0  0  0  0  0  0  0  0  0
  147.8600  137.0107  157.1195 N   0  0  0  0  0  0  0  0  0  0  0  0
  147.0227  135.9829  156.9621 C   0  0  0  0  0  0  0  0  0  0  0  0
  147.2262  134.8355  156.3159 N   0  0  0  0  0  0  0  0  0  0  0  0
  148.4778  134.7884  155.7781 C   0  0  0  0  0  0  0  0  0  0  0  0
  149.4774  135.8021  155.8666 C   0  0  0  0  0  0  0  0  0  0  0  0
  150.6207  135.3756  155.1979 N   0  0  0  0  0  0  0  0  0  0  0  0
  150.3159  134.1927  154.7425 C   0  0  0  0  0  0  0  0  0  0  0  0
  149.0396  133.7688  155.0289 N   0  0  0  0  0  0  0  0  0  0  0  0
  148.4414  132.4986  154.6530 C   0  0  0  0  0  0  0  0  0  0  0  0
  148.3567  132.2774  153.1250 C   0  0  1  0  0  0  0  0  0  0  0  0
  147.8848  130.9562  152.9538 O   0  0  0  0  0  0  0  0  0  0  0  0
  147.3806  133.2105  152.3714 C   0  0  1  0  0  0  0  0  0  0  0  0
  147.2118  132.9464  150.8735 C   0  0  0  0  0  0  0  0  0  0  0  0
  145.8399  133.5173  150.5577 C   0  0  0  0  0  0  0  0  0  0  0  0
  145.1554  133.5988  151.9228 C   0  0  0  0  0  0  0  0  0  0  0  0
  146.0558  132.9726  152.8262 O   0  0  0  0  0  0  0  0  0  0  0  0
  149.7466  138.9558  157.9326 C   0  0  0  0  0  0  0  0  0  0  0  0
  150.3435  140.8653  157.1493 H   0  0  0  0  0  0  0  0  0  0  0  0
  151.7116  137.5068  155.8312 H   0  0  0  0  0  0  0  0  0  0  0  0
  152.4623  141.9454  159.8799 H   0  0  0  0  0  0  0  0  0  0  0  0
  151.7849  142.4420  158.3301 H   0  0  0  0  0  0  0  0  0  0  0  0
  153.1041  141.2589  158.3910 H   0  0  0  0  0  0  0  0  0  0  0  0
  152.5195  140.0483  156.3913 H   0  0  0  0  0  0  0  0  0  0  0  0
  152.5110  138.7709  157.5984 H   0  0  0  0  0  0  0  0  0  0  0  0
  150.0615  138.6494  152.7923 H   0  0  0  0  0  0  0  0  0  0  0  0
  150.2066  137.2730  153.8657 H   0  0  0  0  0  0  0  0  0  0  0  0
  146.0504  136.0976  157.4179 H   0  0  0  0  0  0  0  0  0  0  0  0
  151.0170  133.5969  154.1761 H   0  0  0  0  0  0  0  0  0  0  0  0
  149.0513  131.7169  155.1084 H   0  0  0  0  0  0  0  0  0  0  0  0
  147.4511  132.4172  155.1029 H   0  0  0  0  0  0  0  0  0  0  0  0
  149.3519  132.3405  152.6835 H   0  0  0  0  0  0  0  0  0  0  0  0
  148.3029  130.5840  152.1925 H   0  0  0  0  0  0  0  0  0  0  0  0
  147.6414  134.2589  152.5310 H   0  0  0  0  0  0  0  0  0  0  0  0
  147.9961  133.4039  150.2713 H   0  0  0  0  0  0  0  0  0  0  0  0
  147.2104  131.8736  150.6763 H   0  0  0  0  0  0  0  0  0  0  0  0
  145.9188  134.5097  150.1124 H   0  0  0  0  0  0  0  0  0  0  0  0
  145.2957  132.8777  149.8623 H   0  0  0  0  0  0  0  0  0  0  0  0
  145.0097  134.6382  152.2192 H   0  0  0  0  0  0  0  0  0  0  0  0
  144.1856  133.1010  151.9350 H   0  0  0  0  0  0  0  0  0  0  0  0
  149.9445  138.3937  158.8465 H   0  0  0  0  0  0  0  0  0  0  0  0
  148.7396  139.3701  157.9950 H   0  0  0  0  0  0  0  0  0  0  0  0
  1  2  1  0  0  0  0
  1 30  1  0  0  0  0
  1 31  1  0  0  0  0
  1 32  1  0  0  0  0
  2  3  1  0  0  0  0
  3 28  1  0  0  0  0
  3 27  1  0  0  0  0
  3  4  1  0  0  0  0
  4  5  1  0  0  0  0
  4 33  1  0  0  0  0
  4 34  1  0  0  0  0
  5 29  1  0  0  0  0
  5  6  1  0  0  0  0
  5  9  1  0  0  0  0
  6  7  1  0  0  0  0
  6  8  2  0  0  0  0
  7 35  1  0  0  0  0
  7 36  1  0  0  0  0
  9 10  1  0  0  0  0
  9 27  1  0  0  0  0
 10 15  1  0  0  0  0
 10 11  2  0  0  0  0
 11 12  1  0  0  0  0
 12 13  2  0  0  0  0
 12 37  1  0  0  0  0
 13 14  1  0  0  0  0
 14 18  1  0  0  0  0
 14 15  2  0  0  0  0
 15 16  1  0  0  0  0
 16 17  2  0  0  0  0
 17 18  1  0  0  0  0
 17 38  1  0  0  0  0
 18 19  1  0  0  0  0
 19 20  1  0  0  0  0
 19 39  1  0  0  0  0
 19 40  1  0  0  0  0
 20 21  1  0  0  0  0
 20 22  1  0  0  0  0
 20 41  1  0  0  0  0
 21 42  1  0  0  0  0
 22 26  1  0  0  0  0
 22 23  1  0  0  0  0
 22 43  1  0  0  0  0
 23 24  1  0  0  0  0
 23 44  1  0  0  0  0
 23 45  1  0  0  0  0
 24 25  1  0  0  0  0
 24 46  1  0  0  0  0
 24 47  1  0  0  0  0
 25 26  1  0  0  0  0
 25 48  1  0  0  0  0
 25 49  1  0  0  0  0
 27 50  1  0  0  0  0
 27 51  1  0  0  0  0
M  END
> <s_m_source_file>
AV-unprocessed.smi

> <i_m_source_file_index>
261

> <i_lp_mmshare_version>
43012

> <i_f3d_flags>
0

> <s_epik_input>
W0NIM11PW0NASF0xW0NIMl1bQ0BASF0oQyg9TylbTkgyXSlOKFtDSDJdMSljKG5bY0hdbjIpYyhjMjMpbltjSF1uM1tDSDJdW0NASF0oW09IXSlbQ0BASF00W0NIMl1bQ0gyXVtDSDJdTzQ=

> <s_epik_cmdline>
J2VwaWtfcHl0aG9uJywgJy1waCcsICc3LjAnLCAnLXRuJywgJzgnLCAnLW1hJywgJzIwMCcsICctbWV0YWxfYmluZGluZycsICctaW1hZScsICc8aW5maWxlLm1hZT4nLCAnLW9tYWUnLCAnPG91dGZpbGUubWFlPic=

> <r_lp_tautomer_probability>
1

> <r_epik_Ionization_Penalty>
0.000713824

> <r_epik_Ionization_Penalty_Charging>
0

> <r_epik_Ionization_Penalty_Neutral>
0.000713824

> <r_epik_State_Penalty>
0.000402132

> <r_epik_Charging_Adjusted_Penalty>
0.000402132

> <i_epik_Tot_Q>
0

> <i_epik_Tot_abs_Q>
0

> <r_epik_Metal_State_Penalty>
-0

> <b_epik_Metal_Only>
0

> <s_lp_Force_Field>
OPLS_2005

> <r_lp_Energy>
45.931

> <b_lp_Chiralities_Consistent>
1

> <s_lp_Variant>
AV-unprocessed.smi:261-15

> <Gold.Version>
5.8.1

> <Gold.Id.Protein>
6NUR|6NUR_protein|mol2

> <Gold.PLP.Fitness>
41.2136

> <Gold.PLP.PLP>
-31.7594

> <Gold.PLP.part.hbond>
-3.9469

> <Gold.PLP.part.metal>
0.0000

> <Gold.PLP.part.buried>
-4.9709

> <Gold.PLP.part.nonpolar>
-22.8181

> <Gold.PLP.part.repulsive>
0.4459

> <Gold.PLP.ligand.clash>
0.0000

> <Gold.PLP.ligand.torsion>
0.6166

> <Gold.PLP.Chemscore.Hbond>
3.5038

> <Gold.PLP.Chemscore.CHOScore>
0.0000

> <Gold.PLP.Chemscore.Metal>
0.0000

> <Gold.Chemscore.Hbonds>
donor molecule, donor type, donor heavy atom, donor atom, acceptor molecule, acceptor atom, score
      L1  H     7    35       P1  7957  0.65
      L1  H    21    42       P1 10747  0.98
      P1  H  7989  7998       L1     8  0.63
      P1  H 10752 10764       L1    16  0.11

> <Gold.PLP.Chemscore.Internal.Correction>
0.1761

> <Gold.Rescore>
     Score         DG    S(hbond)    S(metal)    S(lipo)     H(rot)  DE(clash)    DE(int)     intcor
     12.91     -13.70       2.63        0.00      64.87       3.18       0.01       0.78       ----

> <Gold.Chemscore.Fitness>
12.9108

> <Gold.Chemscore.DG>
-13.7002

> <Gold.Chemscore.ZeroCoef>
-5.4800

> <Gold.Chemscore.Hbond>
2.6286

> <Gold.Chemscore.Metal>
0.0000

> <Gold.Chemscore.Lipo>
64.8655

> <Gold.Chemscore.Internal_Hbond>
0.0000

> <Gold.Chemscore.DEClash>
0.0075

> <Gold.Chemscore.DEInternal>
0.7819

> <Gold.Chemscore.Rot>
3.1831

> <Gold.Chemscore.Internal.Correction>
   9.000000E+99

> <Gold.Chemscore.Hbonds>
donor molecule, donor type, donor heavy atom, donor atom, acceptor molecule, acceptor atom, score
      L1  H     7    35       P1  7957  0.29
      L1  H    21    42       P1 10747  0.84
      P1  H  7989  7998       L1     8  0.62
      P1  H 10752 10764       L1    16  0.05

> <Gold.Chemscore.Hbond.Weighted>
-8.7795

> <Gold.Chemscore.Metal.Weighted>
-0.0000

> <Gold.Chemscore.Lipo.Weighted>
-7.5893

> <Gold.Chemscore.Internal_Hbond.Weighted>
0.0000

> <Gold.Chemscore.DEClash.Weighted>
0.0075

> <Gold.Chemscore.DEInternal.Weighted>
0.7819

> <Gold.Chemscore.Rot.Weighted>
8.1486

> <Gold.Chemscore.Internal.Correction.Weighted>
   9.000000E+99

> <Gold.Protein.RotatedTorsions>
[ 6907 6896 6895 6894 ] final  154.53 input  -60.11 | X-H torsion
[ 7974 7965 7964 7962 ] final   95.92 input  175.53 | X-H torsion
[ 8008 7997 7996 7995 ] final   67.08 input   59.86 | X-H torsion
[ 10167 10162 10161 10158 ] final    8.65 input  -65.29 | X-H torsion
[ 10718 10713 10712 10709 ] final  153.21 input   66.30 | X-H torsion
[ 10763 10752 10751 10750 ] final  -59.36 input  -60.55 | X-H torsion
[ 11005 11000 10999 10996 ] final  -14.90 input  -57.11 | X-H torsion

> <Gold.Protein.ActiveResidues>
 VAL166  LYS551  ARG553  GLY616  TRP617  ASP618  TYR619  PRO620  LYS621  CYS622 
 ASP623  PHE694  ASN695  SER759  ASP760  ASP761  ALA762  ILE779  LEU786  VAL792 
 PHE793  MET794  SER795  GLU796  ALA797  LYS798  CYS799  TRP800  GLU811  SER814 

> <Gold.Protein.RotatedAtoms>
  152.0572  133.4045  159.4401 H   0  0  0  0  0  0  0  0  0  0  0  0  # atno 6907 bound_to 6896
  150.6867  134.3241  159.4808 H   0  0  0  0  0  0  0  0  0  0  0  0  # atno 6908 bound_to 6896
  152.1058  134.9309  160.0619 H   0  0  0  0  0  0  0  0  0  0  0  0  # atno 6909 bound_to 6896
  145.4458  139.2297  143.3067 H   0  0  0  0  0  0  0  0  0  0  0  0  # atno 7974 bound_to 7965
  155.6874  140.3496  155.4879 H   0  0  0  0  0  0  0  0  0  0  0  0  # atno 8008 bound_to 7997
  155.9554  140.1127  157.0964 H   0  0  0  0  0  0  0  0  0  0  0  0  # atno 8009 bound_to 7997
  154.4131  140.1186  156.5094 H   0  0  0  0  0  0  0  0  0  0  0  0  # atno 8010 bound_to 7997
  140.6302  143.8011  150.7285 H   0  0  0  0  0  0  0  0  0  0  0  0  # atno 10167 bound_to 10162
  157.2478  131.0772  151.1750 H   0  0  0  0  0  0  0  0  0  0  0  0  # atno 10718 bound_to 10713
  154.2525  135.6323  153.5245 H   0  0  0  0  0  0  0  0  0  0  0  0  # atno 10763 bound_to 10752
  152.9910  135.5568  154.5792 H   0  0  0  0  0  0  0  0  0  0  0  0  # atno 10764 bound_to 10752
  154.5323  135.2889  155.1144 H   0  0  0  0  0  0  0  0  0  0  0  0  # atno 10765 bound_to 10752
  140.7912  133.8287  155.9381 H   0  0  0  0  0  0  0  0  0  0  0  0  # atno 11005 bound_to 11000
  146.2532  140.5211  142.8885 LP  0  0  0  0  0  0  0  0  0  0  0  0  # atno 17320 bound_to 7965
  144.8093  140.6356  143.6426 LP  0  0  0  0  0  0  0  0  0  0  0  0  # atno 17321 bound_to 7965
  140.1621  143.4267  152.2060 LP  0  0  0  0  0  0  0  0  0  0  0  0  # atno 17342 bound_to 10162
  139.5517  144.7342  151.4416 LP  0  0  0  0  0  0  0  0  0  0  0  0  # atno 17343 bound_to 10162
  157.3311  130.6985  149.6325 LP  0  0  0  0  0  0  0  0  0  0  0  0  # atno 17370 bound_to 10713
  155.9667  130.4307  150.4889 LP  0  0  0  0  0  0  0  0  0  0  0  0  # atno 17371 bound_to 10713
  140.9388  134.1928  157.4812 LP  0  0  0  0  0  0  0  0  0  0  0  0  # atno 17394 bound_to 11000
  139.8731  134.9863  156.5319 LP  0  0  0  0  0  0  0  0  0  0  0  0  # atno 17395 bound_to 11000

$$$$
