AV-unprocessed.smi:2534|AV-procd|sdf|9975|dock2
  -GOLD-   2272014 23D 1   1.00000     0.00000
 Structure written by MMmdl.
 40 42  0  0  0  0  0  0  0  0  1 V2000
  151.6905  145.2663  160.1232 C   0  0  0  0  0  0  0  0  0  0  0  0
  152.2103  144.0715  159.3114 C   0  0  2  0  0  0  0  0  0  0  0  0
  151.5495  144.0036  157.9207 C   0  0  0  0  0  0  0  0  0  0  0  0
  152.0595  142.7972  157.1134 C   0  0  0  0  0  0  0  0  0  0  0  0
  151.8436  141.4604  157.8621 C   0  0  2  0  0  0  0  0  0  0  0  0
  152.5388  140.4672  157.1326 O   0  0  0  0  0  0  0  0  0  0  0  0
  150.3553  141.0214  157.9712 C   0  0  0  0  0  0  0  0  0  0  0  0
  149.6059  141.0974  156.7223 N   0  0  0  0  0  0  0  0  0  0  0  0
  150.1840  140.6860  155.5635 N   0  0  0  0  0  0  0  0  0  0  0  0
  149.2736  140.8805  154.6123 C   0  0  0  0  0  0  0  0  0  0  0  0
  148.0755  141.4434  155.1304 C   0  0  0  0  0  0  0  0  0  0  0  0
  146.7982  141.8571  154.5601 C   0  0  0  0  0  0  0  0  0  0  0  0
  145.9054  142.3576  155.3550 N   0  0  0  0  0  0  0  0  0  0  0  0
  146.1474  142.5048  156.7253 N   0  0  0  0  0  0  0  0  0  0  0  0
  145.0274  143.0980  157.4547 C   0  0  0  0  0  0  0  0  0  0  0  0
  147.3075  142.1460  157.3575 C   0  0  0  0  0  0  0  0  0  0  0  0
  147.5113  142.2816  158.5636 O   0  0  0  0  0  0  0  0  0  0  0  0
  148.3338  141.5675  156.4557 C   0  0  0  0  0  0  0  0  0  0  0  0
  152.5095  141.5400  159.2542 C   0  0  0  0  0  0  0  0  0  0  0  0
  152.0173  142.7466  160.0744 C   0  0  0  0  0  0  0  0  0  0  0  0
  150.6187  145.1852  160.3066 H   0  0  0  0  0  0  0  0  0  0  0  0
  151.8683  146.2053  159.5984 H   0  0  0  0  0  0  0  0  0  0  0  0
  152.1896  145.3307  161.0904 H   0  0  0  0  0  0  0  0  0  0  0  0
  153.2817  144.2170  159.1641 H   0  0  0  0  0  0  0  0  0  0  0  0
  150.4652  143.9501  158.0226 H   0  0  0  0  0  0  0  0  0  0  0  0
  151.7566  144.9208  157.3683 H   0  0  0  0  0  0  0  0  0  0  0  0
  151.5935  142.7791  156.1286 H   0  0  0  0  0  0  0  0  0  0  0  0
  153.1255  142.9385  156.9271 H   0  0  0  0  0  0  0  0  0  0  0  0
  152.1385  139.6298  157.3102 H   0  0  0  0  0  0  0  0  0  0  0  0
  150.2911  140.0016  158.3494 H   0  0  0  0  0  0  0  0  0  0  0  0
  149.8311  141.6290  158.7087 H   0  0  0  0  0  0  0  0  0  0  0  0
  149.5125  140.6152  153.5928 H   0  0  0  0  0  0  0  0  0  0  0  0
  146.6058  141.7459  153.4932 H   0  0  0  0  0  0  0  0  0  0  0  0
  145.2089  143.2162  158.5238 H   0  0  0  0  0  0  0  0  0  0  0  0
  144.1374  142.4778  157.3420 H   0  0  0  0  0  0  0  0  0  0  0  0
  144.8011  144.0859  157.0516 H   0  0  0  0  0  0  0  0  0  0  0  0
  152.3377  140.6180  159.8112 H   0  0  0  0  0  0  0  0  0  0  0  0
  153.5914  141.6225  159.1374 H   0  0  0  0  0  0  0  0  0  0  0  0
  152.5590  142.7837  161.0202 H   0  0  0  0  0  0  0  0  0  0  0  0
  150.9666  142.6164  160.3347 H   0  0  0  0  0  0  0  0  0  0  0  0
  1  2  1  0  0  0  0
  1 21  1  0  0  0  0
  1 22  1  0  0  0  0
  1 23  1  0  0  0  0
  2 20  1  0  0  0  0
  2  3  1  0  0  0  0
  2 24  1  0  0  0  0
  3  4  1  0  0  0  0
  3 25  1  0  0  0  0
  3 26  1  0  0  0  0
  4  5  1  0  0  0  0
  4 27  1  0  0  0  0
  4 28  1  0  0  0  0
  5  6  1  0  0  0  0
  5  7  1  0  0  0  0
  5 19  1  0  0  0  0
  6 29  1  0  0  0  0
  7  8  1  0  0  0  0
  7 30  1  0  0  0  0
  7 31  1  0  0  0  0
  8 18  1  0  0  0  0
  8  9  1  0  0  0  0
  9 10  2  0  0  0  0
 10 11  1  0  0  0  0
 10 32  1  0  0  0  0
 11 18  2  0  0  0  0
 11 12  1  0  0  0  0
 12 13  2  0  0  0  0
 12 33  1  0  0  0  0
 13 14  1  0  0  0  0
 14 15  1  0  0  0  0
 14 16  1  0  0  0  0
 15 34  1  0  0  0  0
 15 35  1  0  0  0  0
 15 36  1  0  0  0  0
 16 17  2  0  0  0  0
 16 18  1  0  0  0  0
 19 20  1  0  0  0  0
 19 37  1  0  0  0  0
 19 38  1  0  0  0  0
 20 39  1  0  0  0  0
 20 40  1  0  0  0  0
M  END
> <s_m_source_file>
AV-unprocessed.smi

> <i_m_source_file_index>
2534

> <i_lp_mmshare_version>
43012

> <i_f3d_flags>
0

> <s_epik_input>
W0NIMl0xW0NIMl1bQ0BIXShbQ0gzXSlbQ0gyXVtDSDJdW0NAQF0xKFtPSF0pW0NIMl1uKG5bY0hdMiljKGMyMyljKD1PKW4oW0NIM10pbltjSF0z

> <s_epik_cmdline>
J2VwaWtfcHl0aG9uJywgJy1waCcsICc3LjAnLCAnLXRuJywgJzgnLCAnLW1hJywgJzIwMCcsICctbWV0YWxfYmluZGluZycsICctaW1hZScsICc8aW5maWxlLm1hZT4nLCAnLW9tYWUnLCAnPG91dGZpbGUubWFlPic=

> <r_lp_tautomer_probability>
1

> <r_epik_Ionization_Penalty>
4.4666e-07

> <r_epik_Ionization_Penalty_Charging>
3.10141e-10

> <r_epik_Ionization_Penalty_Neutral>
4.46349e-07

> <r_epik_State_Penalty>
-0

> <r_epik_Charging_Adjusted_Penalty>
3.10141e-10

> <i_epik_Tot_Q>
0

> <i_epik_Tot_abs_Q>
0

> <r_epik_Metal_State_Penalty>
-0

> <b_epik_Metal_Only>
0

> <s_lp_Force_Field>
OPLS_2005

> <r_lp_Energy>
31.0433

> <b_lp_Chiralities_Consistent>
1

> <s_lp_Variant>
AV-unprocessed.smi:2534-2

> <Gold.Version>
5.8.1

> <Gold.Id.Protein>
6NUR|6NUR_protein|mol2

> <Gold.PLP.Fitness>
38.4144

> <Gold.PLP.PLP>
-33.3112

> <Gold.PLP.part.hbond>
-1.0000

> <Gold.PLP.part.metal>
0.0000

> <Gold.PLP.part.buried>
-3.4359

> <Gold.PLP.part.nonpolar>
-28.6655

> <Gold.PLP.part.repulsive>
0.3589

> <Gold.PLP.ligand.clash>
0.0000

> <Gold.PLP.ligand.torsion>
0.3198

> <Gold.PLP.Chemscore.Hbond>
0.9120

> <Gold.PLP.Chemscore.CHOScore>
1.0000

> <Gold.PLP.Chemscore.Metal>
0.0000

> <Gold.Chemscore.Hbonds>
donor molecule, donor type, donor heavy atom, donor atom, acceptor molecule, acceptor atom, score
      P1  H  7997  8010       L1     6  0.88
      L1  C    10    32       P1  7957  1.00

> <Gold.PLP.Chemscore.Internal.Correction>
0.0069

> <Gold.Rescore>
     Score         DG    S(hbond)    S(metal)    S(lipo)     H(rot)  DE(clash)    DE(int)     intcor
     13.87     -16.90       1.32        0.00      96.57       1.68       1.32       1.71       ----

> <Gold.Chemscore.Fitness>
13.8676

> <Gold.Chemscore.DG>
-16.9001

> <Gold.Chemscore.ZeroCoef>
-5.4800

> <Gold.Chemscore.Hbond>
1.3208

> <Gold.Chemscore.Metal>
0.0000

> <Gold.Chemscore.Lipo>
96.5701

> <Gold.Chemscore.Internal_Hbond>
0.0000

> <Gold.Chemscore.DEClash>
1.3210

> <Gold.Chemscore.DEInternal>
1.7115

> <Gold.Chemscore.Rot>
1.6758

> <Gold.Chemscore.Internal.Correction>
   9.000000E+99

> <Gold.Chemscore.Hbonds>
donor molecule, donor type, donor heavy atom, donor atom, acceptor molecule, acceptor atom, score
      P1  H  7997  8010       L1     6  0.52

> <Gold.Chemscore.Hbond.Weighted>
-4.4113

> <Gold.Chemscore.Metal.Weighted>
-0.0000

> <Gold.Chemscore.Lipo.Weighted>
-11.2987

> <Gold.Chemscore.Internal_Hbond.Weighted>
0.0000

> <Gold.Chemscore.DEClash.Weighted>
1.3210

> <Gold.Chemscore.DEInternal.Weighted>
1.7115

> <Gold.Chemscore.Rot.Weighted>
4.2899

> <Gold.Chemscore.Internal.Correction.Weighted>
   9.000000E+99

> <Gold.Protein.RotatedTorsions>
[ 6907 6896 6895 6894 ] final -144.88 input  -60.11 | X-H torsion
[ 7974 7965 7964 7962 ] final -132.95 input  175.53 | X-H torsion
[ 8008 7997 7996 7995 ] final   58.31 input   59.86 | X-H torsion
[ 10167 10162 10161 10158 ] final  -12.43 input  -65.29 | X-H torsion
[ 10718 10713 10712 10709 ] final  127.07 input   66.30 | X-H torsion
[ 10763 10752 10751 10750 ] final   22.77 input  -60.55 | X-H torsion
[ 11005 11000 10999 10996 ] final  173.11 input  -57.11 | X-H torsion

> <Gold.Protein.ActiveResidues>
 VAL166  LYS551  ARG553  GLY616  TRP617  ASP618  TYR619  PRO620  LYS621  CYS622 
 ASP623  PHE694  ASN695  SER759  ASP760  ASP761  ALA762  ILE779  LEU786  VAL792 
 PHE793  MET794  SER795  GLU796  ALA797  LYS798  CYS799  TRP800  GLU811  SER814 

> <Gold.Protein.RotatedAtoms>
  151.1201  133.5110  159.2602 H   0  0  0  0  0  0  0  0  0  0  0  0  # atno 6907 bound_to 6896
  151.1871  135.0386  159.8827 H   0  0  0  0  0  0  0  0  0  0  0  0  # atno 6908 bound_to 6896
  152.5455  134.1046  159.8386 H   0  0  0  0  0  0  0  0  0  0  0  0  # atno 6909 bound_to 6896
  144.9238  140.7046  143.4949 H   0  0  0  0  0  0  0  0  0  0  0  0  # atno 7974 bound_to 7965
  155.5480  140.3486  155.4462 H   0  0  0  0  0  0  0  0  0  0  0  0  # atno 8008 bound_to 7997
  156.0604  140.1338  156.9974 H   0  0  0  0  0  0  0  0  0  0  0  0  # atno 8009 bound_to 7997
  154.4477  140.0986  156.6493 H   0  0  0  0  0  0  0  0  0  0  0  0  # atno 8010 bound_to 7997
  140.7161  143.5533  150.9276 H   0  0  0  0  0  0  0  0  0  0  0  0  # atno 10167 bound_to 10162
  157.5364  131.1097  150.8928 H   0  0  0  0  0  0  0  0  0  0  0  0  # atno 10718 bound_to 10713
  153.0889  135.6641  153.9893 H   0  0  0  0  0  0  0  0  0  0  0  0  # atno 10763 bound_to 10752
  153.9495  135.2985  155.3440 H   0  0  0  0  0  0  0  0  0  0  0  0  # atno 10764 bound_to 10752
  154.7301  135.5126  153.9023 H   0  0  0  0  0  0  0  0  0  0  0  0  # atno 10765 bound_to 10752
  140.3369  134.7310  157.4174 H   0  0  0  0  0  0  0  0  0  0  0  0  # atno 11005 bound_to 11000
  145.3253  139.1776  143.4566 LP  0  0  0  0  0  0  0  0  0  0  0  0  # atno 17320 bound_to 7965
  146.3216  140.3276  142.8638 LP  0  0  0  0  0  0  0  0  0  0  0  0  # atno 17321 bound_to 7965
  139.9258  143.6552  152.3087 LP  0  0  0  0  0  0  0  0  0  0  0  0  # atno 17342 bound_to 10162
  139.6985  144.7638  151.1314 LP  0  0  0  0  0  0  0  0  0  0  0  0  # atno 17343 bound_to 10162
  156.9493  130.5414  149.5282 LP  0  0  0  0  0  0  0  0  0  0  0  0  # atno 17370 bound_to 10713
  156.0462  130.5538  150.8886 LP  0  0  0  0  0  0  0  0  0  0  0  0  # atno 17371 bound_to 10713
  140.0813  134.5726  155.8537 LP  0  0  0  0  0  0  0  0  0  0  0  0  # atno 17394 bound_to 11000
  141.2049  133.6642  156.6147 LP  0  0  0  0  0  0  0  0  0  0  0  0  # atno 17395 bound_to 11000

$$$$
