AV-unprocessed.smi:1430|AV-procd|sdf|5826|dock5
  -GOLD-   22720 5483D 1   1.00000     0.00000
 Structure written by MMmdl.
 47 48  0  0  0  0  0  0  0  0  2 V2000
  150.6185  142.1719  157.7139 C   0  0  0  0  0  0  0  0  0  0  0  0
  150.9178  141.8033  156.3719 O   0  0  0  0  0  0  0  0  0  0  0  0
  150.5218  140.5572  155.9312 C   0  0  0  0  0  0  0  0  0  0  0  0
  150.1336  139.5964  156.8856 C   0  0  0  0  0  0  0  0  0  0  0  0
  149.7288  138.3219  156.4448 C   0  0  0  0  0  0  0  0  0  0  0  0
  149.7172  138.0497  155.0555 C   0  0  0  0  0  0  0  0  0  0  0  0
  149.3499  136.8013  154.4833 N   0  0  0  0  0  0  0  0  0  0  0  0
  149.0353  135.6532  155.1064 C   0  0  0  0  0  0  0  0  0  0  0  0
  148.9535  135.5017  156.3243 O   0  0  0  0  0  0  0  0  0  0  0  0
  148.8120  134.6676  154.2249 N   0  0  0  0  0  0  0  0  0  0  0  0
  148.4554  133.2910  154.5669 C   0  0  0  0  0  0  0  0  0  0  0  0
  148.9745  132.2491  153.5509 C   0  0  0  0  0  0  0  0  0  0  0  0
  147.8834  131.5990  152.7828 N   0  3  1  0  0  0  0  0  0  0  0  0
  147.1948  130.5315  153.5434 C   0  0  0  0  0  0  0  0  0  0  0  0
  146.1521  129.8198  152.6602 C   0  0  2  0  0  0  0  0  0  0  0  0
  146.7785  128.8972  151.5985 C   0  0  0  0  0  0  0  0  0  0  0  0
  145.2592  130.7761  152.0873 O   0  0  0  0  0  0  0  0  0  0  0  0
  145.8870  131.8115  151.3341 C   0  0  1  0  0  0  0  0  0  0  0  0
  144.7908  132.7453  150.8096 C   0  0  0  0  0  0  0  0  0  0  0  0
  146.9000  132.5542  152.2238 C   0  0  0  0  0  0  0  0  0  0  0  0
  150.1363  139.0763  154.1841 C   0  0  0  0  0  0  0  0  0  0  0  0
  150.5263  140.2994  154.6001 N   0  0  0  0  0  0  0  0  0  0  0  0
  150.9936  143.1773  157.9036 H   0  0  0  0  0  0  0  0  0  0  0  0
  151.0961  141.5001  158.4285 H   0  0  0  0  0  0  0  0  0  0  0  0
  149.5426  142.1810  157.8944 H   0  0  0  0  0  0  0  0  0  0  0  0
  150.1507  139.8313  157.9398 H   0  0  0  0  0  0  0  0  0  0  0  0
  149.4523  137.5823  157.1795 H   0  0  0  0  0  0  0  0  0  0  0  0
  149.2868  136.7927  153.4758 H   0  0  0  0  0  0  0  0  0  0  0  0
  148.8849  134.8864  153.2417 H   0  0  0  0  0  0  0  0  0  0  0  0
  148.8193  133.0542  155.5677 H   0  0  0  0  0  0  0  0  0  0  0  0
  147.3680  133.2400  154.6218 H   0  0  0  0  0  0  0  0  0  0  0  0
  149.6375  132.7607  152.8521 H   0  0  0  0  0  0  0  0  0  0  0  0
  149.5886  131.4972  154.0485 H   0  0  0  0  0  0  0  0  0  0  0  0
  147.9194  129.8071  153.9179 H   0  0  0  0  0  0  0  0  0  0  0  0
  146.7064  130.9714  154.4147 H   0  0  0  0  0  0  0  0  0  0  0  0
  145.5430  129.1880  153.3075 H   0  0  0  0  0  0  0  0  0  0  0  0
  147.3459  128.0947  152.0707 H   0  0  0  0  0  0  0  0  0  0  0  0
  147.4628  129.4285  150.9375 H   0  0  0  0  0  0  0  0  0  0  0  0
  146.0074  128.4352  150.9817 H   0  0  0  0  0  0  0  0  0  0  0  0
  146.4024  131.3804  150.4756 H   0  0  0  0  0  0  0  0  0  0  0  0
  145.2157  133.5584  150.2205 H   0  0  0  0  0  0  0  0  0  0  0  0
  144.2225  133.1871  151.6287 H   0  0  0  0  0  0  0  0  0  0  0  0
  144.0902  132.2051  150.1724 H   0  0  0  0  0  0  0  0  0  0  0  0
  146.3869  133.0687  153.0382 H   0  0  0  0  0  0  0  0  0  0  0  0
  147.4107  133.3164  151.6350 H   0  0  0  0  0  0  0  0  0  0  0  0
  150.1587  138.9133  153.1163 H   0  0  0  0  0  0  0  0  0  0  0  0
  148.3276  131.1404  152.0002 H   0  0  0  0  0  0  0  0  0  0  0  0
  1  2  1  0  0  0  0
  1 23  1  0  0  0  0
  1 24  1  0  0  0  0
  1 25  1  0  0  0  0
  2  3  1  0  0  0  0
  3 22  1  0  0  0  0
  3  4  2  0  0  0  0
  4  5  1  0  0  0  0
  4 26  1  0  0  0  0
  5  6  2  0  0  0  0
  5 27  1  0  0  0  0
  6  7  1  0  0  0  0
  6 21  1  0  0  0  0
  7  8  1  0  0  0  0
  7 28  1  0  0  0  0
  8  9  2  0  0  0  0
  8 10  1  0  0  0  0
 10 11  1  0  0  0  0
 10 29  1  0  0  0  0
 11 12  1  0  0  0  0
 11 30  1  0  0  0  0
 11 31  1  0  0  0  0
 12 13  1  0  0  0  0
 12 32  1  0  0  0  0
 12 33  1  0  0  0  0
 13 20  1  0  0  0  0
 13 14  1  0  0  0  0
 13 47  1  0  0  0  0
 14 15  1  0  0  0  0
 14 34  1  0  0  0  0
 14 35  1  0  0  0  0
 15 16  1  0  0  0  0
 15 17  1  0  0  0  0
 15 36  1  0  0  0  0
 16 37  1  0  0  0  0
 16 38  1  0  0  0  0
 16 39  1  0  0  0  0
 17 18  1  0  0  0  0
 18 19  1  0  0  0  0
 18 20  1  0  0  0  0
 18 40  1  0  0  0  0
 19 41  1  0  0  0  0
 19 42  1  0  0  0  0
 19 43  1  0  0  0  0
 20 44  1  0  0  0  0
 20 45  1  0  0  0  0
 21 22  2  0  0  0  0
 21 46  1  0  0  0  0
M  CHG  1  13   1
M  END
> <s_m_source_file>
AV-unprocessed.smi

> <i_m_source_file_index>
1430

> <i_lp_mmshare_version>
43012

> <i_f3d_flags>
0

> <s_epik_input>
W0NIM11PYzFbY0hdW2NIXWMoW2NIXW4xKVtOSF1DKD1PKVtOSF1bQ0gyXVtDSDJdTjJbQ0gyXVtDQEBIXShbQ0gzXSlPW0NAQEhdKFtDSDNdKVtDSDJdMg==

> <s_epik_cmdline>
J2VwaWtfcHl0aG9uJywgJy1waCcsICc3LjAnLCAnLXRuJywgJzgnLCAnLW1hJywgJzIwMCcsICctbWV0YWxfYmluZGluZycsICctaW1hZScsICc8aW5maWxlLm1hZT4nLCAnLW9tYWUnLCAnPG91dGZpbGUubWFlPic=

> <r_lp_tautomer_probability>
1

> <r_epik_Ionization_Penalty>
0.602607

> <r_epik_Ionization_Penalty_Charging>
0.602531

> <r_epik_Ionization_Penalty_Neutral>
7.66983e-05

> <r_epik_State_Penalty>
0.617039

> <r_epik_Charging_Adjusted_Penalty>
1.21957

> <i_epik_Tot_Q>
1

> <i_epik_Tot_abs_Q>
1

> <r_epik_Metal_State_Penalty>
0.617043

> <b_epik_Metal_Only>
0

> <s_lp_Force_Field>
OPLS_2005

> <r_lp_Energy>
27.4257

> <b_lp_Chiralities_Consistent>
1

> <s_lp_Variant>
AV-unprocessed.smi:1430-5

> <Gold.Version>
5.8.1

> <Gold.Id.Protein>
6NUR|6NUR_protein|mol2

> <Gold.PLP.Fitness>
47.6864

> <Gold.PLP.PLP>
-34.5960

> <Gold.PLP.part.hbond>
-4.0000

> <Gold.PLP.part.metal>
0.0000

> <Gold.PLP.part.buried>
-4.5556

> <Gold.PLP.part.nonpolar>
-26.3442

> <Gold.PLP.part.repulsive>
0.3792

> <Gold.PLP.ligand.clash>
0.0541

> <Gold.PLP.ligand.torsion>
0.8553

> <Gold.PLP.Chemscore.Hbond>
3.9424

> <Gold.PLP.Chemscore.CHOScore>
1.0000

> <Gold.PLP.Chemscore.Metal>
0.0000

> <Gold.Chemscore.Hbonds>
donor molecule, donor type, donor heavy atom, donor atom, acceptor molecule, acceptor atom, score
      L1  H     7    28       P1  7948  1.00
      L1  H    10    29       P1  7948  0.99
      L1  H    13    47       P1 10747  1.00
      P1  H  7989  7998       L1    22  1.00
      L1  C    21    46       P1  7957  1.00

> <Gold.PLP.Chemscore.Internal.Correction>
0.0279

> <Gold.Rescore>
     Score         DG    S(hbond)    S(metal)    S(lipo)     H(rot)  DE(clash)    DE(int)     intcor
     18.91     -20.81       2.97        0.00      84.65       1.76       0.05       1.84       ----

> <Gold.Chemscore.Fitness>
18.9150

> <Gold.Chemscore.DG>
-20.8072

> <Gold.Chemscore.ZeroCoef>
-5.4800

> <Gold.Chemscore.Hbond>
2.9731

> <Gold.Chemscore.Metal>
0.0000

> <Gold.Chemscore.Lipo>
84.6527

> <Gold.Chemscore.Internal_Hbond>
0.0000

> <Gold.Chemscore.DEClash>
0.0532

> <Gold.Chemscore.DEInternal>
1.8390

> <Gold.Chemscore.Rot>
1.7606

> <Gold.Chemscore.Internal.Correction>
   9.000000E+99

> <Gold.Chemscore.Hbonds>
donor molecule, donor type, donor heavy atom, donor atom, acceptor molecule, acceptor atom, score
      L1  H     7    28       P1  7948  0.95
      L1  H    10    29       P1  7948  0.24
      L1  H    13    47       P1 10747  0.99
      P1  H  7989  7998       L1    22  0.64

> <Gold.Chemscore.Hbond.Weighted>
-9.9300

> <Gold.Chemscore.Metal.Weighted>
-0.0000

> <Gold.Chemscore.Lipo.Weighted>
-9.9044

> <Gold.Chemscore.Internal_Hbond.Weighted>
0.0000

> <Gold.Chemscore.DEClash.Weighted>
0.0532

> <Gold.Chemscore.DEInternal.Weighted>
1.8390

> <Gold.Chemscore.Rot.Weighted>
4.5072

> <Gold.Chemscore.Internal.Correction.Weighted>
   9.000000E+99

> <Gold.Protein.RotatedTorsions>
[ 6907 6896 6895 6894 ] final -171.04 input  -60.11 | X-H torsion
[ 7974 7965 7964 7962 ] final  111.36 input  175.53 | X-H torsion
[ 8008 7997 7996 7995 ] final -132.64 input   59.86 | X-H torsion
[ 10167 10162 10161 10158 ] final   57.16 input  -65.29 | X-H torsion
[ 10718 10713 10712 10709 ] final  113.16 input   66.30 | X-H torsion
[ 10763 10752 10751 10750 ] final  170.50 input  -60.55 | X-H torsion
[ 11005 11000 10999 10996 ] final   75.13 input  -57.11 | X-H torsion

> <Gold.Protein.ActiveResidues>
 VAL166  LYS551  ARG553  GLY616  TRP617  ASP618  TYR619  PRO620  LYS621  CYS622 
 ASP623  PHE694  ASN695  SER759  ASP760  ASP761  ALA762  ILE779  LEU786  VAL792 
 PHE793  MET794  SER795  GLU796  ALA797  LYS798  CYS799  TRP800  GLU811  SER814 

> <Gold.Protein.RotatedAtoms>
  151.5174  133.3473  159.2895 H   0  0  0  0  0  0  0  0  0  0  0  0  # atno 6907 bound_to 6896
  150.8674  134.8042  159.7140 H   0  0  0  0  0  0  0  0  0  0  0  0  # atno 6908 bound_to 6896
  152.4674  134.5053  159.9789 H   0  0  0  0  0  0  0  0  0  0  0  0  # atno 6909 bound_to 6896
  145.2433  139.2770  143.4106 H   0  0  0  0  0  0  0  0  0  0  0  0  # atno 7974 bound_to 7965
  155.3323  140.0467  157.3043 H   0  0  0  0  0  0  0  0  0  0  0  0  # atno 8008 bound_to 7997
  154.5322  140.2260  155.8751 H   0  0  0  0  0  0  0  0  0  0  0  0  # atno 8009 bound_to 7997
  156.1799  140.3076  155.9136 H   0  0  0  0  0  0  0  0  0  0  0  0  # atno 8010 bound_to 7997
  140.2010  144.3988  150.6529 H   0  0  0  0  0  0  0  0  0  0  0  0  # atno 10167 bound_to 10162
  157.6353  131.0979  150.7000 H   0  0  0  0  0  0  0  0  0  0  0  0  # atno 10718 bound_to 10713
  154.3984  135.2754  155.2111 H   0  0  0  0  0  0  0  0  0  0  0  0  # atno 10763 bound_to 10752
  154.4148  135.6014  153.5977 H   0  0  0  0  0  0  0  0  0  0  0  0  # atno 10764 bound_to 10752
  152.9831  135.5958  154.4249 H   0  0  0  0  0  0  0  0  0  0  0  0  # atno 10765 bound_to 10752
  139.9358  134.7491  156.1233 H   0  0  0  0  0  0  0  0  0  0  0  0  # atno 11005 bound_to 11000
  146.3323  140.2802  142.8610 LP  0  0  0  0  0  0  0  0  0  0  0  0  # atno 17320 bound_to 7965
  144.9569  140.8236  143.5537 LP  0  0  0  0  0  0  0  0  0  0  0  0  # atno 17321 bound_to 7965
  140.6390  143.2200  151.6331 LP  0  0  0  0  0  0  0  0  0  0  0  0  # atno 17342 bound_to 10162
  139.5217  144.3184  152.0932 LP  0  0  0  0  0  0  0  0  0  0  0  0  # atno 17343 bound_to 10162
  156.7333  130.4716  149.5494 LP  0  0  0  0  0  0  0  0  0  0  0  0  # atno 17370 bound_to 10713
  156.1588  130.6360  151.0692 LP  0  0  0  0  0  0  0  0  0  0  0  0  # atno 17371 bound_to 10713
  141.0971  133.6691  156.2669 LP  0  0  0  0  0  0  0  0  0  0  0  0  # atno 17394 bound_to 11000
  140.6080  134.5488  157.5529 LP  0  0  0  0  0  0  0  0  0  0  0  0  # atno 17395 bound_to 11000

$$$$
