AV-unprocessed.smi:1671|AV-procd|sdf|6697|dock5
  -GOLD-   22720 7433D 1   1.00000     0.00000
 Structure written by MMmdl.
 44 45  0  0  0  0  0  0  0  0  1 V2000
  155.6238  133.0280  163.5926 C   0  0  0  0  0  0  0  0  0  0  0  0
  154.2186  133.8998  164.3382 S   0  0  0  0  0  0  0  0  0  0  0  0
  154.7159  135.6330  164.1050 C   0  0  2  0  0  0  0  0  0  0  0  0
  153.6184  136.5761  164.6238 C   0  0  0  0  0  0  0  0  0  0  0  0
  155.0646  135.9325  162.6417 C   0  0  0  0  0  0  0  0  0  0  0  0
  154.9683  135.0527  161.7854 O   0  0  0  0  0  0  0  0  0  0  0  0
  155.4899  137.1775  162.3741 N   0  0  0  0  0  0  0  0  0  0  0  0
  155.9318  137.6660  161.0715 C   0  0  0  0  0  0  0  0  0  0  0  0
  155.1007  138.8287  160.5511 C   0  0  0  0  0  0  0  0  0  0  0  0
  154.6786  139.8525  161.4217 C   0  0  0  0  0  0  0  0  0  0  0  0
  153.9118  140.9157  160.9082 C   0  0  0  0  0  0  0  0  0  0  0  0
  153.5782  140.9261  159.5327 C   0  0  0  0  0  0  0  0  0  0  0  0
  152.8135  141.9840  158.9940 N   0  0  0  0  0  0  0  0  0  0  0  0
  151.6127  141.6442  158.2330 C   0  0  0  0  0  0  0  0  0  0  0  0
  151.0843  142.8803  157.4868 C   0  0  0  0  0  0  0  0  0  0  0  0
  150.8723  143.9426  158.4102 O   0  0  0  0  0  0  0  0  0  0  0  0
  152.0776  144.3377  159.0597 C   0  0  1  0  0  0  0  0  0  0  0  0
  151.7683  145.5403  159.9572 C   0  0  0  0  0  0  0  0  0  0  0  0
  152.6377  143.1464  159.8612 C   0  0  0  0  0  0  0  0  0  0  0  0
  153.9844  139.9371  158.6984 N   0  0  0  0  0  0  0  0  0  0  0  0
  154.7171  138.9193  159.1962 C   0  0  0  0  0  0  0  0  0  0  0  0
  155.4948  131.9511  163.7005 H   0  0  0  0  0  0  0  0  0  0  0  0
  156.5542  133.3145  164.0826 H   0  0  0  0  0  0  0  0  0  0  0  0
  155.7033  133.2561  162.5304 H   0  0  0  0  0  0  0  0  0  0  0  0
  155.6044  135.7999  164.7160 H   0  0  0  0  0  0  0  0  0  0  0  0
  153.8919  137.6222  164.4804 H   0  0  0  0  0  0  0  0  0  0  0  0
  153.4517  136.4258  165.6908 H   0  0  0  0  0  0  0  0  0  0  0  0
  152.6681  136.4063  164.1158 H   0  0  0  0  0  0  0  0  0  0  0  0
  155.5357  137.8325  163.1411 H   0  0  0  0  0  0  0  0  0  0  0  0
  156.9805  137.9661  161.0962 H   0  0  0  0  0  0  0  0  0  0  0  0
  155.8711  136.8338  160.3696 H   0  0  0  0  0  0  0  0  0  0  0  0
  154.9438  139.8326  162.4687 H   0  0  0  0  0  0  0  0  0  0  0  0
  153.6056  141.7134  161.5681 H   0  0  0  0  0  0  0  0  0  0  0  0
  151.8309  140.8543  157.5133 H   0  0  0  0  0  0  0  0  0  0  0  0
  150.8492  141.2651  158.9138 H   0  0  0  0  0  0  0  0  0  0  0  0
  151.7820  143.1933  156.7082 H   0  0  0  0  0  0  0  0  0  0  0  0
  150.1415  142.6454  156.9928 H   0  0  0  0  0  0  0  0  0  0  0  0
  152.8046  144.6461  158.3061 H   0  0  0  0  0  0  0  0  0  0  0  0
  152.6662  145.8900  160.4672 H   0  0  0  0  0  0  0  0  0  0  0  0
  151.0285  145.2861  160.7167 H   0  0  0  0  0  0  0  0  0  0  0  0
  151.3734  146.3715  159.3726 H   0  0  0  0  0  0  0  0  0  0  0  0
  151.9524  142.8796  160.6670 H   0  0  0  0  0  0  0  0  0  0  0  0
  153.5747  143.4441  160.3296 H   0  0  0  0  0  0  0  0  0  0  0  0
  155.0046  138.1590  158.4856 H   0  0  0  0  0  0  0  0  0  0  0  0
  1  2  1  0  0  0  0
  1 22  1  0  0  0  0
  1 23  1  0  0  0  0
  1 24  1  0  0  0  0
  2  3  1  0  0  0  0
  3  4  1  0  0  0  0
  3  5  1  0  0  0  0
  3 25  1  0  0  0  0
  4 26  1  0  0  0  0
  4 27  1  0  0  0  0
  4 28  1  0  0  0  0
  5  6  2  0  0  0  0
  5  7  1  0  0  0  0
  7  8  1  0  0  0  0
  7 29  1  0  0  0  0
  8  9  1  0  0  0  0
  8 30  1  0  0  0  0
  8 31  1  0  0  0  0
  9 21  1  0  0  0  0
  9 10  2  0  0  0  0
 10 11  1  0  0  0  0
 10 32  1  0  0  0  0
 11 12  2  0  0  0  0
 11 33  1  0  0  0  0
 12 13  1  0  0  0  0
 12 20  1  0  0  0  0
 13 19  1  0  0  0  0
 13 14  1  0  0  0  0
 14 15  1  0  0  0  0
 14 34  1  0  0  0  0
 14 35  1  0  0  0  0
 15 16  1  0  0  0  0
 15 36  1  0  0  0  0
 15 37  1  0  0  0  0
 16 17  1  0  0  0  0
 17 18  1  0  0  0  0
 17 19  1  0  0  0  0
 17 38  1  0  0  0  0
 18 39  1  0  0  0  0
 18 40  1  0  0  0  0
 18 41  1  0  0  0  0
 19 42  1  0  0  0  0
 19 43  1  0  0  0  0
 20 21  2  0  0  0  0
 21 44  1  0  0  0  0
M  END
> <s_m_source_file>
AV-unprocessed.smi

> <i_m_source_file_index>
1671

> <i_lp_mmshare_version>
43012

> <i_f3d_flags>
0

> <s_epik_input>
W0NIM11TW0NASF0oW0NIM10pQyg9TylbTkhdW0NIMl1jMVtjSF1bY0hdYyhuW2NIXTEpTjJbQ0gyXVtDSDJdT1tDQEBIXShbQ0gzXSlbQ0gyXTI=

> <s_epik_cmdline>
J2VwaWtfcHl0aG9uJywgJy1waCcsICc3LjAnLCAnLXRuJywgJzgnLCAnLW1hJywgJzIwMCcsICctbWV0YWxfYmluZGluZycsICctaW1hZScsICc8aW5maWxlLm1hZT4nLCAnLW9tYWUnLCAnPG91dGZpbGUubWFlPic=

> <r_lp_tautomer_probability>
1

> <r_epik_Ionization_Penalty>
0.00480033

> <r_epik_Ionization_Penalty_Charging>
0

> <r_epik_Ionization_Penalty_Neutral>
0.00480033

> <r_epik_State_Penalty>
0.00347981

> <r_epik_Charging_Adjusted_Penalty>
0.00347981

> <i_epik_Tot_Q>
0

> <i_epik_Tot_abs_Q>
0

> <r_epik_Metal_State_Penalty>
-0

> <b_epik_Metal_Only>
0

> <s_lp_Force_Field>
OPLS_2005

> <r_lp_Energy>
16.3373

> <b_lp_Chiralities_Consistent>
1

> <s_lp_Variant>
AV-unprocessed.smi:1671-1

> <Gold.Version>
5.8.1

> <Gold.Id.Protein>
6NUR|6NUR_protein|mol2

> <Gold.PLP.Fitness>
42.6350

> <Gold.PLP.PLP>
-40.1985

> <Gold.PLP.part.hbond>
-1.0000

> <Gold.PLP.part.metal>
0.0000

> <Gold.PLP.part.buried>
-2.8847

> <Gold.PLP.part.nonpolar>
-36.2333

> <Gold.PLP.part.repulsive>
0.1468

> <Gold.PLP.ligand.clash>
0.0000

> <Gold.PLP.ligand.torsion>
0.4607

> <Gold.PLP.Chemscore.Hbond>
0.9920

> <Gold.PLP.Chemscore.CHOScore>
0.0000

> <Gold.PLP.Chemscore.Metal>
0.0000

> <Gold.Chemscore.Hbonds>
donor molecule, donor type, donor heavy atom, donor atom, acceptor molecule, acceptor atom, score
      P1  H  7997  8010       L1    20  0.96

> <Gold.PLP.Chemscore.Internal.Correction>
0.3819

> <Gold.Rescore>
     Score         DG    S(hbond)    S(metal)    S(lipo)     H(rot)  DE(clash)    DE(int)     intcor
     17.21     -17.83       0.75        0.00     119.68       1.63       0.10       0.52       ----

> <Gold.Chemscore.Fitness>
17.2092

> <Gold.Chemscore.DG>
-17.8283

> <Gold.Chemscore.ZeroCoef>
-5.4800

> <Gold.Chemscore.Hbond>
0.7518

> <Gold.Chemscore.Metal>
0.0000

> <Gold.Chemscore.Lipo>
119.6850

> <Gold.Chemscore.Internal_Hbond>
0.0000

> <Gold.Chemscore.DEClash>
0.1022

> <Gold.Chemscore.DEInternal>
0.5169

> <Gold.Chemscore.Rot>
1.6272

> <Gold.Chemscore.Internal.Correction>
   9.000000E+99

> <Gold.Chemscore.Hbonds>
donor molecule, donor type, donor heavy atom, donor atom, acceptor molecule, acceptor atom, score
      P1  H  7997  8010       L1    20  0.24

> <Gold.Chemscore.Hbond.Weighted>
-2.5109

> <Gold.Chemscore.Metal.Weighted>
-0.0000

> <Gold.Chemscore.Lipo.Weighted>
-14.0031

> <Gold.Chemscore.Internal_Hbond.Weighted>
0.0000

> <Gold.Chemscore.DEClash.Weighted>
0.1022

> <Gold.Chemscore.DEInternal.Weighted>
0.5169

> <Gold.Chemscore.Rot.Weighted>
4.1657

> <Gold.Chemscore.Internal.Correction.Weighted>
   9.000000E+99

> <Gold.Protein.RotatedTorsions>
[ 6907 6896 6895 6894 ] final  -48.08 input  -60.11 | X-H torsion
[ 7974 7965 7964 7962 ] final -127.27 input  175.53 | X-H torsion
[ 8008 7997 7996 7995 ] final   29.17 input   59.86 | X-H torsion
[ 10167 10162 10161 10158 ] final  106.27 input  -65.29 | X-H torsion
[ 10718 10713 10712 10709 ] final -159.30 input   66.30 | X-H torsion
[ 10763 10752 10751 10750 ] final -151.80 input  -60.55 | X-H torsion
[ 11005 11000 10999 10996 ] final   36.76 input  -57.11 | X-H torsion

> <Gold.Protein.ActiveResidues>
 VAL166  LYS551  ARG553  GLY616  TRP617  ASP618  TYR619  PRO620  LYS621  CYS622 
 ASP623  PHE694  ASN695  SER759  ASP760  ASP761  ALA762  ILE779  LEU786  VAL792 
 PHE793  MET794  SER795  GLU796  ALA797  LYS798  CYS799  TRP800  GLU811  SER814 

> <Gold.Protein.RotatedAtoms>
  150.8942  134.8348  159.7314 H   0  0  0  0  0  0  0  0  0  0  0  0  # atno 6907 bound_to 6896
  152.4855  134.4602  159.9612 H   0  0  0  0  0  0  0  0  0  0  0  0  # atno 6908 bound_to 6896
  151.4661  133.3541  159.2851 H   0  0  0  0  0  0  0  0  0  0  0  0  # atno 6909 bound_to 6896
  144.9788  140.7619  143.4625 H   0  0  0  0  0  0  0  0  0  0  0  0  # atno 7974 bound_to 7965
  155.0703  140.3199  155.4632 H   0  0  0  0  0  0  0  0  0  0  0  0  # atno 8008 bound_to 7997
  156.2792  140.2113  156.5776 H   0  0  0  0  0  0  0  0  0  0  0  0  # atno 8009 bound_to 7997
  154.7060  140.0502  157.0492 H   0  0  0  0  0  0  0  0  0  0  0  0  # atno 8010 bound_to 7997
  139.7023  144.7092  151.1165 H   0  0  0  0  0  0  0  0  0  0  0  0  # atno 10167 bound_to 10162
  156.5662  130.8669  151.2824 H   0  0  0  0  0  0  0  0  0  0  0  0  # atno 10718 bound_to 10713
  154.8035  135.3251  154.7491 H   0  0  0  0  0  0  0  0  0  0  0  0  # atno 10763 bound_to 10752
  153.8154  135.6892  153.4839 H   0  0  0  0  0  0  0  0  0  0  0  0  # atno 10764 bound_to 10752
  153.1765  135.4603  154.9916 H   0  0  0  0  0  0  0  0  0  0  0  0  # atno 10765 bound_to 10752
  140.2293  134.3546  155.7970 H   0  0  0  0  0  0  0  0  0  0  0  0  # atno 11005 bound_to 11000
  145.2451  139.2055  143.4972 LP  0  0  0  0  0  0  0  0  0  0  0  0  # atno 17320 bound_to 7965
  146.3402  140.2354  142.8594 LP  0  0  0  0  0  0  0  0  0  0  0  0  # atno 17321 bound_to 7965
  140.7713  143.5407  150.9316 LP  0  0  0  0  0  0  0  0  0  0  0  0  # atno 17342 bound_to 10162
  139.9089  143.6744  152.3118 LP  0  0  0  0  0  0  0  0  0  0  0  0  # atno 17343 bound_to 10162
  157.7358  130.9768  150.2101 LP  0  0  0  0  0  0  0  0  0  0  0  0  # atno 17370 bound_to 10713
  156.2755  130.3727  149.7988 LP  0  0  0  0  0  0  0  0  0  0  0  0  # atno 17371 bound_to 10713
  141.2219  133.7237  156.8705 LP  0  0  0  0  0  0  0  0  0  0  0  0  # atno 17394 bound_to 11000
  140.1767  134.9062  157.2899 LP  0  0  0  0  0  0  0  0  0  0  0  0  # atno 17395 bound_to 11000

$$$$
