AV-unprocessed.smi:1029|AV-procd|sdf|4477|dock2
  -GOLD-   22720 2453D 1   1.00000     0.00000
 Structure written by MMmdl.
 46 47  0  0  0  0  0  0  0  0  2 V2000
  153.2663  137.1290  157.2383 C   0  0  0  0  0  0  0  0  0  0  0  0
  152.4894  137.9526  156.2543 C   0  0  0  0  0  0  0  0  0  0  0  0
  151.2344  137.6579  155.6526 C   0  0  0  0  0  0  0  0  0  0  0  0
  151.0186  138.7483  154.8528 C   0  0  0  0  0  0  0  0  0  0  0  0
  149.9644  138.9996  154.0334 N   0  0  0  0  0  0  0  0  0  0  0  0
  148.6494  138.8882  154.2914 C   0  0  0  0  0  0  0  0  0  0  0  0
  148.1573  138.5393  155.3648 O   0  0  0  0  0  0  0  0  0  0  0  0
  147.9162  139.2137  153.2173 N   0  0  0  0  0  0  0  0  0  0  0  0
  146.4581  139.2012  153.1628 C   0  0  0  0  0  0  0  0  0  0  0  0
  145.9232  138.0662  152.2656 C   0  0  1  0  0  0  0  0  0  0  0  0
  146.6968  138.0248  151.0819 O   0  0  0  0  0  0  0  0  0  0  0  0
  146.0592  136.6911  152.9519 C   0  0  0  0  0  0  0  0  0  0  0  0
  145.7939  135.5588  152.0266 N   0  3  2  0  0  0  0  0  0  0  0  0
  144.6684  135.8134  151.0883 C   0  0  0  0  0  0  0  0  0  0  0  0
  144.5211  134.6679  150.0705 C   0  0  0  0  0  0  0  0  0  0  0  0
  144.3576  133.2978  150.7531 C   0  0  2  0  0  0  0  0  0  0  0  0
  142.9649  133.1055  151.3788 C   0  0  0  0  0  0  0  0  0  0  0  0
  145.4983  133.0926  151.7656 C   0  0  0  0  0  0  0  0  0  0  0  0
  145.6247  134.2711  152.7478 C   0  0  0  0  0  0  0  0  0  0  0  0
  152.0400  139.6341  154.9436 O   0  0  0  0  0  0  0  0  0  0  0  0
  152.9758  139.1154  155.8463 N   0  0  0  0  0  0  0  0  0  0  0  0
  152.7194  136.2276  157.5153 H   0  0  0  0  0  0  0  0  0  0  0  0
  153.4645  137.6904  158.1516 H   0  0  0  0  0  0  0  0  0  0  0  0
  154.2249  136.8202  156.8208 H   0  0  0  0  0  0  0  0  0  0  0  0
  150.6146  136.7859  155.7963 H   0  0  0  0  0  0  0  0  0  0  0  0
  150.2103  139.3157  153.1069 H   0  0  0  0  0  0  0  0  0  0  0  0
  148.4014  139.4938  152.3774 H   0  0  0  0  0  0  0  0  0  0  0  0
  146.0170  139.1671  154.1612 H   0  0  0  0  0  0  0  0  0  0  0  0
  146.1677  140.1633  152.7400 H   0  0  0  0  0  0  0  0  0  0  0  0
  144.8823  138.2625  152.0096 H   0  0  0  0  0  0  0  0  0  0  0  0
  147.2471  137.2565  151.1051 H   0  0  0  0  0  0  0  0  0  0  0  0
  147.0688  136.6078  153.3579 H   0  0  0  0  0  0  0  0  0  0  0  0
  145.3841  136.6187  153.8061 H   0  0  0  0  0  0  0  0  0  0  0  0
  143.7433  135.9443  151.6512 H   0  0  0  0  0  0  0  0  0  0  0  0
  144.8327  136.7417  150.5431 H   0  0  0  0  0  0  0  0  0  0  0  0
  143.6779  134.8626  149.4068 H   0  0  0  0  0  0  0  0  0  0  0  0
  145.4067  134.6459  149.4336 H   0  0  0  0  0  0  0  0  0  0  0  0
  144.4576  132.5317  149.9829 H   0  0  0  0  0  0  0  0  0  0  0  0
  142.7640  133.8280  152.1694 H   0  0  0  0  0  0  0  0  0  0  0  0
  142.8665  132.1094  151.8112 H   0  0  0  0  0  0  0  0  0  0  0  0
  142.1818  133.2134  150.6280 H   0  0  0  0  0  0  0  0  0  0  0  0
  145.3540  132.1610  152.3140 H   0  0  0  0  0  0  0  0  0  0  0  0
  146.4391  132.9807  151.2251 H   0  0  0  0  0  0  0  0  0  0  0  0
  146.4854  134.0982  153.3952 H   0  0  0  0  0  0  0  0  0  0  0  0
  144.7501  134.3261  153.3973 H   0  0  0  0  0  0  0  0  0  0  0  0
  146.6276  135.4568  151.4649 H   0  0  0  0  0  0  0  0  0  0  0  0
  1  2  1  0  0  0  0
  1 22  1  0  0  0  0
  1 23  1  0  0  0  0
  1 24  1  0  0  0  0
  2 21  2  0  0  0  0
  2  3  1  0  0  0  0
  3  4  2  0  0  0  0
  3 25  1  0  0  0  0
  4  5  1  0  0  0  0
  4 20  1  0  0  0  0
  5  6  1  0  0  0  0
  5 26  1  0  0  0  0
  6  7  2  0  0  0  0
  6  8  1  0  0  0  0
  8  9  1  0  0  0  0
  8 27  1  0  0  0  0
  9 10  1  0  0  0  0
  9 28  1  0  0  0  0
  9 29  1  0  0  0  0
 10 11  1  0  0  0  0
 10 12  1  0  0  0  0
 10 30  1  0  0  0  0
 11 31  1  0  0  0  0
 12 13  1  0  0  0  0
 12 32  1  0  0  0  0
 12 33  1  0  0  0  0
 13 19  1  0  0  0  0
 13 14  1  0  0  0  0
 13 46  1  0  0  0  0
 14 15  1  0  0  0  0
 14 34  1  0  0  0  0
 14 35  1  0  0  0  0
 15 16  1  0  0  0  0
 15 36  1  0  0  0  0
 15 37  1  0  0  0  0
 16 17  1  0  0  0  0
 16 18  1  0  0  0  0
 16 38  1  0  0  0  0
 17 39  1  0  0  0  0
 17 40  1  0  0  0  0
 17 41  1  0  0  0  0
 18 19  1  0  0  0  0
 18 42  1  0  0  0  0
 18 43  1  0  0  0  0
 19 44  1  0  0  0  0
 19 45  1  0  0  0  0
 20 21  1  0  0  0  0
M  CHG  1  13   1
M  END
> <s_m_source_file>
AV-unprocessed.smi

> <i_m_source_file_index>
1029

> <i_lp_mmshare_version>
43012

> <i_f3d_flags>
0

> <s_epik_input>
W0NIM11jMVtjSF1jKG9uMSlbTkhdQyg9TylbTkhdW0NIMl1bQ0BIXShbT0hdKVtDSDJdTjJbQ0gyXVtDSDJdW0NIXShbQ0gzXSlbQ0gyXVtDSDJdMg==

> <s_epik_cmdline>
J2VwaWtfcHl0aG9uJywgJy1waCcsICc3LjAnLCAnLXRuJywgJzgnLCAnLW1hJywgJzIwMCcsICctbWV0YWxfYmluZGluZycsICctaW1hZScsICc8aW5maWxlLm1hZT4nLCAnLW9tYWUnLCAnPG91dGZpbGUubWFlPic=

> <r_lp_tautomer_probability>
1

> <r_epik_Ionization_Penalty>
0.00211787

> <r_epik_Ionization_Penalty_Charging>
0.00153238

> <r_epik_Ionization_Penalty_Neutral>
0.000585488

> <r_epik_State_Penalty>
-0

> <r_epik_Charging_Adjusted_Penalty>
0.00153238

> <i_epik_Tot_Q>
1

> <i_epik_Tot_abs_Q>
1

> <r_epik_Metal_State_Penalty>
-0

> <b_epik_Metal_Only>
0

> <s_lp_Force_Field>
OPLS_2005

> <r_lp_Energy>
22.6481

> <b_lp_Chiralities_Consistent>
1

> <s_lp_Variant>
AV-unprocessed.smi:1029-4

> <Gold.Version>
5.8.1

> <Gold.Id.Protein>
6NUR|6NUR_protein|mol2

> <Gold.PLP.Fitness>
50.1879

> <Gold.PLP.PLP>
-35.1876

> <Gold.PLP.part.hbond>
-7.2107

> <Gold.PLP.part.metal>
0.0000

> <Gold.PLP.part.buried>
0.7813

> <Gold.PLP.part.nonpolar>
-28.2373

> <Gold.PLP.part.repulsive>
0.3595

> <Gold.PLP.ligand.clash>
0.0000

> <Gold.PLP.ligand.torsion>
0.7497

> <Gold.PLP.Chemscore.Hbond>
5.4682

> <Gold.PLP.Chemscore.CHOScore>
0.0000

> <Gold.PLP.Chemscore.Metal>
0.0000

> <Gold.Chemscore.Hbonds>
donor molecule, donor type, donor heavy atom, donor atom, acceptor molecule, acceptor atom, score
      L1  H     5    26       P1  7957  0.70
      L1  H     8    27       P1  7957  1.00
      L1  H    11    31       P1  7948  0.86
      P1  H  7989  7998       L1    20  0.90
      P1  H  7997  8009       L1    21  1.00

> <Gold.PLP.Chemscore.Internal.Correction>
0.0952

> <Gold.Rescore>
     Score         DG    S(hbond)    S(metal)    S(lipo)     H(rot)  DE(clash)    DE(int)     intcor
     20.49     -22.92       4.59        0.00      71.83       2.46       1.57       0.85       ----

> <Gold.Chemscore.Fitness>
20.4889

> <Gold.Chemscore.DG>
-22.9175

> <Gold.Chemscore.ZeroCoef>
-5.4800

> <Gold.Chemscore.Hbond>
4.5919

> <Gold.Chemscore.Metal>
0.0000

> <Gold.Chemscore.Lipo>
71.8301

> <Gold.Chemscore.Internal_Hbond>
0.0000

> <Gold.Chemscore.DEClash>
1.5745

> <Gold.Chemscore.DEInternal>
0.8541

> <Gold.Chemscore.Rot>
2.4624

> <Gold.Chemscore.Internal.Correction>
   9.000000E+99

> <Gold.Chemscore.Hbonds>
donor molecule, donor type, donor heavy atom, donor atom, acceptor molecule, acceptor atom, score
      L1  H     5    26       P1  7957  0.61
      L1  H     8    27       P1  7957  1.00
      L1  H    11    31       P1  7948  0.80
      L1  H    13    46       P1  7948  0.03
      P1  H  7989  7998       L1    20  0.35
      P1  H  7997  8009       L1    21  0.96

> <Gold.Chemscore.Hbond.Weighted>
-15.3371

> <Gold.Chemscore.Metal.Weighted>
-0.0000

> <Gold.Chemscore.Lipo.Weighted>
-8.4041

> <Gold.Chemscore.Internal_Hbond.Weighted>
0.0000

> <Gold.Chemscore.DEClash.Weighted>
1.5745

> <Gold.Chemscore.DEInternal.Weighted>
0.8541

> <Gold.Chemscore.Rot.Weighted>
6.3037

> <Gold.Chemscore.Internal.Correction.Weighted>
   9.000000E+99

> <Gold.Protein.RotatedTorsions>
[ 6907 6896 6895 6894 ] final -100.46 input  -60.11 | X-H torsion
[ 7974 7965 7964 7962 ] final   45.93 input  175.53 | X-H torsion
[ 8008 7997 7996 7995 ] final -158.03 input   59.86 | X-H torsion
[ 10167 10162 10161 10158 ] final -109.86 input  -65.29 | X-H torsion
[ 10718 10713 10712 10709 ] final -152.23 input   66.30 | X-H torsion
[ 10763 10752 10751 10750 ] final   -9.64 input  -60.55 | X-H torsion
[ 11005 11000 10999 10996 ] final   41.23 input  -57.11 | X-H torsion

> <Gold.Protein.ActiveResidues>
 VAL166  LYS551  ARG553  GLY616  TRP617  ASP618  TYR619  PRO620  LYS621  CYS622 
 ASP623  PHE694  ASN695  SER759  ASP760  ASP761  ALA762  ILE779  LEU786  VAL792 
 PHE793  MET794  SER795  GLU796  ALA797  LYS798  CYS799  TRP800  GLU811  SER814 

> <Gold.Protein.RotatedAtoms>
  150.7117  134.0884  159.3922 H   0  0  0  0  0  0  0  0  0  0  0  0  # atno 6907 bound_to 6896
  151.8869  135.0429  160.0503 H   0  0  0  0  0  0  0  0  0  0  0  0  # atno 6908 bound_to 6896
  152.2522  133.5190  159.5369 H   0  0  0  0  0  0  0  0  0  0  0  0  # atno 6909 bound_to 6896
  146.0436  139.4911  142.9763 H   0  0  0  0  0  0  0  0  0  0  0  0  # atno 7974 bound_to 7965
  155.7414  140.0814  157.2244 H   0  0  0  0  0  0  0  0  0  0  0  0  # atno 8008 bound_to 7997
  154.4021  140.1577  156.2675 H   0  0  0  0  0  0  0  0  0  0  0  0  # atno 8009 bound_to 7997
  155.9017  140.3409  155.6034 H   0  0  0  0  0  0  0  0  0  0  0  0  # atno 8010 bound_to 7997
  140.1508  143.4201  152.1496 H   0  0  0  0  0  0  0  0  0  0  0  0  # atno 10167 bound_to 10162
  156.4697  130.8253  151.2482 H   0  0  0  0  0  0  0  0  0  0  0  0  # atno 10718 bound_to 10713
  153.4577  135.7016  153.6069 H   0  0  0  0  0  0  0  0  0  0  0  0  # atno 10763 bound_to 10752
  153.4377  135.3787  155.2209 H   0  0  0  0  0  0  0  0  0  0  0  0  # atno 10764 bound_to 10752
  154.8727  135.3966  154.3998 H   0  0  0  0  0  0  0  0  0  0  0  0  # atno 10765 bound_to 10752
  140.1854  134.4052  155.8176 H   0  0  0  0  0  0  0  0  0  0  0  0  # atno 11005 bound_to 11000
  145.6843  141.0182  143.1589 LP  0  0  0  0  0  0  0  0  0  0  0  0  # atno 17320 bound_to 7965
  144.7086  139.8458  143.7422 LP  0  0  0  0  0  0  0  0  0  0  0  0  # atno 17321 bound_to 7965
  139.5427  144.7271  151.4682 LP  0  0  0  0  0  0  0  0  0  0  0  0  # atno 17342 bound_to 10162
  140.6704  143.8307  150.6992 LP  0  0  0  0  0  0  0  0  0  0  0  0  # atno 17343 bound_to 10162
  157.7492  131.0080  150.3212 LP  0  0  0  0  0  0  0  0  0  0  0  0  # atno 17370 bound_to 10713
  156.3630  130.3850  149.7236 LP  0  0  0  0  0  0  0  0  0  0  0  0  # atno 17371 bound_to 10713
  141.2224  133.7020  156.8003 LP  0  0  0  0  0  0  0  0  0  0  0  0  # atno 17394 bound_to 11000
  140.2220  134.8750  157.3387 LP  0  0  0  0  0  0  0  0  0  0  0  0  # atno 17395 bound_to 11000

$$$$
