AV-unprocessed.smi:1446|AV-procd|sdf|5889|dock6
  -GOLD-   22720 5573D 1   1.00000     0.00000
 Structure written by MMmdl.
 47 48  0  0  0  0  0  0  0  0  1 V2000
  144.3079  142.4055  156.0166 C   0  0  0  0  0  0  0  0  0  0  0  0
  142.9781  141.6860  156.2113 C   0  0  0  0  0  0  0  0  0  0  0  0
  142.3309  141.8504  157.2449 O   0  0  0  0  0  0  0  0  0  0  0  0
  142.5815  140.8903  155.2056 N   0  0  0  0  0  0  0  0  0  0  0  0
  141.3449  140.1057  155.1799 C   0  0  2  0  0  0  0  0  0  0  0  0
  141.7002  138.6247  154.9412 C   0  0  0  0  0  0  0  0  0  0  0  0
  141.3783  137.7738  155.7726 O   0  0  0  0  0  0  0  0  0  0  0  0
  142.3772  138.3649  153.8065 N   0  0  0  0  0  0  0  0  0  0  0  0
  142.8504  137.1139  153.3297 C   0  0  0  0  0  0  0  0  0  0  0  0
  143.9933  137.1800  152.5055 C   0  0  0  0  0  0  0  0  0  0  0  0
  144.5439  135.9933  151.9848 C   0  0  0  0  0  0  0  0  0  0  0  0
  143.9411  134.7504  152.2925 C   0  0  0  0  0  0  0  0  0  0  0  0
  144.4395  133.5195  151.8125 N   0  0  0  0  0  0  0  0  0  0  0  0
  144.3995  133.3332  150.3640 C   0  0  0  0  0  0  0  0  0  0  0  0
  144.6459  131.8567  150.0069 C   0  0  0  0  0  0  0  0  0  0  0  0
  145.8672  131.4158  150.5911 O   0  0  0  0  0  0  0  0  0  0  0  0
  145.8340  131.5002  152.0119 C   0  0  0  0  0  0  0  0  0  0  0  0
  145.6354  132.9644  152.4399 C   0  0  0  0  0  0  0  0  0  0  0  0
  142.8009  134.7901  153.1279 C   0  0  0  0  0  0  0  0  0  0  0  0
  142.2731  135.9261  153.6296 N   0  0  0  0  0  0  0  0  0  0  0  0
  140.4390  140.6289  154.0258 C   0  0  0  0  0  0  0  0  0  0  0  0
  139.9624  142.0740  154.2743 C   0  0  0  0  0  0  0  0  0  0  0  0
  139.2105  139.7303  153.7728 C   0  0  0  0  0  0  0  0  0  0  0  0
  145.1208  141.6845  155.9293 H   0  0  0  0  0  0  0  0  0  0  0  0
  144.5216  143.0614  156.8612 H   0  0  0  0  0  0  0  0  0  0  0  0
  144.2837  143.0122  155.1111 H   0  0  0  0  0  0  0  0  0  0  0  0
  143.1837  140.8118  154.3989 H   0  0  0  0  0  0  0  0  0  0  0  0
  140.8204  140.2181  156.1314 H   0  0  0  0  0  0  0  0  0  0  0  0
  142.5751  139.1587  153.2151 H   0  0  0  0  0  0  0  0  0  0  0  0
  144.4489  138.1309  152.2699 H   0  0  0  0  0  0  0  0  0  0  0  0
  145.4151  136.0622  151.3511 H   0  0  0  0  0  0  0  0  0  0  0  0
  143.4456  133.6456  149.9411 H   0  0  0  0  0  0  0  0  0  0  0  0
  145.1680  133.9588  149.9083 H   0  0  0  0  0  0  0  0  0  0  0  0
  143.8201  131.2310  150.3493 H   0  0  0  0  0  0  0  0  0  0  0  0
  144.7067  131.7383  148.9250 H   0  0  0  0  0  0  0  0  0  0  0  0
  145.0365  130.8682  152.4063 H   0  0  0  0  0  0  0  0  0  0  0  0
  146.7719  131.1161  152.4128 H   0  0  0  0  0  0  0  0  0  0  0  0
  146.5041  133.5573  152.1506 H   0  0  0  0  0  0  0  0  0  0  0  0
  145.5491  133.0125  153.5260 H   0  0  0  0  0  0  0  0  0  0  0  0
  142.2978  133.8832  153.4282 H   0  0  0  0  0  0  0  0  0  0  0  0
  141.0240  140.6422  153.1044 H   0  0  0  0  0  0  0  0  0  0  0  0
  139.3987  142.1493  155.2046 H   0  0  0  0  0  0  0  0  0  0  0  0
  139.3154  142.4184  153.4669 H   0  0  0  0  0  0  0  0  0  0  0  0
  140.7946  142.7755  154.3315 H   0  0  0  0  0  0  0  0  0  0  0  0
  138.6055  139.6265  154.6740 H   0  0  0  0  0  0  0  0  0  0  0  0
  139.4925  138.7304  153.4429 H   0  0  0  0  0  0  0  0  0  0  0  0
  138.5726  140.1489  152.9940 H   0  0  0  0  0  0  0  0  0  0  0  0
  1  2  1  0  0  0  0
  1 24  1  0  0  0  0
  1 25  1  0  0  0  0
  1 26  1  0  0  0  0
  2  3  2  0  0  0  0
  2  4  1  0  0  0  0
  4  5  1  0  0  0  0
  4 27  1  0  0  0  0
  5  6  1  0  0  0  0
  5 21  1  0  0  0  0
  5 28  1  0  0  0  0
  6  7  2  0  0  0  0
  6  8  1  0  0  0  0
  8  9  1  0  0  0  0
  8 29  1  0  0  0  0
  9 20  1  0  0  0  0
  9 10  2  0  0  0  0
 10 11  1  0  0  0  0
 10 30  1  0  0  0  0
 11 12  2  0  0  0  0
 11 31  1  0  0  0  0
 12 13  1  0  0  0  0
 12 19  1  0  0  0  0
 13 18  1  0  0  0  0
 13 14  1  0  0  0  0
 14 15  1  0  0  0  0
 14 32  1  0  0  0  0
 14 33  1  0  0  0  0
 15 16  1  0  0  0  0
 15 34  1  0  0  0  0
 15 35  1  0  0  0  0
 16 17  1  0  0  0  0
 17 18  1  0  0  0  0
 17 36  1  0  0  0  0
 17 37  1  0  0  0  0
 18 38  1  0  0  0  0
 18 39  1  0  0  0  0
 19 20  2  0  0  0  0
 19 40  1  0  0  0  0
 21 22  1  0  0  0  0
 21 23  1  0  0  0  0
 21 41  1  0  0  0  0
 22 42  1  0  0  0  0
 22 43  1  0  0  0  0
 22 44  1  0  0  0  0
 23 45  1  0  0  0  0
 23 46  1  0  0  0  0
 23 47  1  0  0  0  0
M  END
> <s_m_source_file>
AV-unprocessed.smi

> <i_m_source_file_index>
1446

> <i_lp_mmshare_version>
43012

> <i_f3d_flags>
0

> <s_epik_input>
W0NIM11DKD1PKVtOSF1bQ0BASF0oW0NIXShbQ0gzXSlbQ0gzXSlDKD1PKVtOSF1jMVtjSF1bY0hdYyhbY0hdbjEpTjJbQ0gyXVtDSDJdT1tDSDJdW0NIMl0y

> <s_epik_cmdline>
J2VwaWtfcHl0aG9uJywgJy1waCcsICc3LjAnLCAnLXRuJywgJzgnLCAnLW1hJywgJzIwMCcsICctbWV0YWxfYmluZGluZycsICctaW1hZScsICc8aW5maWxlLm1hZT4nLCAnLW9tYWUnLCAnPG91dGZpbGUubWFlPic=

> <r_lp_tautomer_probability>
1

> <r_epik_Ionization_Penalty>
0.00298315

> <r_epik_Ionization_Penalty_Charging>
0

> <r_epik_Ionization_Penalty_Neutral>
0.00298315

> <r_epik_State_Penalty>
0.0038483

> <r_epik_Charging_Adjusted_Penalty>
0.0038483

> <i_epik_Tot_Q>
0

> <i_epik_Tot_abs_Q>
0

> <r_epik_Metal_State_Penalty>
-0

> <b_epik_Metal_Only>
0

> <s_lp_Force_Field>
OPLS_2005

> <r_lp_Energy>
27.9322

> <b_lp_Chiralities_Consistent>
1

> <s_lp_Variant>
AV-unprocessed.smi:1446-1

> <Gold.Version>
5.8.1

> <Gold.Id.Protein>
6NUR|6NUR_protein|mol2

> <Gold.PLP.Fitness>
38.2450

> <Gold.PLP.PLP>
-29.7874

> <Gold.PLP.part.hbond>
-2.0000

> <Gold.PLP.part.metal>
0.0000

> <Gold.PLP.part.buried>
-4.2913

> <Gold.PLP.part.nonpolar>
-23.8176

> <Gold.PLP.part.repulsive>
0.3406

> <Gold.PLP.ligand.clash>
0.0000

> <Gold.PLP.ligand.torsion>
0.4577

> <Gold.PLP.Chemscore.Hbond>
2.0000

> <Gold.PLP.Chemscore.CHOScore>
0.9926

> <Gold.PLP.Chemscore.Metal>
0.0000

> <Gold.Chemscore.Hbonds>
donor molecule, donor type, donor heavy atom, donor atom, acceptor molecule, acceptor atom, score
      L1  H     4    27       P1 10175  1.00
      L1  H     8    29       P1 10175  1.00
      L1  C    19    40       P1 10957  1.00

> <Gold.PLP.Chemscore.Internal.Correction>
0.3954

> <Gold.Rescore>
     Score         DG    S(hbond)    S(metal)    S(lipo)     H(rot)  DE(clash)    DE(int)     intcor
     13.72     -15.49       1.93        0.00      68.49       1.74       0.10       1.67       ----

> <Gold.Chemscore.Fitness>
13.7190

> <Gold.Chemscore.DG>
-15.4870

> <Gold.Chemscore.ZeroCoef>
-5.4800

> <Gold.Chemscore.Hbond>
1.9302

> <Gold.Chemscore.Metal>
0.0000

> <Gold.Chemscore.Lipo>
68.4860

> <Gold.Chemscore.Internal_Hbond>
0.0000

> <Gold.Chemscore.DEClash>
0.1028

> <Gold.Chemscore.DEInternal>
1.6653

> <Gold.Chemscore.Rot>
1.7394

> <Gold.Chemscore.Internal.Correction>
   9.000000E+99

> <Gold.Chemscore.Hbonds>
donor molecule, donor type, donor heavy atom, donor atom, acceptor molecule, acceptor atom, score
      L1  H     4    27       P1 10175  0.83
      L1  H     8    29       P1 10175  0.99

> <Gold.Chemscore.Hbond.Weighted>
-6.4469

> <Gold.Chemscore.Metal.Weighted>
-0.0000

> <Gold.Chemscore.Lipo.Weighted>
-8.0129

> <Gold.Chemscore.Internal_Hbond.Weighted>
0.0000

> <Gold.Chemscore.DEClash.Weighted>
0.1028

> <Gold.Chemscore.DEInternal.Weighted>
1.6653

> <Gold.Chemscore.Rot.Weighted>
4.4528

> <Gold.Chemscore.Internal.Correction.Weighted>
   9.000000E+99

> <Gold.Protein.RotatedTorsions>
[ 6907 6896 6895 6894 ] final  -25.48 input  -60.11 | X-H torsion
[ 7974 7965 7964 7962 ] final  147.13 input  175.53 | X-H torsion
[ 8008 7997 7996 7995 ] final -178.11 input   59.86 | X-H torsion
[ 10167 10162 10161 10158 ] final  -41.35 input  -65.29 | X-H torsion
[ 10718 10713 10712 10709 ] final -170.71 input   66.30 | X-H torsion
[ 10763 10752 10751 10750 ] final  -28.98 input  -60.55 | X-H torsion
[ 11005 11000 10999 10996 ] final   14.83 input  -57.11 | X-H torsion

> <Gold.Protein.ActiveResidues>
 VAL166  LYS551  ARG553  GLY616  TRP617  ASP618  TYR619  PRO620  LYS621  CYS622 
 ASP623  PHE694  ASN695  SER759  ASP760  ASP761  ALA762  ILE779  LEU786  VAL792 
 PHE793  MET794  SER795  GLU796  ALA797  LYS798  CYS799  TRP800  GLU811  SER814 

> <Gold.Protein.RotatedAtoms>
  151.1745  135.0333  159.8765 H   0  0  0  0  0  0  0  0  0  0  0  0  # atno 6907 bound_to 6896
  152.5447  134.1132  159.8377 H   0  0  0  0  0  0  0  0  0  0  0  0  # atno 6908 bound_to 6896
  151.1242  133.5036  159.2633 H   0  0  0  0  0  0  0  0  0  0  0  0  # atno 6909 bound_to 6896
  144.8616  139.5991  143.5928 H   0  0  0  0  0  0  0  0  0  0  0  0  # atno 7974 bound_to 7965
  156.0149  140.1248  157.0416 H   0  0  0  0  0  0  0  0  0  0  0  0  # atno 8008 bound_to 7997
  154.4289  140.1080  156.5951 H   0  0  0  0  0  0  0  0  0  0  0  0  # atno 8009 bound_to 7997
  155.6027  140.3470  155.4601 H   0  0  0  0  0  0  0  0  0  0  0  0  # atno 8010 bound_to 7997
  140.7005  143.3099  151.3054 H   0  0  0  0  0  0  0  0  0  0  0  0  # atno 10167 bound_to 10162
  156.7301  130.9303  151.3104 H   0  0  0  0  0  0  0  0  0  0  0  0  # atno 10718 bound_to 10713
  153.7572  135.6922  153.4933 H   0  0  0  0  0  0  0  0  0  0  0  0  # atno 10763 bound_to 10752
  153.1963  135.4453  155.0210 H   0  0  0  0  0  0  0  0  0  0  0  0  # atno 10764 bound_to 10752
  154.8166  135.3402  154.7090 H   0  0  0  0  0  0  0  0  0  0  0  0  # atno 10765 bound_to 10752
  140.4651  134.1088  155.7723 H   0  0  0  0  0  0  0  0  0  0  0  0  # atno 11005 bound_to 11000
  146.2864  139.7017  142.9192 LP  0  0  0  0  0  0  0  0  0  0  0  0  # atno 17320 bound_to 7965
  145.4302  141.0414  143.2915 LP  0  0  0  0  0  0  0  0  0  0  0  0  # atno 17321 bound_to 7965
  139.6519  144.0347  152.2632 LP  0  0  0  0  0  0  0  0  0  0  0  0  # atno 17342 bound_to 10162
  139.9886  144.6377  150.7835 LP  0  0  0  0  0  0  0  0  0  0  0  0  # atno 17343 bound_to 10162
  157.6862  130.9188  150.0393 LP  0  0  0  0  0  0  0  0  0  0  0  0  # atno 17370 bound_to 10713
  156.1535  130.3643  149.9404 LP  0  0  0  0  0  0  0  0  0  0  0  0  # atno 17371 bound_to 10713
  141.1603  133.8805  157.1866 LP  0  0  0  0  0  0  0  0  0  0  0  0  # atno 17394 bound_to 11000
  139.9920  135.0061  156.9997 LP  0  0  0  0  0  0  0  0  0  0  0  0  # atno 17395 bound_to 11000

$$$$
