AV-unprocessed.smi:3306|AV-procd|sdf|12703|dock2
  -GOLD-   2272019 33D 1   1.00000     0.00000
 Structure written by MMmdl.
 44 45  0  0  0  0  0  0  0  0  2 V2000
  147.4910  136.8435  154.6370 C   0  0  0  0  0  0  0  0  0  0  0  0
  146.9639  138.2793  154.4165 C   0  0  0  0  0  0  0  0  0  0  0  0
  146.8164  138.5074  152.8955 C   0  0  0  0  0  0  0  0  0  0  0  0
  147.8418  139.2893  155.0457 N   0  0  0  0  0  0  0  0  0  0  0  0
  147.2727  140.6412  154.9247 C   0  0  0  0  0  0  0  0  0  0  0  0
  148.1374  141.6820  155.6566 C   0  0  0  0  0  0  0  0  0  0  0  0
  149.5607  141.7155  155.0911 C   0  0  0  0  0  0  0  0  0  0  0  0
  150.3926  142.6692  155.8581 N   0  3  0  0  0  0  0  0  0  0  0  0
  150.7751  142.2243  157.2144 C   0  0  0  0  0  0  0  0  0  0  0  0
  151.1619  143.4202  158.0950 C   0  0  0  0  0  0  0  0  0  0  0  0
  151.9588  143.0016  159.3160 C   0  0  0  0  0  0  0  0  0  0  0  0
  153.0620  142.1299  159.1939 C   0  0  0  0  0  0  0  0  0  0  0  0
  153.7646  141.7703  160.3605 C   0  0  0  0  0  0  0  0  0  0  0  0
  153.3383  142.2921  161.5969 C   0  0  0  0  0  0  0  0  0  0  0  0
  152.2234  143.1536  161.6126 C   0  0  0  0  0  0  0  0  0  0  0  0
  151.5415  143.5033  160.5001 N   0  0  0  0  0  0  0  0  0  0  0  0
  150.1216  140.2874  155.1397 C   0  0  0  0  0  0  0  0  0  0  0  0
  149.1793  139.2978  154.4317 C   0  0  0  0  0  0  0  0  0  0  0  0
  146.9304  136.1247  154.0387 H   0  0  0  0  0  0  0  0  0  0  0  0
  147.3851  136.5117  155.6691 H   0  0  0  0  0  0  0  0  0  0  0  0
  148.5404  136.7550  154.3534 H   0  0  0  0  0  0  0  0  0  0  0  0
  145.9718  138.3488  154.8658 H   0  0  0  0  0  0  0  0  0  0  0  0
  146.3065  137.6683  152.4211 H   0  0  0  0  0  0  0  0  0  0  0  0
  147.7877  138.6143  152.4111 H   0  0  0  0  0  0  0  0  0  0  0  0
  146.2165  139.3861  152.6612 H   0  0  0  0  0  0  0  0  0  0  0  0
  147.1623  140.9091  153.8727 H   0  0  0  0  0  0  0  0  0  0  0  0
  146.2820  140.6886  155.3721 H   0  0  0  0  0  0  0  0  0  0  0  0
  147.6770  142.6667  155.5661 H   0  0  0  0  0  0  0  0  0  0  0  0
  148.1609  141.4482  156.7225 H   0  0  0  0  0  0  0  0  0  0  0  0
  149.5119  142.0526  154.0543 H   0  0  0  0  0  0  0  0  0  0  0  0
  151.2453  142.8162  155.3372 H   0  0  0  0  0  0  0  0  0  0  0  0
  149.9454  141.6842  157.6708 H   0  0  0  0  0  0  0  0  0  0  0  0
  151.6147  141.5312  157.1448 H   0  0  0  0  0  0  0  0  0  0  0  0
  151.7451  144.1374  157.5159 H   0  0  0  0  0  0  0  0  0  0  0  0
  150.2656  143.9487  158.4238 H   0  0  0  0  0  0  0  0  0  0  0  0
  153.3652  141.7440  158.2318 H   0  0  0  0  0  0  0  0  0  0  0  0
  154.6148  141.1063  160.3081 H   0  0  0  0  0  0  0  0  0  0  0  0
  153.8533  142.0383  162.5118 H   0  0  0  0  0  0  0  0  0  0  0  0
  151.8694  143.5718  162.5432 H   0  0  0  0  0  0  0  0  0  0  0  0
  151.1009  140.2444  154.6629 H   0  0  0  0  0  0  0  0  0  0  0  0
  150.2667  139.9752  156.1752 H   0  0  0  0  0  0  0  0  0  0  0  0
  149.6466  138.3176  154.5029 H   0  0  0  0  0  0  0  0  0  0  0  0
  149.1017  139.5387  153.3702 H   0  0  0  0  0  0  0  0  0  0  0  0
  149.9028  143.5502  155.9239 H   0  0  0  0  0  0  0  0  0  0  0  0
  1  2  1  0  0  0  0
  1 19  1  0  0  0  0
  1 20  1  0  0  0  0
  1 21  1  0  0  0  0
  2  3  1  0  0  0  0
  2  4  1  0  0  0  0
  2 22  1  0  0  0  0
  3 23  1  0  0  0  0
  3 24  1  0  0  0  0
  3 25  1  0  0  0  0
  4 18  1  0  0  0  0
  4  5  1  0  0  0  0
  5  6  1  0  0  0  0
  5 26  1  0  0  0  0
  5 27  1  0  0  0  0
  6  7  1  0  0  0  0
  6 28  1  0  0  0  0
  6 29  1  0  0  0  0
  7  8  1  0  0  0  0
  7 17  1  0  0  0  0
  7 30  1  0  0  0  0
  8  9  1  0  0  0  0
  8 31  1  0  0  0  0
  8 44  1  0  0  0  0
  9 10  1  0  0  0  0
  9 32  1  0  0  0  0
  9 33  1  0  0  0  0
 10 11  1  0  0  0  0
 10 34  1  0  0  0  0
 10 35  1  0  0  0  0
 11 16  1  0  0  0  0
 11 12  2  0  0  0  0
 12 13  1  0  0  0  0
 12 36  1  0  0  0  0
 13 14  2  0  0  0  0
 13 37  1  0  0  0  0
 14 15  1  0  0  0  0
 14 38  1  0  0  0  0
 15 16  2  0  0  0  0
 15 39  1  0  0  0  0
 17 18  1  0  0  0  0
 17 40  1  0  0  0  0
 17 41  1  0  0  0  0
 18 42  1  0  0  0  0
 18 43  1  0  0  0  0
M  CHG  1   8   1
M  END
> <s_m_source_file>
AV-unprocessed.smi

> <i_m_source_file_index>
3306

> <i_lp_mmshare_version>
43012

> <i_f3d_flags>
0

> <s_epik_input>
W0NIM11bQ0hdKFtDSDNdKU4xW0NIMl1bQ0gyXVtDSF0oW0NIMl1bQ0gyXTEpW05IXVtDSDJdW0NIMl1jMltjSF1bY0hdW2NIXVtjSF1uMg==

> <s_epik_cmdline>
J2VwaWtfcHl0aG9uJywgJy1waCcsICc3LjAnLCAnLXRuJywgJzgnLCAnLW1hJywgJzIwMCcsICctbWV0YWxfYmluZGluZycsICctaW1hZScsICc8aW5maWxlLm1hZT4nLCAnLW9tYWUnLCAnPG91dGZpbGUubWFlPic=

> <r_epik_Ionization_Penalty>
1.34673

> <r_epik_Ionization_Penalty_Charging>
0.000531593

> <r_epik_Ionization_Penalty_Neutral>
1.3462

> <r_epik_State_Penalty>
1.43277

> <r_epik_Charging_Adjusted_Penalty>
1.4333

> <i_epik_Tot_Q>
1

> <i_epik_Tot_abs_Q>
1

> <r_epik_Metal_State_Penalty>
1.43418

> <b_epik_Metal_Only>
0

> <s_lp_Force_Field>
OPLS_2005

> <r_lp_Energy>
21.3297

> <b_lp_Chiralities_Consistent>
1

> <s_lp_Variant>
AV-unprocessed.smi:3306-3

> <Gold.Version>
5.8.1

> <Gold.Id.Protein>
6NUR|6NUR_protein|mol2

> <Gold.PLP.Fitness>
41.0876

> <Gold.PLP.PLP>
-35.8068

> <Gold.PLP.part.hbond>
-1.0082

> <Gold.PLP.part.metal>
0.0000

> <Gold.PLP.part.buried>
-1.1474

> <Gold.PLP.part.nonpolar>
-33.4895

> <Gold.PLP.part.repulsive>
0.2970

> <Gold.PLP.ligand.clash>
0.0000

> <Gold.PLP.ligand.torsion>
0.3873

> <Gold.PLP.Chemscore.Hbond>
2.0000

> <Gold.PLP.Chemscore.CHOScore>
0.0000

> <Gold.PLP.Chemscore.Metal>
0.0000

> <Gold.Chemscore.Hbonds>
donor molecule, donor type, donor heavy atom, donor atom, acceptor molecule, acceptor atom, score
      L1  H     8    44       P1  8028  2.00

> <Gold.PLP.Chemscore.Internal.Correction>
0.0553

> <Gold.Rescore>
     Score         DG    S(hbond)    S(metal)    S(lipo)     H(rot)  DE(clash)    DE(int)     intcor
     17.61     -18.52       1.00        0.00     113.84       1.41       0.60       0.31       ----

> <Gold.Chemscore.Fitness>
17.6098

> <Gold.Chemscore.DG>
-18.5241

> <Gold.Chemscore.ZeroCoef>
-5.4800

> <Gold.Chemscore.Hbond>
0.9987

> <Gold.Chemscore.Metal>
0.0000

> <Gold.Chemscore.Lipo>
113.8435

> <Gold.Chemscore.Internal_Hbond>
0.0000

> <Gold.Chemscore.DEClash>
0.6041

> <Gold.Chemscore.DEInternal>
0.3102

> <Gold.Chemscore.Rot>
1.4106

> <Gold.Chemscore.Internal.Correction>
   9.000000E+99

> <Gold.Chemscore.Hbonds>
donor molecule, donor type, donor heavy atom, donor atom, acceptor molecule, acceptor atom, score
      L1  H     8    44       P1  8028  0.97

> <Gold.Chemscore.Hbond.Weighted>
-3.3356

> <Gold.Chemscore.Metal.Weighted>
-0.0000

> <Gold.Chemscore.Lipo.Weighted>
-13.3197

> <Gold.Chemscore.Internal_Hbond.Weighted>
0.0000

> <Gold.Chemscore.DEClash.Weighted>
0.6041

> <Gold.Chemscore.DEInternal.Weighted>
0.3102

> <Gold.Chemscore.Rot.Weighted>
3.6112

> <Gold.Chemscore.Internal.Correction.Weighted>
   9.000000E+99

> <Gold.Protein.RotatedTorsions>
[ 6907 6896 6895 6894 ] final   99.59 input  -60.11 | X-H torsion
[ 7974 7965 7964 7962 ] final -163.00 input  175.53 | X-H torsion
[ 8008 7997 7996 7995 ] final -109.74 input   59.86 | X-H torsion
[ 10167 10162 10161 10158 ] final  -56.91 input  -65.29 | X-H torsion
[ 10718 10713 10712 10709 ] final -134.61 input   66.30 | X-H torsion
[ 10763 10752 10751 10750 ] final   78.77 input  -60.55 | X-H torsion
[ 11005 11000 10999 10996 ] final   38.89 input  -57.11 | X-H torsion

> <Gold.Protein.ActiveResidues>
 VAL166  LYS551  ARG553  GLY616  TRP617  ASP618  TYR619  PRO620  LYS621  CYS622 
 ASP623  PHE694  ASN695  SER759  ASP760  ASP761  ALA762  ILE779  LEU786  VAL792 
 PHE793  MET794  SER795  GLU796  ALA797  LYS798  CYS799  TRP800  GLU811  SER814 

> <Gold.Protein.RotatedAtoms>
  152.5389  134.0405  159.8064 H   0  0  0  0  0  0  0  0  0  0  0  0  # atno 6907 bound_to 6896
  151.0562  133.5575  159.2645 H   0  0  0  0  0  0  0  0  0  0  0  0  # atno 6908 bound_to 6896
  151.2491  135.0623  159.9108 H   0  0  0  0  0  0  0  0  0  0  0  0  # atno 6909 bound_to 6896
  144.7339  140.3171  143.6177 H   0  0  0  0  0  0  0  0  0  0  0  0  # atno 7974 bound_to 7965
  154.9640  140.0398  157.2203 H   0  0  0  0  0  0  0  0  0  0  0  0  # atno 8008 bound_to 7997
  154.7863  140.2827  155.6003 H   0  0  0  0  0  0  0  0  0  0  0  0  # atno 8009 bound_to 7997
  156.2943  140.2582  156.2700 H   0  0  0  0  0  0  0  0  0  0  0  0  # atno 8010 bound_to 7997
  140.6289  143.2450  151.5292 H   0  0  0  0  0  0  0  0  0  0  0  0  # atno 10167 bound_to 10162
  156.2573  130.7189  151.1110 H   0  0  0  0  0  0  0  0  0  0  0  0  # atno 10718 bound_to 10713
  153.0900  135.4864  154.8672 H   0  0  0  0  0  0  0  0  0  0  0  0  # atno 10763 bound_to 10752
  154.7258  135.3049  154.8976 H   0  0  0  0  0  0  0  0  0  0  0  0  # atno 10764 bound_to 10752
  153.9626  135.6810  153.4798 H   0  0  0  0  0  0  0  0  0  0  0  0  # atno 10765 bound_to 10752
  140.2082  134.3787  155.8062 H   0  0  0  0  0  0  0  0  0  0  0  0  # atno 11005 bound_to 11000
  145.7606  139.1823  143.2269 LP  0  0  0  0  0  0  0  0  0  0  0  0  # atno 17320 bound_to 7965
  146.0989  140.7567  142.9558 LP  0  0  0  0  0  0  0  0  0  0  0  0  # atno 17321 bound_to 7965
  139.5506  144.2406  152.1523 LP  0  0  0  0  0  0  0  0  0  0  0  0  # atno 17342 bound_to 10162
  140.1645  144.4994  150.6614 LP  0  0  0  0  0  0  0  0  0  0  0  0  # atno 17343 bound_to 10162
  157.7237  131.0664  150.6025 LP  0  0  0  0  0  0  0  0  0  0  0  0  # atno 17370 bound_to 10713
  156.6110  130.4380  149.5859 LP  0  0  0  0  0  0  0  0  0  0  0  0  # atno 17371 bound_to 10713
  141.2226  133.7129  156.8373 LP  0  0  0  0  0  0  0  0  0  0  0  0  # atno 17394 bound_to 11000
  140.1980  134.8918  157.3136 LP  0  0  0  0  0  0  0  0  0  0  0  0  # atno 17395 bound_to 11000

$$$$
