AV-unprocessed.smi:2562|AV-procd|sdf|10046|dock2
  -GOLD-   2272014 93D 1   1.00000     0.00000
 Structure written by MMmdl.
 30 31  0  0  0  0  0  0  0  0  1 V2000
  151.3774  144.9371  158.6100 C   0  0  0  0  0  0  0  0  0  0  0  0
  152.2628  144.3329  159.7050 C   0  0  0  0  0  0  0  0  0  0  0  0
  151.8112  142.9243  160.1170 C   0  0  0  0  0  0  0  0  0  0  0  0
  152.0702  141.9052  159.0563 C   0  0  0  0  0  0  0  0  0  0  0  0
  152.8947  140.8726  159.2433 N   0  0  0  0  0  0  0  0  0  0  0  0
  152.9390  140.1282  158.1186 N   0  0  0  0  0  0  0  0  0  0  0  0
  152.1286  140.8053  157.3033 C   0  0  0  0  0  0  0  0  0  0  0  0
  151.8203  140.3291  155.9171 C   0  0  2  0  0  0  0  0  0  0  0  0
  150.3196  140.4432  155.5848 C   0  0  0  0  0  0  0  0  0  0  0  0
  150.0496  139.8830  154.2614 N   0  0  0  0  0  0  0  0  0  0  0  0
  150.5367  138.5080  154.1599 C   0  0  0  0  0  0  0  0  0  0  0  0
  152.0296  138.4390  154.5292 C   0  0  0  0  0  0  0  0  0  0  0  0
  152.2228  138.9630  155.8388 O   0  0  0  0  0  0  0  0  0  0  0  0
  151.5421  141.9196  157.8374 N   0  0  0  0  0  0  0  0  0  0  0  0
  153.4148  140.6426  160.0781 H   0  0  0  0  0  0  0  0  0  0  0  0
  151.7220  145.9352  158.3387 H   0  0  0  0  0  0  0  0  0  0  0  0
  150.3423  145.0209  158.9423 H   0  0  0  0  0  0  0  0  0  0  0  0
  151.3925  144.3236  157.7088 H   0  0  0  0  0  0  0  0  0  0  0  0
  153.2945  144.2981  159.3528 H   0  0  0  0  0  0  0  0  0  0  0  0
  152.2563  144.9892  160.5761 H   0  0  0  0  0  0  0  0  0  0  0  0
  152.3200  142.6190  161.0324 H   0  0  0  0  0  0  0  0  0  0  0  0
  150.7437  142.9253  160.3409 H   0  0  0  0  0  0  0  0  0  0  0  0
  152.4074  140.9194  155.2108 H   0  0  0  0  0  0  0  0  0  0  0  0
  149.7332  139.9129  156.3362 H   0  0  0  0  0  0  0  0  0  0  0  0
  150.0055  141.4866  155.6207 H   0  0  0  0  0  0  0  0  0  0  0  0
  149.0509  139.9045  154.0807 H   0  0  0  0  0  0  0  0  0  0  0  0
  149.9652  137.8616  154.8268 H   0  0  0  0  0  0  0  0  0  0  0  0
  150.3828  138.1297  153.1491 H   0  0  0  0  0  0  0  0  0  0  0  0
  152.3728  137.4046  154.5099 H   0  0  0  0  0  0  0  0  0  0  0  0
  152.6373  138.9887  153.8084 H   0  0  0  0  0  0  0  0  0  0  0  0
  1  2  1  0  0  0  0
  1 16  1  0  0  0  0
  1 17  1  0  0  0  0
  1 18  1  0  0  0  0
  2  3  1  0  0  0  0
  2 19  1  0  0  0  0
  2 20  1  0  0  0  0
  3 21  1  0  0  0  0
  3 22  1  0  0  0  0
  3  4  1  0  0  0  0
  4 14  2  0  0  0  0
  4  5  1  0  0  0  0
  5  6  1  0  0  0  0
  5 15  1  0  0  0  0
  6  7  2  0  0  0  0
  7 14  1  0  0  0  0
  7  8  1  0  0  0  0
  8 13  1  0  0  0  0
  8  9  1  0  0  0  0
  8 23  1  0  0  0  0
  9 10  1  0  0  0  0
  9 24  1  0  0  0  0
  9 25  1  0  0  0  0
 10 11  1  0  0  0  0
 10 26  1  0  0  0  0
 11 12  1  0  0  0  0
 11 27  1  0  0  0  0
 11 28  1  0  0  0  0
 12 13  1  0  0  0  0
 12 29  1  0  0  0  0
 12 30  1  0  0  0  0
M  END
> <s_m_source_file>
AV-unprocessed.smi

> <i_m_source_file_index>
2562

> <i_lp_mmshare_version>
43012

> <i_f3d_flags>
0

> <s_epik_input>
W0NIM11bQ0gyXVtDSDJdYzFuW25IXWMobjEpW0NAQEhdMltDSDJdW05IXVtDSDJdW0NIMl1PMg==

> <s_epik_cmdline>
J2VwaWtfcHl0aG9uJywgJy1waCcsICc3LjAnLCAnLXRuJywgJzgnLCAnLW1hJywgJzIwMCcsICctbWV0YWxfYmluZGluZycsICctaW1hZScsICc8aW5maWxlLm1hZT4nLCAnLW9tYWUnLCAnPG91dGZpbGUubWFlPic=

> <r_epik_Ionization_Penalty>
1.10136

> <r_epik_Ionization_Penalty_Charging>
0

> <r_epik_Ionization_Penalty_Neutral>
1.10136

> <r_epik_State_Penalty>
1.43987

> <r_epik_Charging_Adjusted_Penalty>
1.43987

> <i_epik_Tot_Q>
0

> <i_epik_Tot_abs_Q>
0

> <r_epik_Metal_State_Penalty>
1.55976

> <b_epik_Metal_Only>
0

> <s_lp_Force_Field>
OPLS_2005

> <r_lp_Energy>
11.7633

> <b_lp_Chiralities_Consistent>
1

> <s_lp_Variant>
AV-unprocessed.smi:2562-5

> <Gold.Version>
5.8.1

> <Gold.Id.Protein>
6NUR|6NUR_protein|mol2

> <Gold.PLP.Fitness>
33.4129

> <Gold.PLP.PLP>
-29.7671

> <Gold.PLP.part.hbond>
-2.9217

> <Gold.PLP.part.metal>
0.0000

> <Gold.PLP.part.buried>
-4.2634

> <Gold.PLP.part.nonpolar>
-21.5102

> <Gold.PLP.part.repulsive>
0.1367

> <Gold.PLP.ligand.clash>
0.0000

> <Gold.PLP.ligand.torsion>
0.4900

> <Gold.PLP.Chemscore.Hbond>
1.5368

> <Gold.PLP.Chemscore.CHOScore>
0.0000

> <Gold.PLP.Chemscore.Metal>
0.0000

> <Gold.Chemscore.Hbonds>
donor molecule, donor type, donor heavy atom, donor atom, acceptor molecule, acceptor atom, score
      P1  H  7989  7998       L1    10  0.55
      P1  H  7997  8008       L1     6  0.98

> <Gold.PLP.Chemscore.Internal.Correction>
0.0156

> <Gold.Rescore>
     Score         DG    S(hbond)    S(metal)    S(lipo)     H(rot)  DE(clash)    DE(int)     intcor
     10.84     -11.28       0.58        0.00      65.31       1.48       0.12       0.32       ----

> <Gold.Chemscore.Fitness>
10.8400

> <Gold.Chemscore.DG>
-11.2808

> <Gold.Chemscore.ZeroCoef>
-5.4800

> <Gold.Chemscore.Hbond>
0.5809

> <Gold.Chemscore.Metal>
0.0000

> <Gold.Chemscore.Lipo>
65.3107

> <Gold.Chemscore.Internal_Hbond>
0.0000

> <Gold.Chemscore.DEClash>
0.1208

> <Gold.Chemscore.DEInternal>
0.3200

> <Gold.Chemscore.Rot>
1.4769

> <Gold.Chemscore.Internal.Correction>
   9.000000E+99

> <Gold.Chemscore.Hbonds>
donor molecule, donor type, donor heavy atom, donor atom, acceptor molecule, acceptor atom, score
      P1  H  7989  7998       L1    10  0.01
      P1  H  7997  8008       L1     6  0.31

> <Gold.Chemscore.Hbond.Weighted>
-1.9402

> <Gold.Chemscore.Metal.Weighted>
-0.0000

> <Gold.Chemscore.Lipo.Weighted>
-7.6414

> <Gold.Chemscore.Internal_Hbond.Weighted>
0.0000

> <Gold.Chemscore.DEClash.Weighted>
0.1208

> <Gold.Chemscore.DEInternal.Weighted>
0.3200

> <Gold.Chemscore.Rot.Weighted>
3.7808

> <Gold.Chemscore.Internal.Correction.Weighted>
   9.000000E+99

> <Gold.Protein.RotatedTorsions>
[ 6907 6896 6895 6894 ] final  -56.30 input  -60.11 | X-H torsion
[ 7974 7965 7964 7962 ] final -144.89 input  175.53 | X-H torsion
[ 8008 7997 7996 7995 ] final  -88.03 input   59.86 | X-H torsion
[ 10167 10162 10161 10158 ] final  -28.34 input  -65.29 | X-H torsion
[ 10718 10713 10712 10709 ] final  -59.10 input   66.30 | X-H torsion
[ 10763 10752 10751 10750 ] final    7.00 input  -60.55 | X-H torsion
[ 11005 11000 10999 10996 ] final -105.97 input  -57.11 | X-H torsion

> <Gold.Protein.ActiveResidues>
 VAL166  LYS551  ARG553  GLY616  TRP617  ASP618  TYR619  PRO620  LYS621  CYS622 
 ASP623  PHE694  ASN695  SER759  ASP760  ASP761  ALA762  ILE779  LEU786  VAL792 
 PHE793  MET794  SER795  GLU796  ALA797  LYS798  CYS799  TRP800  GLU811  SER814 

> <Gold.Protein.RotatedAtoms>
  150.8179  134.7371  159.6745 H   0  0  0  0  0  0  0  0  0  0  0  0  # atno 6907 bound_to 6896
  152.4296  134.5799  159.9954 H   0  0  0  0  0  0  0  0  0  0  0  0  # atno 6908 bound_to 6896
  151.5991  133.3321  159.3079 H   0  0  0  0  0  0  0  0  0  0  0  0  # atno 6909 bound_to 6896
  144.8265  140.5652  143.5543 H   0  0  0  0  0  0  0  0  0  0  0  0  # atno 7974 bound_to 7965
  154.6701  140.0558  157.0156 H   0  0  0  0  0  0  0  0  0  0  0  0  # atno 8008 bound_to 7997
  155.1101  140.3237  155.4505 H   0  0  0  0  0  0  0  0  0  0  0  0  # atno 8009 bound_to 7997
  156.2654  140.2016  156.6226 H   0  0  0  0  0  0  0  0  0  0  0  0  # atno 8010 bound_to 7997
  140.7270  143.4018  151.1252 H   0  0  0  0  0  0  0  0  0  0  0  0  # atno 10167 bound_to 10162
  156.1087  130.4177  150.0668 H   0  0  0  0  0  0  0  0  0  0  0  0  # atno 10718 bound_to 10713
  153.2413  135.6903  153.7780 H   0  0  0  0  0  0  0  0  0  0  0  0  # atno 10763 bound_to 10752
  153.6909  135.3313  155.3202 H   0  0  0  0  0  0  0  0  0  0  0  0  # atno 10764 bound_to 10752
  154.8356  135.4545  154.1335 H   0  0  0  0  0  0  0  0  0  0  0  0  # atno 10765 bound_to 10752
  141.1028  133.8853  157.1799 H   0  0  0  0  0  0  0  0  0  0  0  0  # atno 11005 bound_to 11000
  145.4988  139.1484  143.3669 LP  0  0  0  0  0  0  0  0  0  0  0  0  # atno 17320 bound_to 7965
  146.2570  140.5128  142.8869 LP  0  0  0  0  0  0  0  0  0  0  0  0  # atno 17321 bound_to 7965
  139.7639  143.8594  152.3106 LP  0  0  0  0  0  0  0  0  0  0  0  0  # atno 17342 bound_to 10162
  139.8489  144.7174  150.9238 LP  0  0  0  0  0  0  0  0  0  0  0  0  # atno 17343 bound_to 10162
  156.8637  130.9500  151.3615 LP  0  0  0  0  0  0  0  0  0  0  0  0  # atno 17370 bound_to 10713
  157.6266  130.8696  149.9200 LP  0  0  0  0  0  0  0  0  0  0  0  0  # atno 17371 bound_to 10713
  139.9885  135.0073  156.9920 LP  0  0  0  0  0  0  0  0  0  0  0  0  # atno 17394 bound_to 11000
  140.4980  134.1126  155.7245 LP  0  0  0  0  0  0  0  0  0  0  0  0  # atno 17395 bound_to 11000

$$$$
