AV-unprocessed.smi:1232|AV-procd|sdf|5169|dock1
  -GOLD-   22720 4243D 1   1.00000     0.00000
 Structure written by MMmdl.
 53 54  0  0  0  0  0  0  0  0  1 V2000
  146.0250  134.0830  153.2186 C   0  0  0  0  0  0  0  0  0  0  0  0
  146.8848  134.3764  154.4430 C   0  0  0  0  0  0  0  0  0  0  0  0
  146.6045  133.8722  155.5299 O   0  0  0  0  0  0  0  0  0  0  0  0
  147.9334  135.1924  154.2512 N   0  0  0  0  0  0  0  0  0  0  0  0
  148.8831  135.6142  155.2828 C   0  0  2  0  0  0  0  0  0  0  0  0
  148.9207  137.1539  155.3217 C   0  0  0  0  0  0  0  0  0  0  0  0
  148.6577  137.7601  156.3617 O   0  0  0  0  0  0  0  0  0  0  0  0
  149.2297  137.7699  154.1701 N   0  0  0  0  0  0  0  0  0  0  0  0
  149.2790  139.2160  153.9843 C   0  0  0  0  0  0  0  0  0  0  0  0
  149.9509  139.9547  155.1318 C   0  0  0  0  0  0  0  0  0  0  0  0
  149.3195  141.0558  155.7421 C   0  0  0  0  0  0  0  0  0  0  0  0
  149.9730  141.7194  156.7980 C   0  0  0  0  0  0  0  0  0  0  0  0
  151.2437  141.2614  157.2211 C   0  0  0  0  0  0  0  0  0  0  0  0
  151.9203  141.9165  158.2726 N   0  0  0  0  0  0  0  0  0  0  0  0
  152.4390  141.1002  159.3680 C   0  0  0  0  0  0  0  0  0  0  0  0
  153.3845  141.9303  160.2509 C   0  0  0  0  0  0  0  0  0  0  0  0
  152.7120  143.1007  160.7039 O   0  0  0  0  0  0  0  0  0  0  0  0
  152.3112  143.9414  159.6253 C   0  0  2  0  0  0  0  0  0  0  0  0
  151.6822  145.2093  160.2127 C   0  0  0  0  0  0  0  0  0  0  0  0
  151.3280  143.1745  158.7196 C   0  0  0  0  0  0  0  0  0  0  0  0
  151.8463  140.1984  156.6330 N   0  0  0  0  0  0  0  0  0  0  0  0
  151.2139  139.5641  155.6241 C   0  0  0  0  0  0  0  0  0  0  0  0
  150.2905  135.0483  154.9280 C   0  0  0  0  0  0  0  0  0  0  0  0
  150.2392  133.5354  154.6371 C   0  0  0  0  0  0  0  0  0  0  0  0
  151.3495  135.3174  156.0175 C   0  0  0  0  0  0  0  0  0  0  0  0
  145.8659  134.9876  152.6308 H   0  0  0  0  0  0  0  0  0  0  0  0
  145.0498  133.6959  153.5159 H   0  0  0  0  0  0  0  0  0  0  0  0
  146.5113  133.3402  152.5859 H   0  0  0  0  0  0  0  0  0  0  0  0
  148.0804  135.5627  153.3236 H   0  0  0  0  0  0  0  0  0  0  0  0
  148.5702  135.2244  156.2539 H   0  0  0  0  0  0  0  0  0  0  0  0
  149.4369  137.1968  153.3648 H   0  0  0  0  0  0  0  0  0  0  0  0
  149.7774  139.4515  153.0422 H   0  0  0  0  0  0  0  0  0  0  0  0
  148.2567  139.5831  153.8927 H   0  0  0  0  0  0  0  0  0  0  0  0
  148.3521  141.3959  155.4028 H   0  0  0  0  0  0  0  0  0  0  0  0
  149.5035  142.5775  157.2555 H   0  0  0  0  0  0  0  0  0  0  0  0
  151.6065  140.7236  159.9640 H   0  0  0  0  0  0  0  0  0  0  0  0
  152.9772  140.2369  158.9744 H   0  0  0  0  0  0  0  0  0  0  0  0
  153.7012  141.3453  161.1144 H   0  0  0  0  0  0  0  0  0  0  0  0
  154.2879  142.2040  159.7034 H   0  0  0  0  0  0  0  0  0  0  0  0
  153.1931  144.2271  159.0489 H   0  0  0  0  0  0  0  0  0  0  0  0
  151.3679  145.8931  159.4239 H   0  0  0  0  0  0  0  0  0  0  0  0
  152.3928  145.7387  160.8478 H   0  0  0  0  0  0  0  0  0  0  0  0
  150.8071  144.9715  160.8182 H   0  0  0  0  0  0  0  0  0  0  0  0
  151.0514  143.8088  157.8785 H   0  0  0  0  0  0  0  0  0  0  0  0
  150.4092  142.9534  159.2646 H   0  0  0  0  0  0  0  0  0  0  0  0
  151.7371  138.7209  155.1978 H   0  0  0  0  0  0  0  0  0  0  0  0
  150.6393  135.5361  154.0159 H   0  0  0  0  0  0  0  0  0  0  0  0
  149.8716  132.9803  155.5010 H   0  0  0  0  0  0  0  0  0  0  0  0
  151.2288  133.1486  154.3925 H   0  0  0  0  0  0  0  0  0  0  0  0
  149.5910  133.3031  153.7921 H   0  0  0  0  0  0  0  0  0  0  0  0
  151.0303  134.9282  156.9849 H   0  0  0  0  0  0  0  0  0  0  0  0
  151.5549  136.3811  156.1348 H   0  0  0  0  0  0  0  0  0  0  0  0
  152.2992  134.8437  155.7676 H   0  0  0  0  0  0  0  0  0  0  0  0
  1  2  1  0  0  0  0
  1 26  1  0  0  0  0
  1 27  1  0  0  0  0
  1 28  1  0  0  0  0
  2  3  2  0  0  0  0
  2  4  1  0  0  0  0
  4  5  1  0  0  0  0
  4 29  1  0  0  0  0
  5  6  1  0  0  0  0
  5 23  1  0  0  0  0
  5 30  1  0  0  0  0
  6  7  2  0  0  0  0
  6  8  1  0  0  0  0
  8  9  1  0  0  0  0
  8 31  1  0  0  0  0
  9 10  1  0  0  0  0
  9 32  1  0  0  0  0
  9 33  1  0  0  0  0
 10 22  1  0  0  0  0
 10 11  2  0  0  0  0
 11 12  1  0  0  0  0
 11 34  1  0  0  0  0
 12 13  2  0  0  0  0
 12 35  1  0  0  0  0
 13 14  1  0  0  0  0
 13 21  1  0  0  0  0
 14 20  1  0  0  0  0
 14 15  1  0  0  0  0
 15 16  1  0  0  0  0
 15 36  1  0  0  0  0
 15 37  1  0  0  0  0
 16 17  1  0  0  0  0
 16 38  1  0  0  0  0
 16 39  1  0  0  0  0
 17 18  1  0  0  0  0
 18 19  1  0  0  0  0
 18 20  1  0  0  0  0
 18 40  1  0  0  0  0
 19 41  1  0  0  0  0
 19 42  1  0  0  0  0
 19 43  1  0  0  0  0
 20 44  1  0  0  0  0
 20 45  1  0  0  0  0
 21 22  2  0  0  0  0
 22 46  1  0  0  0  0
 23 24  1  0  0  0  0
 23 25  1  0  0  0  0
 23 47  1  0  0  0  0
 24 48  1  0  0  0  0
 24 49  1  0  0  0  0
 24 50  1  0  0  0  0
 25 51  1  0  0  0  0
 25 52  1  0  0  0  0
 25 53  1  0  0  0  0
M  END
> <s_m_source_file>
AV-unprocessed.smi

> <i_m_source_file_index>
1232

> <i_lp_mmshare_version>
43012

> <i_f3d_flags>
0

> <s_epik_input>
W0NIM11DKD1PKVtOSF1bQ0BASF0oW0NIXShbQ0gzXSlbQ0gzXSlDKD1PKVtOSF1bQ0gyXWMxW2NIXVtjSF1jKG5bY0hdMSlOMltDSDJdW0NIMl1PW0NAQEhdKFtDSDNdKVtDSDJdMg==

> <s_epik_cmdline>
J2VwaWtfcHl0aG9uJywgJy1waCcsICc3LjAnLCAnLXRuJywgJzgnLCAnLW1hJywgJzIwMCcsICctbWV0YWxfYmluZGluZycsICctaW1hZScsICc8aW5maWxlLm1hZT4nLCAnLW9tYWUnLCAnPG91dGZpbGUubWFlPic=

> <r_lp_tautomer_probability>
1

> <r_epik_Ionization_Penalty>
0.00557618

> <r_epik_Ionization_Penalty_Charging>
0

> <r_epik_Ionization_Penalty_Neutral>
0.00557618

> <r_epik_State_Penalty>
0.00408363

> <r_epik_Charging_Adjusted_Penalty>
0.00408363

> <i_epik_Tot_Q>
0

> <i_epik_Tot_abs_Q>
0

> <r_epik_Metal_State_Penalty>
-0

> <b_epik_Metal_Only>
0

> <s_lp_Force_Field>
OPLS_2005

> <r_lp_Energy>
16.2808

> <b_lp_Chiralities_Consistent>
1

> <s_lp_Variant>
AV-unprocessed.smi:1232-3

> <Gold.Version>
5.8.1

> <Gold.Id.Protein>
6NUR|6NUR_protein|mol2

> <Gold.PLP.Fitness>
47.6158

> <Gold.PLP.PLP>
-42.1831

> <Gold.PLP.part.hbond>
-2.0000

> <Gold.PLP.part.metal>
0.0000

> <Gold.PLP.part.buried>
-3.4257

> <Gold.PLP.part.nonpolar>
-37.7307

> <Gold.PLP.part.repulsive>
0.1086

> <Gold.PLP.ligand.clash>
0.0000

> <Gold.PLP.ligand.torsion>
0.4656

> <Gold.PLP.Chemscore.Hbond>
1.9600

> <Gold.PLP.Chemscore.CHOScore>
0.0000

> <Gold.PLP.Chemscore.Metal>
0.0000

> <Gold.Chemscore.Hbonds>
donor molecule, donor type, donor heavy atom, donor atom, acceptor molecule, acceptor atom, score
      L1  H     4    29       P1  7948  1.00
      L1  H     8    31       P1  7948  1.00

> <Gold.PLP.Chemscore.Internal.Correction>
0.4839

> <Gold.Rescore>
     Score         DG    S(hbond)    S(metal)    S(lipo)     H(rot)  DE(clash)    DE(int)     intcor
     15.94     -19.32       1.99        0.00     108.06       2.13       1.32       2.06       ----

> <Gold.Chemscore.Fitness>
15.9418

> <Gold.Chemscore.DG>
-19.3161

> <Gold.Chemscore.ZeroCoef>
-5.4800

> <Gold.Chemscore.Hbond>
1.9910

> <Gold.Chemscore.Metal>
0.0000

> <Gold.Chemscore.Lipo>
108.0630

> <Gold.Chemscore.Internal_Hbond>
0.0000

> <Gold.Chemscore.DEClash>
1.3171

> <Gold.Chemscore.DEInternal>
2.0572

> <Gold.Chemscore.Rot>
2.1317

> <Gold.Chemscore.Internal.Correction>
   9.000000E+99

> <Gold.Chemscore.Hbonds>
donor molecule, donor type, donor heavy atom, donor atom, acceptor molecule, acceptor atom, score
      L1  H     4    29       P1  7948  0.99
      L1  H     8    31       P1  7948  0.90

> <Gold.Chemscore.Hbond.Weighted>
-6.6499

> <Gold.Chemscore.Metal.Weighted>
-0.0000

> <Gold.Chemscore.Lipo.Weighted>
-12.6434

> <Gold.Chemscore.Internal_Hbond.Weighted>
0.0000

> <Gold.Chemscore.DEClash.Weighted>
1.3171

> <Gold.Chemscore.DEInternal.Weighted>
2.0572

> <Gold.Chemscore.Rot.Weighted>
5.4572

> <Gold.Chemscore.Internal.Correction.Weighted>
   9.000000E+99

> <Gold.Protein.RotatedTorsions>
[ 6907 6896 6895 6894 ] final   33.33 input  -60.11 | X-H torsion
[ 7974 7965 7964 7962 ] final -126.42 input  175.53 | X-H torsion
[ 8008 7997 7996 7995 ] final   20.77 input   59.86 | X-H torsion
[ 10167 10162 10161 10158 ] final  110.94 input  -65.29 | X-H torsion
[ 10718 10713 10712 10709 ] final  164.08 input   66.30 | X-H torsion
[ 10763 10752 10751 10750 ] final -109.47 input  -60.55 | X-H torsion
[ 11005 11000 10999 10996 ] final  -67.58 input  -57.11 | X-H torsion

> <Gold.Protein.ActiveResidues>
 VAL166  LYS551  ARG553  GLY616  TRP617  ASP618  TYR619  PRO620  LYS621  CYS622 
 ASP623  PHE694  ASN695  SER759  ASP760  ASP761  ALA762  ILE779  LEU786  VAL792 
 PHE793  MET794  SER795  GLU796  ALA797  LYS798  CYS799  TRP800  GLU811  SER814 

> <Gold.Protein.RotatedAtoms>
  152.0870  134.9433  160.0572 H   0  0  0  0  0  0  0  0  0  0  0  0  # atno 6907 bound_to 6896
  152.0699  133.4097  159.4463 H   0  0  0  0  0  0  0  0  0  0  0  0  # atno 6908 bound_to 6896
  150.6836  134.3023  159.4755 H   0  0  0  0  0  0  0  0  0  0  0  0  # atno 6909 bound_to 6896
  144.9874  140.7700  143.4575 H   0  0  0  0  0  0  0  0  0  0  0  0  # atno 7974 bound_to 7965
  154.9406  140.3052  155.5122 H   0  0  0  0  0  0  0  0  0  0  0  0  # atno 8008 bound_to 7997
  156.2996  140.2337  156.4412 H   0  0  0  0  0  0  0  0  0  0  0  0  # atno 8009 bound_to 7997
  154.8149  140.0426  157.1358 H   0  0  0  0  0  0  0  0  0  0  0  0  # atno 8010 bound_to 7997
  139.6650  144.7128  151.1794 H   0  0  0  0  0  0  0  0  0  0  0  0  # atno 10167 bound_to 10162
  157.0995  131.0439  151.2504 H   0  0  0  0  0  0  0  0  0  0  0  0  # atno 10718 bound_to 10713
  154.8195  135.4599  154.0738 H   0  0  0  0  0  0  0  0  0  0  0  0  # atno 10763 bound_to 10752
  153.2103  135.6881  153.8128 H   0  0  0  0  0  0  0  0  0  0  0  0  # atno 10764 bound_to 10752
  153.7581  135.3288  155.3309 H   0  0  0  0  0  0  0  0  0  0  0  0  # atno 10765 bound_to 10752
  141.1511  133.6722  156.6315 H   0  0  0  0  0  0  0  0  0  0  0  0  # atno 11005 bound_to 11000
  145.2333  139.2105  143.5031 LP  0  0  0  0  0  0  0  0  0  0  0  0  # atno 17320 bound_to 7965
  146.3423  140.2215  142.8591 LP  0  0  0  0  0  0  0  0  0  0  0  0  # atno 17321 bound_to 7965
  140.7595  143.5934  150.8773 LP  0  0  0  0  0  0  0  0  0  0  0  0  # atno 17342 bound_to 10162
  139.9595  143.6180  152.3006 LP  0  0  0  0  0  0  0  0  0  0  0  0  # atno 17343 bound_to 10162
  157.4653  130.7677  149.7273 LP  0  0  0  0  0  0  0  0  0  0  0  0  # atno 17370 bound_to 10713
  155.9877  130.3964  150.3151 LP  0  0  0  0  0  0  0  0  0  0  0  0  # atno 17371 bound_to 10713
  140.3463  134.7806  157.4434 LP  0  0  0  0  0  0  0  0  0  0  0  0  # atno 17394 bound_to 11000
  140.0897  134.5618  155.8457 LP  0  0  0  0  0  0  0  0  0  0  0  0  # atno 17395 bound_to 11000

$$$$
