AV-unprocessed.smi:2789|AV-procd|sdf|10763|dock4
  -GOLD-   2272015193D 1   1.00000     0.00000
 Structure written by MMmdl.
 35 36  0  0  0  0  0  0  0  0  1 V2000
  152.7987  142.5877  161.9536 C   0  0  0  0  0  0  0  0  0  0  0  0
  152.0383  142.2125  160.8154 O   0  0  0  0  0  0  0  0  0  0  0  0
  151.8132  143.2833  159.9060 C   0  0  1  0  0  0  0  0  0  0  0  0
  153.1360  143.8509  159.3952 C   0  0  0  0  0  0  0  0  0  0  0  0
  152.7355  144.6279  158.1434 C   0  0  0  0  0  0  0  0  0  0  0  0
  151.5934  143.8184  157.5168 C   0  0  0  0  0  0  0  0  0  0  0  0
  151.0423  142.8966  158.6269 C   0  0  1  0  0  0  0  0  0  0  0  0
  151.2496  141.4881  158.2935 N   0  0  0  0  0  0  0  0  0  0  0  0
  151.0689  140.9474  157.0809 C   0  0  0  0  0  0  0  0  0  0  0  0
  150.7250  141.5980  156.0939 O   0  0  0  0  0  0  0  0  0  0  0  0
  151.3082  139.6249  157.1007 N   0  0  0  0  0  0  0  0  0  0  0  0
  151.2343  138.7326  156.0776 C   0  0  0  0  0  0  0  0  0  0  0  0
  150.9349  138.9557  154.7612 C   0  0  0  0  0  0  0  0  0  0  0  0
  151.0224  137.6496  154.2000 C   0  0  0  0  0  0  0  0  0  0  0  0
  151.3467  136.7211  155.0912 N   0  0  0  0  0  0  0  0  0  0  0  0
  151.4794  137.3888  156.2582 N   0  0  0  0  0  0  0  0  0  0  0  0
  151.8361  136.6730  157.4677 C   0  0  0  0  0  0  0  0  0  0  0  0
  152.9270  141.7246  162.6065 H   0  0  0  0  0  0  0  0  0  0  0  0
  152.3036  143.3707  162.5287 H   0  0  0  0  0  0  0  0  0  0  0  0
  153.7898  142.9403  161.6659 H   0  0  0  0  0  0  0  0  0  0  0  0
  151.2836  144.0926  160.4132 H   0  0  0  0  0  0  0  0  0  0  0  0
  153.6407  144.4738  160.1341 H   0  0  0  0  0  0  0  0  0  0  0  0
  153.8111  143.0381  159.1231 H   0  0  0  0  0  0  0  0  0  0  0  0
  152.3694  145.6146  158.4299 H   0  0  0  0  0  0  0  0  0  0  0  0
  153.5707  144.7732  157.4579 H   0  0  0  0  0  0  0  0  0  0  0  0
  150.8180  144.4803  157.1297 H   0  0  0  0  0  0  0  0  0  0  0  0
  151.9673  143.2413  156.6695 H   0  0  0  0  0  0  0  0  0  0  0  0
  149.9762  143.0723  158.7823 H   0  0  0  0  0  0  0  0  0  0  0  0
  151.5298  140.8820  159.0510 H   0  0  0  0  0  0  0  0  0  0  0  0
  151.5695  139.2344  157.9940 H   0  0  0  0  0  0  0  0  0  0  0  0
  150.6938  139.8833  154.2643 H   0  0  0  0  0  0  0  0  0  0  0  0
  150.8624  137.3494  153.1751 H   0  0  0  0  0  0  0  0  0  0  0  0
  152.8035  137.0232  157.8280 H   0  0  0  0  0  0  0  0  0  0  0  0
  151.8963  135.6007  157.2767 H   0  0  0  0  0  0  0  0  0  0  0  0
  151.0831  136.8525  158.2354 H   0  0  0  0  0  0  0  0  0  0  0  0
  1  2  1  0  0  0  0
  1 18  1  0  0  0  0
  1 19  1  0  0  0  0
  1 20  1  0  0  0  0
  2  3  1  0  0  0  0
  3  7  1  0  0  0  0
  3  4  1  0  0  0  0
  3 21  1  0  0  0  0
  4  5  1  0  0  0  0
  4 22  1  0  0  0  0
  4 23  1  0  0  0  0
  5  6  1  0  0  0  0
  5 24  1  0  0  0  0
  5 25  1  0  0  0  0
  6  7  1  0  0  0  0
  6 26  1  0  0  0  0
  6 27  1  0  0  0  0
  7  8  1  0  0  0  0
  7 28  1  0  0  0  0
  8  9  1  0  0  0  0
  8 29  1  0  0  0  0
  9 10  2  0  0  0  0
  9 11  1  0  0  0  0
 11 12  1  0  0  0  0
 11 30  1  0  0  0  0
 12 16  1  0  0  0  0
 12 13  2  0  0  0  0
 13 14  1  0  0  0  0
 13 31  1  0  0  0  0
 14 15  2  0  0  0  0
 14 32  1  0  0  0  0
 15 16  1  0  0  0  0
 16 17  1  0  0  0  0
 17 33  1  0  0  0  0
 17 34  1  0  0  0  0
 17 35  1  0  0  0  0
M  END
> <s_m_source_file>
AV-unprocessed.smi

> <i_m_source_file_index>
2789

> <i_lp_mmshare_version>
43012

> <i_f3d_flags>
0

> <s_epik_input>
W0NIM11PW0NAQEhdMVtDSDJdW0NIMl1bQ0gyXVtDQEhdMVtOSF1DKD1PKVtOSF1jMltjSF1bY0hdbm4yW0NIM10=

> <s_epik_cmdline>
J2VwaWtfcHl0aG9uJywgJy1waCcsICc3LjAnLCAnLXRuJywgJzgnLCAnLW1hJywgJzIwMCcsICctbWV0YWxfYmluZGluZycsICctaW1hZScsICc8aW5maWxlLm1hZT4nLCAnLW9tYWUnLCAnPG91dGZpbGUubWFlPic=

> <r_lp_tautomer_probability>
1

> <r_epik_Ionization_Penalty>
4.40608e-05

> <r_epik_Ionization_Penalty_Charging>
0

> <r_epik_Ionization_Penalty_Neutral>
4.40608e-05

> <r_epik_State_Penalty>
-0

> <r_epik_Charging_Adjusted_Penalty>
0

> <i_epik_Tot_Q>
0

> <i_epik_Tot_abs_Q>
0

> <r_epik_Metal_State_Penalty>
-0

> <b_epik_Metal_Only>
0

> <s_lp_Force_Field>
OPLS_2005

> <r_lp_Energy>
22.0425

> <b_lp_Chiralities_Consistent>
1

> <s_lp_Variant>
AV-unprocessed.smi:2789-2

> <Gold.Version>
5.8.1

> <Gold.Id.Protein>
6NUR|6NUR_protein|mol2

> <Gold.PLP.Fitness>
40.8514

> <Gold.PLP.PLP>
-35.3985

> <Gold.PLP.part.hbond>
-1.6788

> <Gold.PLP.part.metal>
0.0000

> <Gold.PLP.part.buried>
-4.5919

> <Gold.PLP.part.nonpolar>
-28.9936

> <Gold.PLP.part.repulsive>
0.3839

> <Gold.PLP.ligand.clash>
0.0000

> <Gold.PLP.ligand.torsion>
0.2769

> <Gold.PLP.Chemscore.Hbond>
1.0000

> <Gold.PLP.Chemscore.CHOScore>
1.0000

> <Gold.PLP.Chemscore.Metal>
0.0000

> <Gold.Chemscore.Hbonds>
donor molecule, donor type, donor heavy atom, donor atom, acceptor molecule, acceptor atom, score
      P1  H 10752 10765       L1    15  1.00
      L1  C    14    32       P1  7948  0.14
      L1  C    14    32       P1  7949  0.88

> <Gold.PLP.Chemscore.Internal.Correction>
0.0067

> <Gold.Rescore>
     Score         DG    S(hbond)    S(metal)    S(lipo)     H(rot)  DE(clash)    DE(int)     intcor
     13.46     -16.17       0.97        0.00      91.50       1.27       0.02       2.69       ----

> <Gold.Chemscore.Fitness>
13.4600

> <Gold.Chemscore.DG>
-16.1715

> <Gold.Chemscore.ZeroCoef>
-5.4800

> <Gold.Chemscore.Hbond>
0.9703

> <Gold.Chemscore.Metal>
0.0000

> <Gold.Chemscore.Lipo>
91.4964

> <Gold.Chemscore.Internal_Hbond>
0.0000

> <Gold.Chemscore.DEClash>
0.0208

> <Gold.Chemscore.DEInternal>
2.6906

> <Gold.Chemscore.Rot>
1.2712

> <Gold.Chemscore.Internal.Correction>
   9.000000E+99

> <Gold.Chemscore.Hbonds>
donor molecule, donor type, donor heavy atom, donor atom, acceptor molecule, acceptor atom, score
      P1  H 10752 10765       L1    15  0.75

> <Gold.Chemscore.Hbond.Weighted>
-3.2408

> <Gold.Chemscore.Metal.Weighted>
-0.0000

> <Gold.Chemscore.Lipo.Weighted>
-10.7051

> <Gold.Chemscore.Internal_Hbond.Weighted>
0.0000

> <Gold.Chemscore.DEClash.Weighted>
0.0208

> <Gold.Chemscore.DEInternal.Weighted>
2.6906

> <Gold.Chemscore.Rot.Weighted>
3.2544

> <Gold.Chemscore.Internal.Correction.Weighted>
   9.000000E+99

> <Gold.Protein.RotatedTorsions>
[ 6907 6896 6895 6894 ] final -155.60 input  -60.11 | X-H torsion
[ 7974 7965 7964 7962 ] final  -78.59 input  175.53 | X-H torsion
[ 8008 7997 7996 7995 ] final  113.52 input   59.86 | X-H torsion
[ 10167 10162 10161 10158 ] final  -40.73 input  -65.29 | X-H torsion
[ 10718 10713 10712 10709 ] final -101.78 input   66.30 | X-H torsion
[ 10763 10752 10751 10750 ] final  175.88 input  -60.55 | X-H torsion
[ 11005 11000 10999 10996 ] final  -84.74 input  -57.11 | X-H torsion

> <Gold.Protein.ActiveResidues>
 VAL166  LYS551  ARG553  GLY616  TRP617  ASP618  TYR619  PRO620  LYS621  CYS622 
 ASP623  PHE694  ASN695  SER759  ASP760  ASP761  ALA762  ILE779  LEU786  VAL792 
 PHE793  MET794  SER795  GLU796  ALA797  LYS798  CYS799  TRP800  GLU811  SER814 

> <Gold.Protein.RotatedAtoms>
  151.2749  133.4237  159.2623 H   0  0  0  0  0  0  0  0  0  0  0  0  # atno 6907 bound_to 6896
  151.0412  134.9608  159.8173 H   0  0  0  0  0  0  0  0  0  0  0  0  # atno 6908 bound_to 6896
  152.5365  134.2707  159.9023 H   0  0  0  0  0  0  0  0  0  0  0  0  # atno 6909 bound_to 6896
  145.5845  140.9442  143.1326 H   0  0  0  0  0  0  0  0  0  0  0  0  # atno 7974 bound_to 7965
  156.2263  140.2978  156.0076 H   0  0  0  0  0  0  0  0  0  0  0  0  # atno 8008 bound_to 7997
  155.2347  140.0420  157.2984 H   0  0  0  0  0  0  0  0  0  0  0  0  # atno 8009 bound_to 7997
  154.5921  140.2404  155.7914 H   0  0  0  0  0  0  0  0  0  0  0  0  # atno 8010 bound_to 7997
  140.7025  143.3136  151.2966 H   0  0  0  0  0  0  0  0  0  0  0  0  # atno 10167 bound_to 10162
  156.0206  130.5389  150.7013 H   0  0  0  0  0  0  0  0  0  0  0  0  # atno 10718 bound_to 10713
  154.4737  135.2772  155.1624 H   0  0  0  0  0  0  0  0  0  0  0  0  # atno 10763 bound_to 10752
  154.3362  135.6179  153.5578 H   0  0  0  0  0  0  0  0  0  0  0  0  # atno 10764 bound_to 10752
  152.9867  135.5777  154.5123 H   0  0  0  0  0  0  0  0  0  0  0  0  # atno 10765 bound_to 10752
  141.1648  133.7362  156.8912 H   0  0  0  0  0  0  0  0  0  0  0  0  # atno 11005 bound_to 11000
  144.7379  139.7533  143.7322 LP  0  0  0  0  0  0  0  0  0  0  0  0  # atno 17320 bound_to 7965
  146.1692  139.4836  142.9938 LP  0  0  0  0  0  0  0  0  0  0  0  0  # atno 17321 bound_to 7965
  139.6567  144.0263  152.2664 LP  0  0  0  0  0  0  0  0  0  0  0  0  # atno 17342 bound_to 10162
  139.9817  144.6423  150.7895 LP  0  0  0  0  0  0  0  0  0  0  0  0  # atno 17343 bound_to 10162
  157.4673  131.0889  151.0681 LP  0  0  0  0  0  0  0  0  0  0  0  0  # atno 17370 bound_to 10713
  157.1151  130.6038  149.5491 LP  0  0  0  0  0  0  0  0  0  0  0  0  # atno 17371 bound_to 10713
  140.1647  134.9141  157.2759 LP  0  0  0  0  0  0  0  0  0  0  0  0  # atno 17394 bound_to 11000
  140.2571  134.3615  155.7420 LP  0  0  0  0  0  0  0  0  0  0  0  0  # atno 17395 bound_to 11000

$$$$
