AV-unprocessed.smi:193|AV-procd|sdf|1504|dock10
  -GOLD-   2262019333D 1   1.00000     0.00000
 Structure written by MMmdl.
 62 66  0  0  0  0  0  0  0  0  2 V2000
  150.0353  133.4886  155.3840 C   0  0  0  0  0  0  0  0  0  0  0  0
  149.5652  134.8884  154.9564 C   0  0  2  0  0  0  0  0  0  0  0  0
  150.0327  135.9276  155.9971 C   0  0  0  0  0  0  0  0  0  0  0  0
  150.1286  137.2948  155.4810 N   0  0  0  0  0  0  0  0  0  0  0  0
  150.9034  138.1831  156.1570 C   0  0  0  0  0  0  0  0  0  0  0  0
  151.8684  137.7151  156.9927 N   0  0  0  0  0  0  0  0  0  0  0  0
  152.6333  138.5641  157.6852 C   0  0  0  0  0  0  0  0  0  0  0  0
  152.6041  139.8975  157.6917 N   0  0  0  0  0  0  0  0  0  0  0  0
  151.6460  140.3760  156.8479 C   0  0  0  0  0  0  0  0  0  0  0  0
  150.7647  139.5973  156.0450 C   0  0  0  0  0  0  0  0  0  0  0  0
  149.9446  140.4354  155.2973 N   0  0  0  0  0  0  0  0  0  0  0  0
  150.3096  141.6377  155.6492 C   0  0  0  0  0  0  0  0  0  0  0  0
  151.3141  141.6944  156.5886 N   0  0  0  0  0  0  0  0  0  0  0  0
  151.8986  142.8946  157.1673 C   0  0  0  0  0  0  0  0  0  0  0  0
  151.4900  143.1442  158.6411 C   0  0  0  0  0  0  0  0  0  0  0  0
  150.2783  142.4492  158.8795 O   0  0  0  0  0  0  0  0  0  0  0  0
  152.5638  142.5879  159.5973 C   0  0  0  0  0  0  0  0  0  0  0  0
  152.2892  142.9660  161.0637 C   0  0  0  0  0  0  0  0  0  0  0  0
  152.1675  144.3776  161.1873 O   0  0  0  0  0  0  0  0  0  0  0  0
  151.0660  144.8995  160.4547 C   0  0  0  0  0  0  0  0  0  0  0  0
  151.2596  144.6401  158.9502 C   0  0  0  0  0  0  0  0  0  0  0  0
  149.1906  137.8273  154.4933 C   0  0  0  0  0  0  0  0  0  0  0  0
  147.7490  137.3462  154.6995 C   0  0  0  0  0  0  0  0  0  0  0  0
  147.5142  136.0497  154.0210 N   0  3  2  0  0  0  0  0  0  0  0  0
  146.0888  135.8776  153.6536 C   0  0  2  0  0  0  0  0  0  0  0  0
  145.8697  135.4308  152.2255 C   0  0  0  0  0  0  0  0  0  0  0  0
  145.5693  136.8607  152.6189 C   0  0  2  0  0  0  0  0  0  0  0  0
  146.4008  137.9980  152.0530 C   0  0  0  0  0  0  0  0  0  0  0  0
  148.0296  134.8868  154.7846 C   0  0  0  0  0  0  0  0  0  0  0  0
  149.6099  133.2035  156.3469 H   0  0  0  0  0  0  0  0  0  0  0  0
  151.1212  133.4480  155.4749 H   0  0  0  0  0  0  0  0  0  0  0  0
  149.7451  132.7324  154.6538 H   0  0  0  0  0  0  0  0  0  0  0  0
  150.0381  135.0979  153.9954 H   0  0  0  0  0  0  0  0  0  0  0  0
  149.3849  135.9080  156.8746 H   0  0  0  0  0  0  0  0  0  0  0  0
  151.0269  135.6425  156.3456 H   0  0  0  0  0  0  0  0  0  0  0  0
  153.3733  138.1108  158.3284 H   0  0  0  0  0  0  0  0  0  0  0  0
  149.8454  142.5228  155.2385 H   0  0  0  0  0  0  0  0  0  0  0  0
  152.9841  142.8251  157.0800 H   0  0  0  0  0  0  0  0  0  0  0  0
  151.5997  143.7425  156.5496 H   0  0  0  0  0  0  0  0  0  0  0  0
  149.7599  142.4677  158.0897 H   0  0  0  0  0  0  0  0  0  0  0  0
  152.6394  141.5041  159.4988 H   0  0  0  0  0  0  0  0  0  0  0  0
  153.5392  142.9876  159.3165 H   0  0  0  0  0  0  0  0  0  0  0  0
  151.3871  142.4773  161.4354 H   0  0  0  0  0  0  0  0  0  0  0  0
  153.1118  142.6292  161.6947 H   0  0  0  0  0  0  0  0  0  0  0  0
  150.1342  144.4595  160.8129 H   0  0  0  0  0  0  0  0  0  0  0  0
  150.9986  145.9715  160.6406 H   0  0  0  0  0  0  0  0  0  0  0  0
  152.1209  145.2147  158.6074 H   0  0  0  0  0  0  0  0  0  0  0  0
  150.3974  145.0230  158.4029 H   0  0  0  0  0  0  0  0  0  0  0  0
  149.1717  138.9154  154.5630 H   0  0  0  0  0  0  0  0  0  0  0  0
  149.5412  137.5943  153.4872 H   0  0  0  0  0  0  0  0  0  0  0  0
  147.4719  137.3072  155.7544 H   0  0  0  0  0  0  0  0  0  0  0  0
  147.0943  138.0915  154.2462 H   0  0  0  0  0  0  0  0  0  0  0  0
  145.4358  135.5104  154.4437 H   0  0  0  0  0  0  0  0  0  0  0  0
  146.7435  135.2511  151.6016 H   0  0  0  0  0  0  0  0  0  0  0  0
  145.0190  134.7816  152.0275 H   0  0  0  0  0  0  0  0  0  0  0  0
  144.5151  137.1134  152.7134 H   0  0  0  0  0  0  0  0  0  0  0  0
  147.4310  137.6893  151.8741 H   0  0  0  0  0  0  0  0  0  0  0  0
  146.4029  138.8421  152.7428 H   0  0  0  0  0  0  0  0  0  0  0  0
  145.9769  138.3302  151.1053 H   0  0  0  0  0  0  0  0  0  0  0  0
  147.7450  133.9841  154.2426 H   0  0  0  0  0  0  0  0  0  0  0  0
  147.5318  134.8261  155.7538 H   0  0  0  0  0  0  0  0  0  0  0  0
  148.0231  136.0806  153.1492 H   0  0  0  0  0  0  0  0  0  0  0  0
  1  2  1  0  0  0  0
  1 30  1  0  0  0  0
  1 31  1  0  0  0  0
  1 32  1  0  0  0  0
  2 29  1  0  0  0  0
  2  3  1  0  0  0  0
  2 33  1  0  0  0  0
  3  4  1  0  0  0  0
  3 34  1  0  0  0  0
  3 35  1  0  0  0  0
  4  5  1  0  0  0  0
  4 22  1  0  0  0  0
  5 10  1  0  0  0  0
  5  6  2  0  0  0  0
  6  7  1  0  0  0  0
  7  8  2  0  0  0  0
  7 36  1  0  0  0  0
  8  9  1  0  0  0  0
  9 13  1  0  0  0  0
  9 10  2  0  0  0  0
 10 11  1  0  0  0  0
 11 12  2  0  0  0  0
 12 13  1  0  0  0  0
 12 37  1  0  0  0  0
 13 14  1  0  0  0  0
 14 15  1  0  0  0  0
 14 38  1  0  0  0  0
 14 39  1  0  0  0  0
 15 21  1  0  0  0  0
 15 16  1  0  0  0  0
 15 17  1  0  0  0  0
 16 40  1  0  0  0  0
 17 18  1  0  0  0  0
 17 41  1  0  0  0  0
 17 42  1  0  0  0  0
 18 19  1  0  0  0  0
 18 43  1  0  0  0  0
 18 44  1  0  0  0  0
 19 20  1  0  0  0  0
 20 21  1  0  0  0  0
 20 45  1  0  0  0  0
 20 46  1  0  0  0  0
 21 47  1  0  0  0  0
 21 48  1  0  0  0  0
 22 23  1  0  0  0  0
 22 49  1  0  0  0  0
 22 50  1  0  0  0  0
 23 24  1  0  0  0  0
 23 51  1  0  0  0  0
 23 52  1  0  0  0  0
 24 25  1  0  0  0  0
 24 29  1  0  0  0  0
 24 62  1  0  0  0  0
 25 27  1  0  0  0  0
 25 26  1  0  0  0  0
 25 53  1  0  0  0  0
 26 27  1  0  0  0  0
 26 54  1  0  0  0  0
 26 55  1  0  0  0  0
 27 28  1  0  0  0  0
 27 56  1  0  0  0  0
 28 57  1  0  0  0  0
 28 58  1  0  0  0  0
 28 59  1  0  0  0  0
 29 60  1  0  0  0  0
 29 61  1  0  0  0  0
M  CHG  1  24   1
M  END
> <s_m_source_file>
AV-unprocessed.smi

> <i_m_source_file_index>
193

> <i_lp_mmshare_version>
43012

> <i_f3d_flags>
0

> <s_epik_input>
W0NIM11bQ0BASF0xW0NIMl1bQ0BIXTFOKFtDSDJdMilbQ0gyXVtDSDJdTihbQ0gyXVtDQEhdMltDSDNdKWMobltjSF1uMyljKGMzNCluW2NIXW40W0NIMl1DNShbT0hdKVtDSDJdW0NIMl1PW0NIMl1bQ0gyXTU=

> <s_epik_cmdline>
J2VwaWtfcHl0aG9uJywgJy1waCcsICc3LjAnLCAnLXRuJywgJzgnLCAnLW1hJywgJzIwMCcsICctbWV0YWxfYmluZGluZycsICctaW1hZScsICc8aW5maWxlLm1hZT4nLCAnLW9tYWUnLCAnPG91dGZpbGUubWFlPic=

> <r_lp_tautomer_probability>
1

> <r_epik_Ionization_Penalty>
0.0540825

> <r_epik_Ionization_Penalty_Charging>
0.0538476

> <r_epik_Ionization_Penalty_Neutral>
0.000234891

> <r_epik_State_Penalty>
0.0200719

> <r_epik_Charging_Adjusted_Penalty>
0.0739194

> <i_epik_Tot_Q>
1

> <i_epik_Tot_abs_Q>
1

> <r_epik_Metal_State_Penalty>
0.0199414

> <b_epik_Metal_Only>
0

> <s_lp_Force_Field>
OPLS_2005

> <r_lp_Energy>
56.2911

> <b_lp_Chiralities_Consistent>
1

> <s_lp_Variant>
AV-unprocessed.smi:193-9

> <Gold.Version>
5.8.1

> <Gold.Id.Protein>
6NUR|6NUR_protein|mol2

> <Gold.PLP.Fitness>
50.7112

> <Gold.PLP.PLP>
-42.1300

> <Gold.PLP.part.hbond>
-2.3895

> <Gold.PLP.part.metal>
0.0000

> <Gold.PLP.part.buried>
-4.4581

> <Gold.PLP.part.nonpolar>
-35.7448

> <Gold.PLP.part.repulsive>
0.2210

> <Gold.PLP.ligand.clash>
0.0000

> <Gold.PLP.ligand.torsion>
1.6932

> <Gold.PLP.Chemscore.Hbond>
2.5500

> <Gold.PLP.Chemscore.CHOScore>
1.0000

> <Gold.PLP.Chemscore.Metal>
0.0000

> <Gold.Chemscore.Hbonds>
donor molecule, donor type, donor heavy atom, donor atom, acceptor molecule, acceptor atom, score
      L1  H    24    62       P1  7948  2.00
      P1  H  7997  8009       L1     8  0.66
      L1  C    12    37       P1  8028  1.00

> <Gold.PLP.Chemscore.Internal.Correction>
1.3175

> <Gold.Rescore>
     Score         DG    S(hbond)    S(metal)    S(lipo)     H(rot)  DE(clash)    DE(int)     intcor
     12.97     -17.53       1.01        0.00     116.28       1.93       1.48       3.08       ----

> <Gold.Chemscore.Fitness>
12.9711

> <Gold.Chemscore.DG>
-17.5325

> <Gold.Chemscore.ZeroCoef>
-5.4800

> <Gold.Chemscore.Hbond>
1.0137

> <Gold.Chemscore.Metal>
0.0000

> <Gold.Chemscore.Lipo>
116.2817

> <Gold.Chemscore.Internal_Hbond>
0.0000

> <Gold.Chemscore.DEClash>
1.4769

> <Gold.Chemscore.DEInternal>
3.0844

> <Gold.Chemscore.Rot>
1.9290

> <Gold.Chemscore.Internal.Correction>
   9.000000E+99

> <Gold.Chemscore.Hbonds>
donor molecule, donor type, donor heavy atom, donor atom, acceptor molecule, acceptor atom, score
      L1  H    24    62       P1  7948  0.98
      P1  H  7997  8009       L1     8  0.03

> <Gold.Chemscore.Hbond.Weighted>
-3.3858

> <Gold.Chemscore.Metal.Weighted>
-0.0000

> <Gold.Chemscore.Lipo.Weighted>
-13.6050

> <Gold.Chemscore.Internal_Hbond.Weighted>
0.0000

> <Gold.Chemscore.DEClash.Weighted>
1.4769

> <Gold.Chemscore.DEInternal.Weighted>
3.0844

> <Gold.Chemscore.Rot.Weighted>
4.9383

> <Gold.Chemscore.Internal.Correction.Weighted>
   9.000000E+99

> <Gold.Protein.RotatedTorsions>
[ 6907 6896 6895 6894 ] final   52.22 input  -60.11 | X-H torsion
[ 7974 7965 7964 7962 ] final  -21.07 input  175.53 | X-H torsion
[ 8008 7997 7996 7995 ] final -176.02 input   59.86 | X-H torsion
[ 10167 10162 10161 10158 ] final  134.41 input  -65.29 | X-H torsion
[ 10718 10713 10712 10709 ] final -132.03 input   66.30 | X-H torsion
[ 10763 10752 10751 10750 ] final   78.18 input  -60.55 | X-H torsion
[ 11005 11000 10999 10996 ] final   27.69 input  -57.11 | X-H torsion

> <Gold.Protein.ActiveResidues>
 VAL166  LYS551  ARG553  GLY616  TRP617  ASP618  TYR619  PRO620  LYS621  CYS622 
 ASP623  PHE694  ASN695  SER759  ASP760  ASP761  ALA762  ILE779  LEU786  VAL792 
 PHE793  MET794  SER795  GLU796  ALA797  LYS798  CYS799  TRP800  GLU811  SER814 

> <Gold.Protein.RotatedAtoms>
  152.3209  134.7381  160.0313 H   0  0  0  0  0  0  0  0  0  0  0  0  # atno 6907 bound_to 6896
  151.7830  133.3346  159.3485 H   0  0  0  0  0  0  0  0  0  0  0  0  # atno 6908 bound_to 6896
  150.7369  134.5844  159.6000 H   0  0  0  0  0  0  0  0  0  0  0  0  # atno 6909 bound_to 6896
  146.1753  140.4290  142.8516 H   0  0  0  0  0  0  0  0  0  0  0  0  # atno 7974 bound_to 7965
  155.9897  140.1198  157.0650 H   0  0  0  0  0  0  0  0  0  0  0  0  # atno 8008 bound_to 7997
  154.4208  140.1128  156.5617 H   0  0  0  0  0  0  0  0  0  0  0  0  # atno 8009 bound_to 7997
  155.6359  140.3473  155.4701 H   0  0  0  0  0  0  0  0  0  0  0  0  # atno 8010 bound_to 7997
  139.5257  144.6568  151.5136 H   0  0  0  0  0  0  0  0  0  0  0  0  # atno 10167 bound_to 10162
  156.2304  130.7034  151.0852 H   0  0  0  0  0  0  0  0  0  0  0  0  # atno 10718 bound_to 10713
  153.0855  135.4886  154.8588 H   0  0  0  0  0  0  0  0  0  0  0  0  # atno 10763 bound_to 10752
  154.7205  135.3038  154.9057 H   0  0  0  0  0  0  0  0  0  0  0  0  # atno 10764 bound_to 10752
  153.9723  135.6799  153.4800 H   0  0  0  0  0  0  0  0  0  0  0  0  # atno 10765 bound_to 10752
  140.3236  134.2516  155.7713 H   0  0  0  0  0  0  0  0  0  0  0  0  # atno 11005 bound_to 11000
  144.8227  140.6577  143.6342 LP  0  0  0  0  0  0  0  0  0  0  0  0  # atno 17320 bound_to 7965
  145.4228  139.1561  143.4065 LP  0  0  0  0  0  0  0  0  0  0  0  0  # atno 17321 bound_to 7965
  140.6398  143.8912  150.6681 LP  0  0  0  0  0  0  0  0  0  0  0  0  # atno 17342 bound_to 10162
  140.2242  143.3785  152.1618 LP  0  0  0  0  0  0  0  0  0  0  0  0  # atno 17343 bound_to 10162
  157.7130  131.0724  150.6431 LP  0  0  0  0  0  0  0  0  0  0  0  0  # atno 17370 bound_to 10713
  156.6498  130.4482  149.5723 LP  0  0  0  0  0  0  0  0  0  0  0  0  # atno 17371 bound_to 10713
  141.2081  133.7788  157.0081 LP  0  0  0  0  0  0  0  0  0  0  0  0  # atno 17394 bound_to 11000
  140.0921  134.9586  157.1792 LP  0  0  0  0  0  0  0  0  0  0  0  0  # atno 17395 bound_to 11000

$$$$
