#       Name:                AV-unprocessed.smi:287
#       Creating user name   scv26
#       Creation time:       Thu Mar 26 22:02:41 2020


#       File generated by GOLD software.
#

@<TRIPOS>MOLECULE
AV-unprocessed.smi:287
    70    73     1
SMALL
NO_CHARGES


@<TRIPOS>ATOM
      1 ****         0.1741   5.0022  -4.3019 C.3            1 S1                 0.0000
      2 ****        -0.2610   4.8452  -2.8853 C.2            1 S1                 0.0000
      3 ****        -0.9237   3.8668  -2.2032 C.2            1 S1                 0.0000
      4 ****        -1.0397   4.2960  -0.8469 C.2            1 S1                 0.0000
      5 ****        -1.7118   3.5286   0.2838 C.3            1 S1                 0.0000
      6 ****        -3.2389   3.6638   0.1659 C.3            1 S1                 0.0000
      7 ****        -1.3859   4.0396   1.5622 O.3            1 S1                 0.0000
      8 ****        -1.3114   2.0356   0.3067 C.3            1 S1                 0.0000
      9 ****         0.1240   1.8316   0.1605 N.pl3          1 S1                 0.0000
     10 ****         0.6477   0.5917   0.0619 C.ar           1 S1                 0.0000
     11 ****         1.9935   0.5415  -0.0754 N.ar           1 S1                 0.0000
     12 ****         2.6120  -0.6355  -0.1907 C.ar           1 S1                 0.0000
     13 ****         2.0807  -1.8580  -0.1899 N.ar           1 S1                 0.0000
     14 ****         0.7237  -1.8251  -0.0422 C.ar           1 S1                 0.0000
     15 ****        -0.0665  -0.6442   0.0828 C.ar           1 S1                 0.0000
     16 ****        -1.4056  -0.9994   0.1915 N.2            1 S1                 0.0000
     17 ****        -1.4020  -2.3017   0.1277 C.2            1 S1                 0.0000
     18 ****        -0.1606  -2.8894   0.0195 N.pl3          1 S1                 0.0000
     19 ****         0.1406  -4.3609  -0.1013 C.3            1 S1                 0.0000
     20 ****         1.5046  -4.5697   0.0988 O.3            1 S1                 0.0000
     21 ****         1.7424  -4.8291   1.4760 C.3            1 S1                 0.0000
     22 ****         3.1522  -5.4022   1.7024 C.3            1 S1                 0.0000
     23 ****         4.0933  -4.3528   1.7820 O.3            1 S1                 0.0000
     24 ****         0.5759  -5.7673   1.8071 C.3            1 S1                 0.0000
     25 ****         0.8722  -7.0950   1.4042 O.3            1 S1                 0.0000
     26 ****        -0.5793  -5.1508   1.0140 C.3            1 S1                 0.0000
     27 ****        -1.4888  -6.1165   0.5191 O.3            1 S1                 0.0000
     28 ****        -0.4405   5.5323  -0.8191 C.2            1 S1                 0.0000
     29 ****        -0.2177   6.5523   0.2481 C.3            1 S1                 0.0000
     30 ****         0.0380   5.8702  -2.0489 O.3            1 S1                 0.0000
     31 ****        -0.1606  -4.6191  -1.1172 H              1 S1                 0.0000
     32 ****         1.6173  -3.9058   2.0459 H              1 S1                 0.0000
     33 ****         0.3637  -5.7801   2.8766 H              1 S1                 0.0000
     34 ****        -1.1223  -4.4653   1.6652 H              1 S1                 0.0000
     35 ****         0.1049   4.0552  -4.8373 H              1 S1                 0.0000
     36 ****         1.2079   5.3444  -4.3546 H              1 S1                 0.0000
     37 ****        -0.4510   5.7305  -4.8188 H              1 S1                 0.0000
     38 ****        -1.2820   2.9411  -2.6285 H              1 S1                 0.0000
     39 ****        -3.5996   3.2555  -0.7790 H              1 S1                 0.0000
     40 ****        -3.5493   4.7087   0.2112 H              1 S1                 0.0000
     41 ****        -3.7516   3.1322   0.9687 H              1 S1                 0.0000
     42 ****        -1.8331   3.5230   2.2148 H              1 S1                 0.0000
     43 ****        -1.6723   1.5515   1.2154 H              1 S1                 0.0000
     44 ****        -1.7964   1.5368  -0.5335 H              1 S1                 0.0000
     45 ****         0.6834   2.6724   0.1338 H              1 S1                 0.0000
     46 ****         3.6858  -0.5928  -0.2982 H              1 S1                 0.0000
     47 ****        -2.3172  -2.8746   0.1634 H              1 S1                 0.0000
     48 ****         3.1891  -5.9466   2.6462 H              1 S1                 0.0000
     49 ****         3.4307  -6.0992   0.9115 H              1 S1                 0.0000
     50 ****         4.9513  -4.7277   1.9094 H              1 S1                 0.0000
     51 ****         0.0901  -7.6165   1.5035 H              1 S1                 0.0000
     52 ****        -2.1527  -5.6734   0.0133 H              1 S1                 0.0000
     53 ****        -1.1573   6.8123   0.7354 H              1 S1                 0.0000
     54 ****         0.2110   7.4666  -0.1629 H              1 S1                 0.0000
     55 ****         0.4660   6.1728   1.0074 H              1 S1                 0.0000
     56 ****        -1.6783   4.9935   1.6286 LP             1 S1                 0.0000
     57 ****        -0.3979   3.9830   1.7062 LP             1 S1                 0.0000
     58 ****         2.5254   1.3882  -0.0905 LP             1 S1                 0.0000
     59 ****         2.6128  -2.6993  -0.2861 LP             1 S1                 0.0000
     60 ****        -2.1940  -0.3931   0.2952 LP             1 S1                 0.0000
     61 ****         2.0120  -3.7544  -0.1801 LP             1 S1                 0.0000
     62 ****         1.8063  -5.3524  -0.4456 LP             1 S1                 0.0000
     63 ****         3.8685  -3.7560   2.5522 LP             1 S1                 0.0000
     64 ****         4.0796  -3.8226   0.9343 LP             1 S1                 0.0000
     65 ****         1.6022  -7.4675   1.9773 LP             1 S1                 0.0000
     66 ****         1.1636  -7.1011   0.4476 LP             1 S1                 0.0000
     67 ****        -1.9146  -6.6011   1.2832 LP             1 S1                 0.0000
     68 ****        -1.0033  -6.7704  -0.0613 LP             1 S1                 0.0000
     69 ****        -0.3976   6.7120  -2.3677 LP             1 S1                 0.0000
     70 ****         1.0284   6.0023  -2.0078 LP             1 S1                 0.0000
@<TRIPOS>BOND
    1    1    2 1     
    2    1   35 1     
    3    1   36 1     
    4    1   37 1     
    5    2   30 1     
    6    2    3 2     
    7    3    4 1     
    8    3   38 1     
    9    4    5 1     
   10    4   28 2     
   11    5    6 1     
   12    5    7 1     
   13    5    8 1     
   14    6   39 1     
   15    6   40 1     
   16    6   41 1     
   17    7   42 1     
   18    8    9 1     
   19    8   43 1     
   20    8   44 1     
   21    9   10 1     
   22    9   45 1     
   23   10   15 ar    
   24   10   11 ar    
   25   11   12 ar    
   26   12   13 ar    
   27   12   46 1     
   28   13   14 ar    
   29   14   18 1     
   30   14   15 ar    
   31   15   16 1     
   32   16   17 2     
   33   17   18 1     
   34   17   47 1     
   35   18   19 1     
   36   19   31 1     
   37   19   26 1     
   38   19   20 1     
   39   20   21 1     
   40   21   32 1     
   41   21   22 1     
   42   21   24 1     
   43   22   23 1     
   44   22   48 1     
   45   22   49 1     
   46   23   50 1     
   47   24   33 1     
   48   24   25 1     
   49   24   26 1     
   50   25   51 1     
   51   26   34 1     
   52   26   27 1     
   53   27   52 1     
   54   28   29 1     
   55   28   30 1     
   56   29   53 1     
   57   29   54 1     
   58   29   55 1     
   59    7   56 1     
   60    7   57 1     
   61   11   58 1     
   62   13   59 1     
   63   16   60 1     
   64   20   61 1     
   65   20   62 1     
   66   23   63 1     
   67   23   64 1     
   68   25   65 1     
   69   25   66 1     
   70   27   67 1     
   71   27   68 1     
   72   30   69 1     
   73   30   70 1     
@<TRIPOS>SUBSTRUCTURE
      1 S1             1
@<TRIPOS>SET
LONE_PAIRS      STATIC     ATOMS    <user>   **** ""
15 56 57 58 59 60 61 62 63 64 65 66 67 68 69 70
DONOR_HYDROGENS      STATIC     ATOMS    <user>   **** ""
5 42 45 50 51 52
ATOM$BLUE        STATIC     ATOMS    COLORGROUP SYSTEM
15 56 57 58 59 60 61 62 63 64 65 66 67 68 69 70
ATOM$RED        STATIC     ATOMS    COLORGROUP SYSTEM
5 42 45 50 51 52
