#       Name:                AV-unprocessed.smi:1748
#       Creating user name   scv26
#       Creation time:       Fri Mar 27 08:25:39 2020


#       File generated by GOLD software.
#

@<TRIPOS>MOLECULE
AV-unprocessed.smi:1748
    44    45     1
SMALL
NO_CHARGES


@<TRIPOS>ATOM
      1 ****        -2.5307  -2.2820  -2.6197 C.3            1 S1                 0.0000
      2 ****        -2.2126  -2.1203  -1.1850 N.4            1 S1                 1.0000
      3 ****        -2.6824  -3.2670  -0.3675 C.3            1 S1                 0.0000
      4 ****        -2.2232  -3.1304   1.0945 C.3            1 S1                 0.0000
      5 ****        -2.6613  -1.7835   1.6951 C.3            1 S1                 0.0000
      6 ****        -2.2058  -0.6090   0.8098 C.3            1 S1                 0.0000
      7 ****        -0.7513  -0.4668   0.8820 N.am           1 S1                 0.0000
      8 ****        -0.0582   0.6203   0.5143 C.2            1 S1                 0.0000
      9 ****        -0.5866   1.6264   0.0428 O.2            1 S1                 0.0000
     10 ****         1.2600   0.4384   0.7140 N.am           1 S1                 0.0000
     11 ****         2.3285   1.3213   0.4820 C.2            1 S1                 0.0000
     12 ****         2.2043   2.6570   0.2648 C.2            1 S1                 0.0000
     13 ****         3.3577   3.5136   0.0450 C.2            1 S1                 0.0000
     14 ****         3.1997   4.9914  -0.2775 C.3            1 S1                 0.0000
     15 ****         3.1597   5.6991   0.8504 F              1 S1                 0.0000
     16 ****         4.2175   5.4395  -1.0139 F              1 S1                 0.0000
     17 ****         2.0689   5.2145  -0.9470 F              1 S1                 0.0000
     18 ****         4.5624   2.9138   0.0599 C.2            1 S1                 0.0000
     19 ****         4.7003   1.5455   0.3033 N.am           1 S1                 0.0000
     20 ****         3.6646   0.7035   0.5166 C.2            1 S1                 0.0000
     21 ****         3.8679  -0.4930   0.7207 O.2            1 S1                 0.0000
     22 ****        -2.6914  -0.8244  -0.6414 C.3            1 S1                 0.0000
     23 ****         5.6393   1.1739   0.3141 H              1 S1                 0.0000
     24 ****        -3.6092  -2.3027  -2.7816 H              1 S1                 0.0000
     25 ****        -2.1081  -3.2101  -3.0057 H              1 S1                 0.0000
     26 ****        -2.1124  -1.4600  -3.2016 H              1 S1                 0.0000
     27 ****        -3.7709  -3.3273  -0.4145 H              1 S1                 0.0000
     28 ****        -2.2950  -4.1975  -0.7848 H              1 S1                 0.0000
     29 ****        -2.6273  -3.9503   1.6889 H              1 S1                 0.0000
     30 ****        -1.1376  -3.2232   1.1459 H              1 S1                 0.0000
     31 ****        -3.7484  -1.7671   1.7842 H              1 S1                 0.0000
     32 ****        -2.2705  -1.6751   2.7077 H              1 S1                 0.0000
     33 ****        -2.6542   0.3062   1.2010 H              1 S1                 0.0000
     34 ****        -0.2370  -1.2473   1.2640 H              1 S1                 0.0000
     35 ****         1.5401  -0.4698   1.0553 H              1 S1                 0.0000
     36 ****         1.2388   3.1352   0.2691 H              1 S1                 0.0000
     37 ****         5.4984   3.4234  -0.1161 H              1 S1                 0.0000
     38 ****        -2.3473  -0.0094  -1.2795 H              1 S1                 0.0000
     39 ****        -3.7818  -0.8008  -0.6755 H              1 S1                 0.0000
     40 ****        -1.2050  -2.1069  -1.1150 H              1 S1                 0.0000
     41 ****        -1.5783   1.6587  -0.0816 LP             1 S1                 0.0000
     42 ****        -0.0244   2.4119  -0.2160 LP             1 S1                 0.0000
     43 ****         3.0978  -1.1115   0.8766 LP             1 S1                 0.0000
     44 ****         4.8032  -0.8466   0.7307 LP             1 S1                 0.0000
@<TRIPOS>BOND
    1    1    2 1     
    2    1   24 1     
    3    1   25 1     
    4    1   26 1     
    5    2   22 1     
    6    2    3 1     
    7    2   40 1     
    8    3    4 1     
    9    3   27 1     
   10    3   28 1     
   11    4    5 1     
   12    4   29 1     
   13    4   30 1     
   14    5    6 1     
   15    5   31 1     
   16    5   32 1     
   17    6    7 1     
   18    6   22 1     
   19    6   33 1     
   20    7    8 am    
   21    7   34 1     
   22    8    9 2     
   23    8   10 am    
   24   10   11 1     
   25   10   35 1     
   26   11   20 1     
   27   11   12 2     
   28   12   13 1     
   29   12   36 1     
   30   13   14 1     
   31   13   18 2     
   32   14   15 1     
   33   14   16 1     
   34   14   17 1     
   35   18   19 1     
   36   18   37 1     
   37   19   23 1     
   38   19   20 am    
   39   20   21 2     
   40   22   38 1     
   41   22   39 1     
   42    9   41 1     
   43    9   42 1     
   44   21   43 1     
   45   21   44 1     
@<TRIPOS>SUBSTRUCTURE
      1 S1             1
@<TRIPOS>SET
LONE_PAIRS      STATIC     ATOMS    <user>   **** ""
4 41 42 43 44
DONOR_HYDROGENS      STATIC     ATOMS    <user>   **** ""
4 40 34 35 23
ATOM$BLUE        STATIC     ATOMS    COLORGROUP SYSTEM
4 41 42 43 44
ATOM$RED        STATIC     ATOMS    COLORGROUP SYSTEM
4 40 34 35 23
