AV-unprocessed.smi:72|AV-procd|sdf|724|dock7
  -GOLD-   2262017 53D 1   1.00000     0.00000
 Structure written by MMmdl.
 28 29  0  0  0  0  0  0  0  0  2 V2000
  153.4213  137.2113  155.8571 N   0  0  0  0  0  0  0  0  0  0  0  0
  152.6205  138.1535  155.6133 C   0  0  0  0  0  0  0  0  0  0  0  0
  151.8035  138.1229  154.4204 N   0  0  0  0  0  0  0  0  0  0  0  0
  150.9710  139.1000  154.2318 C   0  0  0  0  0  0  0  0  0  0  0  0
  150.8344  140.1938  155.1885 N   0  0  0  0  0  0  0  0  0  0  0  0
  149.8622  141.3473  154.9848 C   0  0  1  0  0  0  0  0  0  0  0  0
  149.1358  141.1592  153.8034 O   0  0  0  0  0  0  0  0  0  0  0  0
  147.8637  140.5917  154.1028 C   0  0  2  0  0  0  0  0  0  0  0  0
  146.8873  140.7617  152.9261 C   0  0  0  0  0  0  0  0  0  0  0  0
  147.1833  139.8201  151.9171 O   0  0  0  0  0  0  0  0  0  0  0  0
  147.4874  141.3245  155.3938 C   0  0  2  0  0  0  0  0  0  0  0  0
  146.9507  142.6045  155.1007 O   0  0  0  0  0  0  0  0  0  0  0  0
  148.8255  141.4011  156.1292 C   0  0  2  0  0  0  0  0  0  0  0  0
  148.9351  142.5603  156.9342 O   0  0  0  0  0  0  0  0  0  0  0  0
  151.6874  140.2190  156.3252 C   0  0  0  0  0  0  0  0  0  0  0  0
  151.5992  141.1756  157.0957 O   0  0  0  0  0  0  0  0  0  0  0  0
  152.5619  139.1922  156.5149 N   0  5  0  0  0  0  0  0  0  0  0  0
  150.4865  142.2377  154.8917 H   0  0  0  0  0  0  0  0  0  0  0  0
  147.9825  139.5322  154.3380 H   0  0  0  0  0  0  0  0  0  0  0  0
  146.7458  140.7712  155.9710 H   0  0  0  0  0  0  0  0  0  0  0  0
  148.9364  140.5172  156.7596 H   0  0  0  0  0  0  0  0  0  0  0  0
  153.3979  136.4957  155.1454 H   0  0  0  0  0  0  0  0  0  0  0  0
  150.3323  139.1549  153.3506 H   0  0  0  0  0  0  0  0  0  0  0  0
  145.8648  140.5769  153.2565 H   0  0  0  0  0  0  0  0  0  0  0  0
  146.9222  141.7730  152.5199 H   0  0  0  0  0  0  0  0  0  0  0  0
  147.9511  140.1151  151.4514 H   0  0  0  0  0  0  0  0  0  0  0  0
  147.5717  143.2563  155.3893 H   0  0  0  0  0  0  0  0  0  0  0  0
  149.0722  143.3024  156.3640 H   0  0  0  0  0  0  0  0  0  0  0  0
  1  2  2  0  0  0  0
  1 22  1  0  0  0  0
  2 17  1  0  0  0  0
  2  3  1  0  0  0  0
  3  4  2  0  0  0  0
  4  5  1  0  0  0  0
  4 23  1  0  0  0  0
  5  6  1  0  0  0  0
  5 15  1  0  0  0  0
  6 18  1  0  0  0  0
  6 13  1  0  0  0  0
  6  7  1  0  0  0  0
  7  8  1  0  0  0  0
  8 19  1  0  0  0  0
  8  9  1  0  0  0  0
  8 11  1  0  0  0  0
  9 10  1  0  0  0  0
  9 24  1  0  0  0  0
  9 25  1  0  0  0  0
 10 26  1  0  0  0  0
 11 20  1  0  0  0  0
 11 12  1  0  0  0  0
 11 13  1  0  0  0  0
 12 27  1  0  0  0  0
 13 21  1  0  0  0  0
 13 14  1  0  0  0  0
 14 28  1  0  0  0  0
 15 16  2  0  0  0  0
 15 17  1  0  0  0  0
M  CHG  1  17  -1
M  END
> <s_m_source_file>
AV-unprocessed.smi

> <i_m_source_file_index>
72

> <i_lp_mmshare_version>
43012

> <i_f3d_flags>
0

> <s_epik_input>
W05IMl1jMW5bY0hdbihjKD1PKW4xKVtDQEBIXTJPW0NASF0oW0NIMl1bT0hdKVtDQEBIXShbT0hdKVtDQEhdMltPSF0=

> <s_epik_cmdline>
J2VwaWtfcHl0aG9uJywgJy1waCcsICc3LjAnLCAnLXRuJywgJzgnLCAnLW1hJywgJzIwMCcsICctbWV0YWxfYmluZGluZycsICctaW1hZScsICc8aW5maWxlLm1hZT4nLCAnLW9tYWUnLCAnPG91dGZpbGUubWFlPic=

> <r_lp_tautomer_probability>
7.17554e-07

> <r_epik_Ionization_Penalty>
12.8705

> <r_epik_Ionization_Penalty_Charging>
5.64144

> <r_epik_Ionization_Penalty_Neutral>
7.22905

> <r_epik_State_Penalty>
3.30104

> <r_epik_Charging_Adjusted_Penalty>
8.94249

> <i_epik_Tot_Q>
-1

> <i_epik_Tot_abs_Q>
1

> <r_epik_Metal_State_Penalty>
0.529074

> <b_epik_Metal_Only>
1

> <s_epik_Chemistry_Notes>
This compound contains an acetal/aminal-like group ( X-CH(R)-Y where X, Y are N, S, or O) that may be acid/base labile, releasing an aldehyde.

> <s_lp_Force_Field>
OPLS_2005

> <r_lp_Energy>
35.695

> <b_lp_Chiralities_Consistent>
1

> <s_lp_Variant>
AV-unprocessed.smi:72-62

> <Gold.Version>
5.8.1

> <Gold.Id.Protein>
6NUR|6NUR_protein|mol2

> <Gold.PLP.Fitness>
45.4672

> <Gold.PLP.PLP>
-25.1536

> <Gold.PLP.part.hbond>
-6.6654

> <Gold.PLP.part.metal>
0.0000

> <Gold.PLP.part.buried>
-0.6905

> <Gold.PLP.part.nonpolar>
-17.7673

> <Gold.PLP.part.repulsive>
1.7079

> <Gold.PLP.ligand.clash>
0.0000

> <Gold.PLP.ligand.torsion>
0.1212

> <Gold.PLP.Chemscore.Hbond>
5.8447

> <Gold.PLP.Chemscore.CHOScore>
1.0000

> <Gold.PLP.Chemscore.Metal>
0.0000

> <Gold.Chemscore.Hbonds>
donor molecule, donor type, donor heavy atom, donor atom, acceptor molecule, acceptor atom, score
      L1  H    10    26       P1  7957  1.00
      L1  H    12    27       P1  8028  0.95
      L1  H    14    28       P1  8028  1.00
      P1  H  7997  8008       L1    17  2.00
      P1  H  8011  8017       L1     7  0.87
      L1  C     4    23       P1  7957  1.00

> <Gold.PLP.Chemscore.Internal.Correction>
0.0217

> <Gold.Rescore>
     Score         DG    S(hbond)    S(metal)    S(lipo)     H(rot)  DE(clash)    DE(int)     intcor
      5.99      -8.68       3.24        0.00      23.40       4.04       0.48       2.21       ----

> <Gold.Chemscore.Fitness>
5.9922

> <Gold.Chemscore.DG>
-8.6801

> <Gold.Chemscore.ZeroCoef>
-5.4800

> <Gold.Chemscore.Hbond>
3.2353

> <Gold.Chemscore.Metal>
0.0000

> <Gold.Chemscore.Lipo>
23.3965

> <Gold.Chemscore.Internal_Hbond>
0.0000

> <Gold.Chemscore.DEClash>
0.4817

> <Gold.Chemscore.DEInternal>
2.2062

> <Gold.Chemscore.Rot>
4.0403

> <Gold.Chemscore.Internal.Correction>
   9.000000E+99

> <Gold.Chemscore.Hbonds>
donor molecule, donor type, donor heavy atom, donor atom, acceptor molecule, acceptor atom, score
      L1  H    10    26       P1  7957  0.96
      L1  H    12    27       P1  8028  0.21
      L1  H    14    28       P1  8028  0.98
      P1  H  7997  8008       L1    17  0.28
      P1  H  8011  8017       L1     7  0.63

> <Gold.Chemscore.Hbond.Weighted>
-10.8058

> <Gold.Chemscore.Metal.Weighted>
-0.0000

> <Gold.Chemscore.Lipo.Weighted>
-2.7374

> <Gold.Chemscore.Internal_Hbond.Weighted>
0.0000

> <Gold.Chemscore.DEClash.Weighted>
0.4817

> <Gold.Chemscore.DEInternal.Weighted>
2.2062

> <Gold.Chemscore.Rot.Weighted>
10.3431

> <Gold.Chemscore.Internal.Correction.Weighted>
   9.000000E+99

> <Gold.Protein.RotatedTorsions>
[ 6907 6896 6895 6894 ] final  -75.45 input  -60.11 | X-H torsion
[ 7974 7965 7964 7962 ] final   47.17 input  175.53 | X-H torsion
[ 8008 7997 7996 7995 ] final  -54.73 input   59.86 | X-H torsion
[ 10167 10162 10161 10158 ] final -137.95 input  -65.29 | X-H torsion
[ 10718 10713 10712 10709 ] final -137.02 input   66.30 | X-H torsion
[ 10763 10752 10751 10750 ] final  170.93 input  -60.55 | X-H torsion
[ 11005 11000 10999 10996 ] final  132.66 input  -57.11 | X-H torsion

> <Gold.Protein.ActiveResidues>
 VAL166  LYS551  ARG553  GLY616  TRP617  ASP618  TYR619  PRO620  LYS621  CYS622 
 ASP623  PHE694  ASN695  SER759  ASP760  ASP761  ALA762  ILE779  LEU786  VAL792 
 PHE793  MET794  SER795  GLU796  ALA797  LYS798  CYS799  TRP800  GLU811  SER814 

> <Gold.Protein.RotatedAtoms>
  150.7058  134.4719  159.5428 H   0  0  0  0  0  0  0  0  0  0  0  0  # atno 6907 bound_to 6896
  152.2373  134.8260  160.0474 H   0  0  0  0  0  0  0  0  0  0  0  0  # atno 6908 bound_to 6896
  151.9054  133.3513  159.3882 H   0  0  0  0  0  0  0  0  0  0  0  0  # atno 6909 bound_to 6896
  146.0323  139.4778  142.9830 H   0  0  0  0  0  0  0  0  0  0  0  0  # atno 7974 bound_to 7965
  154.4172  140.1169  156.5362 H   0  0  0  0  0  0  0  0  0  0  0  0  # atno 8008 bound_to 7997
  155.6554  140.3496  155.4744 H   0  0  0  0  0  0  0  0  0  0  0  0  # atno 8009 bound_to 7997
  155.9757  140.1150  157.0762 H   0  0  0  0  0  0  0  0  0  0  0  0  # atno 8010 bound_to 7997
  139.8526  143.7179  152.2656 H   0  0  0  0  0  0  0  0  0  0  0  0  # atno 10167 bound_to 10162
  156.2835  130.7334  151.1339 H   0  0  0  0  0  0  0  0  0  0  0  0  # atno 10718 bound_to 10713
  154.4046  135.2755  155.2075 H   0  0  0  0  0  0  0  0  0  0  0  0  # atno 10763 bound_to 10752
  154.4086  135.6027  153.5943 H   0  0  0  0  0  0  0  0  0  0  0  0  # atno 10764 bound_to 10752
  152.9831  135.5944  154.4319 H   0  0  0  0  0  0  0  0  0  0  0  0  # atno 10765 bound_to 10752
  139.9804  134.9550  156.9614 H   0  0  0  0  0  0  0  0  0  0  0  0  # atno 11005 bound_to 11000
  145.7021  141.0133  143.1499 LP  0  0  0  0  0  0  0  0  0  0  0  0  # atno 17320 bound_to 7965
  144.7036  139.8657  143.7437 LP  0  0  0  0  0  0  0  0  0  0  0  0  # atno 17321 bound_to 7965
  139.7450  144.7549  151.0593 LP  0  0  0  0  0  0  0  0  0  0  0  0  # atno 17342 bound_to 10162
  140.7785  143.4927  150.9873 LP  0  0  0  0  0  0  0  0  0  0  0  0  # atno 17343 bound_to 10162
  157.7321  131.0602  150.5642 LP  0  0  0  0  0  0  0  0  0  0  0  0  # atno 17370 bound_to 10713
  156.5751  130.4290  149.6002 LP  0  0  0  0  0  0  0  0  0  0  0  0  # atno 17371 bound_to 10713
  140.5109  134.1003  155.7270 LP  0  0  0  0  0  0  0  0  0  0  0  0  # atno 17394 bound_to 11000
  141.1476  133.9026  157.2177 LP  0  0  0  0  0  0  0  0  0  0  0  0  # atno 17395 bound_to 11000

$$$$
