AV-unprocessed.smi:149|AV-procd|sdf|1240|dock2
  -GOLD-   2262018453D 1   1.00000     0.00000
 Structure written by MMmdl.
 59 63  0  0  0  0  0  0  0  0  1 V2000
  157.1496  137.0459  165.5127 C   0  0  0  0  0  0  0  0  0  0  0  0
  157.2735  137.0701  163.9793 C   0  0  2  0  0  0  0  0  0  0  0  0
  156.4081  138.0999  163.2600 C   0  0  0  0  0  0  0  0  0  0  0  0
  156.4207  137.6714  161.8687 N   0  0  0  0  0  0  0  0  0  0  0  0
  155.6569  138.3122  160.9444 C   0  0  0  0  0  0  0  0  0  0  0  0
  155.5371  137.7679  159.7039 N   0  0  0  0  0  0  0  0  0  0  0  0
  154.7940  138.3634  158.7676 C   0  0  0  0  0  0  0  0  0  0  0  0
  154.0920  139.4933  158.8551 N   0  0  0  0  0  0  0  0  0  0  0  0
  154.1981  140.0454  160.0969 C   0  0  0  0  0  0  0  0  0  0  0  0
  154.9450  139.5240  161.1930 C   0  0  0  0  0  0  0  0  0  0  0  0
  154.7834  140.3511  162.2999 N   0  0  0  0  0  0  0  0  0  0  0  0
  153.9945  141.3023  161.8821 C   0  0  0  0  0  0  0  0  0  0  0  0
  153.6191  141.2132  160.5617 N   0  0  0  0  0  0  0  0  0  0  0  0
  152.7327  142.0939  159.8594 C   0  0  0  0  0  0  0  0  0  0  0  0
  153.2741  143.2148  158.9691 C   0  0  0  0  0  0  0  0  0  0  0  0
  152.0501  144.0841  159.3312 C   0  0  0  0  0  0  0  0  0  0  0  0
  152.3553  145.5694  159.5876 C   0  0  0  0  0  0  0  0  0  0  0  0
  151.3243  146.1837  160.3337 O   0  0  0  0  0  0  0  0  0  0  0  0
  150.8571  143.9713  158.3606 C   0  0  0  0  0  0  0  0  0  0  0  0
  151.2050  144.4066  157.0619 O   0  0  0  0  0  0  0  0  0  0  0  0
  151.9606  143.1940  160.5916 C   0  0  0  0  0  0  0  0  0  0  0  0
  156.5760  136.2230  161.8044 C   0  0  0  0  0  0  0  0  0  0  0  0
  157.0070  135.7569  163.2135 C   0  0  2  0  0  0  0  0  0  0  0  0
  156.1251  134.7678  163.8561 N   0  0  0  0  0  0  0  0  0  0  0  0
  154.7458  135.2120  164.0724 C   0  0  0  0  0  0  0  0  0  0  0  0
  153.9263  134.1518  164.8262 C   0  0  0  0  0  0  0  0  0  0  0  0
  153.9563  132.9255  164.1023 O   0  0  0  0  0  0  0  0  0  0  0  0
  155.2786  132.4357  163.9017 C   0  0  0  0  0  0  0  0  0  0  0  0
  156.1155  133.4884  163.1538 C   0  0  0  0  0  0  0  0  0  0  0  0
  156.1294  136.8730  165.8503 H   0  0  0  0  0  0  0  0  0  0  0  0
  157.4725  137.9961  165.9385 H   0  0  0  0  0  0  0  0  0  0  0  0
  157.7788  136.2647  165.9398 H   0  0  0  0  0  0  0  0  0  0  0  0
  158.3082  137.3406  163.7609 H   0  0  0  0  0  0  0  0  0  0  0  0
  155.3868  138.0935  163.6421 H   0  0  0  0  0  0  0  0  0  0  0  0
  156.8119  139.1069  163.3727 H   0  0  0  0  0  0  0  0  0  0  0  0
  154.7577  137.8632  157.8112 H   0  0  0  0  0  0  0  0  0  0  0  0
  153.6680  142.1024  162.5305 H   0  0  0  0  0  0  0  0  0  0  0  0
  152.0514  141.4507  159.3001 H   0  0  0  0  0  0  0  0  0  0  0  0
  154.2144  143.6255  159.3426 H   0  0  0  0  0  0  0  0  0  0  0  0
  153.3554  142.9543  157.9133 H   0  0  0  0  0  0  0  0  0  0  0  0
  153.3011  145.7011  160.1135 H   0  0  0  0  0  0  0  0  0  0  0  0
  152.4516  146.1122  158.6467 H   0  0  0  0  0  0  0  0  0  0  0  0
  150.5101  146.0749  159.8664 H   0  0  0  0  0  0  0  0  0  0  0  0
  150.4858  142.9480  158.3006 H   0  0  0  0  0  0  0  0  0  0  0  0
  150.0159  144.5767  158.6984 H   0  0  0  0  0  0  0  0  0  0  0  0
  150.4202  144.4391  156.5364 H   0  0  0  0  0  0  0  0  0  0  0  0
  150.9505  142.9108  160.8892 H   0  0  0  0  0  0  0  0  0  0  0  0
  152.5159  143.6002  161.4393 H   0  0  0  0  0  0  0  0  0  0  0  0
  155.6607  135.7441  161.4583 H   0  0  0  0  0  0  0  0  0  0  0  0
  157.3583  135.9847  161.0833 H   0  0  0  0  0  0  0  0  0  0  0  0
  157.9823  135.2779  163.1120 H   0  0  0  0  0  0  0  0  0  0  0  0
  154.7190  136.1448  164.6310 H   0  0  0  0  0  0  0  0  0  0  0  0
  154.2551  135.4125  163.1206 H   0  0  0  0  0  0  0  0  0  0  0  0
  154.3222  134.0004  165.8316 H   0  0  0  0  0  0  0  0  0  0  0  0
  152.8917  134.4778  164.9332 H   0  0  0  0  0  0  0  0  0  0  0  0
  155.7326  132.1952  164.8643 H   0  0  0  0  0  0  0  0  0  0  0  0
  155.2334  131.5094  163.3290 H   0  0  0  0  0  0  0  0  0  0  0  0
  155.7145  133.6170  162.1476 H   0  0  0  0  0  0  0  0  0  0  0  0
  157.1349  133.1190  163.0391 H   0  0  0  0  0  0  0  0  0  0  0  0
  1  2  1  0  0  0  0
  1 30  1  0  0  0  0
  1 31  1  0  0  0  0
  1 32  1  0  0  0  0
  2 23  1  0  0  0  0
  2  3  1  0  0  0  0
  2 33  1  0  0  0  0
  3  4  1  0  0  0  0
  3 34  1  0  0  0  0
  3 35  1  0  0  0  0
  4  5  1  0  0  0  0
  4 22  1  0  0  0  0
  5 10  1  0  0  0  0
  5  6  2  0  0  0  0
  6  7  1  0  0  0  0
  7  8  2  0  0  0  0
  7 36  1  0  0  0  0
  8  9  1  0  0  0  0
  9 13  1  0  0  0  0
  9 10  2  0  0  0  0
 10 11  1  0  0  0  0
 11 12  2  0  0  0  0
 12 13  1  0  0  0  0
 12 37  1  0  0  0  0
 13 14  1  0  0  0  0
 14 21  1  0  0  0  0
 14 15  1  0  0  0  0
 14 38  1  0  0  0  0
 15 16  1  0  0  0  0
 15 39  1  0  0  0  0
 15 40  1  0  0  0  0
 16 17  1  0  0  0  0
 16 19  1  0  0  0  0
 16 21  1  0  0  0  0
 17 18  1  0  0  0  0
 17 41  1  0  0  0  0
 17 42  1  0  0  0  0
 18 43  1  0  0  0  0
 19 20  1  0  0  0  0
 19 44  1  0  0  0  0
 19 45  1  0  0  0  0
 20 46  1  0  0  0  0
 21 47  1  0  0  0  0
 21 48  1  0  0  0  0
 22 23  1  0  0  0  0
 22 49  1  0  0  0  0
 22 50  1  0  0  0  0
 23 24  1  0  0  0  0
 23 51  1  0  0  0  0
 24 29  1  0  0  0  0
 24 25  1  0  0  0  0
 25 26  1  0  0  0  0
 25 52  1  0  0  0  0
 25 53  1  0  0  0  0
 26 27  1  0  0  0  0
 26 54  1  0  0  0  0
 26 55  1  0  0  0  0
 27 28  1  0  0  0  0
 28 29  1  0  0  0  0
 28 56  1  0  0  0  0
 28 57  1  0  0  0  0
 29 58  1  0  0  0  0
 29 59  1  0  0  0  0
M  END
> <s_m_source_file>
AV-unprocessed.smi

> <i_m_source_file_index>
149

> <i_lp_mmshare_version>
43012

> <i_f3d_flags>
0

> <s_epik_input>
W0NIMl0xW0NIMl1PW0NIMl1bQ0gyXU4xW0NAQEhdMltDSDJdTihbQ0gyXVtDQEhdMltDSDNdKWMobltjSF1uMyljKGMzNCluW2NIXW40W0NIXShbQ0gyXTUpW0NIMl1DNShbQ0gyXVtPSF0pW0NIMl1bT0hd

> <s_epik_cmdline>
J2VwaWtfcHl0aG9uJywgJy1waCcsICc3LjAnLCAnLXRuJywgJzgnLCAnLW1hJywgJzIwMCcsICctbWV0YWxfYmluZGluZycsICctaW1hZScsICc8aW5maWxlLm1hZT4nLCAnLW9tYWUnLCAnPG91dGZpbGUubWFlPic=

> <r_lp_tautomer_probability>
1

> <r_epik_Ionization_Penalty>
0.41918

> <r_epik_Ionization_Penalty_Charging>
0

> <r_epik_Ionization_Penalty_Neutral>
0.41918

> <r_epik_State_Penalty>
0.654916

> <r_epik_Charging_Adjusted_Penalty>
0.654916

> <i_epik_Tot_Q>
0

> <i_epik_Tot_abs_Q>
0

> <r_epik_Metal_State_Penalty>
0.653217

> <b_epik_Metal_Only>
0

> <s_lp_Force_Field>
OPLS_2005

> <r_lp_Energy>
80.6686

> <b_lp_Chiralities_Consistent>
1

> <s_lp_Variant>
AV-unprocessed.smi:149-7

> <Gold.Version>
5.8.1

> <Gold.Id.Protein>
6NUR|6NUR_protein|mol2

> <Gold.PLP.Fitness>
45.4723

> <Gold.PLP.PLP>
-42.4131

> <Gold.PLP.part.hbond>
-4.8513

> <Gold.PLP.part.metal>
0.0000

> <Gold.PLP.part.buried>
-4.1512

> <Gold.PLP.part.nonpolar>
-32.9332

> <Gold.PLP.part.repulsive>
0.0630

> <Gold.PLP.ligand.clash>
0.0000

> <Gold.PLP.ligand.torsion>
1.1502

> <Gold.PLP.Chemscore.Hbond>
1.4500

> <Gold.PLP.Chemscore.CHOScore>
0.0000

> <Gold.PLP.Chemscore.Metal>
0.0000

> <Gold.Chemscore.Hbonds>
donor molecule, donor type, donor heavy atom, donor atom, acceptor molecule, acceptor atom, score
      L1  H    20    46       P1  8028  1.00
      P1  H  7997  8009       L1     8  0.35

> <Gold.PLP.Chemscore.Internal.Correction>
1.0096

> <Gold.Rescore>
     Score         DG    S(hbond)    S(metal)    S(lipo)     H(rot)  DE(clash)    DE(int)     intcor
     10.14     -12.94       1.09        0.00     105.85       3.34       0.74       2.06       ----

> <Gold.Chemscore.Fitness>
10.1409

> <Gold.Chemscore.DG>
-12.9448

> <Gold.Chemscore.ZeroCoef>
-5.4800

> <Gold.Chemscore.Hbond>
1.0883

> <Gold.Chemscore.Metal>
0.0000

> <Gold.Chemscore.Lipo>
105.8495

> <Gold.Chemscore.Internal_Hbond>
0.0000

> <Gold.Chemscore.DEClash>
0.7402

> <Gold.Chemscore.DEInternal>
2.0637

> <Gold.Chemscore.Rot>
3.3416

> <Gold.Chemscore.Internal.Correction>
   9.000000E+99

> <Gold.Chemscore.Hbonds>
donor molecule, donor type, donor heavy atom, donor atom, acceptor molecule, acceptor atom, score
      L1  H    20    46       P1  8028  0.99
      P1  H  7997  8009       L1     8  0.01

> <Gold.Chemscore.Hbond.Weighted>
-3.6349

> <Gold.Chemscore.Metal.Weighted>
-0.0000

> <Gold.Chemscore.Lipo.Weighted>
-12.3844

> <Gold.Chemscore.Internal_Hbond.Weighted>
0.0000

> <Gold.Chemscore.DEClash.Weighted>
0.7402

> <Gold.Chemscore.DEInternal.Weighted>
2.0637

> <Gold.Chemscore.Rot.Weighted>
8.5545

> <Gold.Chemscore.Internal.Correction.Weighted>
   9.000000E+99

> <Gold.Protein.RotatedTorsions>
[ 6907 6896 6895 6894 ] final  -30.48 input  -60.11 | X-H torsion
[ 7974 7965 7964 7962 ] final -159.19 input  175.53 | X-H torsion
[ 8008 7997 7996 7995 ] final  132.38 input   59.86 | X-H torsion
[ 10167 10162 10161 10158 ] final  105.99 input  -65.29 | X-H torsion
[ 10718 10713 10712 10709 ] final  118.04 input   66.30 | X-H torsion
[ 10763 10752 10751 10750 ] final   84.95 input  -60.55 | X-H torsion
[ 11005 11000 10999 10996 ] final  174.67 input  -57.11 | X-H torsion

> <Gold.Protein.ActiveResidues>
 VAL166  LYS551  ARG553  GLY616  TRP617  ASP618  TYR619  PRO620  LYS621  CYS622 
 ASP623  PHE694  ASN695  SER759  ASP760  ASP761  ALA762  ILE779  LEU786  VAL792 
 PHE793  MET794  SER795  GLU796  ALA797  LYS798  CYS799  TRP800  GLU811  SER814 

> <Gold.Protein.RotatedAtoms>
  151.1049  134.9994  159.8466 H   0  0  0  0  0  0  0  0  0  0  0  0  # atno 6907 bound_to 6896
  152.5439  134.1905  159.8682 H   0  0  0  0  0  0  0  0  0  0  0  0  # atno 6908 bound_to 6896
  151.1951  133.4600  159.2628 H   0  0  0  0  0  0  0  0  0  0  0  0  # atno 6909 bound_to 6896
  144.7475  140.3720  143.6074 H   0  0  0  0  0  0  0  0  0  0  0  0  # atno 7974 bound_to 7965
  156.2982  140.2548  156.3080 H   0  0  0  0  0  0  0  0  0  0  0  0  # atno 8008 bound_to 7997
  154.9353  140.0397  157.2088 H   0  0  0  0  0  0  0  0  0  0  0  0  # atno 8009 bound_to 7997
  154.8178  140.2855  155.5812 H   0  0  0  0  0  0  0  0  0  0  0  0  # atno 8010 bound_to 7997
  139.7046  144.7088  151.1127 H   0  0  0  0  0  0  0  0  0  0  0  0  # atno 10167 bound_to 10162
  157.6057  131.1044  150.7700 H   0  0  0  0  0  0  0  0  0  0  0  0  # atno 10718 bound_to 10713
  153.1430  135.4635  154.9523 H   0  0  0  0  0  0  0  0  0  0  0  0  # atno 10763 bound_to 10752
  154.7762  135.3174  154.8088 H   0  0  0  0  0  0  0  0  0  0  0  0  # atno 10764 bound_to 10752
  153.8607  135.6913  153.4837 H   0  0  0  0  0  0  0  0  0  0  0  0  # atno 10765 bound_to 10752
  140.3539  134.7171  157.4286 H   0  0  0  0  0  0  0  0  0  0  0  0  # atno 11005 bound_to 11000
  145.7068  139.1674  143.2562 LP  0  0  0  0  0  0  0  0  0  0  0  0  # atno 17320 bound_to 7965
  146.1376  140.7101  142.9382 LP  0  0  0  0  0  0  0  0  0  0  0  0  # atno 17321 bound_to 7965
  140.7718  143.5376  150.9350 LP  0  0  0  0  0  0  0  0  0  0  0  0  # atno 17342 bound_to 10162
  139.9059  143.6779  152.3123 LP  0  0  0  0  0  0  0  0  0  0  0  0  # atno 17343 bound_to 10162
  156.8089  130.4946  149.5359 LP  0  0  0  0  0  0  0  0  0  0  0  0  # atno 17370 bound_to 10713
  156.1142  130.6063  151.0095 LP  0  0  0  0  0  0  0  0  0  0  0  0  # atno 17371 bound_to 10713
  140.0681  134.5901  155.8672 LP  0  0  0  0  0  0  0  0  0  0  0  0  # atno 17394 bound_to 11000
  141.2004  133.6612  156.5895 LP  0  0  0  0  0  0  0  0  0  0  0  0  # atno 17395 bound_to 11000

$$$$
