AV-unprocessed.smi:2614|AV-procd|sdf|10214|dock1
  -GOLD-   2272014223D 1   1.00000     0.00000
 Structure written by MMmdl.
 24 25  0  0  0  0  0  0  0  0  2 V2000
  154.7291  140.0264  160.5932 C   0  0  0  0  0  0  0  0  0  0  0  0
  153.8299  141.2114  160.4977 C   0  0  0  0  0  0  0  0  0  0  0  0
  153.5571  142.0249  161.5592 N   0  0  0  0  0  0  0  0  0  0  0  0
  152.7366  142.8964  160.9830 C   0  0  0  0  0  0  0  0  0  0  0  0
  152.0954  144.0467  161.6877 C   0  0  0  0  0  0  0  0  0  0  0  0
  152.5332  142.6405  159.6832 N   0  0  0  0  0  0  0  0  0  0  0  0
  151.7187  143.3203  158.7149 C   0  0  0  0  0  0  0  0  0  0  0  0
  151.8187  144.8294  158.4795 C   0  0  0  0  0  0  0  0  0  0  0  0
  150.3868  144.8191  158.2098 N   0  3  0  0  0  0  0  0  0  0  0  0
  150.2465  143.6045  159.0041 C   0  0  0  0  0  0  0  0  0  0  0  0
  153.2383  141.5337  159.3499 N   0  0  0  0  0  0  0  0  0  0  0  0
  155.1847  139.9657  161.5822 H   0  0  0  0  0  0  0  0  0  0  0  0
  155.5250  140.0943  159.8513 H   0  0  0  0  0  0  0  0  0  0  0  0
  154.1653  139.1104  160.4158 H   0  0  0  0  0  0  0  0  0  0  0  0
  152.3984  144.0689  162.7350 H   0  0  0  0  0  0  0  0  0  0  0  0
  151.0098  143.9569  161.6432 H   0  0  0  0  0  0  0  0  0  0  0  0
  152.3916  144.9862  161.2214 H   0  0  0  0  0  0  0  0  0  0  0  0
  151.8354  142.7772  157.7742 H   0  0  0  0  0  0  0  0  0  0  0  0
  152.0558  145.4095  159.3737 H   0  0  0  0  0  0  0  0  0  0  0  0
  152.4297  145.1224  157.6254 H   0  0  0  0  0  0  0  0  0  0  0  0
  149.8921  145.6159  158.5850 H   0  0  0  0  0  0  0  0  0  0  0  0
  149.5468  142.8789  158.5883 H   0  0  0  0  0  0  0  0  0  0  0  0
  150.0417  143.8197  160.0547 H   0  0  0  0  0  0  0  0  0  0  0  0
  150.1966  144.6475  157.2328 H   0  0  0  0  0  0  0  0  0  0  0  0
  1  2  1  0  0  0  0
  1 12  1  0  0  0  0
  1 13  1  0  0  0  0
  1 14  1  0  0  0  0
  2 11  2  0  0  0  0
  2  3  1  0  0  0  0
  3  4  2  0  0  0  0
  4  5  1  0  0  0  0
  4  6  1  0  0  0  0
  5 15  1  0  0  0  0
  5 16  1  0  0  0  0
  5 17  1  0  0  0  0
  6  7  1  0  0  0  0
  6 11  1  0  0  0  0
  7 10  1  0  0  0  0
  7  8  1  0  0  0  0
  7 18  1  0  0  0  0
  8  9  1  0  0  0  0
  8 19  1  0  0  0  0
  8 20  1  0  0  0  0
  9 10  1  0  0  0  0
  9 21  1  0  0  0  0
  9 24  1  0  0  0  0
 10 22  1  0  0  0  0
 10 23  1  0  0  0  0
M  CHG  1   9   1
M  END
> <s_m_source_file>
AV-unprocessed.smi

> <i_m_source_file_index>
2614

> <i_lp_mmshare_version>
43012

> <i_f3d_flags>
0

> <s_epik_input>
W0NIM11jMW5jKFtDSDNdKW4objEpW0NIXTJbQ0gyXVtOSF1bQ0gyXTI=

> <s_epik_cmdline>
J2VwaWtfcHl0aG9uJywgJy1waCcsICc3LjAnLCAnLXRuJywgJzgnLCAnLW1hJywgJzIwMCcsICctbWV0YWxfYmluZGluZycsICctaW1hZScsICc8aW5maWxlLm1hZT4nLCAnLW9tYWUnLCAnPG91dGZpbGUubWFlPic=

> <r_lp_tautomer_probability>
1

> <r_epik_Ionization_Penalty>
0.00796611

> <r_epik_Ionization_Penalty_Charging>
0.00792139

> <r_epik_Ionization_Penalty_Neutral>
4.47227e-05

> <r_epik_State_Penalty>
0.00594323

> <r_epik_Charging_Adjusted_Penalty>
0.0138646

> <i_epik_Tot_Q>
1

> <i_epik_Tot_abs_Q>
1

> <r_epik_Metal_State_Penalty>
-0

> <b_epik_Metal_Only>
0

> <s_lp_Force_Field>
OPLS_2005

> <r_lp_Energy>
14.7939

> <b_lp_Chiralities_Consistent>
1

> <s_lp_Variant>
AV-unprocessed.smi:2614-1

> <Gold.Version>
5.8.1

> <Gold.Id.Protein>
6NUR|6NUR_protein|mol2

> <Gold.PLP.Fitness>
35.5634

> <Gold.PLP.PLP>
-29.6649

> <Gold.PLP.part.hbond>
-2.0000

> <Gold.PLP.part.metal>
0.0000

> <Gold.PLP.part.buried>
-4.2649

> <Gold.PLP.part.nonpolar>
-24.3339

> <Gold.PLP.part.repulsive>
0.1729

> <Gold.PLP.ligand.clash>
0.0000

> <Gold.PLP.ligand.torsion>
0.1223

> <Gold.PLP.Chemscore.Hbond>
1.9666

> <Gold.PLP.Chemscore.CHOScore>
0.0000

> <Gold.PLP.Chemscore.Metal>
0.0000

> <Gold.Chemscore.Hbonds>
donor molecule, donor type, donor heavy atom, donor atom, acceptor molecule, acceptor atom, score
      L1  H     9    21       P1  8029  0.03
      L1  H     9    24       P1  8028  1.92

> <Gold.PLP.Chemscore.Internal.Correction>
0.2431

> <Gold.Rescore>
     Score         DG    S(hbond)    S(metal)    S(lipo)     H(rot)  DE(clash)    DE(int)     intcor
     11.19     -11.61       0.85        0.00      49.98       1.00       0.20       0.22       ----

> <Gold.Chemscore.Fitness>
11.1925

> <Gold.Chemscore.DG>
-11.6062

> <Gold.Chemscore.ZeroCoef>
-5.4800

> <Gold.Chemscore.Hbond>
0.8500

> <Gold.Chemscore.Metal>
0.0000

> <Gold.Chemscore.Lipo>
49.9772

> <Gold.Chemscore.Internal_Hbond>
0.0000

> <Gold.Chemscore.DEClash>
0.1976

> <Gold.Chemscore.DEInternal>
0.2161

> <Gold.Chemscore.Rot>
1.0000

> <Gold.Chemscore.Internal.Correction>
   9.000000E+99

> <Gold.Chemscore.Hbonds>
donor molecule, donor type, donor heavy atom, donor atom, acceptor molecule, acceptor atom, score
      L1  H     9    21       P1  8029  0.02
      L1  H     9    24       P1  8028  0.35

> <Gold.Chemscore.Hbond.Weighted>
-2.8389

> <Gold.Chemscore.Metal.Weighted>
-0.0000

> <Gold.Chemscore.Lipo.Weighted>
-5.8473

> <Gold.Chemscore.Internal_Hbond.Weighted>
0.0000

> <Gold.Chemscore.DEClash.Weighted>
0.1976

> <Gold.Chemscore.DEInternal.Weighted>
0.2161

> <Gold.Chemscore.Rot.Weighted>
2.5600

> <Gold.Chemscore.Internal.Correction.Weighted>
   9.000000E+99

> <Gold.Protein.RotatedTorsions>
[ 6907 6896 6895 6894 ] final  149.19 input  -60.11 | X-H torsion
[ 7974 7965 7964 7962 ] final   83.31 input  175.53 | X-H torsion
[ 8008 7997 7996 7995 ] final  -39.26 input   59.86 | X-H torsion
[ 10167 10162 10161 10158 ] final -154.37 input  -65.29 | X-H torsion
[ 10718 10713 10712 10709 ] final  175.89 input   66.30 | X-H torsion
[ 10763 10752 10751 10750 ] final -136.24 input  -60.55 | X-H torsion
[ 11005 11000 10999 10996 ] final  132.54 input  -57.11 | X-H torsion

> <Gold.Protein.ActiveResidues>
 VAL166  LYS551  ARG553  GLY616  TRP617  ASP618  TYR619  PRO620  LYS621  CYS622 
 ASP623  PHE694  ASN695  SER759  ASP760  ASP761  ALA762  ILE779  LEU786  VAL792 
 PHE793  MET794  SER795  GLU796  ALA797  LYS798  CYS799  TRP800  GLU811  SER814 

> <Gold.Protein.RotatedAtoms>
  152.1313  133.4409  159.4721 H   0  0  0  0  0  0  0  0  0  0  0  0  # atno 6907 bound_to 6896
  150.6878  134.2417  159.4484 H   0  0  0  0  0  0  0  0  0  0  0  0  # atno 6908 bound_to 6896
  152.0301  134.9772  160.0623 H   0  0  0  0  0  0  0  0  0  0  0  0  # atno 6909 bound_to 6896
  145.6135  139.2372  143.2178 H   0  0  0  0  0  0  0  0  0  0  0  0  # atno 7974 bound_to 7965
  154.4025  140.1556  156.2835 H   0  0  0  0  0  0  0  0  0  0  0  0  # atno 8008 bound_to 7997
  155.8849  140.3442  155.5892 H   0  0  0  0  0  0  0  0  0  0  0  0  # atno 8009 bound_to 7997
  155.7625  140.0819  157.2138 H   0  0  0  0  0  0  0  0  0  0  0  0  # atno 8010 bound_to 7997
  139.7019  143.9249  152.2432 H   0  0  0  0  0  0  0  0  0  0  0  0  # atno 10167 bound_to 10162
  156.9281  130.9962  151.2992 H   0  0  0  0  0  0  0  0  0  0  0  0  # atno 10718 bound_to 10713
  154.8687  135.3678  154.5029 H   0  0  0  0  0  0  0  0  0  0  0  0  # atno 10763 bound_to 10752
  153.5669  135.7021  153.5527 H   0  0  0  0  0  0  0  0  0  0  0  0  # atno 10764 bound_to 10752
  153.3577  135.4055  155.1658 H   0  0  0  0  0  0  0  0  0  0  0  0  # atno 10765 bound_to 10752
  139.9796  134.9552  156.9597 H   0  0  0  0  0  0  0  0  0  0  0  0  # atno 11005 bound_to 11000
  146.1486  140.6958  142.9333 LP  0  0  0  0  0  0  0  0  0  0  0  0  # atno 17320 bound_to 7965
  144.7260  140.4525  143.6973 LP  0  0  0  0  0  0  0  0  0  0  0  0  # atno 17321 bound_to 7965
  139.9094  144.6865  150.8579 LP  0  0  0  0  0  0  0  0  0  0  0  0  # atno 17342 bound_to 10162
  140.7712  143.3454  151.2121 LP  0  0  0  0  0  0  0  0  0  0  0  0  # atno 17343 bound_to 10162
  157.5864  130.8413  149.8596 LP  0  0  0  0  0  0  0  0  0  0  0  0  # atno 17370 bound_to 10713
  156.0459  130.3728  150.1318 LP  0  0  0  0  0  0  0  0  0  0  0  0  # atno 17371 bound_to 10713
  140.5123  134.0990  155.7273 LP  0  0  0  0  0  0  0  0  0  0  0  0  # atno 17394 bound_to 11000
  141.1470  133.9037  157.2192 LP  0  0  0  0  0  0  0  0  0  0  0  0  # atno 17395 bound_to 11000

$$$$
