AV-unprocessed.smi:1999|AV-procd|sdf|8096|dock1
  -GOLD-   2272010313D 1   1.00000     0.00000
 Structure written by MMmdl.
 37 38  0  0  0  0  0  0  0  0  2 V2000
  154.5385  136.0411  162.4843 C   0  0  0  0  0  0  0  0  0  0  0  0
  154.2009  136.6709  161.1766 C   0  0  0  0  0  0  0  0  0  0  0  0
  153.9325  135.9593  160.0793 N   0  0  0  0  0  0  0  0  0  0  0  0
  153.6433  136.7682  158.9898 N   0  0  0  0  0  0  0  0  0  0  0  0
  153.6856  138.0764  159.2798 C   0  0  0  0  0  0  0  0  0  0  0  0
  153.4364  139.0256  158.3627 N   0  5  0  0  0  0  0  0  0  0  0  0
  152.2448  139.6658  158.3598 C   0  0  0  0  0  0  0  0  0  0  0  0
  151.3406  139.5283  159.1870 O   0  0  0  0  0  0  0  0  0  0  0  0
  152.0922  140.5178  157.3356 N   0  0  0  0  0  0  0  0  0  0  0  0
  150.9256  141.3612  157.0796 C   0  0  2  0  0  0  0  0  0  0  0  0
  150.3561  141.0639  155.6839 C   0  0  0  0  0  0  0  0  0  0  0  0
  151.3108  142.8486  157.2186 C   0  0  0  0  0  0  0  0  0  0  0  0
  151.2406  143.4013  158.5730 N   0  0  0  0  0  0  0  0  0  0  0  0
  151.3139  144.8604  158.5951 C   0  0  0  0  0  0  0  0  0  0  0  0
  151.2636  145.4153  160.0292 C   0  0  0  0  0  0  0  0  0  0  0  0
  152.3108  144.8402  160.8038 O   0  0  0  0  0  0  0  0  0  0  0  0
  152.2423  143.4187  160.8465 C   0  0  0  0  0  0  0  0  0  0  0  0
  152.3003  142.8581  159.4151 C   0  0  0  0  0  0  0  0  0  0  0  0
  154.1187  138.4107  160.9563 S   0  0  0  0  0  0  0  0  0  0  0  0
  153.6246  135.7812  163.0183 H   0  0  0  0  0  0  0  0  0  0  0  0
  155.1191  136.7310  163.0969 H   0  0  0  0  0  0  0  0  0  0  0  0
  155.1253  135.1353  162.3292 H   0  0  0  0  0  0  0  0  0  0  0  0
  152.8611  140.6006  156.6868 H   0  0  0  0  0  0  0  0  0  0  0  0
  150.1459  141.1330  157.8072 H   0  0  0  0  0  0  0  0  0  0  0  0
  149.4806  141.6805  155.4791 H   0  0  0  0  0  0  0  0  0  0  0  0
  150.0496  140.0213  155.5959 H   0  0  0  0  0  0  0  0  0  0  0  0
  151.0927  141.2611  154.9043 H   0  0  0  0  0  0  0  0  0  0  0  0
  152.3311  142.9623  156.8489 H   0  0  0  0  0  0  0  0  0  0  0  0
  150.6864  143.4443  156.5511 H   0  0  0  0  0  0  0  0  0  0  0  0
  152.2328  145.1929  158.1100 H   0  0  0  0  0  0  0  0  0  0  0  0
  150.4871  145.2899  158.0304 H   0  0  0  0  0  0  0  0  0  0  0  0
  151.3802  146.4991  160.0205 H   0  0  0  0  0  0  0  0  0  0  0  0
  150.2993  145.2001  160.4922 H   0  0  0  0  0  0  0  0  0  0  0  0
  153.0767  143.0393  161.4364 H   0  0  0  0  0  0  0  0  0  0  0  0
  151.3254  143.1053  161.3476 H   0  0  0  0  0  0  0  0  0  0  0  0
  152.2229  141.7710  159.4519 H   0  0  0  0  0  0  0  0  0  0  0  0
  153.2735  143.0867  158.9782 H   0  0  0  0  0  0  0  0  0  0  0  0
  1  2  1  0  0  0  0
  1 20  1  0  0  0  0
  1 21  1  0  0  0  0
  1 22  1  0  0  0  0
  2 19  1  0  0  0  0
  2  3  2  0  0  0  0
  3  4  1  0  0  0  0
  4  5  2  0  0  0  0
  5  6  1  0  0  0  0
  5 19  1  0  0  0  0
  6  7  1  0  0  0  0
  7  8  2  0  0  0  0
  7  9  1  0  0  0  0
  9 10  1  0  0  0  0
  9 23  1  0  0  0  0
 10 11  1  0  0  0  0
 10 12  1  0  0  0  0
 10 24  1  0  0  0  0
 11 25  1  0  0  0  0
 11 26  1  0  0  0  0
 11 27  1  0  0  0  0
 12 13  1  0  0  0  0
 12 28  1  0  0  0  0
 12 29  1  0  0  0  0
 13 18  1  0  0  0  0
 13 14  1  0  0  0  0
 14 15  1  0  0  0  0
 14 30  1  0  0  0  0
 14 31  1  0  0  0  0
 15 16  1  0  0  0  0
 15 32  1  0  0  0  0
 15 33  1  0  0  0  0
 16 17  1  0  0  0  0
 17 18  1  0  0  0  0
 17 34  1  0  0  0  0
 17 35  1  0  0  0  0
 18 36  1  0  0  0  0
 18 37  1  0  0  0  0
M  CHG  1   6  -1
M  END
> <s_m_source_file>
AV-unprocessed.smi

> <i_m_source_file_index>
1999

> <i_lp_mmshare_version>
43012

> <i_f3d_flags>
0

> <s_epik_input>
W0NIM11jMW5uYyhzMSlbTkhdQyg9TylbTkhdW0NASF0oW0NIM10pW0NIMl1OMltDSDJdW0NIMl1PW0NIMl1bQ0gyXTI=

> <s_epik_cmdline>
J2VwaWtfcHl0aG9uJywgJy1waCcsICc3LjAnLCAnLXRuJywgJzgnLCAnLW1hJywgJzIwMCcsICctbWV0YWxfYmluZGluZycsICctaW1hZScsICc8aW5maWxlLm1hZT4nLCAnLW9tYWUnLCAnPG91dGZpbGUubWFlPic=

> <r_lp_tautomer_probability>
1

> <r_epik_Ionization_Penalty>
3.74165

> <r_epik_Ionization_Penalty_Charging>
3.28066

> <r_epik_Ionization_Penalty_Neutral>
0.460988

> <r_epik_State_Penalty>
3.48767

> <r_epik_Charging_Adjusted_Penalty>
6.76834

> <i_epik_Tot_Q>
-1

> <i_epik_Tot_abs_Q>
1

> <r_epik_Metal_State_Penalty>
0.700129

> <b_epik_Metal_Only>
1

> <s_lp_Force_Field>
OPLS_2005

> <r_lp_Energy>
23.1925

> <b_lp_Chiralities_Consistent>
1

> <s_lp_Variant>
AV-unprocessed.smi:1999-5

> <Gold.Version>
5.8.1

> <Gold.Id.Protein>
6NUR|6NUR_protein|mol2

> <Gold.PLP.Fitness>
40.4843

> <Gold.PLP.PLP>
-33.5713

> <Gold.PLP.part.hbond>
-2.0000

> <Gold.PLP.part.metal>
0.0000

> <Gold.PLP.part.buried>
-4.2889

> <Gold.PLP.part.nonpolar>
-27.3065

> <Gold.PLP.part.repulsive>
0.3573

> <Gold.PLP.ligand.clash>
0.0000

> <Gold.PLP.ligand.torsion>
1.1328

> <Gold.PLP.Chemscore.Hbond>
3.0000

> <Gold.PLP.Chemscore.CHOScore>
0.0000

> <Gold.PLP.Chemscore.Metal>
0.0000

> <Gold.Chemscore.Hbonds>
donor molecule, donor type, donor heavy atom, donor atom, acceptor molecule, acceptor atom, score
      P1  H  6896  6908       L1     3  1.00
      P1  H  7997  8010       L1     6  1.98

> <Gold.PLP.Chemscore.Internal.Correction>
0.1785

> <Gold.Rescore>
     Score         DG    S(hbond)    S(metal)    S(lipo)     H(rot)  DE(clash)    DE(int)     intcor
     15.57     -16.75       1.54        0.00      86.35       1.56       0.06       1.11       ----

> <Gold.Chemscore.Fitness>
15.5742

> <Gold.Chemscore.DG>
-16.7454

> <Gold.Chemscore.ZeroCoef>
-5.4800

> <Gold.Chemscore.Hbond>
1.5402

> <Gold.Chemscore.Metal>
0.0000

> <Gold.Chemscore.Lipo>
86.3525

> <Gold.Chemscore.Internal_Hbond>
0.0000

> <Gold.Chemscore.DEClash>
0.0618

> <Gold.Chemscore.DEInternal>
1.1094

> <Gold.Chemscore.Rot>
1.5556

> <Gold.Chemscore.Internal.Correction>
   9.000000E+99

> <Gold.Chemscore.Hbonds>
donor molecule, donor type, donor heavy atom, donor atom, acceptor molecule, acceptor atom, score
      P1  H  6896  6908       L1     3  0.37
      P1  H  7997  8010       L1     6  0.69

> <Gold.Chemscore.Hbond.Weighted>
-5.1444

> <Gold.Chemscore.Metal.Weighted>
-0.0000

> <Gold.Chemscore.Lipo.Weighted>
-10.1032

> <Gold.Chemscore.Internal_Hbond.Weighted>
0.0000

> <Gold.Chemscore.DEClash.Weighted>
0.0618

> <Gold.Chemscore.DEInternal.Weighted>
1.1094

> <Gold.Chemscore.Rot.Weighted>
3.9823

> <Gold.Chemscore.Internal.Correction.Weighted>
   9.000000E+99

> <Gold.Protein.RotatedTorsions>
[ 6907 6896 6895 6894 ] final  -49.73 input  -60.11 | X-H torsion
[ 7974 7965 7964 7962 ] final -115.68 input  175.53 | X-H torsion
[ 8008 7997 7996 7995 ] final   21.09 input   59.86 | X-H torsion
[ 10167 10162 10161 10158 ] final  123.43 input  -65.29 | X-H torsion
[ 10718 10713 10712 10709 ] final -131.68 input   66.30 | X-H torsion
[ 10763 10752 10751 10750 ] final  159.45 input  -60.55 | X-H torsion
[ 11005 11000 10999 10996 ] final  158.30 input  -57.11 | X-H torsion

> <Gold.Protein.ActiveResidues>
 VAL166  LYS551  ARG553  GLY616  TRP617  ASP618  TYR619  PRO620  LYS621  CYS622 
 ASP623  PHE694  ASN695  SER759  ASP760  ASP761  ALA762  ILE779  LEU786  VAL792 
 PHE793  MET794  SER795  GLU796  ALA797  LYS798  CYS799  TRP800  GLU811  SER814 

> <Gold.Protein.RotatedAtoms>
  150.8777  134.8162  159.7201 H   0  0  0  0  0  0  0  0  0  0  0  0  # atno 6907 bound_to 6896
  152.4757  134.4846  159.9686 H   0  0  0  0  0  0  0  0  0  0  0  0  # atno 6908 bound_to 6896
  151.4925  133.3483  159.2891 H   0  0  0  0  0  0  0  0  0  0  0  0  # atno 6909 bound_to 6896
  145.1056  140.8579  143.3900 H   0  0  0  0  0  0  0  0  0  0  0  0  # atno 7974 bound_to 7965
  154.9453  140.3058  155.5101 H   0  0  0  0  0  0  0  0  0  0  0  0  # atno 8008 bound_to 7997
  156.2992  140.2329  156.4464 H   0  0  0  0  0  0  0  0  0  0  0  0  # atno 8009 bound_to 7997
  154.8106  140.0429  157.1328 H   0  0  0  0  0  0  0  0  0  0  0  0  # atno 8010 bound_to 7997
  139.5800  144.6982  151.3553 H   0  0  0  0  0  0  0  0  0  0  0  0  # atno 10167 bound_to 10162
  156.2268  130.7013  151.0816 H   0  0  0  0  0  0  0  0  0  0  0  0  # atno 10718 bound_to 10713
  154.2320  135.2778  155.2886 H   0  0  0  0  0  0  0  0  0  0  0  0  # atno 10763 bound_to 10752
  154.5616  135.5645  153.7016 H   0  0  0  0  0  0  0  0  0  0  0  0  # atno 10764 bound_to 10752
  153.0018  135.6299  154.2462 H   0  0  0  0  0  0  0  0  0  0  0  0  # atno 10765 bound_to 10752
  140.1852  134.8447  157.2849 H   0  0  0  0  0  0  0  0  0  0  0  0  # atno 11005 bound_to 11000
  145.0905  139.2893  143.5737 LP  0  0  0  0  0  0  0  0  0  0  0  0  # atno 17320 bound_to 7965
  146.3528  140.0441  142.8641 LP  0  0  0  0  0  0  0  0  0  0  0  0  # atno 17321 bound_to 7965
  140.7079  143.7466  150.7514 LP  0  0  0  0  0  0  0  0  0  0  0  0  # atno 17342 bound_to 10162
  140.0996  143.4800  152.2433 LP  0  0  0  0  0  0  0  0  0  0  0  0  # atno 17343 bound_to 10162
  157.7114  131.0732  150.6485 LP  0  0  0  0  0  0  0  0  0  0  0  0  # atno 17370 bound_to 10713
  156.6551  130.4496  149.5706 LP  0  0  0  0  0  0  0  0  0  0  0  0  # atno 17371 bound_to 10713
  140.2222  134.4010  155.7560 LP  0  0  0  0  0  0  0  0  0  0  0  0  # atno 17394 bound_to 11000
  141.2224  133.7172  156.8508 LP  0  0  0  0  0  0  0  0  0  0  0  0  # atno 17395 bound_to 11000

$$$$
