#       Name:                AV-unprocessed.smi:49
#       Creating user name   scv26
#       Creation time:       Thu Mar 26 16:34:22 2020


#       File generated by GOLD software.
#

@<TRIPOS>MOLECULE
AV-unprocessed.smi:49
    32    33     1
SMALL
NO_CHARGES


@<TRIPOS>ATOM
      1 ****        -3.7308   1.1417  -1.2946 C.3            1 S1                 0.0000
      2 ****        -3.4286  -0.2782  -0.8025 C.3            1 S1                 0.0000
      3 ****        -1.9886  -0.6381  -0.9624 C.2            1 S1                 0.0000
      4 ****        -1.0508  -0.3716  -0.0043 N.2            1 S1                 0.0000
      5 ****         0.0421  -0.8309  -0.6082 C.2            1 S1                 0.0000
      6 ****         1.4284  -0.8135  -0.0406 C.3            1 S1                 0.0000
      7 ****         2.0571   0.5923  -0.0812 C.3            1 S1                 0.0000
      8 ****         2.1081   1.0203   1.3820 C.3            1 S1                 0.0000
      9 ****         3.1539   1.9291   1.6534 O.3            1 S1                 0.0000
     10 ****         2.2935  -0.3095   2.1009 C.3            1 S1                 0.0000
     11 ****         1.4562  -1.2440   1.3621 N.3            1 S1                 0.0000
     12 ****        -0.2160  -1.3115  -1.8264 N.pl3          1 S1                 0.0000
     13 ****        -1.5350  -1.1906  -2.0865 N.2            1 S1                 0.0000
     14 ****         2.0459  -1.4871  -0.6365 H              1 S1                 0.0000
     15 ****         1.1553   1.4673   1.6700 H              1 S1                 0.0000
     16 ****         0.4418  -1.7059  -2.4835 H              1 S1                 0.0000
     17 ****        -4.7856   1.3825  -1.1618 H              1 S1                 0.0000
     18 ****        -3.4951   1.2496  -2.3537 H              1 S1                 0.0000
     19 ****        -3.1480   1.8808  -0.7441 H              1 S1                 0.0000
     20 ****        -3.7031  -0.3713   0.2489 H              1 S1                 0.0000
     21 ****        -4.0419  -0.9977  -1.3466 H              1 S1                 0.0000
     22 ****         3.0707   0.5142  -0.4778 H              1 S1                 0.0000
     23 ****         1.5152   1.2996  -0.7107 H              1 S1                 0.0000
     24 ****         3.1416   2.1328   2.5762 H              1 S1                 0.0000
     25 ****         3.3360  -0.6250   2.0389 H              1 S1                 0.0000
     26 ****         2.0196  -0.2620   3.1551 H              1 S1                 0.0000
     27 ****         1.8579  -2.1733   1.4328 H              1 S1                 0.0000
     28 ****        -1.1564   0.0497   0.8965 LP             1 S1                 0.0000
     29 ****         3.0208   2.7653   1.1215 LP             1 S1                 0.0000
     30 ****         4.0316   1.5158   1.4108 LP             1 S1                 0.0000
     31 ****         0.5272  -1.2630   1.7318 LP             1 S1                 0.0000
     32 ****        -2.0406  -1.4489  -2.9097 LP             1 S1                 0.0000
@<TRIPOS>BOND
    1    1    2 1     
    2    1   17 1     
    3    1   18 1     
    4    1   19 1     
    5    2   20 1     
    6    2   21 1     
    7    2    3 1     
    8    3    4 1     
    9    3   13 2     
   10    4    5 2     
   11    5    6 1     
   12    5   12 1     
   13    6   14 1     
   14    6   11 1     
   15    6    7 1     
   16    7    8 1     
   17    7   22 1     
   18    7   23 1     
   19    8   15 1     
   20    8    9 1     
   21    8   10 1     
   22    9   24 1     
   23   10   11 1     
   24   10   25 1     
   25   10   26 1     
   26   11   27 1     
   27   12   13 1     
   28   12   16 1     
   29    4   28 1     
   30    9   29 1     
   31    9   30 1     
   32   11   31 1     
   33   13   32 1     
@<TRIPOS>SUBSTRUCTURE
      1 S1             1
@<TRIPOS>SET
LONE_PAIRS      STATIC     ATOMS    <user>   **** ""
5 28 29 30 31 32
DONOR_HYDROGENS      STATIC     ATOMS    <user>   **** ""
3 24 27 16
ATOM$BLUE        STATIC     ATOMS    COLORGROUP SYSTEM
5 28 29 30 31 32
ATOM$RED        STATIC     ATOMS    COLORGROUP SYSTEM
3 24 27 16
